MODEL 1
REMARK VINA RESULT:      -4.9      0.000      0.000
REMARK  1 active torsions:
REMARK  status: ('A' for Active; 'I' for Inactive)
REMARK    1  A    between atoms: C3_3  and  C4_4 
ROOT
HETATM    1  C1  UNL     1     -33.762   8.283   5.395  1.00 20.00     0.061 C 
HETATM    2  C2  UNL     1     -32.747   8.795   4.696  1.00 20.00     0.087 C 
HETATM    3  C4  UNL     1     -34.018   6.877   4.971  1.00 20.00     0.376 C 
HETATM    4  C5  UNL     1     -32.232   7.785   3.731  1.00 20.00     0.463 C 
HETATM    5  C6  UNL     1     -33.220   5.666   2.980  1.00 20.00     0.324 C 
HETATM    6  N7  UNL     1     -32.878   6.515   4.108  1.00 20.00     0.211 N 
HETATM    7  F9  UNL     1     -35.203   6.786   4.310  1.00 20.00    -0.195 F 
HETATM    8  F10 UNL     1     -32.524   8.147   2.456  1.00 20.00    -0.169 F 
HETATM    9  F11 UNL     1     -30.883   7.653   3.809  1.00 20.00    -0.169 F 
ENDROOT
BRANCH   3  10
HETATM   10  C3  UNL     1     -33.988   5.992   6.172  1.00 20.00     0.312 C 
HETATM   11  O8  UNL     1     -34.705   5.006   6.303  1.00 20.00    -0.301 OA
ENDBRANCH   3  10
TORSDOF 1
ENDMDL
MODEL 2
REMARK VINA RESULT:      -4.9      2.253      3.299
REMARK  1 active torsions:
REMARK  status: ('A' for Active; 'I' for Inactive)
REMARK    1  A    between atoms: C3_3  and  C4_4 
ROOT
HETATM    1  C1  UNL     1     -34.831   4.911   5.346  1.00 20.00     0.061 C 
HETATM    2  C2  UNL     1     -34.501   5.399   6.544  1.00 20.00     0.087 C 
HETATM    3  C4  UNL     1     -34.400   5.854   4.274  1.00 20.00     0.376 C 
HETATM    4  C5  UNL     1     -33.826   6.716   6.390  1.00 20.00     0.463 C 
HETATM    5  C6  UNL     1     -33.686   8.205   4.443  1.00 20.00     0.324 C 
HETATM    6  N7  UNL     1     -33.548   6.850   4.950  1.00 20.00     0.211 N 
HETATM    7  F9  UNL     1     -35.480   6.428   3.681  1.00 20.00    -0.195 F 
HETATM    8  F10 UNL     1     -34.618   7.718   6.852  1.00 20.00    -0.169 F 
HETATM    9  F11 UNL     1     -32.663   6.773   7.089  1.00 20.00    -0.169 F 
ENDROOT
BRANCH   3  10
HETATM   10  C3  UNL     1     -33.557   5.117   3.289  1.00 20.00     0.312 C 
HETATM   11  O8  UNL     1     -32.717   5.659   2.578  1.00 20.00    -0.301 OA
ENDBRANCH   3  10
TORSDOF 1
ENDMDL
MODEL 3
REMARK VINA RESULT:      -4.4      2.340      3.829
REMARK  1 active torsions:
REMARK  status: ('A' for Active; 'I' for Inactive)
REMARK    1  A    between atoms: C3_3  and  C4_4 
ROOT
HETATM    1  C1  UNL     1     -34.164   5.758   3.810  1.00 20.00     0.061 C 
HETATM    2  C2  UNL     1     -34.498   4.922   4.795  1.00 20.00     0.087 C 
HETATM    3  C4  UNL     1     -33.687   7.052   4.377  1.00 20.00     0.376 C 
HETATM    4  C5  UNL     1     -34.286   5.577   6.115  1.00 20.00     0.463 C 
HETATM    5  C6  UNL     1     -33.904   7.939   6.664  1.00 20.00     0.324 C 
HETATM    6  N7  UNL     1     -33.537   6.812   5.825  1.00 20.00     0.211 N 
HETATM    7  F9  UNL     1     -34.580   8.044   4.118  1.00 20.00    -0.195 F 
HETATM    8  F10 UNL     1     -35.475   5.832   6.720  1.00 20.00    -0.169 F 
HETATM    9  F11 UNL     1     -33.569   4.793   6.959  1.00 20.00    -0.169 F 
ENDROOT
BRANCH   3  10
HETATM   10  C3  UNL     1     -32.340   7.362   3.817  1.00 20.00     0.312 C 
HETATM   11  O8  UNL     1     -32.125   7.517   2.620  1.00 20.00    -0.301 OA
ENDBRANCH   3  10
TORSDOF 1
ENDMDL
MODEL 4
REMARK VINA RESULT:      -4.4      2.163      3.520
REMARK  1 active torsions:
REMARK  status: ('A' for Active; 'I' for Inactive)
REMARK    1  A    between atoms: C3_3  and  C4_4 
ROOT
HETATM    1  C1  UNL     1     -33.160   8.038   5.366  1.00 20.00     0.061 C 
HETATM    2  C2  UNL     1     -34.066   7.172   5.826  1.00 20.00     0.087 C 
HETATM    3  C4  UNL     1     -32.719   7.639   3.999  1.00 20.00     0.376 C 
HETATM    4  C5  UNL     1     -34.311   6.107   4.816  1.00 20.00     0.463 C 
HETATM    5  C6  UNL     1     -33.036   5.508   2.806  1.00 20.00     0.324 C 
HETATM    6  N7  UNL     1     -33.647   6.570   3.586  1.00 20.00     0.211 N 
HETATM    7  F9  UNL     1     -31.429   7.210   4.020  1.00 20.00    -0.195 F 
HETATM    8  F10 UNL     1     -33.817   4.917   5.245  1.00 20.00    -0.169 F 
HETATM    9  F11 UNL     1     -35.636   5.927   4.582  1.00 20.00    -0.169 F 
ENDROOT
BRANCH   3  10
HETATM   10  C3  UNL     1     -32.901   8.793   3.072  1.00 20.00     0.312 C 
HETATM   11  O8  UNL     1     -32.505   8.798   1.911  1.00 20.00    -0.301 OA
ENDBRANCH   3  10
TORSDOF 1
ENDMDL
MODEL 5
REMARK VINA RESULT:      -4.4      9.283     10.147
REMARK  1 active torsions:
REMARK  status: ('A' for Active; 'I' for Inactive)
REMARK    1  A    between atoms: C3_3  and  C4_4 
ROOT
HETATM    1  C1  UNL     1     -40.960   5.541  -0.497  1.00 20.00     0.061 C 
HETATM    2  C2  UNL     1     -40.511   6.794  -0.396  1.00 20.00     0.087 C 
HETATM    3  C4  UNL     1     -42.275   5.412   0.194  1.00 20.00     0.376 C 
HETATM    4  C5  UNL     1     -41.476   7.621   0.378  1.00 20.00     0.463 C 
HETATM    5  C6  UNL     1     -43.371   6.941   1.783  1.00 20.00     0.324 C 
HETATM    6  N7  UNL     1     -42.687   6.793   0.510  1.00 20.00     0.211 N 
HETATM    7  F9  UNL     1     -42.153   4.650   1.313  1.00 20.00    -0.195 F 
HETATM    8  F10 UNL     1     -40.956   7.960   1.586  1.00 20.00    -0.169 F 
HETATM    9  F11 UNL     1     -41.779   8.778  -0.264  1.00 20.00    -0.169 F 
ENDROOT
BRANCH   3  10
HETATM   10  C3  UNL     1     -43.271   4.839  -0.758  1.00 20.00     0.312 C 
HETATM   11  O8  UNL     1     -43.024   4.608  -1.937  1.00 20.00    -0.301 OA
ENDBRANCH   3  10
TORSDOF 1
ENDMDL
MODEL 6
REMARK VINA RESULT:      -4.3      9.320     10.349
REMARK  1 active torsions:
REMARK  status: ('A' for Active; 'I' for Inactive)
REMARK    1  A    between atoms: C3_3  and  C4_4 
ROOT
HETATM    1  C1  UNL     1     -43.003   7.230   1.602  1.00 20.00     0.061 C 
HETATM    2  C2  UNL     1     -43.396   5.959   1.710  1.00 20.00     0.087 C 
HETATM    3  C4  UNL     1     -41.907   7.344   0.598  1.00 20.00     0.376 C 
HETATM    4  C5  UNL     1     -42.595   5.099   0.796  1.00 20.00     0.463 C 
HETATM    5  C6  UNL     1     -40.513   5.583  -0.412  1.00 20.00     0.324 C 
HETATM    6  N7  UNL     1     -41.852   6.031  -0.071  1.00 20.00     0.211 N 
HETATM    7  F9  UNL     1     -40.731   7.652   1.208  1.00 20.00    -0.195 F 
HETATM    8  F10 UNL     1     -41.766   4.289   1.503  1.00 20.00    -0.169 F 
HETATM    9  F11 UNL     1     -43.383   4.297   0.036  1.00 20.00    -0.169 F 
ENDROOT
BRANCH   3  10
HETATM   10  C3  UNL     1     -42.283   8.367  -0.420  1.00 20.00     0.312 C 
HETATM   11  O8  UNL     1     -43.417   8.819  -0.537  1.00 20.00    -0.301 OA
ENDBRANCH   3  10
TORSDOF 1
ENDMDL
MODEL 7
REMARK VINA RESULT:      -4.2     12.261     13.103
REMARK  1 active torsions:
REMARK  status: ('A' for Active; 'I' for Inactive)
REMARK    1  A    between atoms: C3_3  and  C4_4 
ROOT
HETATM    1  C1  UNL     1     -35.521  14.203  -4.913  1.00 20.00     0.061 C 
HETATM    2  C2  UNL     1     -34.474  14.070  -4.096  1.00 20.00     0.087 C 
HETATM    3  C4  UNL     1     -35.527  15.564  -5.521  1.00 20.00     0.376 C 
HETATM    4  C5  UNL     1     -33.684  15.331  -4.072  1.00 20.00     0.463 C 
HETATM    5  C6  UNL     1     -34.263  17.577  -4.877  1.00 20.00     0.324 C 
HETATM    6  N7  UNL     1     -34.222  16.155  -5.168  1.00 20.00     0.211 N 
HETATM    7  F9  UNL     1     -36.563  16.298  -5.037  1.00 20.00    -0.195 F 
HETATM    8  F10 UNL     1     -33.800  15.948  -2.867  1.00 20.00    -0.169 F 
HETATM    9  F11 UNL     1     -32.361  15.104  -4.276  1.00 20.00    -0.169 F 
ENDROOT
BRANCH   3  10
HETATM   10  C3  UNL     1     -35.589  15.434  -7.006  1.00 20.00     0.312 C 
HETATM   11  O8  UNL     1     -36.052  14.454  -7.580  1.00 20.00    -0.301 OA
ENDBRANCH   3  10
TORSDOF 1
ENDMDL
MODEL 8
REMARK VINA RESULT:      -4.0      1.619      2.573
REMARK  1 active torsions:
REMARK  status: ('A' for Active; 'I' for Inactive)
REMARK    1  A    between atoms: C3_3  and  C4_4 
ROOT
HETATM    1  C1  UNL     1     -33.367   5.435   3.440  1.00 20.00     0.061 C 
HETATM    2  C2  UNL     1     -32.640   6.440   2.948  1.00 20.00     0.087 C 
HETATM    3  C4  UNL     1     -34.073   5.873   4.678  1.00 20.00     0.376 C 
HETATM    4  C5  UNL     1     -32.782   7.643   3.812  1.00 20.00     0.463 C 
HETATM    5  C6  UNL     1     -33.700   7.864   6.078  1.00 20.00     0.324 C 
HETATM    6  N7  UNL     1     -33.885   7.335   4.738  1.00 20.00     0.211 N 
HETATM    7  F9  UNL     1     -33.554   5.250   5.770  1.00 20.00    -0.195 F 
HETATM    8  F10 UNL     1     -31.622   7.902   4.469  1.00 20.00    -0.169 F 
HETATM    9  F11 UNL     1     -33.087   8.751   3.090  1.00 20.00    -0.169 F 
ENDROOT
BRANCH   3  10
HETATM   10  C3  UNL     1     -35.532   5.600   4.529  1.00 20.00     0.312 C 
HETATM   11  O8  UNL     1     -36.299   6.338   3.919  1.00 20.00    -0.301 OA
ENDBRANCH   3  10
TORSDOF 1
ENDMDL
MODEL 9
REMARK VINA RESULT:      -4.0     12.689     13.494
REMARK  1 active torsions:
REMARK  status: ('A' for Active; 'I' for Inactive)
REMARK    1  A    between atoms: C3_3  and  C4_4 
ROOT
HETATM    1  C1  UNL     1     -33.692  15.009  -4.148  1.00 20.00     0.061 C 
HETATM    2  C2  UNL     1     -33.285  15.995  -3.345  1.00 20.00     0.087 C 
HETATM    3  C4  UNL     1     -34.557  15.556  -5.232  1.00 20.00     0.376 C 
HETATM    4  C5  UNL     1     -33.844  17.294  -3.810  1.00 20.00     0.463 C 
HETATM    5  C6  UNL     1     -35.642  17.760  -5.416  1.00 20.00     0.324 C 
HETATM    6  N7  UNL     1     -34.422  17.022  -5.137  1.00 20.00     0.211 N 
HETATM    7  F9  UNL     1     -35.845  15.154  -5.065  1.00 20.00    -0.195 F 
HETATM    8  F10 UNL     1     -34.773  17.757  -2.935  1.00 20.00    -0.169 F 
HETATM    9  F11 UNL     1     -32.884  18.249  -3.915  1.00 20.00    -0.169 F 
ENDROOT
BRANCH   3  10
HETATM   10  C3  UNL     1     -34.012  15.126  -6.553  1.00 20.00     0.312 C 
HETATM   11  O8  UNL     1     -34.691  15.048  -7.571  1.00 20.00    -0.301 OA
ENDBRANCH   3  10
TORSDOF 1
ENDMDL
