MODEL 1
REMARK VINA RESULT:      -5.4      0.000      0.000
REMARK  2 active torsions:
REMARK  status: ('A' for Active; 'I' for Inactive)
REMARK    1  A    between atoms: C4_4  and  C5_5 
REMARK    2  A    between atoms: C9_9  and  C11_11 
ROOT
HETATM    1  C1  UNL     1     -32.546   9.129  -0.068  1.00 20.00     0.012 C 
HETATM    2  C2  UNL     1     -32.773   9.297   1.100  1.00 20.00    -0.117 C 
HETATM    3  C11 UNL     1     -33.057   9.509   2.522  1.00 20.00     0.098 C 
ENDROOT
BRANCH   3   4
HETATM    4  C9  UNL     1     -32.057   8.752   3.401  1.00 20.00     0.000 C 
HETATM    5  C6  UNL     1     -32.434   8.846   4.892  1.00 20.00     0.033 C 
HETATM    6  C3  UNL     1     -33.476   7.853   5.324  1.00 20.00    -0.016 C 
HETATM    7  C4  UNL     1     -33.821   6.797   4.575  1.00 20.00    -0.016 C 
HETATM    8  C7  UNL     1     -33.203   6.473   3.248  1.00 20.00     0.042 C 
HETATM    9  C8  UNL     1     -31.929   7.282   2.976  1.00 20.00     0.010 C 
BRANCH   7  10
HETATM   10  C5  UNL     1     -34.856   5.899   5.097  1.00 20.00     0.151 C 
HETATM   11  C10 UNL     1     -34.631   5.270   6.449  1.00 20.00     0.096 C 
HETATM   12  O12 UNL     1     -35.874   5.664   4.442  1.00 20.00    -0.293 OA
ENDBRANCH   7  10
ENDBRANCH   3   4
TORSDOF 2
ENDMDL
MODEL 2
REMARK VINA RESULT:      -4.5     10.820     12.126
REMARK  2 active torsions:
REMARK  status: ('A' for Active; 'I' for Inactive)
REMARK    1  A    between atoms: C4_4  and  C5_5 
REMARK    2  A    between atoms: C9_9  and  C11_11 
ROOT
HETATM    1  C1  UNL     1     -31.278  18.519   1.958  1.00 20.00     0.012 C 
HETATM    2  C2  UNL     1     -31.349  18.511   0.759  1.00 20.00    -0.117 C 
HETATM    3  C11 UNL     1     -31.425  18.500  -0.705  1.00 20.00     0.098 C 
ENDROOT
BRANCH   3   4
HETATM    4  C9  UNL     1     -32.814  18.930  -1.187  1.00 20.00     0.000 C 
HETATM    5  C6  UNL     1     -32.810  19.263  -2.692  1.00 20.00     0.033 C 
HETATM    6  C3  UNL     1     -32.936  18.061  -3.585  1.00 20.00    -0.016 C 
HETATM    7  C4  UNL     1     -33.318  16.860  -3.130  1.00 20.00    -0.016 C 
HETATM    8  C7  UNL     1     -33.681  16.581  -1.703  1.00 20.00     0.042 C 
HETATM    9  C8  UNL     1     -33.874  17.861  -0.881  1.00 20.00     0.010 C 
BRANCH   7  10
HETATM   10  C5  UNL     1     -33.398  15.760  -4.095  1.00 20.00     0.151 C 
HETATM   11  C10 UNL     1     -34.453  15.836  -5.170  1.00 20.00     0.096 C 
HETATM   12  O12 UNL     1     -32.628  14.799  -4.020  1.00 20.00    -0.293 OA
ENDBRANCH   7  10
ENDBRANCH   3   4
TORSDOF 2
ENDMDL
MODEL 3
REMARK VINA RESULT:      -4.4     11.054     12.342
REMARK  2 active torsions:
REMARK  status: ('A' for Active; 'I' for Inactive)
REMARK    1  A    between atoms: C4_4  and  C5_5 
REMARK    2  A    between atoms: C9_9  and  C11_11 
ROOT
HETATM    1  C1  UNL     1     -32.922  18.645  -0.304  1.00 20.00     0.012 C 
HETATM    2  C2  UNL     1     -33.255  17.753  -1.035  1.00 20.00    -0.117 C 
HETATM    3  C11 UNL     1     -33.668  16.658  -1.918  1.00 20.00     0.098 C 
ENDROOT
BRANCH   3   4
HETATM    4  C9  UNL     1     -32.935  16.730  -3.262  1.00 20.00     0.000 C 
HETATM    5  C6  UNL     1     -32.883  15.352  -3.950  1.00 20.00     0.033 C 
HETATM    6  C3  UNL     1     -34.128  15.003  -4.715  1.00 20.00    -0.016 C 
HETATM    7  C4  UNL     1     -35.064  15.910  -5.025  1.00 20.00    -0.016 C 
HETATM    8  C7  UNL     1     -34.971  17.363  -4.670  1.00 20.00     0.042 C 
HETATM    9  C8  UNL     1     -33.570  17.769  -4.198  1.00 20.00     0.010 C 
BRANCH   7  10
HETATM   10  C5  UNL     1     -36.240  15.450  -5.769  1.00 20.00     0.151 C 
HETATM   11  C10 UNL     1     -37.506  16.263  -5.666  1.00 20.00     0.096 C 
HETATM   12  O12 UNL     1     -36.191  14.424  -6.451  1.00 20.00    -0.293 OA
ENDBRANCH   7  10
ENDBRANCH   3   4
TORSDOF 2
ENDMDL
MODEL 4
REMARK VINA RESULT:      -4.2     11.284     12.737
REMARK  2 active torsions:
REMARK  status: ('A' for Active; 'I' for Inactive)
REMARK    1  A    between atoms: C4_4  and  C5_5 
REMARK    2  A    between atoms: C9_9  and  C11_11 
ROOT
HETATM    1  C1  UNL     1     -31.027  18.870   0.161  1.00 20.00     0.012 C 
HETATM    2  C2  UNL     1     -31.777  18.901  -0.777  1.00 20.00    -0.117 C 
HETATM    3  C11 UNL     1     -32.686  18.947  -1.926  1.00 20.00     0.098 C 
ENDROOT
BRANCH   3   4
HETATM    4  C9  UNL     1     -33.929  18.086  -1.679  1.00 20.00     0.000 C 
HETATM    5  C6  UNL     1     -35.114  18.542  -2.552  1.00 20.00     0.033 C 
HETATM    6  C3  UNL     1     -35.088  17.998  -3.952  1.00 20.00    -0.016 C 
HETATM    7  C4  UNL     1     -34.292  16.983  -4.318  1.00 20.00    -0.016 C 
HETATM    8  C7  UNL     1     -33.365  16.267  -3.384  1.00 20.00     0.042 C 
HETATM    9  C8  UNL     1     -33.640  16.595  -1.911  1.00 20.00     0.010 C 
BRANCH   7  10
HETATM   10  C5  UNL     1     -34.349  16.542  -5.715  1.00 20.00     0.151 C 
HETATM   11  C10 UNL     1     -34.114  15.082  -6.006  1.00 20.00     0.096 C 
HETATM   12  O12 UNL     1     -34.575  17.348  -6.620  1.00 20.00    -0.293 OA
ENDBRANCH   7  10
ENDBRANCH   3   4
TORSDOF 2
ENDMDL
MODEL 5
REMARK VINA RESULT:      -4.2     11.109     11.783
REMARK  2 active torsions:
REMARK  status: ('A' for Active; 'I' for Inactive)
REMARK    1  A    between atoms: C4_4  and  C5_5 
REMARK    2  A    between atoms: C9_9  and  C11_11 
ROOT
HETATM    1  C1  UNL     1     -34.235  14.978  -4.207  1.00 20.00     0.012 C 
HETATM    2  C2  UNL     1     -33.586  15.699  -3.500  1.00 20.00    -0.117 C 
HETATM    3  C11 UNL     1     -32.787  16.571  -2.634  1.00 20.00     0.098 C 
ENDROOT
BRANCH   3   4
HETATM    4  C9  UNL     1     -33.458  17.937  -2.458  1.00 20.00     0.000 C 
HETATM    5  C6  UNL     1     -34.446  17.932  -1.275  1.00 20.00     0.033 C 
HETATM    6  C3  UNL     1     -33.798  18.143   0.064  1.00 20.00    -0.016 C 
HETATM    7  C4  UNL     1     -32.543  18.593   0.196  1.00 20.00    -0.016 C 
HETATM    8  C7  UNL     1     -31.657  18.954  -0.957  1.00 20.00     0.042 C 
HETATM    9  C8  UNL     1     -32.423  19.058  -2.282  1.00 20.00     0.010 C 
BRANCH   7  10
HETATM   10  C5  UNL     1     -32.015  18.754   1.554  1.00 20.00     0.151 C 
HETATM   11  C10 UNL     1     -30.614  18.272   1.832  1.00 20.00     0.096 C 
HETATM   12  O12 UNL     1     -32.706  19.263   2.441  1.00 20.00    -0.293 OA
ENDBRANCH   7  10
ENDBRANCH   3   4
TORSDOF 2
ENDMDL
MODEL 6
REMARK VINA RESULT:      -4.2     10.223     10.977
REMARK  2 active torsions:
REMARK  status: ('A' for Active; 'I' for Inactive)
REMARK    1  A    between atoms: C4_4  and  C5_5 
REMARK    2  A    between atoms: C9_9  and  C11_11 
ROOT
HETATM    1  C1  UNL     1     -38.949  11.644   3.962  1.00 20.00     0.012 C 
HETATM    2  C2  UNL     1     -39.458  11.963   5.002  1.00 20.00    -0.117 C 
HETATM    3  C11 UNL     1     -40.075  12.344   6.276  1.00 20.00     0.098 C 
ENDROOT
BRANCH   3   4
HETATM    4  C9  UNL     1     -40.947  13.593   6.113  1.00 20.00     0.000 C 
HETATM    5  C6  UNL     1     -42.436  13.277   6.348  1.00 20.00     0.033 C 
HETATM    6  C3  UNL     1     -42.837  13.257   7.796  1.00 20.00    -0.016 C 
HETATM    7  C4  UNL     1     -42.063  13.759   8.767  1.00 20.00    -0.016 C 
HETATM    8  C7  UNL     1     -40.735  14.411   8.526  1.00 20.00     0.042 C 
HETATM    9  C8  UNL     1     -40.490  14.727   7.045  1.00 20.00     0.010 C 
BRANCH   7  10
HETATM   10  C5  UNL     1     -42.557  13.678  10.144  1.00 20.00     0.151 C 
HETATM   11  C10 UNL     1     -43.345  14.844  10.684  1.00 20.00     0.096 C 
HETATM   12  O12 UNL     1     -42.325  12.685  10.838  1.00 20.00    -0.293 OA
ENDBRANCH   7  10
ENDBRANCH   3   4
TORSDOF 2
ENDMDL
MODEL 7
REMARK VINA RESULT:      -4.2     11.090     12.253
REMARK  2 active torsions:
REMARK  status: ('A' for Active; 'I' for Inactive)
REMARK    1  A    between atoms: C4_4  and  C5_5 
REMARK    2  A    between atoms: C9_9  and  C11_11 
ROOT
HETATM    1  C1  UNL     1     -33.730  18.125   0.302  1.00 20.00     0.012 C 
HETATM    2  C2  UNL     1     -34.105  18.143  -0.839  1.00 20.00    -0.117 C 
HETATM    3  C11 UNL     1     -34.573  18.165  -2.228  1.00 20.00     0.098 C 
ENDROOT
BRANCH   3   4
HETATM    4  C9  UNL     1     -33.412  17.947  -3.203  1.00 20.00     0.000 C 
HETATM    5  C6  UNL     1     -32.852  16.515  -3.103  1.00 20.00     0.033 C 
HETATM    6  C3  UNL     1     -33.628  15.497  -3.890  1.00 20.00    -0.016 C 
HETATM    7  C4  UNL     1     -34.526  15.838  -4.825  1.00 20.00    -0.016 C 
HETATM    8  C7  UNL     1     -34.842  17.253  -5.205  1.00 20.00     0.042 C 
HETATM    9  C8  UNL     1     -33.824  18.257  -4.651  1.00 20.00     0.010 C 
BRANCH   7  10
HETATM   10  C5  UNL     1     -35.227  14.758  -5.524  1.00 20.00     0.151 C 
HETATM   11  C10 UNL     1     -35.947  13.726  -4.693  1.00 20.00     0.096 C 
HETATM   12  O12 UNL     1     -35.217  14.695  -6.756  1.00 20.00    -0.293 OA
ENDBRANCH   7  10
ENDBRANCH   3   4
TORSDOF 2
ENDMDL
MODEL 8
REMARK VINA RESULT:      -4.1     10.310     11.154
REMARK  2 active torsions:
REMARK  status: ('A' for Active; 'I' for Inactive)
REMARK    1  A    between atoms: C4_4  and  C5_5 
REMARK    2  A    between atoms: C9_9  and  C11_11 
ROOT
HETATM    1  C1  UNL     1     -42.286  18.003   5.100  1.00 20.00     0.012 C 
HETATM    2  C2  UNL     1     -42.445  17.013   5.761  1.00 20.00    -0.117 C 
HETATM    3  C11 UNL     1     -42.634  15.810   6.577  1.00 20.00     0.098 C 
ENDROOT
BRANCH   3   4
HETATM    4  C9  UNL     1     -43.230  14.670   5.745  1.00 20.00     0.000 C 
HETATM    5  C6  UNL     1     -42.448  14.459   4.435  1.00 20.00     0.033 C 
HETATM    6  C3  UNL     1     -41.211  13.621   4.588  1.00 20.00    -0.016 C 
HETATM    7  C4  UNL     1     -40.970  12.880   5.679  1.00 20.00    -0.016 C 
HETATM    8  C7  UNL     1     -41.904  12.783   6.847  1.00 20.00     0.042 C 
HETATM    9  C8  UNL     1     -43.292  13.360   6.545  1.00 20.00     0.010 C 
BRANCH   7  10
HETATM   10  C5  UNL     1     -39.725  12.108   5.718  1.00 20.00     0.151 C 
HETATM   11  C10 UNL     1     -39.126  11.663   4.408  1.00 20.00     0.096 C 
HETATM   12  O12 UNL     1     -39.193  11.828   6.795  1.00 20.00    -0.293 OA
ENDBRANCH   7  10
ENDBRANCH   3   4
TORSDOF 2
ENDMDL
MODEL 9
REMARK VINA RESULT:      -3.8     11.125     12.883
REMARK  2 active torsions:
REMARK  status: ('A' for Active; 'I' for Inactive)
REMARK    1  A    between atoms: C4_4  and  C5_5 
REMARK    2  A    between atoms: C9_9  and  C11_11 
ROOT
HETATM    1  C1  UNL     1     -32.926  17.484  -1.840  1.00 20.00     0.012 C 
HETATM    2  C2  UNL     1     -33.335  16.621  -2.567  1.00 20.00    -0.117 C 
HETATM    3  C11 UNL     1     -33.834  15.560  -3.447  1.00 20.00     0.098 C 
ENDROOT
BRANCH   3   4
HETATM    4  C9  UNL     1     -33.816  16.006  -4.912  1.00 20.00     0.000 C 
HETATM    5  C6  UNL     1     -34.553  15.001  -5.818  1.00 20.00     0.033 C 
HETATM    6  C3  UNL     1     -36.045  15.180  -5.843  1.00 20.00    -0.016 C 
HETATM    7  C4  UNL     1     -36.649  16.281  -5.375  1.00 20.00    -0.016 C 
HETATM    8  C7  UNL     1     -35.918  17.456  -4.800  1.00 20.00     0.042 C 
HETATM    9  C8  UNL     1     -34.411  17.412  -5.083  1.00 20.00     0.010 C 
BRANCH   7  10
HETATM   10  C5  UNL     1     -38.111  16.339  -5.447  1.00 20.00     0.151 C 
HETATM   11  C10 UNL     1     -38.743  17.583  -6.018  1.00 20.00     0.096 C 
HETATM   12  O12 UNL     1     -38.799  15.398  -5.043  1.00 20.00    -0.293 OA
ENDBRANCH   7  10
ENDBRANCH   3   4
TORSDOF 2
ENDMDL
