MODEL 1
REMARK VINA RESULT:      -3.8      0.000      0.000
REMARK  0 active torsions:
REMARK  status: ('A' for Active; 'I' for Inactive)
ROOT
HETATM    1  C1  UNL     1     -33.793   6.175   4.445  1.00 20.00     0.036 C 
HETATM    2  C2  UNL     1     -32.941   8.706   3.871  1.00 20.00     0.297 C 
HETATM    3  C3  UNL     1     -33.426   7.060   5.634  1.00 20.00     0.263 C 
HETATM    4  C4  UNL     1     -32.297   7.468   3.243  1.00 20.00     0.132 C 
HETATM    5  C5  UNL     1     -34.764   5.036   4.611  1.00 20.00     0.067 C 
HETATM    6  C6  UNL     1     -34.309   6.876   6.864  1.00 20.00     0.049 C 
HETATM    7  C7  UNL     1     -31.922   7.722   1.788  1.00 20.00     0.036 C 
HETATM    8  N8  UNL     1     -33.249   6.349   3.283  1.00 20.00    -0.290 NA
HETATM    9  N9  UNL     1     -33.498   8.460   5.203  1.00 20.00     0.095 N 
HETATM   10  H23 UNL     1     -33.007   9.052   5.892  1.00 20.00     0.316 HD
ENDROOT
TORSDOF 0
ENDMDL
MODEL 2
REMARK VINA RESULT:      -3.8      1.368      3.335
REMARK  0 active torsions:
REMARK  status: ('A' for Active; 'I' for Inactive)
ROOT
HETATM    1  C1  UNL     1     -33.345   6.071   3.628  1.00 20.00     0.036 C 
HETATM    2  C2  UNL     1     -33.318   7.173   6.127  1.00 20.00     0.297 C 
HETATM    3  C3  UNL     1     -33.093   7.575   3.711  1.00 20.00     0.263 C 
HETATM    4  C4  UNL     1     -34.490   6.329   5.622  1.00 20.00     0.132 C 
HETATM    5  C5  UNL     1     -32.844   5.277   2.451  1.00 20.00     0.067 C 
HETATM    6  C6  UNL     1     -32.091   8.112   2.693  1.00 20.00     0.049 C 
HETATM    7  C7  UNL     1     -35.056   5.453   6.734  1.00 20.00     0.036 C 
HETATM    8  N8  UNL     1     -34.028   5.453   4.537  1.00 20.00    -0.290 NA
HETATM    9  N9  UNL     1     -32.612   7.886   5.061  1.00 20.00     0.095 N 
HETATM   10  H23 UNL     1     -32.689   8.904   5.222  1.00 20.00     0.316 HD
ENDROOT
TORSDOF 0
ENDMDL
MODEL 3
REMARK VINA RESULT:      -3.7     11.655     13.129
REMARK  0 active torsions:
REMARK  status: ('A' for Active; 'I' for Inactive)
ROOT
HETATM    1  C1  UNL     1     -33.733  15.992  -3.914  1.00 20.00     0.036 C 
HETATM    2  C2  UNL     1     -33.035  18.602  -3.511  1.00 20.00     0.297 C 
HETATM    3  C3  UNL     1     -34.398  17.027  -4.819  1.00 20.00     0.263 C 
HETATM    4  C4  UNL     1     -33.548  17.712  -2.377  1.00 20.00     0.132 C 
HETATM    5  C5  UNL     1     -33.583  14.564  -4.367  1.00 20.00     0.067 C 
HETATM    6  C6  UNL     1     -34.618  16.570  -6.258  1.00 20.00     0.049 C 
HETATM    7  C7  UNL     1     -32.812  18.003  -1.075  1.00 20.00     0.036 C 
HETATM    8  N8  UNL     1     -33.326  16.302  -2.724  1.00 20.00    -0.290 NA
HETATM    9  N9  UNL     1     -33.566  18.233  -4.825  1.00 20.00     0.095 N 
HETATM   10  H23 UNL     1     -34.115  19.022  -5.204  1.00 20.00     0.316 HD
ENDROOT
TORSDOF 0
ENDMDL
MODEL 4
REMARK VINA RESULT:      -3.6     12.037     13.644
REMARK  0 active torsions:
REMARK  status: ('A' for Active; 'I' for Inactive)
ROOT
HETATM    1  C1  UNL     1     -35.116  16.657  -5.629  1.00 20.00     0.036 C 
HETATM    2  C2  UNL     1     -33.318  14.992  -4.423  1.00 20.00     0.297 C 
HETATM    3  C3  UNL     1     -34.101  15.971  -6.540  1.00 20.00     0.263 C 
HETATM    4  C4  UNL     1     -33.516  16.441  -3.972  1.00 20.00     0.132 C 
HETATM    5  C5  UNL     1     -36.445  17.114  -6.173  1.00 20.00     0.067 C 
HETATM    6  C6  UNL     1     -34.644  15.553  -7.903  1.00 20.00     0.049 C 
HETATM    7  C7  UNL     1     -33.422  16.561  -2.456  1.00 20.00     0.036 C 
HETATM    8  N8  UNL     1     -34.848  16.903  -4.387  1.00 20.00    -0.290 NA
HETATM    9  N9  UNL     1     -33.592  14.784  -5.847  1.00 20.00     0.095 N 
HETATM   10  H23 UNL     1     -32.729  14.461  -6.316  1.00 20.00     0.316 HD
ENDROOT
TORSDOF 0
ENDMDL
MODEL 5
REMARK VINA RESULT:      -3.4      1.025      3.894
REMARK  0 active torsions:
REMARK  status: ('A' for Active; 'I' for Inactive)
ROOT
HETATM    1  C1  UNL     1     -32.947   7.679   4.592  1.00 20.00     0.036 C 
HETATM    2  C2  UNL     1     -34.506   5.466   4.230  1.00 20.00     0.297 C 
HETATM    3  C3  UNL     1     -32.552   6.743   3.452  1.00 20.00     0.263 C 
HETATM    4  C4  UNL     1     -33.872   5.804   5.582  1.00 20.00     0.132 C 
HETATM    5  C5  UNL     1     -32.564   9.135   4.551  1.00 20.00     0.067 C 
HETATM    6  C6  UNL     1     -32.021   7.442   2.205  1.00 20.00     0.049 C 
HETATM    7  C7  UNL     1     -34.817   5.469   6.729  1.00 20.00     0.036 C 
HETATM    8  N8  UNL     1     -33.576   7.242   5.636  1.00 20.00    -0.290 NA
HETATM    9  N9  UNL     1     -33.726   5.945   3.086  1.00 20.00     0.095 N 
HETATM   10  H23 UNL     1     -33.424   5.138   2.517  1.00 20.00     0.316 HD
ENDROOT
TORSDOF 0
ENDMDL
MODEL 6
REMARK VINA RESULT:      -3.4      0.706      2.403
REMARK  0 active torsions:
REMARK  status: ('A' for Active; 'I' for Inactive)
ROOT
HETATM    1  C1  UNL     1     -33.897   6.859   5.241  1.00 20.00     0.036 C 
HETATM    2  C2  UNL     1     -32.255   7.165   3.079  1.00 20.00     0.297 C 
HETATM    3  C3  UNL     1     -34.078   5.863   4.097  1.00 20.00     0.263 C 
HETATM    4  C4  UNL     1     -33.111   8.312   3.621  1.00 20.00     0.132 C 
HETATM    5  C5  UNL     1     -34.297   6.490   6.645  1.00 20.00     0.067 C 
HETATM    6  C6  UNL     1     -34.409   4.440   4.535  1.00 20.00     0.049 C 
HETATM    7  C7  UNL     1     -32.363   9.638   3.544  1.00 20.00     0.036 C 
HETATM    8  N8  UNL     1     -33.441   8.052   5.028  1.00 20.00    -0.290 NA
HETATM    9  N9  UNL     1     -32.843   5.843   3.307  1.00 20.00     0.095 N 
HETATM   10  H23 UNL     1     -33.031   5.392   2.396  1.00 20.00     0.316 HD
ENDROOT
TORSDOF 0
ENDMDL
MODEL 7
REMARK VINA RESULT:      -3.4     12.146     13.572
REMARK  0 active torsions:
REMARK  status: ('A' for Active; 'I' for Inactive)
ROOT
HETATM    1  C1  UNL     1     -34.988  16.877  -4.830  1.00 20.00     0.036 C 
HETATM    2  C2  UNL     1     -33.916  15.104  -6.609  1.00 20.00     0.297 C 
HETATM    3  C3  UNL     1     -34.082  15.792  -4.253  1.00 20.00     0.263 C 
HETATM    4  C4  UNL     1     -35.421  15.368  -6.530  1.00 20.00     0.132 C 
HETATM    5  C5  UNL     1     -35.172  18.184  -4.105  1.00 20.00     0.067 C 
HETATM    6  C6  UNL     1     -33.202  16.244  -3.092  1.00 20.00     0.049 C 
HETATM    7  C7  UNL     1     -36.052  15.364  -7.918  1.00 20.00     0.036 C 
HETATM    8  N8  UNL     1     -35.653  16.687  -5.925  1.00 20.00    -0.290 NA
HETATM    9  N9  UNL     1     -33.225  15.289  -5.331  1.00 20.00     0.095 N 
HETATM   10  H23 UNL     1     -32.802  14.393  -5.039  1.00 20.00     0.316 HD
ENDROOT
TORSDOF 0
ENDMDL
MODEL 8
REMARK VINA RESULT:      -3.4      8.901      9.664
REMARK  0 active torsions:
REMARK  status: ('A' for Active; 'I' for Inactive)
ROOT
HETATM    1  C1  UNL     1     -41.340  13.624   5.385  1.00 20.00     0.036 C 
HETATM    2  C2  UNL     1     -38.934  12.518   6.053  1.00 20.00     0.297 C 
HETATM    3  C3  UNL     1     -41.160  13.206   6.843  1.00 20.00     0.263 C 
HETATM    4  C4  UNL     1     -39.786  11.980   4.902  1.00 20.00     0.132 C 
HETATM    5  C5  UNL     1     -42.322  14.705   5.016  1.00 20.00     0.067 C 
HETATM    6  C6  UNL     1     -41.816  14.134   7.860  1.00 20.00     0.049 C 
HETATM    7  C7  UNL     1     -38.913  11.544   3.731  1.00 20.00     0.036 C 
HETATM    8  N8  UNL     1     -40.692  13.036   4.431  1.00 20.00    -0.290 NA
HETATM    9  N9  UNL     1     -39.723  13.131   7.124  1.00 20.00     0.095 N 
HETATM   10  H23 UNL     1     -39.576  12.603   8.000  1.00 20.00     0.316 HD
ENDROOT
TORSDOF 0
ENDMDL
MODEL 9
REMARK VINA RESULT:      -3.4     12.039     13.398
REMARK  0 active torsions:
REMARK  status: ('A' for Active; 'I' for Inactive)
ROOT
HETATM    1  C1  UNL     1     -34.074  16.035  -4.558  1.00 20.00     0.036 C 
HETATM    2  C2  UNL     1     -36.070  17.898  -4.621  1.00 20.00     0.297 C 
HETATM    3  C3  UNL     1     -33.964  17.188  -3.564  1.00 20.00     0.263 C 
HETATM    4  C4  UNL     1     -35.279  17.509  -5.872  1.00 20.00     0.132 C 
HETATM    5  C5  UNL     1     -33.410  14.714  -4.271  1.00 20.00     0.067 C 
HETATM    6  C6  UNL     1     -33.400  16.805  -2.199  1.00 20.00     0.049 C 
HETATM    7  C7  UNL     1     -36.181  17.467  -7.100  1.00 20.00     0.036 C 
HETATM    8  N8  UNL     1     -34.696  16.174  -5.685  1.00 20.00    -0.290 NA
HETATM    9  N9  UNL     1     -35.300  17.765  -3.382  1.00 20.00     0.095 N 
HETATM   10  H23 UNL     1     -35.211  18.692  -2.934  1.00 20.00     0.316 HD
ENDROOT
TORSDOF 0
ENDMDL
