MODEL 1
REMARK VINA RESULT:      -4.6      0.000      0.000
REMARK  1 active torsions:
REMARK  status: ('A' for Active; 'I' for Inactive)
REMARK    1  A    between atoms: C1_1  and  C5_5 
ROOT
HETATM    1  C2  UNL     1     -32.882   6.136   3.028  1.00 20.00     0.013 C 
HETATM    2  C3  UNL     1     -31.868   7.192   3.459  1.00 20.00     0.009 C 
HETATM    3  C4  UNL     1     -33.833   7.617   4.742  1.00 20.00     0.021 C 
HETATM    4  C5  UNL     1     -34.101   6.338   3.936  1.00 20.00     0.055 C 
HETATM    5  C6  UNL     1     -32.719   8.355   3.987  1.00 20.00    -0.047 C 
HETATM    6  C8  UNL     1     -33.295   9.198   2.836  1.00 20.00     0.015 C 
HETATM    7  C9  UNL     1     -31.910   9.262   4.917  1.00 20.00     0.015 C 
ENDROOT
BRANCH   4   8
HETATM    8  C1  UNL     1     -34.313   5.162   4.840  1.00 20.00     0.127 C 
HETATM    9  C7  UNL     1     -34.686   5.464   6.267  1.00 20.00     0.091 C 
HETATM   10  O10 UNL     1     -34.191   4.007   4.435  1.00 20.00    -0.298 OA
ENDBRANCH   4   8
TORSDOF 1
ENDMDL
MODEL 2
REMARK VINA RESULT:      -4.3      2.117      4.148
REMARK  1 active torsions:
REMARK  status: ('A' for Active; 'I' for Inactive)
REMARK    1  A    between atoms: C1_1  and  C5_5 
ROOT
HETATM    1  C2  UNL     1     -34.092   7.553   6.078  1.00 20.00     0.013 C 
HETATM    2  C3  UNL     1     -34.100   6.031   6.177  1.00 20.00     0.009 C 
HETATM    3  C4  UNL     1     -33.642   6.531   3.890  1.00 20.00     0.021 C 
HETATM    4  C5  UNL     1     -33.683   7.872   4.634  1.00 20.00     0.055 C 
HETATM    5  C6  UNL     1     -34.443   5.551   4.760  1.00 20.00    -0.047 C 
HETATM    6  C8  UNL     1     -35.950   5.665   4.478  1.00 20.00     0.015 C 
HETATM    7  C9  UNL     1     -33.998   4.104   4.537  1.00 20.00     0.015 C 
ENDROOT
BRANCH   4   8
HETATM    8  C1  UNL     1     -32.354   8.563   4.580  1.00 20.00     0.127 C 
HETATM    9  C7  UNL     1     -31.358   8.035   3.584  1.00 20.00     0.091 C 
HETATM   10  O10 UNL     1     -32.092   9.515   5.312  1.00 20.00    -0.298 OA
ENDBRANCH   4   8
TORSDOF 1
ENDMDL
MODEL 3
REMARK VINA RESULT:      -3.9     12.016     13.210
REMARK  1 active torsions:
REMARK  status: ('A' for Active; 'I' for Inactive)
REMARK    1  A    between atoms: C1_1  and  C5_5 
ROOT
HETATM    1  C2  UNL     1     -33.626  17.492  -0.529  1.00 20.00     0.013 C 
HETATM    2  C3  UNL     1     -33.727  17.108  -2.002  1.00 20.00     0.009 C 
HETATM    3  C4  UNL     1     -32.688  19.255  -1.959  1.00 20.00     0.021 C 
HETATM    4  C5  UNL     1     -32.854  18.816  -0.497  1.00 20.00     0.055 C 
HETATM    5  C6  UNL     1     -33.724  18.447  -2.752  1.00 20.00    -0.047 C 
HETATM    6  C8  UNL     1     -35.106  19.121  -2.704  1.00 20.00     0.015 C 
HETATM    7  C9  UNL     1     -33.304  18.268  -4.213  1.00 20.00     0.015 C 
ENDROOT
BRANCH   4   8
HETATM    8  C1  UNL     1     -31.524  18.661   0.176  1.00 20.00     0.127 C 
HETATM    9  C7  UNL     1     -31.535  18.543   1.676  1.00 20.00     0.091 C 
HETATM   10  O10 UNL     1     -30.475  18.629  -0.466  1.00 20.00    -0.298 OA
ENDBRANCH   4   8
TORSDOF 1
ENDMDL
MODEL 4
REMARK VINA RESULT:      -3.8     11.915     12.834
REMARK  1 active torsions:
REMARK  status: ('A' for Active; 'I' for Inactive)
REMARK    1  A    between atoms: C1_1  and  C5_5 
ROOT
HETATM    1  C2  UNL     1     -33.025  15.878  -3.494  1.00 20.00     0.013 C 
HETATM    2  C3  UNL     1     -33.529  16.887  -2.466  1.00 20.00     0.009 C 
HETATM    3  C4  UNL     1     -34.915  17.167  -4.387  1.00 20.00     0.021 C 
HETATM    4  C5  UNL     1     -33.990  15.979  -4.681  1.00 20.00     0.055 C 
HETATM    5  C6  UNL     1     -34.204  17.984  -3.299  1.00 20.00    -0.047 C 
HETATM    6  C8  UNL     1     -33.169  18.941  -3.914  1.00 20.00     0.015 C 
HETATM    7  C9  UNL     1     -35.197  18.792  -2.460  1.00 20.00     0.015 C 
ENDROOT
BRANCH   4   8
HETATM    8  C1  UNL     1     -34.772  14.713  -4.862  1.00 20.00     0.127 C 
HETATM    9  C7  UNL     1     -35.760  14.685  -5.996  1.00 20.00     0.091 C 
HETATM   10  O10 UNL     1     -34.613  13.745  -4.120  1.00 20.00    -0.298 OA
ENDBRANCH   4   8
TORSDOF 1
ENDMDL
MODEL 5
REMARK VINA RESULT:      -3.8      9.820     10.782
REMARK  1 active torsions:
REMARK  status: ('A' for Active; 'I' for Inactive)
REMARK    1  A    between atoms: C1_1  and  C5_5 
ROOT
HETATM    1  C2  UNL     1     -40.338  14.294   7.099  1.00 20.00     0.013 C 
HETATM    2  C3  UNL     1     -41.295  14.108   8.272  1.00 20.00     0.009 C 
HETATM    3  C4  UNL     1     -41.965  12.515   6.628  1.00 20.00     0.021 C 
HETATM    4  C5  UNL     1     -40.696  13.192   6.093  1.00 20.00     0.055 C 
HETATM    5  C6  UNL     1     -42.558  13.496   7.650  1.00 20.00    -0.047 C 
HETATM    6  C8  UNL     1     -43.417  14.566   6.956  1.00 20.00     0.015 C 
HETATM    7  C9  UNL     1     -43.405  12.774   8.700  1.00 20.00     0.015 C 
ENDROOT
BRANCH   4   8
HETATM    8  C1  UNL     1     -39.579  12.205   5.939  1.00 20.00     0.127 C 
HETATM    9  C7  UNL     1     -39.257  11.762   4.538  1.00 20.00     0.091 C 
HETATM   10  O10 UNL     1     -38.956  11.780   6.910  1.00 20.00    -0.298 OA
ENDBRANCH   4   8
TORSDOF 1
ENDMDL
MODEL 6
REMARK VINA RESULT:      -3.7     15.298     16.489
REMARK  1 active torsions:
REMARK  status: ('A' for Active; 'I' for Inactive)
REMARK    1  A    between atoms: C1_1  and  C5_5 
ROOT
HETATM    1  C2  UNL     1     -22.833  16.959   9.719  1.00 20.00     0.013 C 
HETATM    2  C3  UNL     1     -24.191  16.991  10.414  1.00 20.00     0.009 C 
HETATM    3  C4  UNL     1     -23.660  19.263   9.921  1.00 20.00     0.021 C 
HETATM    4  C5  UNL     1     -22.548  18.406   9.299  1.00 20.00     0.055 C 
HETATM    5  C6  UNL     1     -24.282  18.396  11.024  1.00 20.00    -0.047 C 
HETATM    6  C8  UNL     1     -23.473  18.495  12.328  1.00 20.00     0.015 C 
HETATM    7  C9  UNL     1     -25.734  18.792  11.303  1.00 20.00     0.015 C 
ENDROOT
BRANCH   4   8
HETATM    8  C1  UNL     1     -22.522  18.550   7.808  1.00 20.00     0.127 C 
HETATM    9  C7  UNL     1     -21.297  18.037   7.101  1.00 20.00     0.091 C 
HETATM   10  O10 UNL     1     -23.457  19.061   7.193  1.00 20.00    -0.298 OA
ENDBRANCH   4   8
TORSDOF 1
ENDMDL
MODEL 7
REMARK VINA RESULT:      -3.7     11.881     12.861
REMARK  1 active torsions:
REMARK  status: ('A' for Active; 'I' for Inactive)
REMARK    1  A    between atoms: C1_1  and  C5_5 
ROOT
HETATM    1  C2  UNL     1     -33.884  17.950  -4.287  1.00 20.00     0.013 C 
HETATM    2  C3  UNL     1     -32.941  18.695  -3.347  1.00 20.00     0.009 C 
HETATM    3  C4  UNL     1     -33.400  16.609  -2.286  1.00 20.00     0.021 C 
HETATM    4  C5  UNL     1     -34.084  16.565  -3.659  1.00 20.00     0.055 C 
HETATM    5  C6  UNL     1     -33.222  18.099  -1.961  1.00 20.00    -0.047 C 
HETATM    6  C8  UNL     1     -34.503  18.687  -1.346  1.00 20.00     0.015 C 
HETATM    7  C9  UNL     1     -32.052  18.333  -1.003  1.00 20.00     0.015 C 
ENDROOT
BRANCH   4   8
HETATM    8  C1  UNL     1     -33.503  15.484  -4.520  1.00 20.00     0.127 C 
HETATM    9  C7  UNL     1     -34.224  15.182  -5.805  1.00 20.00     0.091 C 
HETATM   10  O10 UNL     1     -32.486  14.875  -4.191  1.00 20.00    -0.298 OA
ENDBRANCH   4   8
TORSDOF 1
ENDMDL
MODEL 8
REMARK VINA RESULT:      -3.7     11.931     13.097
REMARK  1 active torsions:
REMARK  status: ('A' for Active; 'I' for Inactive)
REMARK    1  A    between atoms: C1_1  and  C5_5 
ROOT
HETATM    1  C2  UNL     1     -34.376  17.639  -4.666  1.00 20.00     0.013 C 
HETATM    2  C3  UNL     1     -35.456  16.617  -5.010  1.00 20.00     0.009 C 
HETATM    3  C4  UNL     1     -33.736  15.395  -3.899  1.00 20.00     0.021 C 
HETATM    4  C5  UNL     1     -33.327  16.873  -3.850  1.00 20.00     0.055 C 
HETATM    5  C6  UNL     1     -34.715  15.276  -5.076  1.00 20.00    -0.047 C 
HETATM    6  C8  UNL     1     -33.962  15.114  -6.407  1.00 20.00     0.015 C 
HETATM    7  C9  UNL     1     -35.674  14.097  -4.896  1.00 20.00     0.015 C 
ENDROOT
BRANCH   4   8
HETATM    8  C1  UNL     1     -33.260  17.370  -2.437  1.00 20.00     0.127 C 
HETATM    9  C7  UNL     1     -32.620  18.715  -2.224  1.00 20.00     0.091 C 
HETATM   10  O10 UNL     1     -33.708  16.712  -1.500  1.00 20.00    -0.298 OA
ENDBRANCH   4   8
TORSDOF 1
ENDMDL
MODEL 9
REMARK VINA RESULT:      -3.6     10.407     11.291
REMARK  1 active torsions:
REMARK  status: ('A' for Active; 'I' for Inactive)
REMARK    1  A    between atoms: C1_1  and  C5_5 
ROOT
HETATM    1  C2  UNL     1     -42.724  13.398   7.667  1.00 20.00     0.013 C 
HETATM    2  C3  UNL     1     -42.158  12.348   6.716  1.00 20.00     0.009 C 
HETATM    3  C4  UNL     1     -40.424  13.958   7.011  1.00 20.00     0.021 C 
HETATM    4  C5  UNL     1     -41.569  14.368   7.947  1.00 20.00     0.055 C 
HETATM    5  C6  UNL     1     -41.070  13.086   5.925  1.00 20.00    -0.047 C 
HETATM    6  C8  UNL     1     -41.676  13.952   4.808  1.00 20.00     0.015 C 
HETATM    7  C9  UNL     1     -40.063  12.109   5.313  1.00 20.00     0.015 C 
ENDROOT
BRANCH   4   8
HETATM    8  C1  UNL     1     -41.142  14.314   9.383  1.00 20.00     0.127 C 
HETATM    9  C7  UNL     1     -40.134  15.338   9.827  1.00 20.00     0.091 C 
HETATM   10  O10 UNL     1     -41.596  13.475  10.159  1.00 20.00    -0.298 OA
ENDBRANCH   4   8
TORSDOF 1
ENDMDL
