MODEL 1
REMARK VINA RESULT:      -4.6      0.000      0.000
REMARK  4 active torsions:
REMARK  status: ('A' for Active; 'I' for Inactive)
REMARK    1  A    between atoms: C1_1  and  C4_4 
REMARK    2  A    between atoms: C5_5  and  C8_8 
REMARK    3  A    between atoms: C8_8  and  C10_10 
REMARK    4  A    between atoms: C9_9  and  C10_10 
ROOT
HETATM    1  C2  UNL     1     -33.899  17.785   0.095  1.00 20.00     0.016 C 
HETATM    2  C3  UNL     1     -33.350  19.263  -1.367  1.00 20.00     0.016 C 
HETATM    3  C4  UNL     1     -32.919  18.979   0.089  1.00 20.00     0.055 C 
HETATM    4  C5  UNL     1     -33.939  17.837  -1.450  1.00 20.00    -0.013 C 
ENDROOT
BRANCH   4   5
HETATM    5  C8  UNL     1     -33.096  16.802  -2.178  1.00 20.00     0.005 C 
BRANCH   5   6
HETATM    6  C10 UNL     1     -33.628  16.528  -3.587  1.00 20.00     0.000 C 
BRANCH   6   7
HETATM    7  C9  UNL     1     -33.284  15.114  -4.051  1.00 20.00    -0.005 C 
HETATM    8  C7  UNL     1     -34.531  14.341  -4.454  1.00 20.00     0.005 C 
ENDBRANCH   6   7
ENDBRANCH   5   6
ENDBRANCH   4   5
BRANCH   3   9
HETATM    9  C1  UNL     1     -31.483  18.627   0.274  1.00 20.00     0.127 C 
HETATM   10  C6  UNL     1     -31.071  18.160   1.644  1.00 20.00     0.091 C 
HETATM   11  O11 UNL     1     -30.673  18.713  -0.648  1.00 20.00    -0.298 OA
ENDBRANCH   3   9
TORSDOF 4
ENDMDL
MODEL 2
REMARK VINA RESULT:      -4.5     12.331     13.301
REMARK  4 active torsions:
REMARK  status: ('A' for Active; 'I' for Inactive)
REMARK    1  A    between atoms: C1_1  and  C4_4 
REMARK    2  A    between atoms: C5_5  and  C8_8 
REMARK    3  A    between atoms: C8_8  and  C10_10 
REMARK    4  A    between atoms: C9_9  and  C10_10 
ROOT
HETATM    1  C2  UNL     1     -35.166   6.660   4.588  1.00 20.00     0.016 C 
HETATM    2  C3  UNL     1     -34.813   5.496   6.361  1.00 20.00     0.016 C 
HETATM    3  C4  UNL     1     -35.047   5.147   4.874  1.00 20.00     0.055 C 
HETATM    4  C5  UNL     1     -34.492   6.951   5.948  1.00 20.00    -0.013 C 
ENDROOT
BRANCH   4   5
HETATM    5  C8  UNL     1     -33.020   7.326   5.902  1.00 20.00     0.005 C 
BRANCH   5   6
HETATM    6  C10 UNL     1     -32.783   8.589   5.069  1.00 20.00     0.000 C 
BRANCH   6   7
HETATM    7  C9  UNL     1     -31.947   8.293   3.826  1.00 20.00    -0.005 C 
HETATM    8  C7  UNL     1     -32.628   8.796   2.563  1.00 20.00     0.005 C 
ENDBRANCH   6   7
ENDBRANCH   5   6
ENDBRANCH   4   5
BRANCH   3   9
HETATM    9  C1  UNL     1     -33.913   4.456   4.195  1.00 20.00     0.127 C 
HETATM   10  C6  UNL     1     -33.357   5.118   2.963  1.00 20.00     0.091 C 
HETATM   11  O11 UNL     1     -33.454   3.398   4.621  1.00 20.00    -0.298 OA
ENDBRANCH   3   9
TORSDOF 4
ENDMDL
MODEL 3
REMARK VINA RESULT:      -4.2     11.281     11.982
REMARK  4 active torsions:
REMARK  status: ('A' for Active; 'I' for Inactive)
REMARK    1  A    between atoms: C1_1  and  C4_4 
REMARK    2  A    between atoms: C5_5  and  C8_8 
REMARK    3  A    between atoms: C8_8  and  C10_10 
REMARK    4  A    between atoms: C9_9  and  C10_10 
ROOT
HETATM    1  C2  UNL     1     -34.462   8.119   4.502  1.00 20.00     0.016 C 
HETATM    2  C3  UNL     1     -32.727   7.905   5.753  1.00 20.00     0.016 C 
HETATM    3  C4  UNL     1     -34.190   7.421   5.853  1.00 20.00     0.055 C 
HETATM    4  C5  UNL     1     -32.938   8.173   4.246  1.00 20.00    -0.013 C 
ENDROOT
BRANCH   4   5
HETATM    5  C8  UNL     1     -32.380   7.127   3.293  1.00 20.00     0.005 C 
BRANCH   5   6
HETATM    6  C10 UNL     1     -32.077   7.721   1.915  1.00 20.00     0.000 C 
BRANCH   6   7
HETATM    7  C9  UNL     1     -32.651   9.130   1.773  1.00 20.00    -0.005 C 
HETATM    8  C7  UNL     1     -32.821   9.517   0.313  1.00 20.00     0.005 C 
ENDBRANCH   6   7
ENDBRANCH   5   6
ENDBRANCH   4   5
BRANCH   3   9
HETATM    9  C1  UNL     1     -34.375   5.941   5.855  1.00 20.00     0.127 C 
HETATM   10  C6  UNL     1     -35.147   5.353   4.705  1.00 20.00     0.091 C 
HETATM   11  O11 UNL     1     -33.917   5.236   6.752  1.00 20.00    -0.298 OA
ENDBRANCH   3   9
TORSDOF 4
ENDMDL
MODEL 4
REMARK VINA RESULT:      -4.1     12.226     13.107
REMARK  4 active torsions:
REMARK  status: ('A' for Active; 'I' for Inactive)
REMARK    1  A    between atoms: C1_1  and  C4_4 
REMARK    2  A    between atoms: C5_5  and  C8_8 
REMARK    3  A    between atoms: C8_8  and  C10_10 
REMARK    4  A    between atoms: C9_9  and  C10_10 
ROOT
HETATM    1  C2  UNL     1     -33.988   4.319   4.143  1.00 20.00     0.016 C 
HETATM    2  C3  UNL     1     -35.037   6.187   3.962  1.00 20.00     0.016 C 
HETATM    3  C4  UNL     1     -34.879   5.148   5.094  1.00 20.00     0.055 C 
HETATM    4  C5  UNL     1     -33.812   5.570   3.251  1.00 20.00    -0.013 C 
ENDROOT
BRANCH   4   5
HETATM    5  C8  UNL     1     -32.499   6.322   3.400  1.00 20.00     0.005 C 
BRANCH   5   6
HETATM    6  C10 UNL     1     -32.369   7.444   2.367  1.00 20.00     0.000 C 
BRANCH   6   7
HETATM    7  C9  UNL     1     -32.502   8.821   3.015  1.00 20.00    -0.005 C 
HETATM    8  C7  UNL     1     -32.273   8.754   4.517  1.00 20.00     0.005 C 
ENDBRANCH   6   7
ENDBRANCH   5   6
ENDBRANCH   4   5
BRANCH   3   9
HETATM    9  C1  UNL     1     -34.206   5.645   6.328  1.00 20.00     0.127 C 
HETATM   10  C6  UNL     1     -34.311   7.120   6.609  1.00 20.00     0.091 C 
HETATM   11  O11 UNL     1     -33.597   4.887   7.081  1.00 20.00    -0.298 OA
ENDBRANCH   3   9
TORSDOF 4
ENDMDL
MODEL 5
REMARK VINA RESULT:      -4.1      1.234      1.726
REMARK  4 active torsions:
REMARK  status: ('A' for Active; 'I' for Inactive)
REMARK    1  A    between atoms: C1_1  and  C4_4 
REMARK    2  A    between atoms: C5_5  and  C8_8 
REMARK    3  A    between atoms: C8_8  and  C10_10 
REMARK    4  A    between atoms: C9_9  and  C10_10 
ROOT
HETATM    1  C2  UNL     1     -34.548  18.383  -1.960  1.00 20.00     0.016 C 
HETATM    2  C3  UNL     1     -32.889  18.814  -3.259  1.00 20.00     0.016 C 
HETATM    3  C4  UNL     1     -33.284  19.263  -1.834  1.00 20.00     0.055 C 
HETATM    4  C5  UNL     1     -33.888  17.641  -3.145  1.00 20.00    -0.013 C 
ENDROOT
BRANCH   4   5
HETATM    5  C8  UNL     1     -33.291  16.277  -2.833  1.00 20.00     0.005 C 
BRANCH   5   6
HETATM    6  C10 UNL     1     -33.513  15.286  -3.979  1.00 20.00     0.000 C 
BRANCH   6   7
HETATM    7  C9  UNL     1     -34.429  15.869  -5.054  1.00 20.00    -0.005 C 
HETATM    8  C7  UNL     1     -34.182  15.221  -6.407  1.00 20.00     0.005 C 
ENDBRANCH   6   7
ENDBRANCH   5   6
ENDBRANCH   4   5
BRANCH   3   9
HETATM    9  C1  UNL     1     -32.336  18.868  -0.754  1.00 20.00     0.127 C 
HETATM   10  C6  UNL     1     -32.941  18.462   0.563  1.00 20.00     0.091 C 
HETATM   11  O11 UNL     1     -31.119  18.871  -0.930  1.00 20.00    -0.298 OA
ENDBRANCH   3   9
TORSDOF 4
ENDMDL
MODEL 6
REMARK VINA RESULT:      -3.9      3.433      6.620
REMARK  4 active torsions:
REMARK  status: ('A' for Active; 'I' for Inactive)
REMARK    1  A    between atoms: C1_1  and  C4_4 
REMARK    2  A    between atoms: C5_5  and  C8_8 
REMARK    3  A    between atoms: C8_8  and  C10_10 
REMARK    4  A    between atoms: C9_9  and  C10_10 
ROOT
HETATM    1  C2  UNL     1     -35.370  14.273  -4.949  1.00 20.00     0.016 C 
HETATM    2  C3  UNL     1     -34.141  15.191  -6.456  1.00 20.00     0.016 C 
HETATM    3  C4  UNL     1     -35.637  14.813  -6.372  1.00 20.00     0.055 C 
HETATM    4  C5  UNL     1     -34.043  15.066  -4.919  1.00 20.00    -0.013 C 
ENDROOT
BRANCH   4   5
HETATM    5  C8  UNL     1     -34.058  16.370  -4.137  1.00 20.00     0.005 C 
BRANCH   5   6
HETATM    6  C10 UNL     1     -33.198  16.282  -2.873  1.00 20.00     0.000 C 
BRANCH   6   7
HETATM    7  C9  UNL     1     -33.658  17.281  -1.812  1.00 20.00    -0.005 C 
HETATM    8  C7  UNL     1     -32.485  18.051  -1.227  1.00 20.00     0.005 C 
ENDBRANCH   6   7
ENDBRANCH   5   6
ENDBRANCH   4   5
BRANCH   3   9
HETATM    9  C1  UNL     1     -36.590  15.957  -6.453  1.00 20.00     0.127 C 
HETATM   10  C6  UNL     1     -36.146  17.153  -7.250  1.00 20.00     0.091 C 
HETATM   11  O11 UNL     1     -37.686  15.923  -5.896  1.00 20.00    -0.298 OA
ENDBRANCH   3   9
TORSDOF 4
ENDMDL
MODEL 7
REMARK VINA RESULT:      -3.9     10.984     12.866
REMARK  4 active torsions:
REMARK  status: ('A' for Active; 'I' for Inactive)
REMARK    1  A    between atoms: C1_1  and  C4_4 
REMARK    2  A    between atoms: C5_5  and  C8_8 
REMARK    3  A    between atoms: C8_8  and  C10_10 
REMARK    4  A    between atoms: C9_9  and  C10_10 
ROOT
HETATM    1  C2  UNL     1     -41.528  13.894   5.332  1.00 20.00     0.016 C 
HETATM    2  C3  UNL     1     -41.794  13.019   7.278  1.00 20.00     0.016 C 
HETATM    3  C4  UNL     1     -41.256  12.495   5.927  1.00 20.00     0.055 C 
HETATM    4  C5  UNL     1     -41.614  14.466   6.766  1.00 20.00    -0.013 C 
ENDROOT
BRANCH   4   5
HETATM    5  C8  UNL     1     -40.385  15.208   7.268  1.00 20.00     0.005 C 
BRANCH   5   6
HETATM    6  C10 UNL     1     -40.760  16.519   7.963  1.00 20.00     0.000 C 
BRANCH   6   7
HETATM    7  C9  UNL     1     -41.049  16.304   9.448  1.00 20.00    -0.005 C 
HETATM    8  C7  UNL     1     -40.165  15.215  10.035  1.00 20.00     0.005 C 
ENDBRANCH   6   7
ENDBRANCH   5   6
ENDBRANCH   4   5
BRANCH   3   9
HETATM    9  C1  UNL     1     -39.827  12.070   5.931  1.00 20.00     0.127 C 
HETATM   10  C6  UNL     1     -39.192  11.819   4.590  1.00 20.00     0.091 C 
HETATM   11  O11 UNL     1     -39.197  11.932   6.978  1.00 20.00    -0.298 OA
ENDBRANCH   3   9
TORSDOF 4
ENDMDL
MODEL 8
REMARK VINA RESULT:      -3.8      2.705      5.874
REMARK  4 active torsions:
REMARK  status: ('A' for Active; 'I' for Inactive)
REMARK    1  A    between atoms: C1_1  and  C4_4 
REMARK    2  A    between atoms: C5_5  and  C8_8 
REMARK    3  A    between atoms: C8_8  and  C10_10 
REMARK    4  A    between atoms: C9_9  and  C10_10 
ROOT
HETATM    1  C2  UNL     1     -32.901  14.813  -4.328  1.00 20.00     0.016 C 
HETATM    2  C3  UNL     1     -34.078  16.511  -4.926  1.00 20.00     0.016 C 
HETATM    3  C4  UNL     1     -34.115  15.004  -5.264  1.00 20.00     0.055 C 
HETATM    4  C5  UNL     1     -33.198  16.193  -3.697  1.00 20.00    -0.013 C 
ENDROOT
BRANCH   4   5
HETATM    5  C8  UNL     1     -33.905  16.178  -2.350  1.00 20.00     0.005 C 
BRANCH   5   6
HETATM    6  C10 UNL     1     -33.741  17.507  -1.609  1.00 20.00     0.000 C 
BRANCH   6   7
HETATM    7  C9  UNL     1     -32.359  18.114  -1.846  1.00 20.00    -0.005 C 
HETATM    8  C7  UNL     1     -31.673  18.466  -0.535  1.00 20.00     0.005 C 
ENDBRANCH   6   7
ENDBRANCH   5   6
ENDBRANCH   4   5
BRANCH   3   9
HETATM    9  C1  UNL     1     -35.357  14.287  -4.854  1.00 20.00     0.127 C 
HETATM   10  C6  UNL     1     -36.664  14.902  -5.276  1.00 20.00     0.091 C 
HETATM   11  O11 UNL     1     -35.315  13.245  -4.203  1.00 20.00    -0.298 OA
ENDBRANCH   3   9
TORSDOF 4
ENDMDL
MODEL 9
REMARK VINA RESULT:      -3.8      3.633      6.420
REMARK  4 active torsions:
REMARK  status: ('A' for Active; 'I' for Inactive)
REMARK    1  A    between atoms: C1_1  and  C4_4 
REMARK    2  A    between atoms: C5_5  and  C8_8 
REMARK    3  A    between atoms: C8_8  and  C10_10 
REMARK    4  A    between atoms: C9_9  and  C10_10 
ROOT
HETATM    1  C2  UNL     1     -34.495  17.708  -6.071  1.00 20.00     0.016 C 
HETATM    2  C3  UNL     1     -36.153  16.691  -5.155  1.00 20.00     0.016 C 
HETATM    3  C4  UNL     1     -35.634  16.812  -6.605  1.00 20.00     0.055 C 
HETATM    4  C5  UNL     1     -34.782  17.188  -4.644  1.00 20.00    -0.013 C 
ENDROOT
BRANCH   4   5
HETATM    5  C8  UNL     1     -33.835  16.122  -4.115  1.00 20.00     0.005 C 
BRANCH   5   6
HETATM    6  C10 UNL     1     -33.345  16.451  -2.701  1.00 20.00     0.000 C 
BRANCH   6   7
HETATM    7  C9  UNL     1     -34.017  17.709  -2.154  1.00 20.00    -0.005 C 
HETATM    8  C7  UNL     1     -33.669  17.934  -0.691  1.00 20.00     0.005 C 
ENDBRANCH   6   7
ENDBRANCH   5   6
ENDBRANCH   4   5
BRANCH   3   9
HETATM    9  C1  UNL     1     -35.198  15.533  -7.236  1.00 20.00     0.127 C 
HETATM   10  C6  UNL     1     -33.855  15.537  -7.916  1.00 20.00     0.091 C 
HETATM   11  O11 UNL     1     -35.900  14.524  -7.201  1.00 20.00    -0.298 OA
ENDBRANCH   3   9
TORSDOF 4
ENDMDL
