MODEL 1
REMARK VINA RESULT:      -4.0      0.000      0.000
REMARK  1 active torsions:
REMARK  status: ('A' for Active; 'I' for Inactive)
REMARK    1  A    between atoms: C1_1  and  C4_4 
ROOT
HETATM    1  C1  UNL     1     -32.607  17.935  -1.633  1.00 20.00    -0.047 C 
HETATM    2  C2  UNL     1     -33.075  17.085  -2.340  1.00 20.00    -0.106 C 
HETATM    3  C6  UNL     1     -33.646  16.050  -3.201  1.00 20.00     0.112 C 
ENDROOT
BRANCH   1   4
HETATM    4  C4  UNL     1     -32.036  18.971  -0.770  1.00 20.00     0.343 C 
HETATM    5  O8  UNL     1     -30.685  18.632  -0.423  1.00 20.00    -0.348 OA
HETATM    6  C3  UNL     1     -30.596  18.906   0.975  1.00 20.00     0.203 C 
HETATM    7  C5  UNL     1     -31.990  18.604   1.470  1.00 20.00     0.145 C 
HETATM    8  C7  UNL     1     -32.330  19.263   2.790  1.00 20.00     0.042 C 
HETATM    9  O9  UNL     1     -32.821  19.112   0.424  1.00 20.00    -0.343 OA
ENDBRANCH   1   4
TORSDOF 1
ENDMDL
MODEL 2
REMARK VINA RESULT:      -4.0     11.599     12.113
REMARK  1 active torsions:
REMARK  status: ('A' for Active; 'I' for Inactive)
REMARK    1  A    between atoms: C1_1  and  C4_4 
ROOT
HETATM    1  C1  UNL     1     -32.500   7.676   2.234  1.00 20.00    -0.047 C 
HETATM    2  C2  UNL     1     -32.544   8.485   1.348  1.00 20.00    -0.106 C 
HETATM    3  C6  UNL     1     -32.598   9.470   0.269  1.00 20.00     0.112 C 
ENDROOT
BRANCH   1   4
HETATM    4  C4  UNL     1     -32.445   6.689   3.315  1.00 20.00     0.343 C 
HETATM    5  O8  UNL     1     -33.282   5.567   2.999  1.00 20.00    -0.348 OA
HETATM    6  C3  UNL     1     -33.985   5.293   4.211  1.00 20.00     0.203 C 
HETATM    7  C5  UNL     1     -34.132   6.659   4.835  1.00 20.00     0.145 C 
HETATM    8  C7  UNL     1     -34.387   6.631   6.327  1.00 20.00     0.042 C 
HETATM    9  O9  UNL     1     -32.876   7.281   4.551  1.00 20.00    -0.343 OA
ENDBRANCH   1   4
TORSDOF 1
ENDMDL
MODEL 3
REMARK VINA RESULT:      -3.8     11.100     12.057
REMARK  1 active torsions:
REMARK  status: ('A' for Active; 'I' for Inactive)
REMARK    1  A    between atoms: C1_1  and  C4_4 
ROOT
HETATM    1  C1  UNL     1     -40.404  12.597   5.802  1.00 20.00    -0.047 C 
HETATM    2  C2  UNL     1     -39.723  12.126   4.933  1.00 20.00    -0.106 C 
HETATM    3  C6  UNL     1     -38.893  11.551   3.875  1.00 20.00     0.112 C 
ENDROOT
BRANCH   1   4
HETATM    4  C4  UNL     1     -41.235  13.173   6.861  1.00 20.00     0.343 C 
HETATM    5  O8  UNL     1     -41.816  14.407   6.414  1.00 20.00    -0.348 OA
HETATM    6  C3  UNL     1     -41.649  15.299   7.516  1.00 20.00     0.203 C 
HETATM    7  C5  UNL     1     -40.357  14.831   8.140  1.00 20.00     0.145 C 
HETATM    8  C7  UNL     1     -40.182  15.252   9.584  1.00 20.00     0.042 C 
HETATM    9  O9  UNL     1     -40.448  13.407   8.039  1.00 20.00    -0.343 OA
ENDBRANCH   1   4
TORSDOF 1
ENDMDL
MODEL 4
REMARK VINA RESULT:      -3.6     13.726     14.610
REMARK  1 active torsions:
REMARK  status: ('A' for Active; 'I' for Inactive)
REMARK    1  A    between atoms: C1_1  and  C4_4 
ROOT
HETATM    1  C1  UNL     1     -25.223  18.025  12.087  1.00 20.00    -0.047 C 
HETATM    2  C2  UNL     1     -26.346  18.435  12.197  1.00 20.00    -0.106 C 
HETATM    3  C6  UNL     1     -27.713  18.935  12.332  1.00 20.00     0.112 C 
ENDROOT
BRANCH   1   4
HETATM    4  C4  UNL     1     -23.854  17.525  11.951  1.00 20.00     0.343 C 
HETATM    5  O8  UNL     1     -22.916  18.571  12.244  1.00 20.00    -0.348 OA
HETATM    6  C3  UNL     1     -21.931  18.466  11.216  1.00 20.00     0.203 C 
HETATM    7  C5  UNL     1     -22.726  17.973  10.032  1.00 20.00     0.145 C 
HETATM    8  C7  UNL     1     -21.888  17.307   8.962  1.00 20.00     0.042 C 
HETATM    9  O9  UNL     1     -23.633  17.036  10.619  1.00 20.00    -0.343 OA
ENDBRANCH   1   4
TORSDOF 1
ENDMDL
MODEL 5
REMARK VINA RESULT:      -3.5     13.225     14.059
REMARK  1 active torsions:
REMARK  status: ('A' for Active; 'I' for Inactive)
REMARK    1  A    between atoms: C1_1  and  C4_4 
ROOT
HETATM    1  C1  UNL     1     -22.451  18.509   8.982  1.00 20.00    -0.047 C 
HETATM    2  C2  UNL     1     -21.929  18.182   7.951  1.00 20.00    -0.106 C 
HETATM    3  C6  UNL     1     -21.293  17.782   6.697  1.00 20.00     0.112 C 
ENDROOT
BRANCH   1   4
HETATM    4  C4  UNL     1     -23.088  18.909  10.238  1.00 20.00     0.343 C 
HETATM    5  O8  UNL     1     -22.215  18.631  11.342  1.00 20.00    -0.348 OA
HETATM    6  C3  UNL     1     -23.062  18.041  12.328  1.00 20.00     0.203 C 
HETATM    7  C5  UNL     1     -24.088  17.307  11.499  1.00 20.00     0.145 C 
HETATM    8  C7  UNL     1     -25.375  17.007  12.237  1.00 20.00     0.042 C 
HETATM    9  O9  UNL     1     -24.328  18.206  10.413  1.00 20.00    -0.343 OA
ENDBRANCH   1   4
TORSDOF 1
ENDMDL
MODEL 6
REMARK VINA RESULT:      -3.4      3.252      5.995
REMARK  1 active torsions:
REMARK  status: ('A' for Active; 'I' for Inactive)
REMARK    1  A    between atoms: C1_1  and  C4_4 
ROOT
HETATM    1  C1  UNL     1     -33.505  17.101  -2.395  1.00 20.00    -0.047 C 
HETATM    2  C2  UNL     1     -33.644  17.436  -1.250  1.00 20.00    -0.106 C 
HETATM    3  C6  UNL     1     -33.813  17.843   0.144  1.00 20.00     0.112 C 
ENDROOT
BRANCH   1   4
HETATM    4  C4  UNL     1     -33.336  16.694  -3.791  1.00 20.00     0.343 C 
HETATM    5  O8  UNL     1     -33.823  17.722  -4.666  1.00 20.00    -0.348 OA
HETATM    6  C3  UNL     1     -34.575  17.021  -5.656  1.00 20.00     0.203 C 
HETATM    7  C5  UNL     1     -35.130  15.844  -4.893  1.00 20.00     0.145 C 
HETATM    8  C7  UNL     1     -35.546  14.682  -5.769  1.00 20.00     0.042 C 
HETATM    9  O9  UNL     1     -34.044  15.470  -4.041  1.00 20.00    -0.343 OA
ENDBRANCH   1   4
TORSDOF 1
ENDMDL
MODEL 7
REMARK VINA RESULT:      -3.4     11.165     12.165
REMARK  1 active torsions:
REMARK  status: ('A' for Active; 'I' for Inactive)
REMARK    1  A    between atoms: C1_1  and  C4_4 
ROOT
HETATM    1  C1  UNL     1     -39.878  12.762   6.086  1.00 20.00    -0.047 C 
HETATM    2  C2  UNL     1     -39.460  12.214   5.102  1.00 20.00    -0.106 C 
HETATM    3  C6  UNL     1     -38.951  11.547   3.905  1.00 20.00     0.112 C 
ENDROOT
BRANCH   1   4
HETATM    4  C4  UNL     1     -40.388  13.430   7.285  1.00 20.00     0.343 C 
HETATM    5  O8  UNL     1     -41.719  12.977   7.571  1.00 20.00    -0.348 OA
HETATM    6  C3  UNL     1     -42.441  14.167   7.886  1.00 20.00     0.203 C 
HETATM    7  C5  UNL     1     -41.775  15.209   7.022  1.00 20.00     0.145 C 
HETATM    8  C7  UNL     1     -41.987  16.631   7.496  1.00 20.00     0.042 C 
HETATM    9  O9  UNL     1     -40.391  14.854   7.097  1.00 20.00    -0.343 OA
ENDBRANCH   1   4
TORSDOF 1
ENDMDL
MODEL 8
REMARK VINA RESULT:      -3.3      4.069      6.956
REMARK  1 active torsions:
REMARK  status: ('A' for Active; 'I' for Inactive)
REMARK    1  A    between atoms: C1_1  and  C4_4 
ROOT
HETATM    1  C1  UNL     1     -33.760  16.027  -3.466  1.00 20.00    -0.047 C 
HETATM    2  C2  UNL     1     -33.333  16.742  -2.602  1.00 20.00    -0.106 C 
HETATM    3  C6  UNL     1     -32.813  17.613  -1.549  1.00 20.00     0.112 C 
ENDROOT
BRANCH   1   4
HETATM    4  C4  UNL     1     -34.282  15.155  -4.520  1.00 20.00     0.343 C 
HETATM    5  O8  UNL     1     -33.315  15.021  -5.571  1.00 20.00    -0.348 OA
HETATM    6  C3  UNL     1     -34.073  15.159  -6.773  1.00 20.00     0.203 C 
HETATM    7  C5  UNL     1     -35.169  16.116  -6.376  1.00 20.00     0.145 C 
HETATM    8  C7  UNL     1     -36.386  16.066  -7.275  1.00 20.00     0.042 C 
HETATM    9  O9  UNL     1     -35.503  15.693  -5.051  1.00 20.00    -0.343 OA
ENDBRANCH   1   4
TORSDOF 1
ENDMDL
MODEL 9
REMARK VINA RESULT:      -3.3      2.143      4.764
REMARK  1 active torsions:
REMARK  status: ('A' for Active; 'I' for Inactive)
REMARK    1  A    between atoms: C1_1  and  C4_4 
ROOT
HETATM    1  C1  UNL     1     -32.623  18.197  -0.636  1.00 20.00    -0.047 C 
HETATM    2  C2  UNL     1     -31.759  18.527   0.129  1.00 20.00    -0.106 C 
HETATM    3  C6  UNL     1     -30.706  18.929   1.061  1.00 20.00     0.112 C 
ENDROOT
BRANCH   1   4
HETATM    4  C4  UNL     1     -33.677  17.794  -1.568  1.00 20.00     0.343 C 
HETATM    5  O8  UNL     1     -33.363  16.518  -2.145  1.00 20.00    -0.348 OA
HETATM    6  C3  UNL     1     -33.655  16.672  -3.533  1.00 20.00     0.203 C 
HETATM    7  C5  UNL     1     -33.338  18.125  -3.789  1.00 20.00     0.145 C 
HETATM    8  C7  UNL     1     -34.007  18.694  -5.022  1.00 20.00     0.042 C 
HETATM    9  O9  UNL     1     -33.821  18.773  -2.609  1.00 20.00    -0.343 OA
ENDBRANCH   1   4
TORSDOF 1
ENDMDL
