MODEL 1
REMARK VINA RESULT:      -4.5      0.000      0.000
REMARK  0 active torsions:
REMARK  status: ('A' for Active; 'I' for Inactive)
ROOT
HETATM    1  C1  UNL     1     -33.564   6.088   4.065  1.00 20.00     0.080 A 
HETATM    2  C2  UNL     1     -34.288   4.902   6.255  1.00 20.00     0.019 A 
HETATM    3  C3  UNL     1     -33.934   7.485   5.944  1.00 20.00     0.128 A 
HETATM    4  C4  UNL     1     -34.602   5.412   4.874  1.00 20.00     0.053 A 
HETATM    5  C5  UNL     1     -34.832   6.292   6.077  1.00 20.00     0.015 A 
HETATM    6  C6  UNL     1     -32.230   8.250   4.255  1.00 20.00     0.150 C 
HETATM    7  N7  UNL     1     -33.211   7.271   4.693  1.00 20.00    -0.379 N 
HETATM    8  S8  UNL     1     -33.036   5.369   2.673  1.00 20.00    -0.065 SA
ENDROOT
TORSDOF 0
ENDMDL
MODEL 2
REMARK VINA RESULT:      -4.3      1.911      3.213
REMARK  0 active torsions:
REMARK  status: ('A' for Active; 'I' for Inactive)
ROOT
HETATM    1  C1  UNL     1     -33.797   6.607   4.410  1.00 20.00     0.080 A 
HETATM    2  C2  UNL     1     -32.303   8.599   5.136  1.00 20.00     0.019 A 
HETATM    3  C3  UNL     1     -32.284   7.433   2.783  1.00 20.00     0.128 A 
HETATM    4  C4  UNL     1     -33.635   8.048   4.703  1.00 20.00     0.053 A 
HETATM    5  C5  UNL     1     -32.664   8.575   3.676  1.00 20.00     0.015 A 
HETATM    6  C6  UNL     1     -32.880   4.988   2.671  1.00 20.00     0.150 C 
HETATM    7  N7  UNL     1     -33.025   6.287   3.306  1.00 20.00    -0.379 N 
HETATM    8  S8  UNL     1     -34.779   5.696   5.380  1.00 20.00    -0.065 SA
ENDROOT
TORSDOF 0
ENDMDL
MODEL 3
REMARK VINA RESULT:      -4.1      0.838      2.949
REMARK  0 active torsions:
REMARK  status: ('A' for Active; 'I' for Inactive)
ROOT
HETATM    1  C1  UNL     1     -33.069   6.431   3.689  1.00 20.00     0.080 A 
HETATM    2  C2  UNL     1     -32.670   8.952   3.228  1.00 20.00     0.019 A 
HETATM    3  C3  UNL     1     -33.599   7.919   5.456  1.00 20.00     0.128 A 
HETATM    4  C4  UNL     1     -32.144   7.577   3.544  1.00 20.00     0.053 A 
HETATM    5  C5  UNL     1     -32.486   8.532   4.660  1.00 20.00     0.015 A 
HETATM    6  C6  UNL     1     -34.928   5.785   5.305  1.00 20.00     0.150 C 
HETATM    7  N7  UNL     1     -33.878   6.648   4.792  1.00 20.00    -0.379 N 
HETATM    8  S8  UNL     1     -32.995   5.196   2.592  1.00 20.00    -0.065 SA
ENDROOT
TORSDOF 0
ENDMDL
MODEL 4
REMARK VINA RESULT:      -3.8      1.946      2.485
REMARK  0 active torsions:
REMARK  status: ('A' for Active; 'I' for Inactive)
ROOT
HETATM    1  C1  UNL     1     -33.327   7.198   4.561  1.00 20.00     0.080 A 
HETATM    2  C2  UNL     1     -35.468   5.739   4.683  1.00 20.00     0.019 A 
HETATM    3  C3  UNL     1     -33.376   5.284   3.162  1.00 20.00     0.128 A 
HETATM    4  C4  UNL     1     -34.161   6.200   5.269  1.00 20.00     0.053 A 
HETATM    5  C5  UNL     1     -34.204   4.985   4.376  1.00 20.00     0.015 A 
HETATM    6  C6  UNL     1     -32.044   7.266   2.362  1.00 20.00     0.150 C 
HETATM    7  N7  UNL     1     -32.885   6.644   3.371  1.00 20.00    -0.379 N 
HETATM    8  S8  UNL     1     -33.096   8.683   5.249  1.00 20.00    -0.065 SA
ENDROOT
TORSDOF 0
ENDMDL
MODEL 5
REMARK VINA RESULT:      -3.5     16.638     17.172
REMARK  0 active torsions:
REMARK  status: ('A' for Active; 'I' for Inactive)
ROOT
HETATM    1  C1  UNL     1     -22.899  18.628  10.816  1.00 20.00     0.080 A 
HETATM    2  C2  UNL     1     -22.101  17.495   8.624  1.00 20.00     0.019 A 
HETATM    3  C3  UNL     1     -24.269  18.948   8.909  1.00 20.00     0.128 A 
HETATM    4  C4  UNL     1     -21.987  18.589   9.652  1.00 20.00     0.053 A 
HETATM    5  C5  UNL     1     -22.856  18.781   8.435  1.00 20.00     0.015 A 
HETATM    6  C6  UNL     1     -25.402  18.953  11.158  1.00 20.00     0.150 C 
HETATM    7  N7  UNL     1     -24.190  18.845  10.363  1.00 20.00    -0.379 N 
HETATM    8  S8  UNL     1     -22.275  18.410  12.332  1.00 20.00    -0.065 SA
ENDROOT
TORSDOF 0
ENDMDL
MODEL 6
REMARK VINA RESULT:      -3.4     16.192     17.113
REMARK  0 active torsions:
REMARK  status: ('A' for Active; 'I' for Inactive)
ROOT
HETATM    1  C1  UNL     1     -23.705  18.879   9.976  1.00 20.00     0.080 A 
HETATM    2  C2  UNL     1     -24.162  17.018  11.724  1.00 20.00     0.019 A 
HETATM    3  C3  UNL     1     -21.955  18.425  11.509  1.00 20.00     0.128 A 
HETATM    4  C4  UNL     1     -24.365  18.422  11.219  1.00 20.00     0.053 A 
HETATM    5  C5  UNL     1     -23.254  18.121  12.193  1.00 20.00     0.015 A 
HETATM    6  C6  UNL     1     -21.301  19.256   9.223  1.00 20.00     0.150 C 
HETATM    7  N7  UNL     1     -22.334  18.881  10.174  1.00 20.00    -0.379 N 
HETATM    8  S8  UNL     1     -24.639  19.263   8.666  1.00 20.00    -0.065 SA
ENDROOT
TORSDOF 0
ENDMDL
MODEL 7
REMARK VINA RESULT:      -3.4      1.745      2.885
REMARK  0 active torsions:
REMARK  status: ('A' for Active; 'I' for Inactive)
ROOT
HETATM    1  C1  UNL     1     -33.212   7.196   4.380  1.00 20.00     0.080 A 
HETATM    2  C2  UNL     1     -32.568   5.132   2.948  1.00 20.00     0.019 A 
HETATM    3  C3  UNL     1     -34.554   5.262   4.661  1.00 20.00     0.128 A 
HETATM    4  C4  UNL     1     -33.191   6.496   3.076  1.00 20.00     0.053 A 
HETATM    5  C5  UNL     1     -34.034   5.258   3.255  1.00 20.00     0.015 A 
HETATM    6  C6  UNL     1     -34.304   6.794   6.645  1.00 20.00     0.150 C 
HETATM    7  N7  UNL     1     -34.005   6.477   5.259  1.00 20.00    -0.379 N 
HETATM    8  S8  UNL     1     -32.346   8.594   4.554  1.00 20.00    -0.065 SA
ENDROOT
TORSDOF 0
ENDMDL
MODEL 8
REMARK VINA RESULT:      -3.4     16.192     16.571
REMARK  0 active torsions:
REMARK  status: ('A' for Active; 'I' for Inactive)
ROOT
HETATM    1  C1  UNL     1     -23.231  17.918   9.813  1.00 20.00     0.080 A 
HETATM    2  C2  UNL     1     -22.968  18.601  12.301  1.00 20.00     0.019 A 
HETATM    3  C3  UNL     1     -25.127  18.907  10.836  1.00 20.00     0.128 A 
HETATM    4  C4  UNL     1     -23.158  17.547  11.243  1.00 20.00     0.053 A 
HETATM    5  C5  UNL     1     -24.357  18.184  11.900  1.00 20.00     0.015 A 
HETATM    6  C6  UNL     1     -24.834  19.263   8.361  1.00 20.00     0.150 C 
HETATM    7  N7  UNL     1     -24.368  18.683   9.609  1.00 20.00    -0.379 N 
HETATM    8  S8  UNL     1     -22.035  17.411   8.790  1.00 20.00    -0.065 SA
ENDROOT
TORSDOF 0
ENDMDL
MODEL 9
REMARK VINA RESULT:      -3.3     13.106     13.783
REMARK  0 active torsions:
REMARK  status: ('A' for Active; 'I' for Inactive)
ROOT
HETATM    1  C1  UNL     1     -34.836  16.838  -4.725  1.00 20.00     0.080 A 
HETATM    2  C2  UNL     1     -33.545  16.594  -2.489  1.00 20.00     0.019 A 
HETATM    3  C3  UNL     1     -33.793  14.745  -4.338  1.00 20.00     0.128 A 
HETATM    4  C4  UNL     1     -33.647  17.127  -3.893  1.00 20.00     0.053 A 
HETATM    5  C5  UNL     1     -32.987  15.796  -3.635  1.00 20.00     0.015 A 
HETATM    6  C6  UNL     1     -35.883  14.751  -5.742  1.00 20.00     0.150 C 
HETATM    7  N7  UNL     1     -34.887  15.476  -4.972  1.00 20.00    -0.379 N 
HETATM    8  S8  UNL     1     -35.827  18.085  -5.170  1.00 20.00    -0.065 SA
ENDROOT
TORSDOF 0
ENDMDL
