MODEL 1
REMARK VINA RESULT:      -4.0      0.000      0.000
REMARK  1 active torsions:
REMARK  status: ('A' for Active; 'I' for Inactive)
REMARK    1  A    between atoms: C1_1  and  C3_3 
ROOT
HETATM    1  C2  UNL     1     -33.369  14.772  -4.290  1.00 20.00     0.080 C 
HETATM    2  C3  UNL     1     -34.230  15.250  -5.482  1.00 20.00     0.310 C 
HETATM    3  C4  UNL     1     -33.315  16.269  -3.901  1.00 20.00     0.222 C 
HETATM    4  C5  UNL     1     -33.480  16.588  -2.428  1.00 20.00     0.043 C 
HETATM    5  C6  UNL     1     -34.539  17.657  -5.468  1.00 20.00     0.311 C 
HETATM    6  N7  UNL     1     -34.584  16.442  -4.661  1.00 20.00     0.101 N 
ENDROOT
BRANCH   2   7
HETATM    7  C1  UNL     1     -35.485  14.455  -5.850  1.00 20.00     0.252 C 
HETATM    8  O8  UNL     1     -35.959  14.486  -6.982  1.00 20.00    -0.277 OA
HETATM    9 CL9  UNL     1     -36.106  13.553  -4.502  1.00 20.00    -0.042 Cl
ENDBRANCH   2   7
TORSDOF 1
ENDMDL
MODEL 2
REMARK VINA RESULT:      -3.6      4.824      5.819
REMARK  1 active torsions:
REMARK  status: ('A' for Active; 'I' for Inactive)
REMARK    1  A    between atoms: C1_1  and  C3_3 
ROOT
HETATM    1  C2  UNL     1     -33.797  17.204  -1.030  1.00 20.00     0.080 C 
HETATM    2  C3  UNL     1     -33.058  18.559  -1.120  1.00 20.00     0.310 C 
HETATM    3  C4  UNL     1     -33.797  17.253  -2.577  1.00 20.00     0.222 C 
HETATM    4  C5  UNL     1     -33.480  15.954  -3.291  1.00 20.00     0.043 C 
HETATM    5  C6  UNL     1     -32.727  19.259  -3.419  1.00 20.00     0.311 C 
HETATM    6  N7  UNL     1     -32.611  18.148  -2.480  1.00 20.00     0.101 N 
ENDROOT
BRANCH   2   7
HETATM    7  C1  UNL     1     -31.855  18.804  -0.206  1.00 20.00     0.252 C 
HETATM    8  O8  UNL     1     -30.703  18.736  -0.625  1.00 20.00    -0.277 OA
HETATM    9 CL9  UNL     1     -32.334  19.174   1.422  1.00 20.00    -0.042 Cl
ENDBRANCH   2   7
TORSDOF 1
ENDMDL
MODEL 3
REMARK VINA RESULT:      -3.5     12.493     13.179
REMARK  1 active torsions:
REMARK  status: ('A' for Active; 'I' for Inactive)
REMARK    1  A    between atoms: C1_1  and  C3_3 
ROOT
HETATM    1  C2  UNL     1     -33.602   7.679   3.534  1.00 20.00     0.080 C 
HETATM    2  C3  UNL     1     -34.235   6.511   4.324  1.00 20.00     0.310 C 
HETATM    3  C4  UNL     1     -33.419   8.342   4.920  1.00 20.00     0.222 C 
HETATM    4  C5  UNL     1     -32.096   9.040   5.163  1.00 20.00     0.043 C 
HETATM    5  C6  UNL     1     -34.268   6.946   6.711  1.00 20.00     0.311 C 
HETATM    6  N7  UNL     1     -33.450   6.973   5.503  1.00 20.00     0.101 N 
ENDROOT
BRANCH   2   7
HETATM    7  C1  UNL     1     -33.855   5.076   3.950  1.00 20.00     0.252 C 
HETATM    8  O8  UNL     1     -34.251   4.114   4.600  1.00 20.00    -0.277 OA
HETATM    9 CL9  UNL     1     -32.837   5.016   2.543  1.00 20.00    -0.042 Cl
ENDBRANCH   2   7
TORSDOF 1
ENDMDL
MODEL 4
REMARK VINA RESULT:      -3.5     12.191     12.908
REMARK  1 active torsions:
REMARK  status: ('A' for Active; 'I' for Inactive)
REMARK    1  A    between atoms: C1_1  and  C3_3 
ROOT
HETATM    1  C2  UNL     1     -32.986   7.857   4.901  1.00 20.00     0.080 C 
HETATM    2  C3  UNL     1     -33.402   6.377   4.738  1.00 20.00     0.310 C 
HETATM    3  C4  UNL     1     -32.368   7.700   3.491  1.00 20.00     0.222 C 
HETATM    4  C5  UNL     1     -32.581   8.853   2.531  1.00 20.00     0.043 C 
HETATM    5  C6  UNL     1     -32.683   5.464   2.608  1.00 20.00     0.311 C 
HETATM    6  N7  UNL     1     -33.336   6.592   3.265  1.00 20.00     0.101 N 
ENDROOT
BRANCH   2   7
HETATM    7  C1  UNL     1     -34.813   5.957   5.160  1.00 20.00     0.252 C 
HETATM    8  O8  UNL     1     -35.757   5.992   4.377  1.00 20.00    -0.277 OA
HETATM    9 CL9  UNL     1     -34.874   5.451   6.820  1.00 20.00    -0.042 Cl
ENDBRANCH   2   7
TORSDOF 1
ENDMDL
MODEL 5
REMARK VINA RESULT:      -3.3     12.501     13.238
REMARK  1 active torsions:
REMARK  status: ('A' for Active; 'I' for Inactive)
REMARK    1  A    between atoms: C1_1  and  C3_3 
ROOT
HETATM    1  C2  UNL     1     -34.266   7.561   5.906  1.00 20.00     0.080 C 
HETATM    2  C3  UNL     1     -33.807   7.576   4.430  1.00 20.00     0.310 C 
HETATM    3  C4  UNL     1     -34.581   6.067   5.653  1.00 20.00     0.222 C 
HETATM    4  C5  UNL     1     -34.190   5.101   6.755  1.00 20.00     0.043 C 
HETATM    5  C6  UNL     1     -34.064   5.404   3.379  1.00 20.00     0.311 C 
HETATM    6  N7  UNL     1     -33.573   6.110   4.558  1.00 20.00     0.101 N 
ENDROOT
BRANCH   2   7
HETATM    7  C1  UNL     1     -32.508   8.301   4.069  1.00 20.00     0.252 C 
HETATM    8  O8  UNL     1     -31.935   9.034   4.870  1.00 20.00    -0.277 OA
HETATM    9 CL9  UNL     1     -31.993   7.952   2.447  1.00 20.00    -0.042 Cl
ENDBRANCH   2   7
TORSDOF 1
ENDMDL
MODEL 6
REMARK VINA RESULT:      -3.2      1.894      2.284
REMARK  1 active torsions:
REMARK  status: ('A' for Active; 'I' for Inactive)
REMARK    1  A    between atoms: C1_1  and  C3_3 
ROOT
HETATM    1  C2  UNL     1     -33.325  16.520  -2.587  1.00 20.00     0.080 C 
HETATM    2  C3  UNL     1     -33.420  16.309  -4.115  1.00 20.00     0.310 C 
HETATM    3  C4  UNL     1     -33.821  17.954  -2.888  1.00 20.00     0.222 C 
HETATM    4  C5  UNL     1     -34.866  18.516  -1.944  1.00 20.00     0.043 C 
HETATM    5  C6  UNL     1     -34.180  18.310  -5.259  1.00 20.00     0.311 C 
HETATM    6  N7  UNL     1     -34.423  17.410  -4.136  1.00 20.00     0.101 N 
ENDROOT
BRANCH   2   7
HETATM    7  C1  UNL     1     -34.033  15.010  -4.644  1.00 20.00     0.252 C 
HETATM    8  O8  UNL     1     -34.399  14.115  -3.887  1.00 20.00    -0.277 OA
HETATM    9 CL9  UNL     1     -34.127  14.990  -6.378  1.00 20.00    -0.042 Cl
ENDBRANCH   2   7
TORSDOF 1
ENDMDL
MODEL 7
REMARK VINA RESULT:      -3.2      2.402      2.930
REMARK  1 active torsions:
REMARK  status: ('A' for Active; 'I' for Inactive)
REMARK    1  A    between atoms: C1_1  and  C3_3 
ROOT
HETATM    1  C2  UNL     1     -34.633  15.326  -6.889  1.00 20.00     0.080 C 
HETATM    2  C3  UNL     1     -35.709  14.795  -5.915  1.00 20.00     0.310 C 
HETATM    3  C4  UNL     1     -35.458  16.635  -6.877  1.00 20.00     0.222 C 
HETATM    4  C5  UNL     1     -34.669  17.927  -6.801  1.00 20.00     0.043 C 
HETATM    5  C6  UNL     1     -37.415  16.458  -5.456  1.00 20.00     0.311 C 
HETATM    6  N7  UNL     1     -35.979  16.213  -5.547  1.00 20.00     0.101 N 
ENDROOT
BRANCH   2   7
HETATM    7  C1  UNL     1     -35.262  13.994  -4.689  1.00 20.00     0.252 C 
HETATM    8  O8  UNL     1     -35.865  12.991  -4.319  1.00 20.00    -0.277 OA
HETATM    9 CL9  UNL     1     -33.852  14.678  -3.940  1.00 20.00    -0.042 Cl
ENDBRANCH   2   7
TORSDOF 1
ENDMDL
MODEL 8
REMARK VINA RESULT:      -3.2      2.333      3.331
REMARK  1 active torsions:
REMARK  status: ('A' for Active; 'I' for Inactive)
REMARK    1  A    between atoms: C1_1  and  C3_3 
ROOT
HETATM    1  C2  UNL     1     -34.865  17.498  -4.887  1.00 20.00     0.080 C 
HETATM    2  C3  UNL     1     -34.307  16.091  -5.205  1.00 20.00     0.310 C 
HETATM    3  C4  UNL     1     -36.089  17.056  -5.725  1.00 20.00     0.222 C 
HETATM    4  C5  UNL     1     -37.451  17.430  -5.175  1.00 20.00     0.043 C 
HETATM    5  C6  UNL     1     -35.833  14.802  -6.583  1.00 20.00     0.311 C 
HETATM    6  N7  UNL     1     -35.717  15.651  -5.401  1.00 20.00     0.101 N 
ENDROOT
BRANCH   2   7
HETATM    7  C1  UNL     1     -33.642  15.291  -4.082  1.00 20.00     0.252 C 
HETATM    8  O8  UNL     1     -33.340  14.110  -4.224  1.00 20.00    -0.277 OA
HETATM    9 CL9  UNL     1     -33.390  16.251  -2.656  1.00 20.00    -0.042 Cl
ENDBRANCH   2   7
TORSDOF 1
ENDMDL
MODEL 9
REMARK VINA RESULT:      -3.2     12.953     13.817
REMARK  1 active torsions:
REMARK  status: ('A' for Active; 'I' for Inactive)
REMARK    1  A    between atoms: C1_1  and  C3_3 
ROOT
HETATM    1  C2  UNL     1     -40.495  14.680   7.088  1.00 20.00     0.080 C 
HETATM    2  C3  UNL     1     -40.797  13.398   6.279  1.00 20.00     0.310 C 
HETATM    3  C4  UNL     1     -41.879  14.437   7.736  1.00 20.00     0.222 C 
HETATM    4  C5  UNL     1     -41.968  14.651   9.234  1.00 20.00     0.043 C 
HETATM    5  C6  UNL     1     -42.961  12.459   6.844  1.00 20.00     0.311 C 
HETATM    6  N7  UNL     1     -41.716  13.000   7.381  1.00 20.00     0.101 N 
ENDROOT
BRANCH   2   7
HETATM    7  C1  UNL     1     -39.686  12.360   6.100  1.00 20.00     0.252 C 
HETATM    8  O8  UNL     1     -39.056  11.918   7.057  1.00 20.00    -0.277 OA
HETATM    9 CL9  UNL     1     -39.462  11.923   4.434  1.00 20.00    -0.042 Cl
ENDBRANCH   2   7
TORSDOF 1
ENDMDL
