MODEL 1
REMARK VINA RESULT:      -4.0      0.000      0.000
REMARK  1 active torsions:
REMARK  status: ('A' for Active; 'I' for Inactive)
REMARK    1  A    between atoms: C1_1  and  C4_4 
ROOT
HETATM    1  C1  UNL     1     -33.527   7.151   5.135  1.00 20.00    -0.049 C 
HETATM    2  C2  UNL     1     -32.904   8.173   5.057  1.00 20.00     0.008 C 
HETATM    3 CL8  UNL     1     -31.993   9.668   4.943  1.00 20.00    -0.023 Cl
ENDROOT
BRANCH   1   4
HETATM    4  C4  UNL     1     -34.271   5.928   5.228  1.00 20.00     0.147 A 
HETATM    5  C3  UNL     1     -34.184   4.893   4.125  1.00 20.00     0.166 A 
HETATM    6  C5  UNL     1     -33.343   5.057   2.909  1.00 20.00     0.044 C 
HETATM    7  O7  UNL     1     -35.282   5.808   4.214  1.00 20.00    -0.356 OA
HETATM    8  C6  UNL     1     -34.735   5.511   6.586  1.00 20.00     0.063 C 
ENDBRANCH   1   4
TORSDOF 1
ENDMDL
MODEL 2
REMARK VINA RESULT:      -3.6      2.549      3.652
REMARK  1 active torsions:
REMARK  status: ('A' for Active; 'I' for Inactive)
REMARK    1  A    between atoms: C1_1  and  C4_4 
ROOT
HETATM    1  C1  UNL     1     -33.054   6.465   3.711  1.00 20.00    -0.049 C 
HETATM    2  C2  UNL     1     -32.958   5.596   2.890  1.00 20.00     0.008 C 
HETATM    3 CL8  UNL     1     -32.817   4.326   1.688  1.00 20.00    -0.023 Cl
ENDROOT
BRANCH   1   4
HETATM    4  C4  UNL     1     -33.169   7.503   4.694  1.00 20.00     0.147 A 
HETATM    5  C3  UNL     1     -33.849   7.231   6.020  1.00 20.00     0.166 A 
HETATM    6  C5  UNL     1     -34.420   5.909   6.393  1.00 20.00     0.044 C 
HETATM    7  O7  UNL     1     -34.530   7.889   4.946  1.00 20.00    -0.356 OA
HETATM    8  C6  UNL     1     -32.232   8.662   4.578  1.00 20.00     0.063 C 
ENDBRANCH   1   4
TORSDOF 1
ENDMDL
MODEL 3
REMARK VINA RESULT:      -3.4     12.698     13.309
REMARK  1 active torsions:
REMARK  status: ('A' for Active; 'I' for Inactive)
REMARK    1  A    between atoms: C1_1  and  C4_4 
ROOT
HETATM    1  C1  UNL     1     -33.584  17.224  -2.186  1.00 20.00    -0.049 C 
HETATM    2  C2  UNL     1     -33.319  16.350  -2.964  1.00 20.00     0.008 C 
HETATM    3 CL8  UNL     1     -32.932  15.073  -4.102  1.00 20.00    -0.023 Cl
ENDROOT
BRANCH   1   4
HETATM    4  C4  UNL     1     -33.901  18.269  -1.256  1.00 20.00     0.147 A 
HETATM    5  C3  UNL     1     -32.822  18.860  -0.371  1.00 20.00     0.166 A 
HETATM    6  C5  UNL     1     -31.401  18.422  -0.406  1.00 20.00     0.044 C 
HETATM    7  O7  UNL     1     -33.736  17.870   0.114  1.00 20.00    -0.356 OA
HETATM    8  C6  UNL     1     -35.151  19.049  -1.504  1.00 20.00     0.063 C 
ENDBRANCH   1   4
TORSDOF 1
ENDMDL
MODEL 4
REMARK VINA RESULT:      -3.3      9.874     10.519
REMARK  1 active torsions:
REMARK  status: ('A' for Active; 'I' for Inactive)
REMARK    1  A    between atoms: C1_1  and  C4_4 
ROOT
HETATM    1  C1  UNL     1     -40.845  12.675   6.078  1.00 20.00    -0.049 C 
HETATM    2  C2  UNL     1     -40.033  12.275   5.291  1.00 20.00     0.008 C 
HETATM    3 CL8  UNL     1     -38.846  11.689   4.140  1.00 20.00    -0.023 Cl
ENDROOT
BRANCH   1   4
HETATM    4  C4  UNL     1     -41.815  13.155   7.019  1.00 20.00     0.147 A 
HETATM    5  C3  UNL     1     -41.629  14.499   7.694  1.00 20.00     0.166 A 
HETATM    6  C5  UNL     1     -40.471  15.395   7.432  1.00 20.00     0.044 C 
HETATM    7  O7  UNL     1     -41.293  13.273   8.353  1.00 20.00    -0.356 OA
HETATM    8  C6  UNL     1     -43.180  12.547   6.966  1.00 20.00     0.063 C 
ENDBRANCH   1   4
TORSDOF 1
ENDMDL
MODEL 5
REMARK VINA RESULT:      -3.3      1.653      1.834
REMARK  1 active torsions:
REMARK  status: ('A' for Active; 'I' for Inactive)
REMARK    1  A    between atoms: C1_1  and  C4_4 
ROOT
HETATM    1  C1  UNL     1     -33.370   7.086   4.144  1.00 20.00    -0.049 C 
HETATM    2  C2  UNL     1     -32.777   7.523   3.197  1.00 20.00     0.008 C 
HETATM    3 CL8  UNL     1     -31.908   8.162   1.814  1.00 20.00    -0.023 Cl
ENDROOT
BRANCH   1   4
HETATM    4  C4  UNL     1     -34.080   6.563   5.274  1.00 20.00     0.147 A 
HETATM    5  C3  UNL     1     -34.394   5.083   5.365  1.00 20.00     0.166 A 
HETATM    6  C5  UNL     1     -33.994   4.095   4.328  1.00 20.00     0.044 C 
HETATM    7  O7  UNL     1     -35.372   6.035   4.931  1.00 20.00    -0.356 OA
HETATM    8  C6  UNL     1     -34.085   7.388   6.521  1.00 20.00     0.063 C 
ENDBRANCH   1   4
TORSDOF 1
ENDMDL
MODEL 6
REMARK VINA RESULT:      -3.3      9.704     10.164
REMARK  1 active torsions:
REMARK  status: ('A' for Active; 'I' for Inactive)
REMARK    1  A    between atoms: C1_1  and  C4_4 
ROOT
HETATM    1  C1  UNL     1     -41.411  13.835   5.212  1.00 20.00    -0.049 C 
HETATM    2  C2  UNL     1     -42.103  14.308   4.354  1.00 20.00     0.008 C 
HETATM    3 CL8  UNL     1     -43.115  14.999   3.100  1.00 20.00    -0.023 Cl
ENDROOT
BRANCH   1   4
HETATM    4  C4  UNL     1     -40.584  13.269   6.237  1.00 20.00     0.147 A 
HETATM    5  C3  UNL     1     -39.522  12.246   5.889  1.00 20.00     0.166 A 
HETATM    6  C5  UNL     1     -39.260  11.775   4.502  1.00 20.00     0.044 C 
HETATM    7  O7  UNL     1     -40.795  11.859   6.416  1.00 20.00    -0.356 OA
HETATM    8  C6  UNL     1     -40.476  14.023   7.524  1.00 20.00     0.063 C 
ENDBRANCH   1   4
TORSDOF 1
ENDMDL
MODEL 7
REMARK VINA RESULT:      -3.1      9.911     10.527
REMARK  1 active torsions:
REMARK  status: ('A' for Active; 'I' for Inactive)
REMARK    1  A    between atoms: C1_1  and  C4_4 
ROOT
HETATM    1  C1  UNL     1     -40.491  13.046   6.307  1.00 20.00    -0.049 C 
HETATM    2  C2  UNL     1     -39.893  12.471   5.440  1.00 20.00     0.008 C 
HETATM    3 CL8  UNL     1     -39.017  11.631   4.174  1.00 20.00    -0.023 Cl
ENDROOT
BRANCH   1   4
HETATM    4  C4  UNL     1     -41.207  13.732   7.342  1.00 20.00     0.147 A 
HETATM    5  C3  UNL     1     -42.566  13.236   7.793  1.00 20.00     0.166 A 
HETATM    6  C5  UNL     1     -43.231  12.035   7.221  1.00 20.00     0.044 C 
HETATM    7  O7  UNL     1     -42.429  14.329   6.878  1.00 20.00    -0.356 OA
HETATM    8  C6  UNL     1     -40.416  14.620   8.248  1.00 20.00     0.063 C 
ENDBRANCH   1   4
TORSDOF 1
ENDMDL
MODEL 8
REMARK VINA RESULT:      -3.0     13.047     13.907
REMARK  1 active torsions:
REMARK  status: ('A' for Active; 'I' for Inactive)
REMARK    1  A    between atoms: C1_1  and  C4_4 
ROOT
HETATM    1  C1  UNL     1     -34.156  16.400  -4.698  1.00 20.00    -0.049 C 
HETATM    2  C2  UNL     1     -33.757  16.645  -3.594  1.00 20.00     0.008 C 
HETATM    3 CL8  UNL     1     -33.173  17.002  -1.979  1.00 20.00    -0.023 Cl
ENDROOT
BRANCH   1   4
HETATM    4  C4  UNL     1     -34.633  16.108  -6.018  1.00 20.00     0.147 A 
HETATM    5  C3  UNL     1     -35.564  14.935  -6.254  1.00 20.00     0.166 A 
HETATM    6  C5  UNL     1     -36.043  14.037  -5.170  1.00 20.00     0.044 C 
HETATM    7  O7  UNL     1     -34.160  14.847  -6.520  1.00 20.00    -0.356 OA
HETATM    8  C6  UNL     1     -34.577  17.209  -7.027  1.00 20.00     0.063 C 
ENDBRANCH   1   4
TORSDOF 1
ENDMDL
MODEL 9
REMARK VINA RESULT:      -2.9      9.811     10.221
REMARK  1 active torsions:
REMARK  status: ('A' for Active; 'I' for Inactive)
REMARK    1  A    between atoms: C1_1  and  C4_4 
ROOT
HETATM    1  C1  UNL     1     -40.948  13.785   7.708  1.00 20.00    -0.049 C 
HETATM    2  C2  UNL     1     -40.519  14.460   8.602  1.00 20.00     0.008 C 
HETATM    3 CL8  UNL     1     -39.891  15.446   9.910  1.00 20.00    -0.023 Cl
ENDROOT
BRANCH   1   4
HETATM    4  C4  UNL     1     -41.461  12.979   6.639  1.00 20.00     0.147 A 
HETATM    5  C3  UNL     1     -40.526  12.124   5.807  1.00 20.00     0.166 A 
HETATM    6  C5  UNL     1     -39.058  12.052   6.037  1.00 20.00     0.044 C 
HETATM    7  O7  UNL     1     -40.992  13.397   5.346  1.00 20.00    -0.356 OA
HETATM    8  C6  UNL     1     -42.919  12.651   6.667  1.00 20.00     0.063 C 
ENDBRANCH   1   4
TORSDOF 1
ENDMDL
