MODEL 1
REMARK VINA RESULT:      -4.5      0.000      0.000
REMARK  2 active torsions:
REMARK  status: ('A' for Active; 'I' for Inactive)
REMARK    1  A    between atoms: C2_2  and  C7_7 
REMARK    2  A    between atoms: C6_6  and  C7_7 
ROOT
HETATM    1  C1  UNL     1     -32.308   7.521   2.261  1.00 20.00     0.064 C 
HETATM    2  C4  UNL     1     -33.090   5.272   2.877  1.00 20.00     0.026 C 
HETATM    3  C6  UNL     1     -32.672   6.649   3.397  1.00 20.00     0.099 C 
HETATM    4  N8  UNL     1     -32.020   8.206   1.369  1.00 20.00    -0.197 NA
ENDROOT
BRANCH   3   5
HETATM    5  C7  UNL     1     -33.737   7.332   4.287  1.00 20.00     0.068 C 
HETATM    6  C5  UNL     1     -33.161   8.302   5.324  1.00 20.00     0.019 C 
BRANCH   5   7
HETATM    7  C2  UNL     1     -34.615   6.284   4.975  1.00 20.00     0.128 C 
HETATM    8  C3  UNL     1     -34.214   5.863   6.367  1.00 20.00     0.091 C 
HETATM    9  O9  UNL     1     -35.593   5.779   4.423  1.00 20.00    -0.298 OA
ENDBRANCH   5   7
ENDBRANCH   3   5
TORSDOF 2
ENDMDL
MODEL 2
REMARK VINA RESULT:      -4.4      0.617      1.929
REMARK  2 active torsions:
REMARK  status: ('A' for Active; 'I' for Inactive)
REMARK    1  A    between atoms: C2_2  and  C7_7 
REMARK    2  A    between atoms: C6_6  and  C7_7 
ROOT
HETATM    1  C1  UNL     1     -32.477   8.018   2.437  1.00 20.00     0.064 C 
HETATM    2  C4  UNL     1     -32.354   8.674   4.805  1.00 20.00     0.026 C 
HETATM    3  C6  UNL     1     -33.113   7.852   3.761  1.00 20.00     0.099 C 
HETATM    4  N8  UNL     1     -31.979   8.150   1.397  1.00 20.00    -0.197 NA
ENDROOT
BRANCH   3   5
HETATM    5  C7  UNL     1     -33.239   6.351   4.118  1.00 20.00     0.068 C 
HETATM    6  C5  UNL     1     -33.167   5.411   2.911  1.00 20.00     0.019 C 
BRANCH   5   7
HETATM    7  C2  UNL     1     -34.523   6.094   4.911  1.00 20.00     0.128 C 
HETATM    8  C3  UNL     1     -34.409   6.102   6.416  1.00 20.00     0.091 C 
HETATM    9  O9  UNL     1     -35.602   5.866   4.364  1.00 20.00    -0.298 OA
ENDBRANCH   5   7
ENDBRANCH   3   5
TORSDOF 2
ENDMDL
MODEL 3
REMARK VINA RESULT:      -4.3      1.268      2.044
REMARK  2 active torsions:
REMARK  status: ('A' for Active; 'I' for Inactive)
REMARK    1  A    between atoms: C2_2  and  C7_7 
REMARK    2  A    between atoms: C6_6  and  C7_7 
ROOT
HETATM    1  C1  UNL     1     -32.812   6.980   3.368  1.00 20.00     0.064 C 
HETATM    2  C4  UNL     1     -32.385   8.887   4.862  1.00 20.00     0.026 C 
HETATM    3  C6  UNL     1     -33.445   7.937   4.300  1.00 20.00     0.099 C 
HETATM    4  N8  UNL     1     -32.317   6.229   2.635  1.00 20.00    -0.197 NA
ENDROOT
BRANCH   3   5
HETATM    5  C7  UNL     1     -34.251   7.185   5.386  1.00 20.00     0.068 C 
HETATM    6  C5  UNL     1     -33.414   6.726   6.584  1.00 20.00     0.019 C 
BRANCH   5   7
HETATM    7  C2  UNL     1     -34.996   5.995   4.775  1.00 20.00     0.128 C 
HETATM    8  C3  UNL     1     -34.427   4.624   5.041  1.00 20.00     0.091 C 
HETATM    9  O9  UNL     1     -35.999   6.134   4.075  1.00 20.00    -0.298 OA
ENDBRANCH   5   7
ENDBRANCH   3   5
TORSDOF 2
ENDMDL
MODEL 4
REMARK VINA RESULT:      -4.0      1.747      2.528
REMARK  2 active torsions:
REMARK  status: ('A' for Active; 'I' for Inactive)
REMARK    1  A    between atoms: C2_2  and  C7_7 
REMARK    2  A    between atoms: C6_6  and  C7_7 
ROOT
HETATM    1  C1  UNL     1     -32.242   8.711   4.773  1.00 20.00     0.064 C 
HETATM    2  C4  UNL     1     -32.588   7.903   2.476  1.00 20.00     0.026 C 
HETATM    3  C6  UNL     1     -32.558   7.520   3.957  1.00 20.00     0.099 C 
HETATM    4  N8  UNL     1     -31.991   9.645   5.415  1.00 20.00    -0.197 NA
ENDROOT
BRANCH   3   5
HETATM    5  C7  UNL     1     -33.860   6.850   4.457  1.00 20.00     0.068 C 
HETATM    6  C5  UNL     1     -34.084   6.961   5.968  1.00 20.00     0.019 C 
BRANCH   5   7
HETATM    7  C2  UNL     1     -33.910   5.383   4.022  1.00 20.00     0.128 C 
HETATM    8  C3  UNL     1     -33.128   5.009   2.787  1.00 20.00     0.091 C 
HETATM    9  O9  UNL     1     -34.572   4.538   4.625  1.00 20.00    -0.298 OA
ENDBRANCH   5   7
ENDBRANCH   3   5
TORSDOF 2
ENDMDL
MODEL 5
REMARK VINA RESULT:      -4.0      1.761      3.040
REMARK  2 active torsions:
REMARK  status: ('A' for Active; 'I' for Inactive)
REMARK    1  A    between atoms: C2_2  and  C7_7 
REMARK    2  A    between atoms: C6_6  and  C7_7 
ROOT
HETATM    1  C1  UNL     1     -33.076   7.988   5.037  1.00 20.00     0.064 C 
HETATM    2  C4  UNL     1     -33.906   6.218   6.529  1.00 20.00     0.026 C 
HETATM    3  C6  UNL     1     -34.246   7.145   5.359  1.00 20.00     0.099 C 
HETATM    4  N8  UNL     1     -32.158   8.652   4.784  1.00 20.00    -0.197 NA
ENDROOT
BRANCH   3   5
HETATM    5  C7  UNL     1     -34.744   6.402   4.097  1.00 20.00     0.068 C 
HETATM    6  C5  UNL     1     -36.233   6.042   4.127  1.00 20.00     0.019 C 
BRANCH   5   7
HETATM    7  C2  UNL     1     -33.903   5.149   3.843  1.00 20.00     0.128 C 
HETATM    8  C3  UNL     1     -32.852   5.239   2.763  1.00 20.00     0.091 C 
HETATM    9  O9  UNL     1     -34.077   4.101   4.464  1.00 20.00    -0.298 OA
ENDBRANCH   5   7
ENDBRANCH   3   5
TORSDOF 2
ENDMDL
MODEL 6
REMARK VINA RESULT:      -3.9     12.334     12.759
REMARK  2 active torsions:
REMARK  status: ('A' for Active; 'I' for Inactive)
REMARK    1  A    between atoms: C2_2  and  C7_7 
REMARK    2  A    between atoms: C6_6  and  C7_7 
ROOT
HETATM    1  C1  UNL     1     -34.798  18.581  -1.944  1.00 20.00     0.064 C 
HETATM    2  C4  UNL     1     -33.313  16.666  -2.368  1.00 20.00     0.026 C 
HETATM    3  C6  UNL     1     -33.446  18.036  -1.699  1.00 20.00     0.099 C 
HETATM    4  N8  UNL     1     -35.858  19.011  -2.137  1.00 20.00    -0.197 NA
ENDROOT
BRANCH   3   5
HETATM    5  C7  UNL     1     -33.131  18.026  -0.184  1.00 20.00     0.068 C 
HETATM    6  C5  UNL     1     -34.099  18.857   0.664  1.00 20.00     0.019 C 
BRANCH   5   7
HETATM    7  C2  UNL     1     -31.689  18.475   0.067  1.00 20.00     0.128 C 
HETATM    8  C3  UNL     1     -31.202  18.442   1.495  1.00 20.00     0.091 C 
HETATM    9  O9  UNL     1     -30.955  18.871  -0.837  1.00 20.00    -0.298 OA
ENDBRANCH   5   7
ENDBRANCH   3   5
TORSDOF 2
ENDMDL
MODEL 7
REMARK VINA RESULT:      -3.8      9.699     10.696
REMARK  2 active torsions:
REMARK  status: ('A' for Active; 'I' for Inactive)
REMARK    1  A    between atoms: C2_2  and  C7_7 
REMARK    2  A    between atoms: C6_6  and  C7_7 
ROOT
HETATM    1  C1  UNL     1     -40.577  14.212   8.335  1.00 20.00     0.064 C 
HETATM    2  C4  UNL     1     -41.648  15.615   6.623  1.00 20.00     0.026 C 
HETATM    3  C6  UNL     1     -40.676  14.462   6.882  1.00 20.00     0.099 C 
HETATM    4  N8  UNL     1     -40.496  14.015   9.476  1.00 20.00    -0.197 NA
ENDROOT
BRANCH   3   5
HETATM    5  C7  UNL     1     -41.036  13.159   6.130  1.00 20.00     0.068 C 
HETATM    6  C5  UNL     1     -42.172  12.356   6.772  1.00 20.00     0.019 C 
BRANCH   5   7
HETATM    7  C2  UNL     1     -39.796  12.277   5.960  1.00 20.00     0.128 C 
HETATM    8  C3  UNL     1     -39.417  11.897   4.550  1.00 20.00     0.091 C 
HETATM    9  O9  UNL     1     -39.142  11.868   6.918  1.00 20.00    -0.298 OA
ENDBRANCH   5   7
ENDBRANCH   3   5
TORSDOF 2
ENDMDL
MODEL 8
REMARK VINA RESULT:      -3.8     11.826     13.343
REMARK  2 active torsions:
REMARK  status: ('A' for Active; 'I' for Inactive)
REMARK    1  A    between atoms: C2_2  and  C7_7 
REMARK    2  A    between atoms: C6_6  and  C7_7 
ROOT
HETATM    1  C1  UNL     1     -34.969  14.037  -4.548  1.00 20.00     0.064 C 
HETATM    2  C4  UNL     1     -33.545  15.722  -3.461  1.00 20.00     0.026 C 
HETATM    3  C6  UNL     1     -33.966  15.095  -4.791  1.00 20.00     0.099 C 
HETATM    4  N8  UNL     1     -35.755  13.205  -4.357  1.00 20.00    -0.197 NA
ENDROOT
BRANCH   3   5
HETATM    5  C7  UNL     1     -34.496  16.117  -5.825  1.00 20.00     0.068 C 
HETATM    6  C5  UNL     1     -35.860  16.719  -5.472  1.00 20.00     0.019 C 
BRANCH   5   7
HETATM    7  C2  UNL     1     -34.539  15.494  -7.223  1.00 20.00     0.128 C 
HETATM    8  C3  UNL     1     -35.882  15.447  -7.909  1.00 20.00     0.091 C 
HETATM    9  O9  UNL     1     -33.539  15.026  -7.767  1.00 20.00    -0.298 OA
ENDBRANCH   5   7
ENDBRANCH   3   5
TORSDOF 2
ENDMDL
MODEL 9
REMARK VINA RESULT:      -3.8      2.837      3.580
REMARK  2 active torsions:
REMARK  status: ('A' for Active; 'I' for Inactive)
REMARK    1  A    between atoms: C2_2  and  C7_7 
REMARK    2  A    between atoms: C6_6  and  C7_7 
ROOT
HETATM    1  C1  UNL     1     -34.636   5.454   4.467  1.00 20.00     0.064 C 
HETATM    2  C4  UNL     1     -32.785   5.589   2.853  1.00 20.00     0.026 C 
HETATM    3  C6  UNL     1     -33.687   6.375   3.807  1.00 20.00     0.099 C 
HETATM    4  N8  UNL     1     -35.382   4.732   4.986  1.00 20.00    -0.197 NA
ENDROOT
BRANCH   3   5
HETATM    5  C7  UNL     1     -32.914   7.205   4.859  1.00 20.00     0.068 C 
HETATM    6  C5  UNL     1     -33.659   7.390   6.185  1.00 20.00     0.019 C 
BRANCH   5   7
HETATM    7  C2  UNL     1     -32.515   8.566   4.283  1.00 20.00     0.128 C 
HETATM    8  C3  UNL     1     -32.688   8.756   2.796  1.00 20.00     0.091 C 
HETATM    9  O9  UNL     1     -32.050   9.467   4.981  1.00 20.00    -0.298 OA
ENDBRANCH   5   7
ENDBRANCH   3   5
TORSDOF 2
ENDMDL
