MODEL 1
REMARK VINA RESULT:      -4.8      0.000      0.000
REMARK  2 active torsions:
REMARK  status: ('A' for Active; 'I' for Inactive)
REMARK    1  A    between atoms: C3_3  and  C6_6 
REMARK    2  A    between atoms: C3_3  and  O10_10 
ROOT
HETATM    1  C1  UNL     1     -34.553   4.944   4.835  1.00 20.00    -0.002 C 
HETATM    2  C2  UNL     1     -34.884   5.293   6.085  1.00 20.00     0.130 C 
HETATM    3  C4  UNL     1     -33.766   5.854   3.948  1.00 20.00     0.046 C 
HETATM    4  C5  UNL     1     -33.495   7.196   6.046  1.00 20.00     0.189 C 
HETATM    5  C6  UNL     1     -33.713   7.265   4.536  1.00 20.00     0.113 C 
HETATM    6  O9  UNL     1     -34.522   6.453   6.718  1.00 20.00    -0.362 OA
ENDROOT
BRANCH   5   7
HETATM    7  C3  UNL     1     -32.617   8.060   3.898  1.00 20.00     0.265 C 
HETATM    8  O8  UNL     1     -32.203   9.127   4.332  1.00 20.00    -0.265 OA
BRANCH   7   9
HETATM    9  O10 UNL     1     -32.174   7.413   2.783  1.00 20.00    -0.326 OA
HETATM   10  C7  UNL     1     -32.164   8.192   1.583  1.00 20.00     0.213 C 
ENDBRANCH   7   9
ENDBRANCH   5   7
TORSDOF 2
ENDMDL
MODEL 2
REMARK VINA RESULT:      -4.4      1.011      1.609
REMARK  2 active torsions:
REMARK  status: ('A' for Active; 'I' for Inactive)
REMARK    1  A    between atoms: C3_3  and  C6_6 
REMARK    2  A    between atoms: C3_3  and  O10_10 
ROOT
HETATM    1  C1  UNL     1     -34.477   6.374   6.445  1.00 20.00    -0.002 C 
HETATM    2  C2  UNL     1     -34.721   5.189   5.872  1.00 20.00     0.130 C 
HETATM    3  C4  UNL     1     -33.680   7.432   5.752  1.00 20.00     0.046 C 
HETATM    4  C5  UNL     1     -33.881   5.892   3.786  1.00 20.00     0.189 C 
HETATM    5  C6  UNL     1     -32.958   6.851   4.535  1.00 20.00     0.113 C 
HETATM    6  O9  UNL     1     -34.341   4.812   4.611  1.00 20.00    -0.362 OA
ENDROOT
BRANCH   5   7
HETATM    7  C3  UNL     1     -32.507   7.945   3.619  1.00 20.00     0.265 C 
HETATM    8  O8  UNL     1     -32.423   9.121   3.946  1.00 20.00    -0.265 OA
BRANCH   7   9
HETATM    9  O10 UNL     1     -32.216   7.422   2.393  1.00 20.00    -0.326 OA
HETATM   10  C7  UNL     1     -32.219   8.357   1.311  1.00 20.00     0.213 C 
ENDBRANCH   7   9
ENDBRANCH   5   7
TORSDOF 2
ENDMDL
MODEL 3
REMARK VINA RESULT:      -3.7     12.001     12.740
REMARK  2 active torsions:
REMARK  status: ('A' for Active; 'I' for Inactive)
REMARK    1  A    between atoms: C3_3  and  C6_6 
REMARK    2  A    between atoms: C3_3  and  O10_10 
ROOT
HETATM    1  C1  UNL     1     -32.303  18.866   1.560  1.00 20.00    -0.002 C 
HETATM    2  C2  UNL     1     -31.071  19.085   1.084  1.00 20.00     0.130 C 
HETATM    3  C4  UNL     1     -33.429  18.456   0.666  1.00 20.00     0.046 C 
HETATM    4  C5  UNL     1     -31.608  18.213  -1.038  1.00 20.00     0.189 C 
HETATM    5  C6  UNL     1     -33.050  18.658  -0.802  1.00 20.00     0.113 C 
HETATM    6  O9  UNL     1     -30.671  18.925  -0.217  1.00 20.00    -0.362 OA
ENDROOT
BRANCH   5   7
HETATM    7  C3  UNL     1     -33.974  17.888  -1.694  1.00 20.00     0.265 C 
HETATM    8  O8  UNL     1     -35.010  18.340  -2.161  1.00 20.00    -0.265 OA
BRANCH   7   9
HETATM    9  O10 UNL     1     -33.478  16.632  -1.889  1.00 20.00    -0.326 OA
HETATM   10  C7  UNL     1     -33.507  16.163  -3.240  1.00 20.00     0.213 C 
ENDBRANCH   7   9
ENDBRANCH   5   7
TORSDOF 2
ENDMDL
MODEL 4
REMARK VINA RESULT:      -3.7     15.204     15.766
REMARK  2 active torsions:
REMARK  status: ('A' for Active; 'I' for Inactive)
REMARK    1  A    between atoms: C3_3  and  C6_6 
REMARK    2  A    between atoms: C3_3  and  O10_10 
ROOT
HETATM    1  C1  UNL     1     -25.233  16.647  12.332  1.00 20.00    -0.002 C 
HETATM    2  C2  UNL     1     -26.027  17.713  12.177  1.00 20.00     0.130 C 
HETATM    3  C4  UNL     1     -23.940  16.516  11.594  1.00 20.00     0.046 C 
HETATM    4  C5  UNL     1     -24.401  18.892  10.945  1.00 20.00     0.189 C 
HETATM    5  C6  UNL     1     -23.858  17.547  10.466  1.00 20.00     0.113 C 
HETATM    6  O9  UNL     1     -25.759  18.808  11.398  1.00 20.00    -0.362 OA
ENDROOT
BRANCH   5   7
HETATM    7  C3  UNL     1     -22.445  17.704   9.999  1.00 20.00     0.265 C 
HETATM    8  O8  UNL     1     -21.622  18.433  10.536  1.00 20.00    -0.265 OA
BRANCH   7   9
HETATM    9  O10 UNL     1     -22.238  16.920   8.902  1.00 20.00    -0.326 OA
HETATM   10  C7  UNL     1     -21.653  17.581   7.776  1.00 20.00     0.213 C 
ENDBRANCH   7   9
ENDBRANCH   5   7
TORSDOF 2
ENDMDL
MODEL 5
REMARK VINA RESULT:      -3.7     12.602     13.424
REMARK  2 active torsions:
REMARK  status: ('A' for Active; 'I' for Inactive)
REMARK    1  A    between atoms: C3_3  and  C6_6 
REMARK    2  A    between atoms: C3_3  and  O10_10 
ROOT
HETATM    1  C1  UNL     1     -33.292  16.268  -3.057  1.00 20.00    -0.002 C 
HETATM    2  C2  UNL     1     -33.975  17.416  -2.968  1.00 20.00     0.130 C 
HETATM    3  C4  UNL     1     -33.588  15.258  -4.117  1.00 20.00     0.046 C 
HETATM    4  C5  UNL     1     -35.047  17.075  -5.038  1.00 20.00     0.189 C 
HETATM    5  C6  UNL     1     -34.920  15.571  -4.802  1.00 20.00     0.113 C 
HETATM    6  O9  UNL     1     -34.961  17.833  -3.823  1.00 20.00    -0.362 OA
ENDROOT
BRANCH   5   7
HETATM    7  C3  UNL     1     -35.028  14.839  -6.103  1.00 20.00     0.265 C 
HETATM    8  O8  UNL     1     -36.071  14.373  -6.541  1.00 20.00    -0.265 OA
BRANCH   7   9
HETATM    9  O10 UNL     1     -33.802  14.781  -6.696  1.00 20.00    -0.326 OA
HETATM   10  C7  UNL     1     -33.675  15.514  -7.918  1.00 20.00     0.213 C 
ENDBRANCH   7   9
ENDBRANCH   5   7
TORSDOF 2
ENDMDL
MODEL 6
REMARK VINA RESULT:      -3.7      1.481      3.927
REMARK  2 active torsions:
REMARK  status: ('A' for Active; 'I' for Inactive)
REMARK    1  A    between atoms: C3_3  and  C6_6 
REMARK    2  A    between atoms: C3_3  and  O10_10 
ROOT
HETATM    1  C1  UNL     1     -32.061   7.300   2.941  1.00 20.00    -0.002 C 
HETATM    2  C2  UNL     1     -31.899   8.360   3.743  1.00 20.00     0.130 C 
HETATM    3  C4  UNL     1     -33.149   6.302   3.169  1.00 20.00     0.046 C 
HETATM    4  C5  UNL     1     -33.939   7.976   4.858  1.00 20.00     0.189 C 
HETATM    5  C6  UNL     1     -33.768   6.488   4.555  1.00 20.00     0.113 C 
HETATM    6  O9  UNL     1     -32.698   8.694   4.804  1.00 20.00    -0.362 OA
ENDROOT
BRANCH   5   7
HETATM    7  C3  UNL     1     -35.093   5.796   4.638  1.00 20.00     0.265 C 
HETATM    8  O8  UNL     1     -36.083   6.133   4.003  1.00 20.00    -0.265 OA
BRANCH   7   9
HETATM    9  O10 UNL     1     -35.010   4.756   5.517  1.00 20.00    -0.326 OA
HETATM   10  C7  UNL     1     -34.232   5.006   6.692  1.00 20.00     0.213 C 
ENDBRANCH   7   9
ENDBRANCH   5   7
TORSDOF 2
ENDMDL
MODEL 7
REMARK VINA RESULT:      -3.6      1.445      4.346
REMARK  2 active torsions:
REMARK  status: ('A' for Active; 'I' for Inactive)
REMARK    1  A    between atoms: C3_3  and  C6_6 
REMARK    2  A    between atoms: C3_3  and  O10_10 
ROOT
HETATM    1  C1  UNL     1     -32.617   8.595   4.290  1.00 20.00    -0.002 C 
HETATM    2  C2  UNL     1     -32.076   8.460   3.072  1.00 20.00     0.130 C 
HETATM    3  C4  UNL     1     -33.468   7.525   4.893  1.00 20.00     0.046 C 
HETATM    4  C5  UNL     1     -32.682   6.188   2.925  1.00 20.00     0.189 C 
HETATM    5  C6  UNL     1     -33.870   6.496   3.835  1.00 20.00     0.113 C 
HETATM    6  O9  UNL     1     -32.175   7.357   2.265  1.00 20.00    -0.362 OA
ENDROOT
BRANCH   5   7
HETATM    7  C3  UNL     1     -34.356   5.237   4.482  1.00 20.00     0.265 C 
HETATM    8  O8  UNL     1     -34.047   4.113   4.112  1.00 20.00    -0.265 OA
BRANCH   7   9
HETATM    9  O10 UNL     1     -35.180   5.549   5.524  1.00 20.00    -0.326 OA
HETATM   10  C7  UNL     1     -34.650   5.285   6.826  1.00 20.00     0.213 C 
ENDBRANCH   7   9
ENDBRANCH   5   7
TORSDOF 2
ENDMDL
MODEL 8
REMARK VINA RESULT:      -3.6     12.167     12.825
REMARK  2 active torsions:
REMARK  status: ('A' for Active; 'I' for Inactive)
REMARK    1  A    between atoms: C3_3  and  C6_6 
REMARK    2  A    between atoms: C3_3  and  O10_10 
ROOT
HETATM    1  C1  UNL     1     -33.136  18.511   0.072  1.00 20.00    -0.002 C 
HETATM    2  C2  UNL     1     -32.246  18.584  -0.926  1.00 20.00     0.130 C 
HETATM    3  C4  UNL     1     -32.716  18.572   1.505  1.00 20.00     0.046 C 
HETATM    4  C5  UNL     1     -30.487  19.170   0.528  1.00 20.00     0.189 C 
HETATM    5  C6  UNL     1     -31.202  18.389   1.630  1.00 20.00     0.113 C 
HETATM    6  O9  UNL     1     -30.895  18.766  -0.787  1.00 20.00    -0.362 OA
ENDROOT
BRANCH   5   7
HETATM    7  C3  UNL     1     -30.726  18.848   2.972  1.00 20.00     0.265 C 
HETATM    8  O8  UNL     1     -31.436  18.908   3.967  1.00 20.00    -0.265 OA
BRANCH   7   9
HETATM    9  O10 UNL     1     -29.406  19.181   2.898  1.00 20.00    -0.326 OA
HETATM   10  C7  UNL     1     -28.588  18.692   3.966  1.00 20.00     0.213 C 
ENDBRANCH   7   9
ENDBRANCH   5   7
TORSDOF 2
ENDMDL
MODEL 9
REMARK VINA RESULT:      -3.6     12.027     12.587
REMARK  2 active torsions:
REMARK  status: ('A' for Active; 'I' for Inactive)
REMARK    1  A    between atoms: C3_3  and  C6_6 
REMARK    2  A    between atoms: C3_3  and  O10_10 
ROOT
HETATM    1  C1  UNL     1     -31.280  18.992   0.566  1.00 20.00    -0.002 C 
HETATM    2  C2  UNL     1     -32.095  19.262   1.593  1.00 20.00     0.130 C 
HETATM    3  C4  UNL     1     -31.786  18.374  -0.696  1.00 20.00     0.046 C 
HETATM    4  C5  UNL     1     -34.031  18.805   0.330  1.00 20.00     0.189 C 
HETATM    5  C6  UNL     1     -33.201  17.826  -0.497  1.00 20.00     0.113 C 
HETATM    6  O9  UNL     1     -33.452  19.069   1.616  1.00 20.00    -0.362 OA
ENDROOT
BRANCH   5   7
HETATM    7  C3  UNL     1     -33.862  17.585  -1.818  1.00 20.00     0.265 C 
HETATM    8  O8  UNL     1     -34.557  18.410  -2.397  1.00 20.00    -0.265 OA
BRANCH   7   9
HETATM    9  O10 UNL     1     -33.569  16.326  -2.253  1.00 20.00    -0.326 OA
HETATM   10  C7  UNL     1     -33.307  16.205  -3.654  1.00 20.00     0.213 C 
ENDBRANCH   7   9
ENDBRANCH   5   7
TORSDOF 2
ENDMDL
