MODEL 1
REMARK VINA RESULT:      -6.3      0.000      0.000
REMARK  0 active torsions:
REMARK  status: ('A' for Active; 'I' for Inactive)
ROOT
HETATM    1  C1  UNL     1     -32.948   7.873   4.558  1.00 20.00     0.047 A 
HETATM    2  C2  UNL     1     -33.786   7.497   5.540  1.00 20.00     0.052 A 
HETATM    3  C3  UNL     1     -32.707   6.999   3.431  1.00 20.00     0.153 A 
HETATM    4  C4  UNL     1     -33.305   5.801   3.334  1.00 20.00     0.167 A 
HETATM    5  C5  UNL     1     -34.230   5.280   4.356  1.00 20.00     0.262 A 
HETATM    6  C6  UNL     1     -34.491   6.202   5.549  1.00 20.00     0.258 A 
HETATM    7  O7  UNL     1     -35.519   5.863   4.608  1.00 20.00    -0.327 OA
HETATM    8  F8  UNL     1     -31.864   7.424   2.468  1.00 20.00    -0.203 F 
HETATM    9  F9  UNL     1     -33.043   5.033   2.253  1.00 20.00    -0.204 F 
HETATM   10  F10 UNL     1     -34.574   5.573   6.788  1.00 20.00    -0.203 F 
ENDROOT
TORSDOF 0
ENDMDL
MODEL 2
REMARK VINA RESULT:      -5.7      1.955      2.779
REMARK  0 active torsions:
REMARK  status: ('A' for Active; 'I' for Inactive)
ROOT
HETATM    1  C1  UNL     1     -34.435   5.532   5.965  1.00 20.00     0.047 A 
HETATM    2  C2  UNL     1     -34.257   6.791   6.404  1.00 20.00     0.052 A 
HETATM    3  C3  UNL     1     -34.050   5.168   4.620  1.00 20.00     0.153 A 
HETATM    4  C4  UNL     1     -33.511   6.065   3.779  1.00 20.00     0.167 A 
HETATM    5  C5  UNL     1     -33.282   7.474   4.146  1.00 20.00     0.262 A 
HETATM    6  C6  UNL     1     -33.685   7.864   5.570  1.00 20.00     0.258 A 
HETATM    7  O7  UNL     1     -32.319   7.874   5.134  1.00 20.00    -0.327 OA
HETATM    8  F8  UNL     1     -34.240   3.892   4.228  1.00 20.00    -0.203 F 
HETATM    9  F9  UNL     1     -33.166   5.661   2.536  1.00 20.00    -0.204 F 
HETATM   10  F10 UNL     1     -34.287   9.112   5.704  1.00 20.00    -0.203 F 
ENDROOT
TORSDOF 0
ENDMDL
MODEL 3
REMARK VINA RESULT:      -5.7      1.601      3.848
REMARK  0 active torsions:
REMARK  status: ('A' for Active; 'I' for Inactive)
ROOT
HETATM    1  C1  UNL     1     -34.105   5.298   4.135  1.00 20.00     0.047 A 
HETATM    2  C2  UNL     1     -33.282   6.025   3.359  1.00 20.00     0.052 A 
HETATM    3  C3  UNL     1     -34.478   5.774   5.448  1.00 20.00     0.153 A 
HETATM    4  C4  UNL     1     -34.019   6.942   5.926  1.00 20.00     0.167 A 
HETATM    5  C5  UNL     1     -33.102   7.813   5.170  1.00 20.00     0.262 A 
HETATM    6  C6  UNL     1     -32.706   7.315   3.779  1.00 20.00     0.258 A 
HETATM    7  O7  UNL     1     -33.492   8.499   3.970  1.00 20.00    -0.327 OA
HETATM    8  F8  UNL     1     -35.312   5.014   6.186  1.00 20.00    -0.203 F 
HETATM    9  F9  UNL     1     -34.410   7.336   7.159  1.00 20.00    -0.204 F 
HETATM   10  F10 UNL     1     -31.377   7.524   3.421  1.00 20.00    -0.203 F 
ENDROOT
TORSDOF 0
ENDMDL
MODEL 4
REMARK VINA RESULT:      -5.5      1.913      3.158
REMARK  0 active torsions:
REMARK  status: ('A' for Active; 'I' for Inactive)
ROOT
HETATM    1  C1  UNL     1     -34.161   6.797   5.102  1.00 20.00     0.047 A 
HETATM    2  C2  UNL     1     -33.558   7.984   4.909  1.00 20.00     0.052 A 
HETATM    3  C3  UNL     1     -33.907   5.695   4.200  1.00 20.00     0.153 A 
HETATM    4  C4  UNL     1     -33.073   5.823   3.156  1.00 20.00     0.167 A 
HETATM    5  C5  UNL     1     -32.369   7.078   2.840  1.00 20.00     0.262 A 
HETATM    6  C6  UNL     1     -32.632   8.247   3.792  1.00 20.00     0.258 A 
HETATM    7  O7  UNL     1     -31.343   7.628   3.681  1.00 20.00    -0.327 OA
HETATM    8  F8  UNL     1     -34.529   4.523   4.440  1.00 20.00    -0.203 F 
HETATM    9  F9  UNL     1     -32.872   4.753   2.354  1.00 20.00    -0.204 F 
HETATM   10  F10 UNL     1     -32.757   9.496   3.190  1.00 20.00    -0.203 F 
ENDROOT
TORSDOF 0
ENDMDL
MODEL 5
REMARK VINA RESULT:      -5.4      1.544      3.379
REMARK  0 active torsions:
REMARK  status: ('A' for Active; 'I' for Inactive)
ROOT
HETATM    1  C1  UNL     1     -33.135   5.670   3.195  1.00 20.00     0.047 A 
HETATM    2  C2  UNL     1     -32.547   6.879   3.168  1.00 20.00     0.052 A 
HETATM    3  C3  UNL     1     -33.966   5.288   4.314  1.00 20.00     0.153 A 
HETATM    4  C4  UNL     1     -34.173   6.119   5.348  1.00 20.00     0.167 A 
HETATM    5  C5  UNL     1     -33.570   7.461   5.433  1.00 20.00     0.262 A 
HETATM    6  C6  UNL     1     -32.691   7.872   4.249  1.00 20.00     0.258 A 
HETATM    7  O7  UNL     1     -33.928   8.533   4.546  1.00 20.00    -0.327 OA
HETATM    8  F8  UNL     1     -34.541   4.068   4.291  1.00 20.00    -0.203 F 
HETATM    9  F9  UNL     1     -34.967   5.706   6.362  1.00 20.00    -0.204 F 
HETATM   10  F10 UNL     1     -31.536   8.576   4.575  1.00 20.00    -0.203 F 
ENDROOT
TORSDOF 0
ENDMDL
MODEL 6
REMARK VINA RESULT:      -5.3      1.420      2.408
REMARK  0 active torsions:
REMARK  status: ('A' for Active; 'I' for Inactive)
ROOT
HETATM    1  C1  UNL     1     -33.019   5.803   2.996  1.00 20.00     0.047 A 
HETATM    2  C2  UNL     1     -33.844   5.322   3.942  1.00 20.00     0.052 A 
HETATM    3  C3  UNL     1     -32.497   7.148   3.098  1.00 20.00     0.153 A 
HETATM    4  C4  UNL     1     -32.817   7.947   4.128  1.00 20.00     0.167 A 
HETATM    5  C5  UNL     1     -33.722   7.531   5.215  1.00 20.00     0.262 A 
HETATM    6  C6  UNL     1     -34.275   6.108   5.113  1.00 20.00     0.258 A 
HETATM    7  O7  UNL     1     -33.382   6.506   6.162  1.00 20.00    -0.327 OA
HETATM    8  F8  UNL     1     -31.666   7.582   2.128  1.00 20.00    -0.203 F 
HETATM    9  F9  UNL     1     -32.291   9.191   4.171  1.00 20.00    -0.204 F 
HETATM   10  F10 UNL     1     -35.609   5.954   5.481  1.00 20.00    -0.203 F 
ENDROOT
TORSDOF 0
ENDMDL
MODEL 7
REMARK VINA RESULT:      -5.3      1.655      3.252
REMARK  0 active torsions:
REMARK  status: ('A' for Active; 'I' for Inactive)
ROOT
HETATM    1  C1  UNL     1     -33.954   7.552   5.967  1.00 20.00     0.047 A 
HETATM    2  C2  UNL     1     -33.254   8.394   5.186  1.00 20.00     0.052 A 
HETATM    3  C3  UNL     1     -34.283   6.225   5.497  1.00 20.00     0.153 A 
HETATM    4  C4  UNL     1     -33.904   5.799   4.281  1.00 20.00     0.167 A 
HETATM    5  C5  UNL     1     -33.147   6.640   3.336  1.00 20.00     0.262 A 
HETATM    6  C6  UNL     1     -32.794   8.044   3.830  1.00 20.00     0.258 A 
HETATM    7  O7  UNL     1     -31.792   7.051   3.574  1.00 20.00    -0.327 OA
HETATM    8  F8  UNL     1     -34.979   5.414   6.319  1.00 20.00    -0.203 F 
HETATM    9  F9  UNL     1     -34.236   4.545   3.902  1.00 20.00    -0.204 F 
HETATM   10  F10 UNL     1     -32.896   9.058   2.882  1.00 20.00    -0.203 F 
ENDROOT
TORSDOF 0
ENDMDL
MODEL 8
REMARK VINA RESULT:      -5.2      1.605      3.331
REMARK  0 active torsions:
REMARK  status: ('A' for Active; 'I' for Inactive)
ROOT
HETATM    1  C1  UNL     1     -32.904   7.966   5.269  1.00 20.00     0.047 A 
HETATM    2  C2  UNL     1     -32.231   7.961   4.105  1.00 20.00     0.052 A 
HETATM    3  C3  UNL     1     -33.957   7.003   5.507  1.00 20.00     0.153 A 
HETATM    4  C4  UNL     1     -34.290   6.088   4.583  1.00 20.00     0.167 A 
HETATM    5  C5  UNL     1     -33.631   5.998   3.268  1.00 20.00     0.262 A 
HETATM    6  C6  UNL     1     -32.515   7.013   3.012  1.00 20.00     0.258 A 
HETATM    7  O7  UNL     1     -32.259   5.605   3.110  1.00 20.00    -0.327 OA
HETATM    8  F8  UNL     1     -34.596   7.042   6.693  1.00 20.00    -0.203 F 
HETATM    9  F9  UNL     1     -35.278   5.211   4.868  1.00 20.00    -0.204 F 
HETATM   10  F10 UNL     1     -32.472   7.547   1.728  1.00 20.00    -0.203 F 
ENDROOT
TORSDOF 0
ENDMDL
MODEL 9
REMARK VINA RESULT:      -4.9      1.786      3.531
REMARK  0 active torsions:
REMARK  status: ('A' for Active; 'I' for Inactive)
ROOT
HETATM    1  C1  UNL     1     -34.513   6.248   4.951  1.00 20.00     0.047 A 
HETATM    2  C2  UNL     1     -34.137   5.557   3.860  1.00 20.00     0.052 A 
HETATM    3  C3  UNL     1     -33.785   7.431   5.351  1.00 20.00     0.153 A 
HETATM    4  C4  UNL     1     -32.725   7.871   4.654  1.00 20.00     0.167 A 
HETATM    5  C5  UNL     1     -32.216   7.187   3.451  1.00 20.00     0.262 A 
HETATM    6  C6  UNL     1     -32.984   5.935   3.022  1.00 20.00     0.258 A 
HETATM    7  O7  UNL     1     -32.954   7.124   2.221  1.00 20.00    -0.327 OA
HETATM    8  F8  UNL     1     -34.206   8.095   6.447  1.00 20.00    -0.203 F 
HETATM    9  F9  UNL     1     -32.092   8.988   5.075  1.00 20.00    -0.204 F 
HETATM   10  F10 UNL     1     -32.202   4.878   2.565  1.00 20.00    -0.203 F 
ENDROOT
TORSDOF 0
ENDMDL
