MODEL 1
REMARK VINA RESULT:      -4.1      0.000      0.000
REMARK  2 active torsions:
REMARK  status: ('A' for Active; 'I' for Inactive)
REMARK    1  A    between atoms: C3_3  and  C4_4 
REMARK    2  A    between atoms: C3_3  and  O10_10 
ROOT
HETATM    1  C1  UNL     1     -33.456  17.654  -1.626  1.00 20.00    -0.065 A 
HETATM    2  C2  UNL     1     -33.292  16.620  -2.425  1.00 20.00    -0.027 C 
HETATM    3  C4  UNL     1     -33.271  18.173  -0.325  1.00 20.00     0.122 A 
HETATM    4  C5  UNL     1     -33.937  18.973  -1.504  1.00 20.00     0.029 A 
HETATM    5  C6  UNL     1     -33.707  16.582  -3.870  1.00 20.00     0.036 C 
HETATM    6  C7  UNL     1     -35.396  19.263  -1.478  1.00 20.00     0.016 C 
ENDROOT
BRANCH   3   7
HETATM    7  C3  UNL     1     -31.889  18.475   0.046  1.00 20.00     0.267 C 
HETATM    8  O9  UNL     1     -30.958  18.509  -0.746  1.00 20.00    -0.265 OA
BRANCH   7   9
HETATM    9  O10 UNL     1     -31.817  18.707   1.388  1.00 20.00    -0.326 OA
HETATM   10  C8  UNL     1     -30.554  18.419   1.996  1.00 20.00     0.213 C 
ENDBRANCH   7   9
ENDBRANCH   3   7
TORSDOF 2
ENDMDL
MODEL 2
REMARK VINA RESULT:      -3.9      3.718      5.835
REMARK  2 active torsions:
REMARK  status: ('A' for Active; 'I' for Inactive)
REMARK    1  A    between atoms: C3_3  and  C4_4 
REMARK    2  A    between atoms: C3_3  and  O10_10 
ROOT
HETATM    1  C1  UNL     1     -33.883  16.743  -3.550  1.00 20.00    -0.065 A 
HETATM    2  C2  UNL     1     -33.286  16.697  -2.378  1.00 20.00    -0.027 C 
HETATM    3  C4  UNL     1     -33.904  16.257  -4.877  1.00 20.00     0.122 A 
HETATM    4  C5  UNL     1     -34.921  17.316  -4.311  1.00 20.00     0.029 A 
HETATM    5  C6  UNL     1     -33.701  17.497  -1.173  1.00 20.00     0.036 C 
HETATM    6  C7  UNL     1     -34.854  18.731  -4.766  1.00 20.00     0.016 C 
ENDROOT
BRANCH   3   7
HETATM    7  C3  UNL     1     -34.340  14.870  -5.036  1.00 20.00     0.267 C 
HETATM    8  O9  UNL     1     -34.330  14.040  -4.138  1.00 20.00    -0.265 OA
BRANCH   7   9
HETATM    9  O10 UNL     1     -34.747  14.666  -6.322  1.00 20.00    -0.326 OA
HETATM   10  C8  UNL     1     -34.052  15.427  -7.315  1.00 20.00     0.213 C 
ENDBRANCH   7   9
ENDBRANCH   3   7
TORSDOF 2
ENDMDL
MODEL 3
REMARK VINA RESULT:      -3.8     11.491     12.390
REMARK  2 active torsions:
REMARK  status: ('A' for Active; 'I' for Inactive)
REMARK    1  A    between atoms: C3_3  and  C4_4 
REMARK    2  A    between atoms: C3_3  and  O10_10 
ROOT
HETATM    1  C1  UNL     1     -40.909  13.842   7.118  1.00 20.00    -0.065 A 
HETATM    2  C2  UNL     1     -40.456  14.750   7.956  1.00 20.00    -0.027 C 
HETATM    3  C4  UNL     1     -40.649  13.088   5.951  1.00 20.00     0.122 A 
HETATM    4  C5  UNL     1     -41.976  12.983   6.789  1.00 20.00     0.029 A 
HETATM    5  C6  UNL     1     -41.206  15.253   9.160  1.00 20.00     0.036 C 
HETATM    6  C7  UNL     1     -43.251  13.513   6.236  1.00 20.00     0.016 C 
ENDROOT
BRANCH   3   7
HETATM    7  C3  UNL     1     -39.640  12.038   6.087  1.00 20.00     0.267 C 
HETATM    8  O9  UNL     1     -38.893  11.925   7.049  1.00 20.00    -0.265 OA
BRANCH   7   9
HETATM    9  O10 UNL     1     -39.673  11.229   4.989  1.00 20.00    -0.326 OA
HETATM   10  C8  UNL     1     -38.975  11.723   3.841  1.00 20.00     0.213 C 
ENDBRANCH   7   9
ENDBRANCH   3   7
TORSDOF 2
ENDMDL
MODEL 4
REMARK VINA RESULT:      -3.8      0.955      2.352
REMARK  2 active torsions:
REMARK  status: ('A' for Active; 'I' for Inactive)
REMARK    1  A    between atoms: C3_3  and  C4_4 
REMARK    2  A    between atoms: C3_3  and  O10_10 
ROOT
HETATM    1  C1  UNL     1     -33.864  18.352  -1.911  1.00 20.00    -0.065 A 
HETATM    2  C2  UNL     1     -34.810  19.229  -2.176  1.00 20.00    -0.027 C 
HETATM    3  C4  UNL     1     -32.530  18.157  -1.489  1.00 20.00     0.122 A 
HETATM    4  C5  UNL     1     -33.514  16.988  -1.865  1.00 20.00     0.029 A 
HETATM    5  C6  UNL     1     -36.197  18.877  -2.640  1.00 20.00     0.036 C 
HETATM    6  C7  UNL     1     -33.300  16.204  -3.111  1.00 20.00     0.016 C 
ENDROOT
BRANCH   3   7
HETATM    7  C3  UNL     1     -32.264  18.434  -0.078  1.00 20.00     0.267 C 
HETATM    8  O9  UNL     1     -33.135  18.603   0.764  1.00 20.00    -0.265 OA
BRANCH   7   9
HETATM    9  O10 UNL     1     -30.917  18.471   0.133  1.00 20.00    -0.326 OA
HETATM   10  C8  UNL     1     -30.510  18.518   1.505  1.00 20.00     0.213 C 
ENDBRANCH   7   9
ENDBRANCH   3   7
TORSDOF 2
ENDMDL
MODEL 5
REMARK VINA RESULT:      -3.7     11.417     12.049
REMARK  2 active torsions:
REMARK  status: ('A' for Active; 'I' for Inactive)
REMARK    1  A    between atoms: C3_3  and  C4_4 
REMARK    2  A    between atoms: C3_3  and  O10_10 
ROOT
HETATM    1  C1  UNL     1     -40.824  12.956   6.027  1.00 20.00    -0.065 A 
HETATM    2  C2  UNL     1     -40.051  11.923   5.767  1.00 20.00    -0.027 C 
HETATM    3  C4  UNL     1     -41.680  13.575   6.966  1.00 20.00     0.122 A 
HETATM    4  C5  UNL     1     -41.350  14.172   5.549  1.00 20.00     0.029 A 
HETATM    5  C6  UNL     1     -39.288  11.726   4.485  1.00 20.00     0.036 C 
HETATM    6  C7  UNL     1     -42.394  14.199   4.489  1.00 20.00     0.016 C 
ENDROOT
BRANCH   3   7
HETATM    7  C3  UNL     1     -41.024  14.140   8.145  1.00 20.00     0.267 C 
HETATM    8  O9  UNL     1     -40.066  13.629   8.708  1.00 20.00    -0.265 OA
BRANCH   7   9
HETATM    9  O10 UNL     1     -41.645  15.302   8.498  1.00 20.00    -0.326 OA
HETATM   10  C8  UNL     1     -40.806  16.461   8.533  1.00 20.00     0.213 C 
ENDBRANCH   7   9
ENDBRANCH   3   7
TORSDOF 2
ENDMDL
MODEL 6
REMARK VINA RESULT:      -3.7     11.477     12.335
REMARK  2 active torsions:
REMARK  status: ('A' for Active; 'I' for Inactive)
REMARK    1  A    between atoms: C3_3  and  C4_4 
REMARK    2  A    between atoms: C3_3  and  O10_10 
ROOT
HETATM    1  C1  UNL     1     -33.768   6.637   4.423  1.00 20.00    -0.065 A 
HETATM    2  C2  UNL     1     -34.508   6.446   5.494  1.00 20.00    -0.027 C 
HETATM    3  C4  UNL     1     -33.432   7.518   3.370  1.00 20.00     0.122 A 
HETATM    4  C5  UNL     1     -32.791   6.095   3.565  1.00 20.00     0.029 A 
HETATM    5  C6  UNL     1     -34.481   5.204   6.343  1.00 20.00     0.036 C 
HETATM    6  C7  UNL     1     -33.118   4.993   2.620  1.00 20.00     0.016 C 
ENDROOT
BRANCH   3   7
HETATM    7  C3  UNL     1     -32.663   8.701   3.755  1.00 20.00     0.267 C 
HETATM    8  O9  UNL     1     -32.166   8.866   4.860  1.00 20.00    -0.265 OA
BRANCH   7   9
HETATM    9  O10 UNL     1     -32.598   9.564   2.701  1.00 20.00    -0.326 OA
HETATM   10  C8  UNL     1     -32.613   8.955   1.405  1.00 20.00     0.213 C 
ENDBRANCH   7   9
ENDBRANCH   3   7
TORSDOF 2
ENDMDL
MODEL 7
REMARK VINA RESULT:      -3.6     11.495     12.239
REMARK  2 active torsions:
REMARK  status: ('A' for Active; 'I' for Inactive)
REMARK    1  A    between atoms: C3_3  and  C4_4 
REMARK    2  A    between atoms: C3_3  and  O10_10 
ROOT
HETATM    1  C1  UNL     1     -32.547   7.496   3.038  1.00 20.00    -0.065 A 
HETATM    2  C2  UNL     1     -32.100   8.463   2.266  1.00 20.00    -0.027 C 
HETATM    3  C4  UNL     1     -32.570   6.948   4.340  1.00 20.00     0.122 A 
HETATM    4  C5  UNL     1     -33.317   6.318   3.108  1.00 20.00     0.029 A 
HETATM    5  C6  UNL     1     -32.401   8.597   0.798  1.00 20.00     0.036 C 
HETATM    6  C7  UNL     1     -32.833   5.043   2.514  1.00 20.00     0.016 C 
ENDROOT
BRANCH   3   7
HETATM    7  C3  UNL     1     -33.342   7.698   5.331  1.00 20.00     0.267 C 
HETATM    8  O9  UNL     1     -33.746   8.840   5.162  1.00 20.00    -0.265 OA
BRANCH   7   9
HETATM    9  O10 UNL     1     -33.527   6.929   6.441  1.00 20.00    -0.326 OA
HETATM   10  C8  UNL     1     -34.562   5.945   6.341  1.00 20.00     0.213 C 
ENDBRANCH   7   9
ENDBRANCH   3   7
TORSDOF 2
ENDMDL
MODEL 8
REMARK VINA RESULT:      -3.6     12.670     13.519
REMARK  2 active torsions:
REMARK  status: ('A' for Active; 'I' for Inactive)
REMARK    1  A    between atoms: C3_3  and  C4_4 
REMARK    2  A    between atoms: C3_3  and  O10_10 
ROOT
HETATM    1  C1  UNL     1     -33.669   7.301   4.919  1.00 20.00    -0.065 A 
HETATM    2  C2  UNL     1     -33.086   8.269   4.245  1.00 20.00    -0.027 C 
HETATM    3  C4  UNL     1     -34.596   6.234   4.878  1.00 20.00     0.122 A 
HETATM    4  C5  UNL     1     -33.786   6.648   6.162  1.00 20.00     0.029 A 
HETATM    5  C6  UNL     1     -32.068   9.218   4.816  1.00 20.00     0.036 C 
HETATM    6  C7  UNL     1     -34.483   7.290   7.309  1.00 20.00     0.016 C 
ENDROOT
BRANCH   3   7
HETATM    7  C3  UNL     1     -34.173   5.056   4.122  1.00 20.00     0.267 C 
HETATM    8  O9  UNL     1     -34.171   3.918   4.569  1.00 20.00    -0.265 OA
BRANCH   7   9
HETATM    9  O10 UNL     1     -33.792   5.433   2.868  1.00 20.00    -0.326 OA
HETATM   10  C8  UNL     1     -32.662   4.735   2.332  1.00 20.00     0.213 C 
ENDBRANCH   7   9
ENDBRANCH   3   7
TORSDOF 2
ENDMDL
MODEL 9
REMARK VINA RESULT:      -3.6     11.310     12.164
REMARK  2 active torsions:
REMARK  status: ('A' for Active; 'I' for Inactive)
REMARK    1  A    between atoms: C3_3  and  C4_4 
REMARK    2  A    between atoms: C3_3  and  O10_10 
ROOT
HETATM    1  C1  UNL     1     -41.926  13.791   5.935  1.00 20.00    -0.065 A 
HETATM    2  C2  UNL     1     -42.364  14.468   4.896  1.00 20.00    -0.027 C 
HETATM    3  C4  UNL     1     -41.439  12.552   6.409  1.00 20.00     0.122 A 
HETATM    4  C5  UNL     1     -41.636  13.824   7.314  1.00 20.00     0.029 A 
HETATM    5  C6  UNL     1     -42.800  15.908   4.933  1.00 20.00     0.036 C 
HETATM    6  C7  UNL     1     -42.721  13.856   8.331  1.00 20.00     0.016 C 
ENDROOT
BRANCH   3   7
HETATM    7  C3  UNL     1     -40.090  12.192   5.974  1.00 20.00     0.267 C 
HETATM    8  O9  UNL     1     -39.197  11.836   6.731  1.00 20.00    -0.265 OA
BRANCH   7   9
HETATM    9  O10 UNL     1     -40.000  12.318   4.619  1.00 20.00    -0.326 OA
HETATM   10  C8  UNL     1     -38.902  11.631   4.010  1.00 20.00     0.213 C 
ENDBRANCH   7   9
ENDBRANCH   3   7
TORSDOF 2
ENDMDL
