MODEL 1
REMARK VINA RESULT:      -3.7      0.000      0.000
REMARK  2 active torsions:
REMARK  status: ('A' for Active; 'I' for Inactive)
REMARK    1  A    between atoms: C1_1  and  C8_8 
REMARK    2  A    between atoms: C3_3  and  C8_8 
ROOT
HETATM    1  C2  UNL     1     -32.252   7.301   3.157  1.00 20.00     0.153 A 
HETATM    2  C3  UNL     1     -33.129   7.682   4.336  1.00 20.00     0.093 A 
HETATM    3  C5  UNL     1     -32.181   8.091   1.900  1.00 20.00     0.042 C 
HETATM    4  C6  UNL     1     -33.994   8.901   4.303  1.00 20.00     0.049 C 
HETATM    5  O10 UNL     1     -31.719   7.963   4.313  1.00 20.00    -0.369 OA
ENDROOT
BRANCH   2   6
HETATM    6  C8  UNL     1     -33.514   6.617   5.315  1.00 20.00     0.087 C 
HETATM    7  C7  UNL     1     -34.095   7.214   6.607  1.00 20.00     0.021 C 
BRANCH   6   8
HETATM    8  C1  UNL     1     -34.519   5.638   4.692  1.00 20.00     0.129 C 
HETATM    9  C4  UNL     1     -33.989   4.283   4.296  1.00 20.00     0.091 C 
HETATM   10  O9  UNL     1     -35.693   5.942   4.475  1.00 20.00    -0.298 OA
ENDBRANCH   6   8
ENDBRANCH   2   6
TORSDOF 2
ENDMDL
MODEL 2
REMARK VINA RESULT:      -3.7     12.087     13.181
REMARK  2 active torsions:
REMARK  status: ('A' for Active; 'I' for Inactive)
REMARK    1  A    between atoms: C1_1  and  C8_8 
REMARK    2  A    between atoms: C3_3  and  C8_8 
ROOT
HETATM    1  C2  UNL     1     -33.308  19.263  -2.848  1.00 20.00     0.153 A 
HETATM    2  C3  UNL     1     -33.460  18.500  -1.545  1.00 20.00     0.093 A 
HETATM    3  C5  UNL     1     -33.308  18.612  -4.184  1.00 20.00     0.042 C 
HETATM    4  C6  UNL     1     -33.623  17.014  -1.526  1.00 20.00     0.049 C 
HETATM    5  O10 UNL     1     -34.559  19.202  -2.150  1.00 20.00    -0.369 OA
ENDROOT
BRANCH   2   6
HETATM    6  C8  UNL     1     -32.963  19.132  -0.283  1.00 20.00     0.087 C 
HETATM    7  C7  UNL     1     -33.911  18.868   0.898  1.00 20.00     0.021 C 
BRANCH   6   8
HETATM    8  C1  UNL     1     -31.551  18.638   0.059  1.00 20.00     0.129 C 
HETATM    9  C4  UNL     1     -31.265  18.351   1.512  1.00 20.00     0.091 C 
HETATM   10  O9  UNL     1     -30.666  18.520  -0.791  1.00 20.00    -0.298 OA
ENDBRANCH   6   8
ENDBRANCH   2   6
TORSDOF 2
ENDMDL
MODEL 3
REMARK VINA RESULT:      -3.6      1.648      4.035
REMARK  2 active torsions:
REMARK  status: ('A' for Active; 'I' for Inactive)
REMARK    1  A    between atoms: C1_1  and  C8_8 
REMARK    2  A    between atoms: C3_3  and  C8_8 
ROOT
HETATM    1  C2  UNL     1     -33.953   5.232   5.750  1.00 20.00     0.153 A 
HETATM    2  C3  UNL     1     -34.082   5.665   4.301  1.00 20.00     0.093 A 
HETATM    3  C5  UNL     1     -34.978   5.522   6.787  1.00 20.00     0.042 C 
HETATM    4  C6  UNL     1     -35.274   6.427   3.818  1.00 20.00     0.049 C 
HETATM    5  O10 UNL     1     -34.376   4.324   4.724  1.00 20.00    -0.369 OA
ENDROOT
BRANCH   2   6
HETATM    6  C8  UNL     1     -32.839   5.777   3.474  1.00 20.00     0.087 C 
HETATM    7  C7  UNL     1     -32.981   5.045   2.130  1.00 20.00     0.021 C 
BRANCH   6   8
HETATM    8  C1  UNL     1     -32.472   7.248   3.233  1.00 20.00     0.129 C 
HETATM    9  C4  UNL     1     -32.389   8.134   4.450  1.00 20.00     0.091 C 
HETATM   10  O9  UNL     1     -32.297   7.711   2.105  1.00 20.00    -0.298 OA
ENDBRANCH   6   8
ENDBRANCH   2   6
TORSDOF 2
ENDMDL
MODEL 4
REMARK VINA RESULT:      -3.5     12.288     13.316
REMARK  2 active torsions:
REMARK  status: ('A' for Active; 'I' for Inactive)
REMARK    1  A    between atoms: C1_1  and  C8_8 
REMARK    2  A    between atoms: C3_3  and  C8_8 
ROOT
HETATM    1  C2  UNL     1     -34.157  17.501  -2.898  1.00 20.00     0.153 A 
HETATM    2  C3  UNL     1     -33.898  16.614  -4.101  1.00 20.00     0.093 A 
HETATM    3  C5  UNL     1     -33.571  17.253  -1.554  1.00 20.00     0.042 C 
HETATM    4  C6  UNL     1     -33.017  15.409  -4.005  1.00 20.00     0.049 C 
HETATM    5  O10 UNL     1     -33.208  17.860  -3.911  1.00 20.00    -0.369 OA
ENDROOT
BRANCH   2   6
HETATM    6  C8  UNL     1     -34.879  16.635  -5.231  1.00 20.00     0.087 C 
HETATM    7  C7  UNL     1     -34.501  17.678  -6.295  1.00 20.00     0.021 C 
BRANCH   6   8
HETATM    8  C1  UNL     1     -35.000  15.248  -5.877  1.00 20.00     0.129 C 
HETATM    9  C4  UNL     1     -36.005  14.302  -5.270  1.00 20.00     0.091 C 
HETATM   10  O9  UNL     1     -34.286  14.890  -6.816  1.00 20.00    -0.298 OA
ENDBRANCH   6   8
ENDBRANCH   2   6
TORSDOF 2
ENDMDL
MODEL 5
REMARK VINA RESULT:      -3.5      0.790      3.512
REMARK  2 active torsions:
REMARK  status: ('A' for Active; 'I' for Inactive)
REMARK    1  A    between atoms: C1_1  and  C8_8 
REMARK    2  A    between atoms: C3_3  and  C8_8 
ROOT
HETATM    1  C2  UNL     1     -34.163   5.417   4.050  1.00 20.00     0.153 A 
HETATM    2  C3  UNL     1     -34.170   6.553   5.056  1.00 20.00     0.093 A 
HETATM    3  C5  UNL     1     -33.968   3.991   4.424  1.00 20.00     0.042 C 
HETATM    4  C6  UNL     1     -33.977   6.301   6.517  1.00 20.00     0.049 C 
HETATM    5  O10 UNL     1     -35.385   6.000   4.522  1.00 20.00    -0.369 OA
ENDROOT
BRANCH   2   6
HETATM    6  C8  UNL     1     -33.876   7.939   4.573  1.00 20.00     0.087 C 
HETATM    7  C7  UNL     1     -34.029   8.977   5.696  1.00 20.00     0.021 C 
BRANCH   6   8
HETATM    8  C1  UNL     1     -32.466   8.021   3.972  1.00 20.00     0.129 C 
HETATM    9  C4  UNL     1     -32.309   7.554   2.546  1.00 20.00     0.091 C 
HETATM   10  O9  UNL     1     -31.490   8.403   4.620  1.00 20.00    -0.298 OA
ENDBRANCH   6   8
ENDBRANCH   2   6
TORSDOF 2
ENDMDL
MODEL 6
REMARK VINA RESULT:      -3.5      9.388     10.976
REMARK  2 active torsions:
REMARK  status: ('A' for Active; 'I' for Inactive)
REMARK    1  A    between atoms: C1_1  and  C8_8 
REMARK    2  A    between atoms: C3_3  and  C8_8 
ROOT
HETATM    1  C2  UNL     1     -40.346  12.303   5.480  1.00 20.00     0.153 A 
HETATM    2  C3  UNL     1     -41.113  13.446   6.117  1.00 20.00     0.093 A 
HETATM    3  C5  UNL     1     -38.873  12.138   5.596  1.00 20.00     0.042 C 
HETATM    4  C6  UNL     1     -40.417  14.500   6.919  1.00 20.00     0.049 C 
HETATM    5  O10 UNL     1     -41.067  12.137   6.708  1.00 20.00    -0.369 OA
ENDROOT
BRANCH   2   6
HETATM    6  C8  UNL     1     -42.453  13.809   5.559  1.00 20.00     0.087 C 
HETATM    7  C7  UNL     1     -43.364  14.436   6.626  1.00 20.00     0.021 C 
BRANCH   6   8
HETATM    8  C1  UNL     1     -42.310  14.764   4.366  1.00 20.00     0.129 C 
HETATM    9  C4  UNL     1     -42.730  16.195   4.589  1.00 20.00     0.091 C 
HETATM   10  O9  UNL     1     -41.917  14.388   3.260  1.00 20.00    -0.298 OA
ENDBRANCH   6   8
ENDBRANCH   2   6
TORSDOF 2
ENDMDL
MODEL 7
REMARK VINA RESULT:      -3.4      1.479      4.028
REMARK  2 active torsions:
REMARK  status: ('A' for Active; 'I' for Inactive)
REMARK    1  A    between atoms: C1_1  and  C8_8 
REMARK    2  A    between atoms: C3_3  and  C8_8 
ROOT
HETATM    1  C2  UNL     1     -33.947   5.195   5.778  1.00 20.00     0.153 A 
HETATM    2  C3  UNL     1     -34.086   5.648   4.336  1.00 20.00     0.093 A 
HETATM    3  C5  UNL     1     -34.979   5.443   6.819  1.00 20.00     0.042 C 
HETATM    4  C6  UNL     1     -35.297   6.389   3.866  1.00 20.00     0.049 C 
HETATM    5  O10 UNL     1     -34.348   4.293   4.737  1.00 20.00    -0.369 OA
ENDROOT
BRANCH   2   6
HETATM    6  C8  UNL     1     -32.847   5.804   3.512  1.00 20.00     0.087 C 
HETATM    7  C7  UNL     1     -33.002   5.164   2.123  1.00 20.00     0.021 C 
BRANCH   6   8
HETATM    8  C1  UNL     1     -32.468   7.284   3.366  1.00 20.00     0.129 C 
HETATM    9  C4  UNL     1     -32.260   7.796   1.963  1.00 20.00     0.091 C 
HETATM   10  O9  UNL     1     -32.291   8.021   4.337  1.00 20.00    -0.298 OA
ENDBRANCH   6   8
ENDBRANCH   2   6
TORSDOF 2
ENDMDL
MODEL 8
REMARK VINA RESULT:      -3.4      9.444     10.974
REMARK  2 active torsions:
REMARK  status: ('A' for Active; 'I' for Inactive)
REMARK    1  A    between atoms: C1_1  and  C8_8 
REMARK    2  A    between atoms: C3_3  and  C8_8 
ROOT
HETATM    1  C2  UNL     1     -39.943  12.868   5.658  1.00 20.00     0.153 A 
HETATM    2  C3  UNL     1     -41.190  13.394   6.343  1.00 20.00     0.093 A 
HETATM    3  C5  UNL     1     -39.705  11.427   5.381  1.00 20.00     0.042 C 
HETATM    4  C6  UNL     1     -42.281  12.473   6.791  1.00 20.00     0.049 C 
HETATM    5  O10 UNL     1     -41.023  13.452   4.917  1.00 20.00    -0.369 OA
ENDROOT
BRANCH   2   6
HETATM    6  C8  UNL     1     -41.130  14.732   7.012  1.00 20.00     0.087 C 
HETATM    7  C7  UNL     1     -42.320  15.621   6.615  1.00 20.00     0.021 C 
BRANCH   6   8
HETATM    8  C1  UNL     1     -41.077  14.579   8.538  1.00 20.00     0.129 C 
HETATM    9  C4  UNL     1     -42.073  15.383   9.335  1.00 20.00     0.091 C 
HETATM   10  O9  UNL     1     -40.238  13.877   9.105  1.00 20.00    -0.298 OA
ENDBRANCH   6   8
ENDBRANCH   2   6
TORSDOF 2
ENDMDL
MODEL 9
REMARK VINA RESULT:      -3.4     11.930     13.809
REMARK  2 active torsions:
REMARK  status: ('A' for Active; 'I' for Inactive)
REMARK    1  A    between atoms: C1_1  and  C8_8 
REMARK    2  A    between atoms: C3_3  and  C8_8 
ROOT
HETATM    1  C2  UNL     1     -34.947  17.696  -6.467  1.00 20.00     0.153 A 
HETATM    2  C3  UNL     1     -34.776  16.192  -6.363  1.00 20.00     0.093 A 
HETATM    3  C5  UNL     1     -34.212  18.539  -7.447  1.00 20.00     0.042 C 
HETATM    4  C6  UNL     1     -33.837  15.450  -7.260  1.00 20.00     0.049 C 
HETATM    5  O10 UNL     1     -35.892  16.786  -7.046  1.00 20.00    -0.369 OA
ENDROOT
BRANCH   2   6
HETATM    6  C8  UNL     1     -35.146  15.516  -5.080  1.00 20.00     0.087 C 
HETATM    7  C7  UNL     1     -36.019  14.274  -5.321  1.00 20.00     0.021 C 
BRANCH   6   8
HETATM    8  C1  UNL     1     -33.893  15.127  -4.283  1.00 20.00     0.129 C 
HETATM    9  C4  UNL     1     -33.255  16.212  -3.451  1.00 20.00     0.091 C 
HETATM   10  O9  UNL     1     -33.390  14.004  -4.345  1.00 20.00    -0.298 OA
ENDBRANCH   6   8
ENDBRANCH   2   6
TORSDOF 2
ENDMDL
