MODEL 1
REMARK VINA RESULT:      -4.7      0.000      0.000
REMARK  1 active torsions:
REMARK  status: ('A' for Active; 'I' for Inactive)
REMARK    1  A    between atoms: C10_10  and  O13_13 
ROOT
HETATM    1  C1  UNL     1     -31.340  19.037   3.329  1.00 20.00     0.099 C 
HETATM    2  C2  UNL     1     -30.797  18.590   0.984  1.00 20.00     0.023 A 
HETATM    3  C3  UNL     1     -31.168  18.481  -0.359  1.00 20.00     0.012 A 
HETATM    4  C4  UNL     1     -33.078  19.154   1.616  1.00 20.00     0.030 A 
HETATM    5  C5  UNL     1     -31.745  18.924   1.963  1.00 20.00     0.045 A 
HETATM    6  C6  UNL     1     -32.494  18.697  -0.695  1.00 20.00    -0.023 A 
HETATM    7  C7  UNL     1     -33.439  19.032   0.284  1.00 20.00    -0.048 A 
HETATM    8  C8  UNL     1     -34.785  19.262  -0.328  1.00 20.00     0.042 C 
HETATM    9  C9  UNL     1     -34.616  18.562  -1.683  1.00 20.00     0.041 C 
HETATM   10  C10 UNL     1     -33.128  18.680  -2.053  1.00 20.00     0.154 C 
HETATM   11  N12 UNL     1     -31.011  19.128   4.439  1.00 20.00    -0.191 NA
ENDROOT
BRANCH  10  12
HETATM   12  O13 UNL     1     -32.707  17.573  -2.822  1.00 20.00    -0.386 OA
HETATM   13  C11 UNL     1     -33.492  16.415  -2.557  1.00 20.00     0.202 C 
ENDBRANCH  10  12
TORSDOF 1
ENDMDL
MODEL 2
REMARK VINA RESULT:      -4.5      3.160      5.158
REMARK  1 active torsions:
REMARK  status: ('A' for Active; 'I' for Inactive)
REMARK    1  A    between atoms: C10_10  and  O13_13 
ROOT
HETATM    1  C1  UNL     1     -32.167  18.517  -1.525  1.00 20.00     0.099 C 
HETATM    2  C2  UNL     1     -33.544  18.830  -3.526  1.00 20.00     0.023 A 
HETATM    3  C3  UNL     1     -34.290  18.318  -4.591  1.00 20.00     0.012 A 
HETATM    4  C4  UNL     1     -33.027  16.584  -2.746  1.00 20.00     0.030 A 
HETATM    5  C5  UNL     1     -32.918  17.970  -2.611  1.00 20.00     0.045 A 
HETATM    6  C6  UNL     1     -34.382  16.942  -4.728  1.00 20.00    -0.023 A 
HETATM    7  C7  UNL     1     -33.758  16.084  -3.813  1.00 20.00    -0.048 A 
HETATM    8  C8  UNL     1     -34.042  14.652  -4.141  1.00 20.00     0.042 C 
HETATM    9  C9  UNL     1     -34.494  14.771  -5.603  1.00 20.00     0.041 C 
HETATM   10  C10 UNL     1     -35.147  16.155  -5.748  1.00 20.00     0.154 C 
HETATM   11  N12 UNL     1     -31.557  18.963  -0.644  1.00 20.00    -0.191 NA
ENDROOT
BRANCH  10  12
HETATM   12  O13 UNL     1     -34.970  16.665  -7.054  1.00 20.00    -0.386 OA
HETATM   13  C11 UNL     1     -34.043  15.888  -7.805  1.00 20.00     0.202 C 
ENDBRANCH  10  12
TORSDOF 1
ENDMDL
MODEL 3
REMARK VINA RESULT:      -4.4      4.268      6.521
REMARK  1 active torsions:
REMARK  status: ('A' for Active; 'I' for Inactive)
REMARK    1  A    between atoms: C10_10  and  O13_13 
ROOT
HETATM    1  C1  UNL     1     -35.469  14.995  -6.256  1.00 20.00     0.099 C 
HETATM    2  C2  UNL     1     -33.828  15.164  -4.446  1.00 20.00     0.023 A 
HETATM    3  C3  UNL     1     -33.277  15.836  -3.353  1.00 20.00     0.012 A 
HETATM    4  C4  UNL     1     -35.474  16.928  -4.762  1.00 20.00     0.030 A 
HETATM    5  C5  UNL     1     -34.918  15.706  -5.146  1.00 20.00     0.045 A 
HETATM    6  C6  UNL     1     -33.825  17.055  -2.986  1.00 20.00    -0.023 A 
HETATM    7  C7  UNL     1     -34.913  17.594  -3.684  1.00 20.00    -0.048 A 
HETATM    8  C8  UNL     1     -35.355  18.887  -3.072  1.00 20.00     0.042 C 
HETATM    9  C9  UNL     1     -34.112  19.263  -2.254  1.00 20.00     0.041 C 
HETATM   10  C10 UNL     1     -33.445  17.941  -1.839  1.00 20.00     0.154 C 
HETATM   11  N12 UNL     1     -35.916  14.418  -7.159  1.00 20.00    -0.191 NA
ENDROOT
BRANCH  10  12
HETATM   12  O13 UNL     1     -32.045  18.093  -1.725  1.00 20.00    -0.386 OA
HETATM   13  C11 UNL     1     -31.663  18.510  -0.419  1.00 20.00     0.202 C 
ENDBRANCH  10  12
TORSDOF 1
ENDMDL
MODEL 4
REMARK VINA RESULT:      -4.3      3.062      4.666
REMARK  1 active torsions:
REMARK  status: ('A' for Active; 'I' for Inactive)
REMARK    1  A    between atoms: C10_10  and  O13_13 
ROOT
HETATM    1  C1  UNL     1     -33.956  18.376  -0.530  1.00 20.00     0.099 C 
HETATM    2  C2  UNL     1     -33.323  16.696  -2.195  1.00 20.00     0.023 A 
HETATM    3  C3  UNL     1     -33.417  16.145  -3.476  1.00 20.00     0.012 A 
HETATM    4  C4  UNL     1     -34.935  18.425  -2.768  1.00 20.00     0.030 A 
HETATM    5  C5  UNL     1     -34.076  17.827  -1.844  1.00 20.00     0.045 A 
HETATM    6  C6  UNL     1     -34.282  16.736  -4.383  1.00 20.00    -0.023 A 
HETATM    7  C7  UNL     1     -35.033  17.865  -4.032  1.00 20.00    -0.048 A 
HETATM    8  C8  UNL     1     -35.850  18.346  -5.190  1.00 20.00     0.042 C 
HETATM    9  C9  UNL     1     -35.853  17.100  -6.085  1.00 20.00     0.041 C 
HETATM   10  C10 UNL     1     -34.530  16.364  -5.814  1.00 20.00     0.154 C 
HETATM   11  N12 UNL     1     -33.860  18.822   0.537  1.00 20.00    -0.191 NA
ENDROOT
BRANCH  10  12
HETATM   12  O13 UNL     1     -34.681  14.970  -5.982  1.00 20.00    -0.386 OA
HETATM   13  C11 UNL     1     -35.972  14.525  -5.581  1.00 20.00     0.202 C 
ENDBRANCH  10  12
TORSDOF 1
ENDMDL
MODEL 5
REMARK VINA RESULT:      -4.2      4.773      7.264
REMARK  1 active torsions:
REMARK  status: ('A' for Active; 'I' for Inactive)
REMARK    1  A    between atoms: C10_10  and  O13_13 
ROOT
HETATM    1  C1  UNL     1     -35.859  15.142  -6.944  1.00 20.00     0.099 C 
HETATM    2  C2  UNL     1     -36.228  17.199  -5.667  1.00 20.00     0.023 A 
HETATM    3  C3  UNL     1     -35.908  18.060  -4.614  1.00 20.00     0.012 A 
HETATM    4  C4  UNL     1     -34.477  15.649  -4.995  1.00 20.00     0.030 A 
HETATM    5  C5  UNL     1     -35.518  16.003  -5.855  1.00 20.00     0.045 A 
HETATM    6  C6  UNL     1     -34.883  17.696  -3.756  1.00 20.00    -0.023 A 
HETATM    7  C7  UNL     1     -34.174  16.503  -3.946  1.00 20.00    -0.048 A 
HETATM    8  C8  UNL     1     -33.089  16.356  -2.926  1.00 20.00     0.042 C 
HETATM    9  C9  UNL     1     -33.558  17.348  -1.853  1.00 20.00     0.041 C 
HETATM   10  C10 UNL     1     -34.327  18.457  -2.590  1.00 20.00     0.154 C 
HETATM   11  N12 UNL     1     -36.137  14.443  -7.828  1.00 20.00    -0.191 NA
ENDROOT
BRANCH  10  12
HETATM   12  O13 UNL     1     -35.346  18.997  -1.774  1.00 20.00    -0.386 OA
HETATM   13  C11 UNL     1     -34.882  19.263  -0.454  1.00 20.00     0.202 C 
ENDBRANCH  10  12
TORSDOF 1
ENDMDL
MODEL 6
REMARK VINA RESULT:      -4.0      2.347      3.960
REMARK  1 active torsions:
REMARK  status: ('A' for Active; 'I' for Inactive)
REMARK    1  A    between atoms: C10_10  and  O13_13 
ROOT
HETATM    1  C1  UNL     1     -32.705  18.530   0.349  1.00 20.00     0.099 C 
HETATM    2  C2  UNL     1     -34.357  19.127  -1.357  1.00 20.00     0.023 A 
HETATM    3  C3  UNL     1     -35.009  18.883  -2.568  1.00 20.00     0.012 A 
HETATM    4  C4  UNL     1     -32.982  17.140  -1.641  1.00 20.00     0.030 A 
HETATM    5  C5  UNL     1     -33.351  18.263  -0.897  1.00 20.00     0.045 A 
HETATM    6  C6  UNL     1     -34.628  17.775  -3.308  1.00 20.00    -0.023 A 
HETATM    7  C7  UNL     1     -33.625  16.912  -2.848  1.00 20.00    -0.048 A 
HETATM    8  C8  UNL     1     -33.427  15.768  -3.792  1.00 20.00     0.042 C 
HETATM    9  C9  UNL     1     -34.082  16.322  -5.065  1.00 20.00     0.041 C 
HETATM   10  C10 UNL     1     -35.194  17.278  -4.603  1.00 20.00     0.154 C 
HETATM   11  N12 UNL     1     -32.179  18.747   1.361  1.00 20.00    -0.191 NA
ENDROOT
BRANCH  10  12
HETATM   12  O13 UNL     1     -35.385  18.322  -5.535  1.00 20.00    -0.386 OA
HETATM   13  C11 UNL     1     -34.423  18.278  -6.584  1.00 20.00     0.202 C 
ENDBRANCH  10  12
TORSDOF 1
ENDMDL
MODEL 7
REMARK VINA RESULT:      -3.9     12.395     13.522
REMARK  1 active torsions:
REMARK  status: ('A' for Active; 'I' for Inactive)
REMARK    1  A    between atoms: C10_10  and  O13_13 
ROOT
HETATM    1  C1  UNL     1     -39.899  12.187   5.121  1.00 20.00     0.099 C 
HETATM    2  C2  UNL     1     -41.924  12.371   6.486  1.00 20.00     0.023 A 
HETATM    3  C3  UNL     1     -42.645  12.946   7.536  1.00 20.00     0.012 A 
HETATM    4  C4  UNL     1     -40.002  13.781   6.969  1.00 20.00     0.030 A 
HETATM    5  C5  UNL     1     -40.613  12.785   6.205  1.00 20.00     0.045 A 
HETATM    6  C6  UNL     1     -42.027  13.924   8.298  1.00 20.00    -0.023 A 
HETATM    7  C7  UNL     1     -40.719  14.338   8.017  1.00 20.00    -0.048 A 
HETATM    8  C8  UNL     1     -40.292  15.434   8.943  1.00 20.00     0.042 C 
HETATM    9  C9  UNL     1     -41.311  15.271  10.078  1.00 20.00     0.041 C 
HETATM   10  C10 UNL     1     -42.594  14.714   9.439  1.00 20.00     0.154 C 
HETATM   11  N12 UNL     1     -39.319  11.700   4.242  1.00 20.00    -0.191 NA
ENDROOT
BRANCH  10  12
HETATM   12  O13 UNL     1     -43.303  13.900  10.350  1.00 20.00    -0.386 OA
HETATM   13  C11 UNL     1     -42.432  13.267  11.282  1.00 20.00     0.202 C 
ENDBRANCH  10  12
TORSDOF 1
ENDMDL
MODEL 8
REMARK VINA RESULT:      -3.8      1.610      2.599
REMARK  1 active torsions:
REMARK  status: ('A' for Active; 'I' for Inactive)
REMARK    1  A    between atoms: C10_10  and  O13_13 
ROOT
HETATM    1  C1  UNL     1     -30.624  18.690   1.810  1.00 20.00     0.099 C 
HETATM    2  C2  UNL     1     -33.014  18.919   1.330  1.00 20.00     0.023 A 
HETATM    3  C3  UNL     1     -34.102  18.824   0.458  1.00 20.00     0.012 A 
HETATM    4  C4  UNL     1     -31.491  18.166  -0.412  1.00 20.00     0.030 A 
HETATM    5  C5  UNL     1     -31.719  18.593   0.898  1.00 20.00     0.045 A 
HETATM    6  C6  UNL     1     -33.867  18.413  -0.844  1.00 20.00    -0.023 A 
HETATM    7  C7  UNL     1     -32.574  18.087  -1.274  1.00 20.00    -0.048 A 
HETATM    8  C8  UNL     1     -32.583  17.627  -2.698  1.00 20.00     0.042 C 
HETATM    9  C9  UNL     1     -33.933  18.178  -3.176  1.00 20.00     0.041 C 
HETATM   10  C10 UNL     1     -34.857  18.194  -1.947  1.00 20.00     0.154 C 
HETATM   11  N12 UNL     1     -29.734  18.771   2.552  1.00 20.00    -0.191 NA
ENDROOT
BRANCH  10  12
HETATM   12  O13 UNL     1     -35.798  19.245  -2.034  1.00 20.00    -0.386 OA
HETATM   13  C11 UNL     1     -36.906  18.897  -2.857  1.00 20.00     0.202 C 
ENDBRANCH  10  12
TORSDOF 1
ENDMDL
MODEL 9
REMARK VINA RESULT:      -3.7     23.369     24.510
REMARK  1 active torsions:
REMARK  status: ('A' for Active; 'I' for Inactive)
REMARK    1  A    between atoms: C10_10  and  O13_13 
ROOT
HETATM    1  C1  UNL     1     -23.110  -3.486  11.199  1.00 20.00     0.099 C 
HETATM    2  C2  UNL     1     -25.349  -3.499  10.208  1.00 20.00     0.023 A 
HETATM    3  C3  UNL     1     -26.626  -2.951  10.061  1.00 20.00     0.012 A 
HETATM    4  C4  UNL     1     -24.738  -1.768  11.805  1.00 20.00     0.030 A 
HETATM    5  C5  UNL     1     -24.412  -2.912  11.073  1.00 20.00     0.045 A 
HETATM    6  C6  UNL     1     -26.947  -1.825  10.801  1.00 20.00    -0.023 A 
HETATM    7  C7  UNL     1     -26.011  -1.239  11.663  1.00 20.00    -0.048 A 
HETATM    8  C8  UNL     1     -26.573  -0.012  12.310  1.00 20.00     0.042 C 
HETATM    9  C9  UNL     1     -28.076  -0.229  12.095  1.00 20.00     0.041 C 
HETATM   10  C10 UNL     1     -28.220  -1.034  10.793  1.00 20.00     0.154 C 
HETATM   11  N12 UNL     1     -22.052  -3.953  11.303  1.00 20.00    -0.191 NA
ENDROOT
BRANCH  10  12
HETATM   12  O13 UNL     1     -29.362  -1.864  10.832  1.00 20.00    -0.386 OA
HETATM   13  C11 UNL     1     -29.683  -2.260  12.162  1.00 20.00     0.202 C 
ENDBRANCH  10  12
TORSDOF 1
ENDMDL
