MODEL 1
REMARK VINA RESULT:      -4.6      0.000      0.000
REMARK  2 active torsions:
REMARK  status: ('A' for Active; 'I' for Inactive)
REMARK    1  A    between atoms: C3_3  and  C10_10 
REMARK    2  A    between atoms: C7_7  and  O11_11 
ROOT
HETATM    1  C1  UNL     1     -32.897   9.464   1.583  1.00 20.00     0.012 C 
HETATM    2  C2  UNL     1     -32.417   8.792   2.456  1.00 20.00    -0.113 C 
HETATM    3  C10 UNL     1     -31.821   7.977   3.517  1.00 20.00     0.127 C 
ENDROOT
BRANCH   3   4
HETATM    4  C3  UNL     1     -32.877   7.181   4.202  1.00 20.00    -0.060 C 
HETATM    5  C4  UNL     1     -33.473   6.048   3.794  1.00 20.00    -0.052 C 
HETATM    6  C7  UNL     1     -34.497   5.584   4.793  1.00 20.00     0.147 C 
HETATM    7  C8  UNL     1     -33.277   5.299   2.520  1.00 20.00     0.046 C 
HETATM    8  C5  UNL     1     -34.140   6.390   6.042  1.00 20.00     0.045 C 
HETATM    9  C6  UNL     1     -33.410   7.641   5.537  1.00 20.00     0.014 C 
HETATM   10  C9  UNL     1     -34.345   8.840   5.409  1.00 20.00     0.015 C 
BRANCH   6  11
HETATM   11  O11 UNL     1     -34.383   4.200   5.078  1.00 20.00    -0.391 OA
HETATM   12  H25 UNL     1     -35.248   3.909   5.410  1.00 20.00     0.210 HD
ENDBRANCH   6  11
ENDBRANCH   3   4
TORSDOF 2
ENDMDL
MODEL 2
REMARK VINA RESULT:      -4.5      2.007      3.825
REMARK  2 active torsions:
REMARK  status: ('A' for Active; 'I' for Inactive)
REMARK    1  A    between atoms: C3_3  and  C10_10 
REMARK    2  A    between atoms: C7_7  and  O11_11 
ROOT
HETATM    1  C1  UNL     1     -34.463   4.948   6.912  1.00 20.00     0.012 C 
HETATM    2  C2  UNL     1     -34.752   5.427   5.848  1.00 20.00    -0.113 C 
HETATM    3  C10 UNL     1     -35.115   6.005   4.553  1.00 20.00     0.127 C 
ENDROOT
BRANCH   3   4
HETATM    4  C3  UNL     1     -33.970   6.786   4.005  1.00 20.00    -0.060 C 
HETATM    5  C4  UNL     1     -33.055   6.410   3.096  1.00 20.00    -0.052 C 
HETATM    6  C7  UNL     1     -32.064   7.512   2.837  1.00 20.00     0.147 C 
HETATM    7  C8  UNL     1     -32.903   5.092   2.418  1.00 20.00     0.046 C 
HETATM    8  C5  UNL     1     -32.759   8.737   3.431  1.00 20.00     0.045 C 
HETATM    9  C6  UNL     1     -33.730   8.196   4.487  1.00 20.00     0.014 C 
HETATM   10  C9  UNL     1     -33.136   8.238   5.892  1.00 20.00     0.015 C 
BRANCH   6  11
HETATM   11  O11 UNL     1     -31.841   7.722   1.454  1.00 20.00    -0.391 OA
HETATM   12  H25 UNL     1     -32.158   8.618   1.250  1.00 20.00     0.210 HD
ENDBRANCH   6  11
ENDBRANCH   3   4
TORSDOF 2
ENDMDL
MODEL 3
REMARK VINA RESULT:      -4.2     11.293     12.690
REMARK  2 active torsions:
REMARK  status: ('A' for Active; 'I' for Inactive)
REMARK    1  A    between atoms: C3_3  and  C10_10 
REMARK    2  A    between atoms: C7_7  and  O11_11 
ROOT
HETATM    1  C1  UNL     1     -33.641  17.339  -1.516  1.00 20.00     0.012 C 
HETATM    2  C2  UNL     1     -33.756  17.418  -2.709  1.00 20.00    -0.113 C 
HETATM    3  C10 UNL     1     -33.890  17.524  -4.163  1.00 20.00     0.127 C 
ENDROOT
BRANCH   3   4
HETATM    4  C3  UNL     1     -34.683  16.377  -4.687  1.00 20.00    -0.060 C 
HETATM    5  C4  UNL     1     -34.355  15.074  -4.720  1.00 20.00    -0.052 C 
HETATM    6  C7  UNL     1     -35.450  14.256  -5.348  1.00 20.00     0.147 C 
HETATM    7  C8  UNL     1     -33.088  14.421  -4.286  1.00 20.00     0.046 C 
HETATM    8  C5  UNL     1     -36.643  15.211  -5.321  1.00 20.00     0.045 C 
HETATM    9  C6  UNL     1     -36.047  16.623  -5.284  1.00 20.00     0.014 C 
HETATM   10  C9  UNL     1     -35.971  17.253  -6.671  1.00 20.00     0.015 C 
BRANCH   6  11
HETATM   11  O11 UNL     1     -35.758  13.098  -4.592  1.00 20.00    -0.391 OA
HETATM   12  H25 UNL     1     -36.385  12.575  -5.119  1.00 20.00     0.210 HD
ENDBRANCH   6  11
ENDBRANCH   3   4
TORSDOF 2
ENDMDL
MODEL 4
REMARK VINA RESULT:      -4.0      9.291     11.110
REMARK  2 active torsions:
REMARK  status: ('A' for Active; 'I' for Inactive)
REMARK    1  A    between atoms: C3_3  and  C10_10 
REMARK    2  A    between atoms: C7_7  and  O11_11 
ROOT
HETATM    1  C1  UNL     1     -39.225  11.758   5.333  1.00 20.00     0.012 C 
HETATM    2  C2  UNL     1     -40.085  12.584   5.477  1.00 20.00    -0.113 C 
HETATM    3  C10 UNL     1     -41.134  13.592   5.641  1.00 20.00     0.127 C 
ENDROOT
BRANCH   3   4
HETATM    4  C3  UNL     1     -41.351  13.870   7.089  1.00 20.00    -0.060 C 
HETATM    5  C4  UNL     1     -42.295  13.376   7.907  1.00 20.00    -0.052 C 
HETATM    6  C7  UNL     1     -42.154  13.934   9.296  1.00 20.00     0.147 C 
HETATM    7  C8  UNL     1     -43.415  12.447   7.583  1.00 20.00     0.046 C 
HETATM    8  C5  UNL     1     -40.746  14.529   9.280  1.00 20.00     0.045 C 
HETATM    9  C6  UNL     1     -40.437  14.831   7.809  1.00 20.00     0.014 C 
HETATM   10  C9  UNL     1     -40.719  16.286   7.448  1.00 20.00     0.015 C 
BRANCH   6  11
HETATM   11  O11 UNL     1     -42.229  12.929  10.292  1.00 20.00    -0.391 OA
HETATM   12  H25 UNL     1     -42.717  13.309  11.041  1.00 20.00     0.210 HD
ENDBRANCH   6  11
ENDBRANCH   3   4
TORSDOF 2
ENDMDL
MODEL 5
REMARK VINA RESULT:      -3.9     11.619     13.020
REMARK  2 active torsions:
REMARK  status: ('A' for Active; 'I' for Inactive)
REMARK    1  A    between atoms: C3_3  and  C10_10 
REMARK    2  A    between atoms: C7_7  and  O11_11 
ROOT
HETATM    1  C1  UNL     1     -33.969  17.894  -0.358  1.00 20.00     0.012 C 
HETATM    2  C2  UNL     1     -33.472  17.467  -1.366  1.00 20.00    -0.113 C 
HETATM    3  C10 UNL     1     -32.857  16.946  -2.588  1.00 20.00     0.127 C 
ENDROOT
BRANCH   3   4
HETATM    4  C3  UNL     1     -33.862  16.904  -3.686  1.00 20.00    -0.060 C 
HETATM    5  C4  UNL     1     -34.234  15.860  -4.446  1.00 20.00    -0.052 C 
HETATM    6  C7  UNL     1     -35.278  16.264  -5.449  1.00 20.00     0.147 C 
HETATM    7  C8  UNL     1     -33.708  14.465  -4.432  1.00 20.00     0.046 C 
HETATM    8  C5  UNL     1     -35.762  17.610  -4.910  1.00 20.00     0.045 C 
HETATM    9  C6  UNL     1     -34.607  18.161  -4.066  1.00 20.00     0.014 C 
HETATM   10  C9  UNL     1     -33.736  19.139  -4.849  1.00 20.00     0.015 C 
BRANCH   6  11
HETATM   11  O11 UNL     1     -36.365  15.356  -5.491  1.00 20.00    -0.391 OA
HETATM   12  H25 UNL     1     -37.132  15.816  -5.110  1.00 20.00     0.210 HD
ENDBRANCH   6  11
ENDBRANCH   3   4
TORSDOF 2
ENDMDL
MODEL 6
REMARK VINA RESULT:      -3.9     11.708     13.101
REMARK  2 active torsions:
REMARK  status: ('A' for Active; 'I' for Inactive)
REMARK    1  A    between atoms: C3_3  and  C10_10 
REMARK    2  A    between atoms: C7_7  and  O11_11 
ROOT
HETATM    1  C1  UNL     1     -36.971  19.026  -2.721  1.00 20.00     0.012 C 
HETATM    2  C2  UNL     1     -36.000  18.885  -3.415  1.00 20.00    -0.113 C 
HETATM    3  C10 UNL     1     -34.817  18.727  -4.263  1.00 20.00     0.127 C 
ENDROOT
BRANCH   3   4
HETATM    4  C3  UNL     1     -34.388  17.300  -4.277  1.00 20.00    -0.060 C 
HETATM    5  C4  UNL     1     -34.907  16.274  -4.972  1.00 20.00    -0.052 C 
HETATM    6  C7  UNL     1     -34.171  14.995  -4.680  1.00 20.00     0.147 C 
HETATM    7  C8  UNL     1     -36.085  16.268  -5.885  1.00 20.00     0.046 C 
HETATM    8  C5  UNL     1     -32.888  15.488  -4.013  1.00 20.00     0.045 C 
HETATM    9  C6  UNL     1     -33.226  16.861  -3.420  1.00 20.00     0.014 C 
HETATM   10  C9  UNL     1     -33.593  16.776  -1.942  1.00 20.00     0.015 C 
BRANCH   6  11
HETATM   11  O11 UNL     1     -33.844  14.280  -5.859  1.00 20.00    -0.391 OA
HETATM   12  H25 UNL     1     -32.989  14.623  -6.169  1.00 20.00     0.210 HD
ENDBRANCH   6  11
ENDBRANCH   3   4
TORSDOF 2
ENDMDL
MODEL 7
REMARK VINA RESULT:      -3.9     11.709     13.481
REMARK  2 active torsions:
REMARK  status: ('A' for Active; 'I' for Inactive)
REMARK    1  A    between atoms: C3_3  and  C10_10 
REMARK    2  A    between atoms: C7_7  and  O11_11 
ROOT
HETATM    1  C1  UNL     1     -37.430  18.587  -3.414  1.00 20.00     0.012 C 
HETATM    2  C2  UNL     1     -36.356  18.518  -3.949  1.00 20.00    -0.113 C 
HETATM    3  C10 UNL     1     -35.047  18.446  -4.600  1.00 20.00     0.127 C 
ENDROOT
BRANCH   3   4
HETATM    4  C3  UNL     1     -34.734  17.034  -4.959  1.00 20.00    -0.060 C 
HETATM    5  C4  UNL     1     -34.022  16.128  -4.268  1.00 20.00    -0.052 C 
HETATM    6  C7  UNL     1     -33.945  14.821  -5.007  1.00 20.00     0.147 C 
HETATM    7  C8  UNL     1     -33.308  16.299  -2.971  1.00 20.00     0.046 C 
HETATM    8  C5  UNL     1     -35.049  14.959  -6.055  1.00 20.00     0.045 C 
HETATM    9  C6  UNL     1     -35.242  16.466  -6.262  1.00 20.00     0.014 C 
HETATM   10  C9  UNL     1     -34.462  16.986  -7.467  1.00 20.00     0.015 C 
BRANCH   6  11
HETATM   11  O11 UNL     1     -34.225  13.712  -4.171  1.00 20.00    -0.391 OA
HETATM   12  H25 UNL     1     -35.137  13.821  -3.853  1.00 20.00     0.210 HD
ENDBRANCH   6  11
ENDBRANCH   3   4
TORSDOF 2
ENDMDL
MODEL 8
REMARK VINA RESULT:      -3.8      1.487      2.735
REMARK  2 active torsions:
REMARK  status: ('A' for Active; 'I' for Inactive)
REMARK    1  A    between atoms: C3_3  and  C10_10 
REMARK    2  A    between atoms: C7_7  and  O11_11 
ROOT
HETATM    1  C1  UNL     1     -33.092   9.916   1.130  1.00 20.00     0.012 C 
HETATM    2  C2  UNL     1     -32.622   8.877   1.511  1.00 20.00    -0.113 C 
HETATM    3  C10 UNL     1     -32.042   7.612   1.965  1.00 20.00     0.127 C 
ENDROOT
BRANCH   3   4
HETATM    4  C3  UNL     1     -32.744   7.141   3.192  1.00 20.00    -0.060 C 
HETATM    5  C4  UNL     1     -32.738   7.681   4.423  1.00 20.00    -0.052 C 
HETATM    6  C7  UNL     1     -33.579   6.873   5.372  1.00 20.00     0.147 C 
HETATM    7  C8  UNL     1     -31.991   8.873   4.913  1.00 20.00     0.046 C 
HETATM    8  C5  UNL     1     -34.405   5.997   4.431  1.00 20.00     0.045 C 
HETATM    9  C6  UNL     1     -33.592   5.894   3.135  1.00 20.00     0.014 C 
HETATM   10  C9  UNL     1     -32.753   4.621   3.080  1.00 20.00     0.015 C 
BRANCH   6  11
HETATM   11  O11 UNL     1     -34.447   7.682   6.145  1.00 20.00    -0.391 OA
HETATM   12  H25 UNL     1     -34.133   7.637   7.064  1.00 20.00     0.210 HD
ENDBRANCH   6  11
ENDBRANCH   3   4
TORSDOF 2
ENDMDL
MODEL 9
REMARK VINA RESULT:      -3.8     11.474     13.134
REMARK  2 active torsions:
REMARK  status: ('A' for Active; 'I' for Inactive)
REMARK    1  A    between atoms: C3_3  and  C10_10 
REMARK    2  A    between atoms: C7_7  and  O11_11 
ROOT
HETATM    1  C1  UNL     1     -37.750  18.276  -5.217  1.00 20.00     0.012 C 
HETATM    2  C2  UNL     1     -36.591  18.131  -5.495  1.00 20.00    -0.113 C 
HETATM    3  C10 UNL     1     -35.178  17.963  -5.843  1.00 20.00     0.127 C 
ENDROOT
BRANCH   3   4
HETATM    4  C3  UNL     1     -34.577  16.875  -5.021  1.00 20.00    -0.060 C 
HETATM    5  C4  UNL     1     -34.746  15.546  -5.132  1.00 20.00    -0.052 C 
HETATM    6  C7  UNL     1     -33.956  14.810  -4.086  1.00 20.00     0.147 C 
HETATM    7  C8  UNL     1     -35.619  14.795  -6.078  1.00 20.00     0.046 C 
HETATM    8  C5  UNL     1     -32.980  15.876  -3.587  1.00 20.00     0.045 C 
HETATM    9  C6  UNL     1     -33.646  17.225  -3.886  1.00 20.00     0.014 C 
HETATM   10  C9  UNL     1     -34.388  17.782  -2.675  1.00 20.00     0.015 C 
BRANCH   6  11
HETATM   11  O11 UNL     1     -33.228  13.722  -4.626  1.00 20.00    -0.391 OA
HETATM   12  H25 UNL     1     -33.110  13.077  -3.909  1.00 20.00     0.210 HD
ENDBRANCH   6  11
ENDBRANCH   3   4
TORSDOF 2
ENDMDL
