MODEL 1
REMARK VINA RESULT:      -4.4      0.000      0.000
REMARK  2 active torsions:
REMARK  status: ('A' for Active; 'I' for Inactive)
REMARK    1  A    between atoms: C1_1  and  N9_9 
REMARK    2  A    between atoms: C4_4  and  C8_8 
ROOT
HETATM    1  C2  UNL     1     -33.893   7.349   5.129  1.00 20.00     0.031 C 
HETATM    2  C3  UNL     1     -33.078   5.985   3.350  1.00 20.00     0.130 C 
HETATM    3  C4  UNL     1     -34.283   6.144   4.269  1.00 20.00     0.005 C 
HETATM    4  C5  UNL     1     -33.142   8.263   4.151  1.00 20.00     0.083 C 
HETATM    5  C6  UNL     1     -32.056   9.067   4.855  1.00 20.00     0.032 C 
HETATM    6  N9  UNL     1     -32.624   7.349   3.135  1.00 20.00    -0.355 N 
ENDROOT
BRANCH   3   7
HETATM    7  C8  UNL     1     -34.586   4.898   5.084  1.00 20.00     0.002 C 
HETATM    8  C7  UNL     1     -34.541   5.167   6.556  1.00 20.00     0.005 C 
ENDBRANCH   3   7
BRANCH   6   9
HETATM    9  C1  UNL     1     -31.913   7.735   2.021  1.00 20.00     0.351 C 
HETATM   10  O10 UNL     1     -32.339   8.352   1.051  1.00 20.00    -0.284 OA
ENDBRANCH   6   9
TORSDOF 2
ENDMDL
MODEL 2
REMARK VINA RESULT:      -3.8      2.159      3.922
REMARK  2 active torsions:
REMARK  status: ('A' for Active; 'I' for Inactive)
REMARK    1  A    between atoms: C1_1  and  N9_9 
REMARK    2  A    between atoms: C4_4  and  C8_8 
ROOT
HETATM    1  C2  UNL     1     -32.435   8.407   4.009  1.00 20.00     0.031 C 
HETATM    2  C3  UNL     1     -33.382   6.451   3.026  1.00 20.00     0.130 C 
HETATM    3  C4  UNL     1     -32.170   7.369   2.915  1.00 20.00     0.005 C 
HETATM    4  C5  UNL     1     -33.081   7.588   5.136  1.00 20.00     0.083 C 
HETATM    5  C6  UNL     1     -34.079   8.420   5.932  1.00 20.00     0.032 C 
HETATM    6  N9  UNL     1     -33.689   6.451   4.447  1.00 20.00    -0.355 N 
ENDROOT
BRANCH   3   7
HETATM    7  C8  UNL     1     -32.004   7.981   1.535  1.00 20.00     0.002 C 
HETATM    8  C7  UNL     1     -32.760   9.266   1.397  1.00 20.00     0.005 C 
ENDBRANCH   3   7
BRANCH   6   9
HETATM    9  C1  UNL     1     -34.350   5.418   5.071  1.00 20.00     0.351 C 
HETATM   10  O10 UNL     1     -34.435   4.256   4.687  1.00 20.00    -0.284 OA
ENDBRANCH   6   9
TORSDOF 2
ENDMDL
MODEL 3
REMARK VINA RESULT:      -3.6     12.134     13.211
REMARK  2 active torsions:
REMARK  status: ('A' for Active; 'I' for Inactive)
REMARK    1  A    between atoms: C1_1  and  N9_9 
REMARK    2  A    between atoms: C4_4  and  C8_8 
ROOT
HETATM    1  C2  UNL     1     -33.944  15.243  -3.893  1.00 20.00     0.031 C 
HETATM    2  C3  UNL     1     -34.188  17.585  -4.268  1.00 20.00     0.130 C 
HETATM    3  C4  UNL     1     -33.366  16.592  -3.457  1.00 20.00     0.005 C 
HETATM    4  C5  UNL     1     -34.247  15.444  -5.384  1.00 20.00     0.083 C 
HETATM    5  C6  UNL     1     -35.451  14.622  -5.827  1.00 20.00     0.032 C 
HETATM    6  N9  UNL     1     -34.445  16.886  -5.516  1.00 20.00    -0.355 N 
ENDROOT
BRANCH   3   7
HETATM    7  C8  UNL     1     -33.449  16.824  -1.958  1.00 20.00     0.002 C 
HETATM    8  C7  UNL     1     -32.607  17.983  -1.523  1.00 20.00     0.005 C 
ENDBRANCH   3   7
BRANCH   6   9
HETATM    9  C1  UNL     1     -34.700  17.537  -6.702  1.00 20.00     0.351 C 
HETATM   10  O10 UNL     1     -34.129  17.369  -7.774  1.00 20.00    -0.284 OA
ENDBRANCH   6   9
TORSDOF 2
ENDMDL
MODEL 4
REMARK VINA RESULT:      -3.6     11.512     12.877
REMARK  2 active torsions:
REMARK  status: ('A' for Active; 'I' for Inactive)
REMARK    1  A    between atoms: C1_1  and  N9_9 
REMARK    2  A    between atoms: C4_4  and  C8_8 
ROOT
HETATM    1  C2  UNL     1     -33.383  16.094  -3.067  1.00 20.00     0.031 C 
HETATM    2  C3  UNL     1     -34.305  17.605  -4.666  1.00 20.00     0.130 C 
HETATM    3  C4  UNL     1     -33.293  17.551  -3.527  1.00 20.00     0.005 C 
HETATM    4  C5  UNL     1     -33.595  15.315  -4.372  1.00 20.00     0.083 C 
HETATM    5  C6  UNL     1     -34.438  14.066  -4.150  1.00 20.00     0.032 C 
HETATM    6  N9  UNL     1     -34.216  16.286  -5.271  1.00 20.00    -0.355 N 
ENDROOT
BRANCH   3   7
HETATM    7  C8  UNL     1     -33.582  18.549  -2.419  1.00 20.00     0.002 C 
HETATM    8  C7  UNL     1     -33.826  17.873  -1.106  1.00 20.00     0.005 C 
ENDBRANCH   3   7
BRANCH   6   9
HETATM    9  C1  UNL     1     -34.550  16.039  -6.583  1.00 20.00     0.351 C 
HETATM   10  O10 UNL     1     -34.053  15.200  -7.326  1.00 20.00    -0.284 OA
ENDBRANCH   6   9
TORSDOF 2
ENDMDL
MODEL 5
REMARK VINA RESULT:      -3.6     12.105     13.530
REMARK  2 active torsions:
REMARK  status: ('A' for Active; 'I' for Inactive)
REMARK    1  A    between atoms: C1_1  and  N9_9 
REMARK    2  A    between atoms: C4_4  and  C8_8 
ROOT
HETATM    1  C2  UNL     1     -34.119  17.906  -4.811  1.00 20.00     0.031 C 
HETATM    2  C3  UNL     1     -34.243  15.531  -4.990  1.00 20.00     0.130 C 
HETATM    3  C4  UNL     1     -34.278  16.648  -3.954  1.00 20.00     0.005 C 
HETATM    4  C5  UNL     1     -34.910  17.578  -6.085  1.00 20.00     0.083 C 
HETATM    5  C6  UNL     1     -34.307  18.255  -7.310  1.00 20.00     0.032 C 
HETATM    6  N9  UNL     1     -34.884  16.118  -6.154  1.00 20.00    -0.355 N 
ENDROOT
BRANCH   3   7
HETATM    7  C8  UNL     1     -33.207  16.510  -2.885  1.00 20.00     0.002 C 
HETATM    8  C7  UNL     1     -33.596  17.192  -1.611  1.00 20.00     0.005 C 
ENDBRANCH   3   7
BRANCH   6   9
HETATM    9  C1  UNL     1     -35.513  15.367  -7.122  1.00 20.00     0.351 C 
HETATM   10  O10 UNL     1     -35.975  14.239  -6.997  1.00 20.00    -0.284 OA
ENDBRANCH   6   9
TORSDOF 2
ENDMDL
MODEL 6
REMARK VINA RESULT:      -3.6     11.659     12.661
REMARK  2 active torsions:
REMARK  status: ('A' for Active; 'I' for Inactive)
REMARK    1  A    between atoms: C1_1  and  N9_9 
REMARK    2  A    between atoms: C4_4  and  C8_8 
ROOT
HETATM    1  C2  UNL     1     -34.532  18.469  -3.061  1.00 20.00     0.031 C 
HETATM    2  C3  UNL     1     -33.120  16.660  -2.413  1.00 20.00     0.130 C 
HETATM    3  C4  UNL     1     -34.029  17.730  -1.819  1.00 20.00     0.005 C 
HETATM    4  C5  UNL     1     -34.700  17.355  -4.103  1.00 20.00     0.083 C 
HETATM    5  C6  UNL     1     -34.438  17.863  -5.515  1.00 20.00     0.032 C 
HETATM    6  N9  UNL     1     -33.762  16.320  -3.672  1.00 20.00    -0.355 N 
ENDROOT
BRANCH   3   7
HETATM    7  C8  UNL     1     -33.321  18.636  -0.827  1.00 20.00     0.002 C 
HETATM    8  C7  UNL     1     -31.840  18.419  -0.827  1.00 20.00     0.005 C 
ENDBRANCH   3   7
BRANCH   6   9
HETATM    9  C1  UNL     1     -33.600  15.101  -4.291  1.00 20.00     0.351 C 
HETATM   10  O10 UNL     1     -34.187  14.056  -4.030  1.00 20.00    -0.284 OA
ENDBRANCH   6   9
TORSDOF 2
ENDMDL
MODEL 7
REMARK VINA RESULT:      -3.5     12.056     13.045
REMARK  2 active torsions:
REMARK  status: ('A' for Active; 'I' for Inactive)
REMARK    1  A    between atoms: C1_1  and  N9_9 
REMARK    2  A    between atoms: C4_4  and  C8_8 
ROOT
HETATM    1  C2  UNL     1     -34.273  18.131  -3.835  1.00 20.00     0.031 C 
HETATM    2  C3  UNL     1     -33.356  15.929  -3.832  1.00 20.00     0.130 C 
HETATM    3  C4  UNL     1     -33.910  16.987  -2.885  1.00 20.00     0.005 C 
HETATM    4  C5  UNL     1     -34.794  17.410  -5.086  1.00 20.00     0.083 C 
HETATM    5  C6  UNL     1     -34.492  18.200  -6.355  1.00 20.00     0.032 C 
HETATM    6  N9  UNL     1     -34.139  16.104  -5.043  1.00 20.00    -0.355 N 
ENDROOT
BRANCH   3   7
HETATM    7  C8  UNL     1     -32.929  17.396  -1.800  1.00 20.00     0.002 C 
HETATM    8  C7  UNL     1     -33.626  17.877  -0.565  1.00 20.00     0.005 C 
ENDBRANCH   3   7
BRANCH   6   9
HETATM    9  C1  UNL     1     -34.344  15.093  -5.956  1.00 20.00     0.351 C 
HETATM   10  O10 UNL     1     -33.741  14.916  -7.009  1.00 20.00    -0.284 OA
ENDBRANCH   6   9
TORSDOF 2
ENDMDL
MODEL 8
REMARK VINA RESULT:      -3.4     10.443     11.252
REMARK  2 active torsions:
REMARK  status: ('A' for Active; 'I' for Inactive)
REMARK    1  A    between atoms: C1_1  and  N9_9 
REMARK    2  A    between atoms: C4_4  and  C8_8 
ROOT
HETATM    1  C2  UNL     1     -42.094  12.405   6.698  1.00 20.00     0.031 C 
HETATM    2  C3  UNL     1     -40.267  13.936   6.803  1.00 20.00     0.130 C 
HETATM    3  C4  UNL     1     -40.828  12.812   5.939  1.00 20.00     0.005 C 
HETATM    4  C5  UNL     1     -42.635  13.736   7.238  1.00 20.00     0.083 C 
HETATM    5  C6  UNL     1     -43.358  13.549   8.567  1.00 20.00     0.032 C 
HETATM    6  N9  UNL     1     -41.452  14.590   7.333  1.00 20.00    -0.355 N 
ENDROOT
BRANCH   3   7
HETATM    7  C8  UNL     1     -39.853  11.665   5.739  1.00 20.00     0.002 C 
HETATM    8  C7  UNL     1     -39.184  11.724   4.401  1.00 20.00     0.005 C 
ENDBRANCH   3   7
BRANCH   6   9
HETATM    9  C1  UNL     1     -41.465  15.907   7.735  1.00 20.00     0.351 C 
HETATM   10  O10 UNL     1     -40.552  16.719   7.633  1.00 20.00    -0.284 OA
ENDBRANCH   6   9
TORSDOF 2
ENDMDL
MODEL 9
REMARK VINA RESULT:      -3.4     10.362     11.005
REMARK  2 active torsions:
REMARK  status: ('A' for Active; 'I' for Inactive)
REMARK    1  A    between atoms: C1_1  and  N9_9 
REMARK    2  A    between atoms: C4_4  and  C8_8 
ROOT
HETATM    1  C2  UNL     1     -40.399  13.685   7.288  1.00 20.00     0.031 C 
HETATM    2  C3  UNL     1     -41.211  13.492   5.053  1.00 20.00     0.130 C 
HETATM    3  C4  UNL     1     -40.747  12.637   6.227  1.00 20.00     0.005 C 
HETATM    4  C5  UNL     1     -41.464  14.771   7.087  1.00 20.00     0.083 C 
HETATM    5  C6  UNL     1     -40.925  16.155   7.428  1.00 20.00     0.032 C 
HETATM    6  N9  UNL     1     -41.860  14.628   5.687  1.00 20.00    -0.355 N 
ENDROOT
BRANCH   3   7
HETATM    7  C8  UNL     1     -39.585  11.723   5.882  1.00 20.00     0.002 C 
HETATM    8  C7  UNL     1     -39.245  11.773   4.424  1.00 20.00     0.005 C 
ENDBRANCH   3   7
BRANCH   6   9
HETATM    9  C1  UNL     1     -42.836  15.376   5.067  1.00 20.00     0.351 C 
HETATM   10  O10 UNL     1     -42.668  16.316   4.297  1.00 20.00    -0.284 OA
ENDBRANCH   6   9
TORSDOF 2
ENDMDL
