MODEL 1
REMARK VINA RESULT:      -5.0      0.000      0.000
REMARK  2 active torsions:
REMARK  status: ('A' for Active; 'I' for Inactive)
REMARK    1  A    between atoms: C3_3  and  C5_5 
REMARK    2  A    between atoms: C5_5  and  C9_9 
ROOT
HETATM    1  C1  UNL     1     -42.358  12.720   6.788  1.00 20.00    -0.012 A 
HETATM    2  C2  UNL     1     -42.250  13.890   9.016  1.00 20.00    -0.020 A 
HETATM    3  C3  UNL     1     -41.149  13.214   6.485  1.00 20.00    -0.003 A 
HETATM    4  C4  UNL     1     -41.037  14.389   8.716  1.00 20.00    -0.083 A 
HETATM    5  C6  UNL     1     -43.040  13.007   8.093  1.00 20.00     0.055 A 
HETATM    6  C7  UNL     1     -40.354  14.097   7.401  1.00 20.00     0.075 A 
HETATM    7  C8  UNL     1     -40.283  15.268   9.670  1.00 20.00     0.043 C 
ENDROOT
BRANCH   3   8
HETATM    8  C5  UNL     1     -40.579  12.869   5.181  1.00 20.00     0.261 C 
HETATM    9  O10 UNL     1     -40.986  13.408   4.151  1.00 20.00    -0.283 OA
BRANCH   8  10
HETATM   10  C9  UNL     1     -39.486  11.836   5.160  1.00 20.00     0.455 C 
HETATM   11  F11 UNL     1     -38.254  12.384   5.313  1.00 20.00    -0.163 F 
HETATM   12  F12 UNL     1     -39.468  11.148   3.990  1.00 20.00    -0.163 F 
HETATM   13  F13 UNL     1     -39.637  10.923   6.153  1.00 20.00    -0.163 F 
ENDBRANCH   8  10
ENDBRANCH   3   8
TORSDOF 2
ENDMDL
MODEL 2
REMARK VINA RESULT:      -4.6      1.804      1.992
REMARK  2 active torsions:
REMARK  status: ('A' for Active; 'I' for Inactive)
REMARK    1  A    between atoms: C3_3  and  C5_5 
REMARK    2  A    between atoms: C5_5  and  C9_9 
ROOT
HETATM    1  C1  UNL     1     -41.984  12.494   6.457  1.00 20.00    -0.012 A 
HETATM    2  C2  UNL     1     -43.070  14.689   7.049  1.00 20.00    -0.020 A 
HETATM    3  C3  UNL     1     -40.781  13.079   6.554  1.00 20.00    -0.003 A 
HETATM    4  C4  UNL     1     -41.865  15.280   7.148  1.00 20.00    -0.083 A 
HETATM    5  C6  UNL     1     -43.263  13.242   6.695  1.00 20.00     0.055 A 
HETATM    6  C7  UNL     1     -40.580  14.523   6.907  1.00 20.00     0.075 A 
HETATM    7  C8  UNL     1     -41.719  16.730   7.504  1.00 20.00     0.043 C 
ENDROOT
BRANCH   3   8
HETATM    8  C5  UNL     1     -39.599  12.253   6.299  1.00 20.00     0.261 C 
HETATM    9  O10 UNL     1     -38.863  11.900   7.222  1.00 20.00    -0.283 OA
BRANCH   8  10
HETATM   10  C9  UNL     1     -39.327  11.864   4.873  1.00 20.00     0.455 C 
HETATM   11  F11 UNL     1     -39.965  12.670   3.987  1.00 20.00    -0.163 F 
HETATM   12  F12 UNL     1     -39.731  10.595   4.611  1.00 20.00    -0.163 F 
HETATM   13  F13 UNL     1     -38.003  11.925   4.577  1.00 20.00    -0.163 F 
ENDBRANCH   8  10
ENDBRANCH   3   8
TORSDOF 2
ENDMDL
MODEL 3
REMARK VINA RESULT:      -4.6      9.610     10.594
REMARK  2 active torsions:
REMARK  status: ('A' for Active; 'I' for Inactive)
REMARK    1  A    between atoms: C3_3  and  C5_5 
REMARK    2  A    between atoms: C5_5  and  C9_9 
ROOT
HETATM    1  C1  UNL     1     -33.228   7.706   5.257  1.00 20.00    -0.012 A 
HETATM    2  C2  UNL     1     -32.155   8.963   3.356  1.00 20.00    -0.020 A 
HETATM    3  C3  UNL     1     -33.469   6.682   4.425  1.00 20.00    -0.003 A 
HETATM    4  C4  UNL     1     -32.394   7.938   2.518  1.00 20.00    -0.083 A 
HETATM    5  C6  UNL     1     -32.542   8.961   4.807  1.00 20.00     0.055 A 
HETATM    6  C7  UNL     1     -33.086   6.675   2.975  1.00 20.00     0.075 A 
HETATM    7  C8  UNL     1     -31.989   7.982   1.073  1.00 20.00     0.043 C 
ENDROOT
BRANCH   3   8
HETATM    8  C5  UNL     1     -34.147   5.504   4.972  1.00 20.00     0.261 C 
HETATM    9  O10 UNL     1     -34.432   4.547   4.250  1.00 20.00    -0.283 OA
BRANCH   8  10
HETATM   10  C9  UNL     1     -34.480   5.521   6.438  1.00 20.00     0.455 C 
HETATM   11  F11 UNL     1     -34.781   6.766   6.885  1.00 20.00    -0.163 F 
HETATM   12  F12 UNL     1     -33.445   5.072   7.193  1.00 20.00    -0.163 F 
HETATM   13  F13 UNL     1     -35.547   4.731   6.722  1.00 20.00    -0.163 F 
ENDBRANCH   8  10
ENDBRANCH   3   8
TORSDOF 2
ENDMDL
MODEL 4
REMARK VINA RESULT:      -4.5     11.398     13.093
REMARK  2 active torsions:
REMARK  status: ('A' for Active; 'I' for Inactive)
REMARK    1  A    between atoms: C3_3  and  C5_5 
REMARK    2  A    between atoms: C5_5  and  C9_9 
ROOT
HETATM    1  C1  UNL     1     -33.609  18.813  -3.391  1.00 20.00    -0.012 A 
HETATM    2  C2  UNL     1     -34.271  16.908  -4.901  1.00 20.00    -0.020 A 
HETATM    3  C3  UNL     1     -33.193  17.925  -2.477  1.00 20.00    -0.003 A 
HETATM    4  C4  UNL     1     -33.854  16.014  -3.986  1.00 20.00    -0.083 A 
HETATM    5  C6  UNL     1     -34.196  18.395  -4.707  1.00 20.00     0.055 A 
HETATM    6  C7  UNL     1     -33.265  16.439  -2.662  1.00 20.00     0.075 A 
HETATM    7  C8  UNL     1     -33.948  14.534  -4.222  1.00 20.00     0.043 C 
ENDROOT
BRANCH   3   8
HETATM    8  C5  UNL     1     -32.638  18.445  -1.225  1.00 20.00     0.261 C 
HETATM    9  O10 UNL     1     -31.461  18.803  -1.156  1.00 20.00    -0.283 OA
BRANCH   8  10
HETATM   10  C9  UNL     1     -33.561  18.518  -0.041  1.00 20.00     0.455 C 
HETATM   11  F11 UNL     1     -33.997  17.294   0.351  1.00 20.00    -0.163 F 
HETATM   12  F12 UNL     1     -34.665  19.261  -0.308  1.00 20.00    -0.163 F 
HETATM   13  F13 UNL     1     -32.957  19.083   1.036  1.00 20.00    -0.163 F 
ENDBRANCH   8  10
ENDBRANCH   3   8
TORSDOF 2
ENDMDL
MODEL 5
REMARK VINA RESULT:      -4.5     12.282     13.439
REMARK  2 active torsions:
REMARK  status: ('A' for Active; 'I' for Inactive)
REMARK    1  A    between atoms: C3_3  and  C5_5 
REMARK    2  A    between atoms: C5_5  and  C9_9 
ROOT
HETATM    1  C1  UNL     1     -33.136  15.755  -3.697  1.00 20.00    -0.012 A 
HETATM    2  C2  UNL     1     -34.880  14.792  -5.239  1.00 20.00    -0.020 A 
HETATM    3  C3  UNL     1     -33.751  16.945  -3.768  1.00 20.00    -0.003 A 
HETATM    4  C4  UNL     1     -35.500  15.984  -5.312  1.00 20.00    -0.083 A 
HETATM    5  C6  UNL     1     -33.638  14.546  -4.430  1.00 20.00     0.055 A 
HETATM    6  C7  UNL     1     -34.990  17.198  -4.573  1.00 20.00     0.075 A 
HETATM    7  C8  UNL     1     -36.740  16.184  -6.134  1.00 20.00     0.043 C 
ENDROOT
BRANCH   3   8
HETATM    8  C5  UNL     1     -33.171  18.058  -3.012  1.00 20.00     0.261 C 
HETATM    9  O10 UNL     1     -32.705  19.040  -3.591  1.00 20.00    -0.283 OA
BRANCH   8  10
HETATM   10  C9  UNL     1     -33.169  17.944  -1.513  1.00 20.00     0.455 C 
HETATM   11  F11 UNL     1     -33.839  16.847  -1.077  1.00 20.00    -0.163 F 
HETATM   12  F12 UNL     1     -33.752  19.020  -0.925  1.00 20.00    -0.163 F 
HETATM   13  F13 UNL     1     -31.908  17.858  -1.016  1.00 20.00    -0.163 F 
ENDBRANCH   8  10
ENDBRANCH   3   8
TORSDOF 2
ENDMDL
MODEL 6
REMARK VINA RESULT:      -4.4      9.068     10.476
REMARK  2 active torsions:
REMARK  status: ('A' for Active; 'I' for Inactive)
REMARK    1  A    between atoms: C3_3  and  C5_5 
REMARK    2  A    between atoms: C5_5  and  C9_9 
ROOT
HETATM    1  C1  UNL     1     -34.341   6.350   5.869  1.00 20.00    -0.012 A 
HETATM    2  C2  UNL     1     -34.157   4.328   4.379  1.00 20.00    -0.020 A 
HETATM    3  C3  UNL     1     -33.680   7.070   4.951  1.00 20.00    -0.003 A 
HETATM    4  C4  UNL     1     -33.493   5.046   3.455  1.00 20.00    -0.083 A 
HETATM    5  C6  UNL     1     -34.651   4.895   5.679  1.00 20.00     0.055 A 
HETATM    6  C7  UNL     1     -33.182   6.511   3.651  1.00 20.00     0.075 A 
HETATM    7  C8  UNL     1     -33.016   4.437   2.168  1.00 20.00     0.043 C 
ENDROOT
BRANCH   3   8
HETATM    8  C5  UNL     1     -33.430   8.483   5.243  1.00 20.00     0.261 C 
HETATM    9  O10 UNL     1     -34.176   9.115   5.993  1.00 20.00    -0.283 OA
BRANCH   8  10
HETATM   10  C9  UNL     1     -32.236   9.121   4.589  1.00 20.00     0.455 C 
HETATM   11  F11 UNL     1     -32.525   9.619   3.360  1.00 20.00    -0.163 F 
HETATM   12  F12 UNL     1     -31.220   8.235   4.425  1.00 20.00    -0.163 F 
HETATM   13  F13 UNL     1     -31.747  10.151   5.326  1.00 20.00    -0.163 F 
ENDBRANCH   8  10
ENDBRANCH   3   8
TORSDOF 2
ENDMDL
MODEL 7
REMARK VINA RESULT:      -4.4     11.409     12.914
REMARK  2 active torsions:
REMARK  status: ('A' for Active; 'I' for Inactive)
REMARK    1  A    between atoms: C3_3  and  C5_5 
REMARK    2  A    between atoms: C5_5  and  C9_9 
ROOT
HETATM    1  C1  UNL     1     -33.347  17.879  -4.130  1.00 20.00    -0.012 A 
HETATM    2  C2  UNL     1     -33.601  19.201  -2.000  1.00 20.00    -0.020 A 
HETATM    3  C3  UNL     1     -33.404  16.745  -3.416  1.00 20.00    -0.003 A 
HETATM    4  C4  UNL     1     -33.659  18.065  -1.281  1.00 20.00    -0.083 A 
HETATM    5  C6  UNL     1     -33.440  19.234  -3.493  1.00 20.00     0.055 A 
HETATM    6  C7  UNL     1     -33.564  16.703  -1.926  1.00 20.00     0.075 A 
HETATM    7  C8  UNL     1     -33.821  18.079   0.211  1.00 20.00     0.043 C 
ENDROOT
BRANCH   3   8
HETATM    8  C5  UNL     1     -33.301  15.477  -4.142  1.00 20.00     0.261 C 
HETATM    9  O10 UNL     1     -32.238  14.855  -4.181  1.00 20.00    -0.283 OA
BRANCH   8  10
HETATM   10  C9  UNL     1     -34.540  14.977  -4.832  1.00 20.00     0.455 C 
HETATM   11  F11 UNL     1     -34.317  14.668  -6.135  1.00 20.00    -0.163 F 
HETATM   12  F12 UNL     1     -35.534  15.901  -4.813  1.00 20.00    -0.163 F 
HETATM   13  F13 UNL     1     -35.030  13.857  -4.241  1.00 20.00    -0.163 F 
ENDBRANCH   8  10
ENDBRANCH   3   8
TORSDOF 2
ENDMDL
MODEL 8
REMARK VINA RESULT:      -4.3      0.700      2.069
REMARK  2 active torsions:
REMARK  status: ('A' for Active; 'I' for Inactive)
REMARK    1  A    between atoms: C3_3  and  C5_5 
REMARK    2  A    between atoms: C5_5  and  C9_9 
ROOT
HETATM    1  C1  UNL     1     -40.375  14.785   6.902  1.00 20.00    -0.012 A 
HETATM    2  C2  UNL     1     -41.730  14.775   9.026  1.00 20.00    -0.020 A 
HETATM    3  C3  UNL     1     -41.006  13.668   6.511  1.00 20.00    -0.003 A 
HETATM    4  C4  UNL     1     -42.366  13.654   8.637  1.00 20.00    -0.083 A 
HETATM    5  C6  UNL     1     -40.673  15.460   8.209  1.00 20.00     0.055 A 
HETATM    6  C7  UNL     1     -42.063  12.978   7.321  1.00 20.00     0.075 A 
HETATM    7  C8  UNL     1     -43.417  13.003   9.487  1.00 20.00     0.043 C 
ENDROOT
BRANCH   3   8
HETATM    8  C5  UNL     1     -40.635  13.094   5.216  1.00 20.00     0.261 C 
HETATM    9  O10 UNL     1     -41.162  13.489   4.175  1.00 20.00    -0.283 OA
BRANCH   8  10
HETATM   10  C9  UNL     1     -39.595  12.008   5.217  1.00 20.00     0.455 C 
HETATM   11  F11 UNL     1     -39.438  11.441   3.995  1.00 20.00    -0.163 F 
HETATM   12  F12 UNL     1     -39.913  11.007   6.077  1.00 20.00    -0.163 F 
HETATM   13  F13 UNL     1     -38.377  12.477   5.591  1.00 20.00    -0.163 F 
ENDBRANCH   8  10
ENDBRANCH   3   8
TORSDOF 2
ENDMDL
MODEL 9
REMARK VINA RESULT:      -4.3      1.961      2.549
REMARK  2 active torsions:
REMARK  status: ('A' for Active; 'I' for Inactive)
REMARK    1  A    between atoms: C3_3  and  C5_5 
REMARK    2  A    between atoms: C5_5  and  C9_9 
ROOT
HETATM    1  C1  UNL     1     -40.379  14.196   8.365  1.00 20.00    -0.012 A 
HETATM    2  C2  UNL     1     -40.782  16.683   8.357  1.00 20.00    -0.020 A 
HETATM    3  C3  UNL     1     -40.999  14.106   7.179  1.00 20.00    -0.003 A 
HETATM    4  C4  UNL     1     -41.404  16.597   7.167  1.00 20.00    -0.083 A 
HETATM    5  C6  UNL     1     -40.205  15.502   9.083  1.00 20.00     0.055 A 
HETATM    6  C7  UNL     1     -41.578  15.280   6.447  1.00 20.00     0.075 A 
HETATM    7  C8  UNL     1     -41.967  17.805   6.476  1.00 20.00     0.043 C 
ENDROOT
BRANCH   3   8
HETATM    8  C5  UNL     1     -41.114  12.780   6.569  1.00 20.00     0.261 C 
HETATM    9  O10 UNL     1     -42.041  12.025   6.867  1.00 20.00    -0.283 OA
BRANCH   8  10
HETATM   10  C9  UNL     1     -40.057  12.385   5.575  1.00 20.00     0.455 C 
HETATM   11  F11 UNL     1     -38.864  12.982   5.826  1.00 20.00    -0.163 F 
HETATM   12  F12 UNL     1     -40.406  12.724   4.308  1.00 20.00    -0.163 F 
HETATM   13  F13 UNL     1     -39.835  11.046   5.580  1.00 20.00    -0.163 F 
ENDBRANCH   8  10
ENDBRANCH   3   8
TORSDOF 2
ENDMDL
