MODEL 1
REMARK VINA RESULT:      -4.4      0.000      0.000
REMARK  2 active torsions:
REMARK  status: ('A' for Active; 'I' for Inactive)
REMARK    1  A    between atoms: C5_5  and  O9_9 
REMARK    2  A    between atoms: C8_8  and  O9_9 
ROOT
HETATM    1  C1  UNL     1     -34.398   6.765   6.704  1.00 20.00    -0.028 C 
HETATM    2  C2  UNL     1     -33.665   7.552   5.906  1.00 20.00     0.002 C 
HETATM    3  C3  UNL     1     -34.856   5.393   6.311  1.00 20.00     0.028 C 
HETATM    4  C4  UNL     1     -34.123   4.848   5.083  1.00 20.00     0.022 C 
HETATM    5  C5  UNL     1     -33.246   7.159   4.516  1.00 20.00     0.158 C 
HETATM    6  C6  UNL     1     -33.995   5.922   4.006  1.00 20.00     0.090 C 
HETATM    7 BR10 UNL     1     -33.032   5.164   2.474  1.00 20.00    -0.088 Br
ENDROOT
BRANCH   5   8
HETATM    8  O9  UNL     1     -33.522   8.244   3.628  1.00 20.00    -0.381 OA
BRANCH   8   9
HETATM    9  C8  UNL     1     -32.332   8.743   3.039  1.00 20.00     0.164 C 
HETATM   10  C7  UNL     1     -32.571   8.967   1.560  1.00 20.00     0.033 C 
ENDBRANCH   8   9
ENDBRANCH   5   8
TORSDOF 2
ENDMDL
MODEL 2
REMARK VINA RESULT:      -3.9      1.257      1.726
REMARK  2 active torsions:
REMARK  status: ('A' for Active; 'I' for Inactive)
REMARK    1  A    between atoms: C5_5  and  O9_9 
REMARK    2  A    between atoms: C8_8  and  O9_9 
ROOT
HETATM    1  C1  UNL     1     -33.130   8.605   5.403  1.00 20.00    -0.028 C 
HETATM    2  C2  UNL     1     -32.255   8.506   4.394  1.00 20.00     0.002 C 
HETATM    3  C3  UNL     1     -34.155   7.555   5.710  1.00 20.00     0.028 C 
HETATM    4  C4  UNL     1     -33.879   6.227   5.001  1.00 20.00     0.022 C 
HETATM    5  C5  UNL     1     -32.223   7.344   3.439  1.00 20.00     0.158 C 
HETATM    6  C6  UNL     1     -33.472   6.461   3.549  1.00 20.00     0.090 C 
HETATM    7 BR10 UNL     1     -33.116   4.724   2.708  1.00 20.00    -0.088 Br
ENDROOT
BRANCH   5   8
HETATM    8  O9  UNL     1     -32.151   7.849   2.104  1.00 20.00    -0.381 OA
BRANCH   8   9
HETATM    9  C8  UNL     1     -32.748   9.132   2.004  1.00 20.00     0.164 C 
HETATM   10  C7  UNL     1     -32.799   9.540   0.547  1.00 20.00     0.033 C 
ENDBRANCH   8   9
ENDBRANCH   5   8
TORSDOF 2
ENDMDL
MODEL 3
REMARK VINA RESULT:      -3.8      1.793      2.345
REMARK  2 active torsions:
REMARK  status: ('A' for Active; 'I' for Inactive)
REMARK    1  A    between atoms: C5_5  and  O9_9 
REMARK    2  A    between atoms: C8_8  and  O9_9 
ROOT
HETATM    1  C1  UNL     1     -34.815   4.951   5.275  1.00 20.00    -0.028 C 
HETATM    2  C2  UNL     1     -34.440   5.431   4.082  1.00 20.00     0.002 C 
HETATM    3  C3  UNL     1     -34.515   5.643   6.571  1.00 20.00     0.028 C 
HETATM    4  C4  UNL     1     -34.065   7.093   6.383  1.00 20.00     0.022 C 
HETATM    5  C5  UNL     1     -33.652   6.701   3.912  1.00 20.00     0.158 C 
HETATM    6  C6  UNL     1     -33.066   7.208   5.235  1.00 20.00     0.090 C 
HETATM    7 BR10 UNL     1     -32.548   9.091   5.038  1.00 20.00    -0.088 Br
ENDROOT
BRANCH   5   8
HETATM    8  O9  UNL     1     -32.570   6.454   3.012  1.00 20.00    -0.381 OA
BRANCH   8   9
HETATM    9  C8  UNL     1     -31.914   7.659   2.651  1.00 20.00     0.164 C 
HETATM   10  C7  UNL     1     -32.283   8.014   1.226  1.00 20.00     0.033 C 
ENDBRANCH   8   9
ENDBRANCH   5   8
TORSDOF 2
ENDMDL
MODEL 4
REMARK VINA RESULT:      -3.6     12.456     13.389
REMARK  2 active torsions:
REMARK  status: ('A' for Active; 'I' for Inactive)
REMARK    1  A    between atoms: C5_5  and  O9_9 
REMARK    2  A    between atoms: C8_8  and  O9_9 
ROOT
HETATM    1  C1  UNL     1     -33.818  14.725  -4.274  1.00 20.00    -0.028 C 
HETATM    2  C2  UNL     1     -33.381  15.745  -3.525  1.00 20.00     0.002 C 
HETATM    3  C3  UNL     1     -34.612  14.908  -5.532  1.00 20.00     0.028 C 
HETATM    4  C4  UNL     1     -34.571  16.344  -6.059  1.00 20.00     0.022 C 
HETATM    5  C5  UNL     1     -33.664  17.187  -3.847  1.00 20.00     0.158 C 
HETATM    6  C6  UNL     1     -34.746  17.346  -4.921  1.00 20.00     0.090 C 
HETATM    7 BR10 UNL     1     -34.664  19.161  -5.664  1.00 20.00    -0.088 Br
ENDROOT
BRANCH   5   8
HETATM    8  O9  UNL     1     -34.116  17.843  -2.660  1.00 20.00    -0.381 OA
BRANCH   8   9
HETATM    9  C8  UNL     1     -33.521  17.280  -1.502  1.00 20.00     0.164 C 
HETATM   10  C7  UNL     1     -32.415  18.196  -1.021  1.00 20.00     0.033 C 
ENDBRANCH   8   9
ENDBRANCH   5   8
TORSDOF 2
ENDMDL
MODEL 5
REMARK VINA RESULT:      -3.4      2.213      2.945
REMARK  2 active torsions:
REMARK  status: ('A' for Active; 'I' for Inactive)
REMARK    1  A    between atoms: C5_5  and  O9_9 
REMARK    2  A    between atoms: C8_8  and  O9_9 
ROOT
HETATM    1  C1  UNL     1     -35.077   5.260   5.542  1.00 20.00    -0.028 C 
HETATM    2  C2  UNL     1     -34.763   5.613   4.289  1.00 20.00     0.002 C 
HETATM    3  C3  UNL     1     -34.569   5.984   6.753  1.00 20.00     0.028 C 
HETATM    4  C4  UNL     1     -33.961   7.348   6.421  1.00 20.00     0.022 C 
HETATM    5  C5  UNL     1     -33.843   6.756   3.958  1.00 20.00     0.158 C 
HETATM    6  C6  UNL     1     -33.072   7.261   5.184  1.00 20.00     0.090 C 
HETATM    7 BR10 UNL     1     -32.345   9.044   4.806  1.00 20.00    -0.088 Br
ENDROOT
BRANCH   5   8
HETATM    8  O9  UNL     1     -32.893   6.316   2.986  1.00 20.00    -0.381 OA
BRANCH   8   9
HETATM    9  C8  UNL     1     -32.758   4.903   3.000  1.00 20.00     0.164 C 
HETATM   10  C7  UNL     1     -32.874   4.383   1.583  1.00 20.00     0.033 C 
ENDBRANCH   8   9
ENDBRANCH   5   8
TORSDOF 2
ENDMDL
MODEL 6
REMARK VINA RESULT:      -3.4     10.576     11.312
REMARK  2 active torsions:
REMARK  status: ('A' for Active; 'I' for Inactive)
REMARK    1  A    between atoms: C5_5  and  O9_9 
REMARK    2  A    between atoms: C8_8  and  O9_9 
ROOT
HETATM    1  C1  UNL     1     -40.249  15.583   8.726  1.00 20.00    -0.028 C 
HETATM    2  C2  UNL     1     -40.641  14.306   8.627  1.00 20.00     0.002 C 
HETATM    3  C3  UNL     1     -40.697  16.657   7.781  1.00 20.00     0.028 C 
HETATM    4  C4  UNL     1     -41.896  16.238   6.927  1.00 20.00     0.022 C 
HETATM    5  C5  UNL     1     -41.549  13.802   7.539  1.00 20.00     0.158 C 
HETATM    6  C6  UNL     1     -41.720  14.817   6.402  1.00 20.00     0.090 C 
HETATM    7 BR10 UNL     1     -43.297  14.340   5.336  1.00 20.00    -0.088 Br
ENDROOT
BRANCH   5   8
HETATM    8  O9  UNL     1     -40.989  12.608   6.989  1.00 20.00    -0.381 OA
BRANCH   8   9
HETATM    9  C8  UNL     1     -39.862  12.894   6.175  1.00 20.00     0.164 C 
HETATM   10  C7  UNL     1     -39.604  11.715   5.260  1.00 20.00     0.033 C 
ENDBRANCH   8   9
ENDBRANCH   5   8
TORSDOF 2
ENDMDL
MODEL 7
REMARK VINA RESULT:      -3.4     10.467     11.135
REMARK  2 active torsions:
REMARK  status: ('A' for Active; 'I' for Inactive)
REMARK    1  A    between atoms: C5_5  and  O9_9 
REMARK    2  A    between atoms: C8_8  and  O9_9 
ROOT
HETATM    1  C1  UNL     1     -42.714  14.460   4.983  1.00 20.00    -0.028 C 
HETATM    2  C2  UNL     1     -41.573  13.779   5.154  1.00 20.00     0.002 C 
HETATM    3  C3  UNL     1     -43.308  15.348   6.035  1.00 20.00     0.028 C 
HETATM    4  C4  UNL     1     -42.327  15.675   7.163  1.00 20.00     0.022 C 
HETATM    5  C5  UNL     1     -40.778  13.806   6.430  1.00 20.00     0.158 C 
HETATM    6  C6  UNL     1     -41.558  14.429   7.594  1.00 20.00     0.090 C 
HETATM    7 BR10 UNL     1     -40.309  14.924   9.024  1.00 20.00    -0.088 Br
ENDROOT
BRANCH   5   8
HETATM    8  O9  UNL     1     -40.439  12.465   6.789  1.00 20.00    -0.381 OA
BRANCH   8   9
HETATM    9  C8  UNL     1     -39.918  11.751   5.680  1.00 20.00     0.164 C 
HETATM   10  C7  UNL     1     -38.443  12.065   5.540  1.00 20.00     0.033 C 
ENDBRANCH   8   9
ENDBRANCH   5   8
TORSDOF 2
ENDMDL
MODEL 8
REMARK VINA RESULT:      -3.4     10.229     10.916
REMARK  2 active torsions:
REMARK  status: ('A' for Active; 'I' for Inactive)
REMARK    1  A    between atoms: C5_5  and  O9_9 
REMARK    2  A    between atoms: C8_8  and  O9_9 
ROOT
HETATM    1  C1  UNL     1     -43.228  12.135   7.528  1.00 20.00    -0.028 C 
HETATM    2  C2  UNL     1     -42.317  12.488   6.612  1.00 20.00     0.002 C 
HETATM    3  C3  UNL     1     -43.417  12.865   8.824  1.00 20.00     0.028 C 
HETATM    4  C4  UNL     1     -42.732  14.233   8.843  1.00 20.00     0.022 C 
HETATM    5  C5  UNL     1     -41.363  13.637   6.795  1.00 20.00     0.158 C 
HETATM    6  C6  UNL     1     -41.334  14.150   8.239  1.00 20.00     0.090 C 
HETATM    7 BR10 UNL     1     -40.524  15.937   8.278  1.00 20.00    -0.088 Br
ENDROOT
BRANCH   5   8
HETATM    8  O9  UNL     1     -40.046  13.200   6.451  1.00 20.00    -0.381 OA
BRANCH   8   9
HETATM    9  C8  UNL     1     -40.065  11.898   5.889  1.00 20.00     0.164 C 
HETATM   10  C7  UNL     1     -39.123  11.858   4.704  1.00 20.00     0.033 C 
ENDBRANCH   8   9
ENDBRANCH   5   8
TORSDOF 2
ENDMDL
MODEL 9
REMARK VINA RESULT:      -3.3     12.665     13.571
REMARK  2 active torsions:
REMARK  status: ('A' for Active; 'I' for Inactive)
REMARK    1  A    between atoms: C5_5  and  O9_9 
REMARK    2  A    between atoms: C8_8  and  O9_9 
ROOT
HETATM    1  C1  UNL     1     -33.281  16.691  -2.362  1.00 20.00    -0.028 C 
HETATM    2  C2  UNL     1     -33.622  16.034  -3.478  1.00 20.00     0.002 C 
HETATM    3  C3  UNL     1     -33.885  18.004  -1.963  1.00 20.00     0.028 C 
HETATM    4  C4  UNL     1     -35.153  18.341  -2.750  1.00 20.00     0.022 C 
HETATM    5  C5  UNL     1     -34.624  16.556  -4.471  1.00 20.00     0.158 C 
HETATM    6  C6  UNL     1     -34.972  18.030  -4.233  1.00 20.00     0.090 C 
HETATM    7 BR10 UNL     1     -36.637  18.467  -5.175  1.00 20.00    -0.088 Br
ENDROOT
BRANCH   5   8
HETATM    8  O9  UNL     1     -34.076  16.435  -5.785  1.00 20.00    -0.381 OA
BRANCH   8   9
HETATM    9  C8  UNL     1     -34.287  15.135  -6.314  1.00 20.00     0.164 C 
HETATM   10  C7  UNL     1     -35.753  14.780  -6.177  1.00 20.00     0.033 C 
ENDBRANCH   8   9
ENDBRANCH   5   8
TORSDOF 2
ENDMDL
