MODEL 1
REMARK VINA RESULT:      -4.9      0.000      0.000
REMARK  2 active torsions:
REMARK  status: ('A' for Active; 'I' for Inactive)
REMARK    1  A    between atoms: C1_1  and  C8_8 
REMARK    2  A    between atoms: C3_3  and  C9_9 
ROOT
HETATM    1  C4  UNL     1     -32.349   8.334   4.857  1.00 20.00     0.009 C 
HETATM    2  C5  UNL     1     -32.778   6.280   3.419  1.00 20.00     0.009 C 
HETATM    3  C6  UNL     1     -33.817   8.340   5.287  1.00 20.00     0.012 C 
HETATM    4  C7  UNL     1     -34.243   6.277   3.863  1.00 20.00     0.012 C 
HETATM    5  C8  UNL     1     -32.107   7.644   3.520  1.00 20.00     0.008 C 
HETATM    6  C9  UNL     1     -34.486   6.973   5.196  1.00 20.00     0.047 C 
ENDROOT
BRANCH   5   7
HETATM    7  C1  UNL     1     -32.601   8.545   2.399  1.00 20.00    -0.026 C 
HETATM    8  C2  UNL     1     -32.257   8.392   1.112  1.00 20.00    -0.035 C 
HETATM    9  C10 UNL     1     -32.742   9.276   0.011  1.00 20.00     0.036 C 
ENDBRANCH   5   7
BRANCH   6  10
HETATM   10  C3  UNL     1     -33.983   6.105   6.339  1.00 20.00     0.235 C 
HETATM   11  O11 UNL     1     -34.292   4.927   6.479  1.00 20.00    -0.306 OA
ENDBRANCH   6  10
TORSDOF 2
ENDMDL
MODEL 2
REMARK VINA RESULT:      -4.5     11.441     12.581
REMARK  2 active torsions:
REMARK  status: ('A' for Active; 'I' for Inactive)
REMARK    1  A    between atoms: C1_1  and  C8_8 
REMARK    2  A    between atoms: C3_3  and  C9_9 
ROOT
HETATM    1  C4  UNL     1     -33.346  14.814  -4.329  1.00 20.00     0.009 C 
HETATM    2  C5  UNL     1     -34.135  17.187  -4.797  1.00 20.00     0.009 C 
HETATM    3  C6  UNL     1     -34.788  14.314  -4.431  1.00 20.00     0.012 C 
HETATM    4  C7  UNL     1     -35.575  16.683  -4.916  1.00 20.00     0.012 C 
HETATM    5  C8  UNL     1     -33.235  16.288  -3.957  1.00 20.00     0.008 C 
HETATM    6  C9  UNL     1     -35.685  15.207  -5.280  1.00 20.00     0.047 C 
ENDROOT
BRANCH   5   7
HETATM    7  C1  UNL     1     -33.572  16.456  -2.484  1.00 20.00    -0.026 C 
HETATM    8  C2  UNL     1     -33.409  17.602  -1.807  1.00 20.00    -0.035 C 
HETATM    9  C10 UNL     1     -33.738  17.767  -0.361  1.00 20.00     0.036 C 
ENDBRANCH   5   7
BRANCH   6  10
HETATM   10  C3  UNL     1     -35.336  15.002  -6.745  1.00 20.00     0.235 C 
HETATM   11  O11 UNL     1     -36.047  14.385  -7.530  1.00 20.00    -0.306 OA
ENDBRANCH   6  10
TORSDOF 2
ENDMDL
MODEL 3
REMARK VINA RESULT:      -3.7     10.169     11.366
REMARK  2 active torsions:
REMARK  status: ('A' for Active; 'I' for Inactive)
REMARK    1  A    between atoms: C1_1  and  C8_8 
REMARK    2  A    between atoms: C3_3  and  C9_9 
ROOT
HETATM    1  C4  UNL     1     -40.572  13.954   7.752  1.00 20.00     0.009 C 
HETATM    2  C5  UNL     1     -42.694  13.833   6.354  1.00 20.00     0.009 C 
HETATM    3  C6  UNL     1     -40.421  15.434   7.396  1.00 20.00     0.012 C 
HETATM    4  C7  UNL     1     -42.552  15.318   6.012  1.00 20.00     0.012 C 
HETATM    5  C8  UNL     1     -41.381  13.160   6.733  1.00 20.00     0.008 C 
HETATM    6  C9  UNL     1     -41.737  16.110   7.027  1.00 20.00     0.047 C 
ENDROOT
BRANCH   5   7
HETATM    7  C1  UNL     1     -40.536  12.943   5.487  1.00 20.00    -0.026 C 
HETATM    8  C2  UNL     1     -39.769  11.861   5.284  1.00 20.00    -0.035 C 
HETATM    9  C10 UNL     1     -38.940  11.648   4.062  1.00 20.00     0.036 C 
ENDBRANCH   5   7
BRANCH   6  10
HETATM   10  C3  UNL     1     -42.548  16.328   8.294  1.00 20.00     0.235 C 
HETATM   11  O11 UNL     1     -42.078  16.796   9.326  1.00 20.00    -0.306 OA
ENDBRANCH   6  10
TORSDOF 2
ENDMDL
MODEL 4
REMARK VINA RESULT:      -3.7     11.432     12.864
REMARK  2 active torsions:
REMARK  status: ('A' for Active; 'I' for Inactive)
REMARK    1  A    between atoms: C1_1  and  C8_8 
REMARK    2  A    between atoms: C3_3  and  C9_9 
ROOT
HETATM    1  C4  UNL     1     -34.524  19.046  -2.047  1.00 20.00     0.009 C 
HETATM    2  C5  UNL     1     -33.667  16.654  -1.923  1.00 20.00     0.009 C 
HETATM    3  C6  UNL     1     -33.929  19.187  -3.449  1.00 20.00     0.012 C 
HETATM    4  C7  UNL     1     -33.088  16.790  -3.333  1.00 20.00     0.012 C 
HETATM    5  C8  UNL     1     -33.840  17.982  -1.197  1.00 20.00     0.008 C 
HETATM    6  C9  UNL     1     -33.767  17.859  -4.180  1.00 20.00     0.047 C 
ENDROOT
BRANCH   5   7
HETATM    7  C1  UNL     1     -32.483  18.502  -0.747  1.00 20.00    -0.026 C 
HETATM    8  C2  UNL     1     -32.075  18.515   0.530  1.00 20.00    -0.035 C 
HETATM    9  C10 UNL     1     -30.743  19.025   0.972  1.00 20.00     0.036 C 
ENDBRANCH   5   7
BRANCH   6  10
HETATM   10  C3  UNL     1     -35.137  17.377  -4.630  1.00 20.00     0.235 C 
HETATM   11  O11 UNL     1     -35.377  16.215  -4.940  1.00 20.00    -0.306 OA
ENDBRANCH   6  10
TORSDOF 2
ENDMDL
MODEL 5
REMARK VINA RESULT:      -3.6     12.685     13.973
REMARK  2 active torsions:
REMARK  status: ('A' for Active; 'I' for Inactive)
REMARK    1  A    between atoms: C1_1  and  C8_8 
REMARK    2  A    between atoms: C3_3  and  C9_9 
ROOT
HETATM    1  C4  UNL     1     -25.405  -1.983  12.332  1.00 20.00     0.009 C 
HETATM    2  C5  UNL     1     -26.742  -3.250  10.577  1.00 20.00     0.009 C 
HETATM    3  C6  UNL     1     -26.031  -0.670  11.861  1.00 20.00     0.012 C 
HETATM    4  C7  UNL     1     -27.380  -1.937  10.118  1.00 20.00     0.012 C 
HETATM    5  C8  UNL     1     -25.394  -3.072  11.265  1.00 20.00     0.008 C 
HETATM    6  C9  UNL     1     -27.384  -0.847  11.182  1.00 20.00     0.047 C 
ENDROOT
BRANCH   5   7
HETATM    7  C1  UNL     1     -24.328  -2.745  10.232  1.00 20.00    -0.026 C 
HETATM    8  C2  UNL     1     -24.132  -3.455   9.111  1.00 20.00    -0.035 C 
HETATM    9  C10 UNL     1     -23.085  -3.134   8.096  1.00 20.00     0.036 C 
ENDBRANCH   5   7
BRANCH   6  10
HETATM   10  C3  UNL     1     -28.428  -1.154  12.243  1.00 20.00     0.235 C 
HETATM   11  O11 UNL     1     -29.570  -1.517  11.983  1.00 20.00    -0.306 OA
ENDBRANCH   6  10
TORSDOF 2
ENDMDL
MODEL 6
REMARK VINA RESULT:      -3.4     12.302     13.921
REMARK  2 active torsions:
REMARK  status: ('A' for Active; 'I' for Inactive)
REMARK    1  A    between atoms: C1_1  and  C8_8 
REMARK    2  A    between atoms: C3_3  and  C9_9 
ROOT
HETATM    1  C4  UNL     1     -26.809  -1.419  11.147  1.00 20.00     0.009 C 
HETATM    2  C5  UNL     1     -26.976  -3.935  11.484  1.00 20.00     0.009 C 
HETATM    3  C6  UNL     1     -27.915  -1.486  10.092  1.00 20.00     0.012 C 
HETATM    4  C7  UNL     1     -28.095  -3.999  10.441  1.00 20.00     0.012 C 
HETATM    5  C8  UNL     1     -26.055  -2.731  11.326  1.00 20.00     0.008 C 
HETATM    6  C9  UNL     1     -28.843  -2.685  10.256  1.00 20.00     0.047 C 
ENDROOT
BRANCH   5   7
HETATM    7  C1  UNL     1     -25.133  -2.942  10.136  1.00 20.00    -0.026 C 
HETATM    8  C2  UNL     1     -23.795  -2.895  10.211  1.00 20.00    -0.035 C 
HETATM    9  C10 UNL     1     -22.889  -3.101   9.043  1.00 20.00     0.036 C 
ENDBRANCH   5   7
BRANCH   6  10
HETATM   10  C3  UNL     1     -29.762  -2.434  11.441  1.00 20.00     0.235 C 
HETATM   11  O11 UNL     1     -30.984  -2.391  11.353  1.00 20.00    -0.306 OA
ENDBRANCH   6  10
TORSDOF 2
ENDMDL
MODEL 7
REMARK VINA RESULT:      -3.4     11.948     13.282
REMARK  2 active torsions:
REMARK  status: ('A' for Active; 'I' for Inactive)
REMARK    1  A    between atoms: C1_1  and  C8_8 
REMARK    2  A    between atoms: C3_3  and  C9_9 
ROOT
HETATM    1  C4  UNL     1     -35.587  16.977  -5.011  1.00 20.00     0.009 C 
HETATM    2  C5  UNL     1     -34.408  14.723  -4.967  1.00 20.00     0.009 C 
HETATM    3  C6  UNL     1     -34.888  17.317  -6.329  1.00 20.00     0.012 C 
HETATM    4  C7  UNL     1     -33.723  15.057  -6.295  1.00 20.00     0.012 C 
HETATM    5  C8  UNL     1     -34.839  15.949  -4.171  1.00 20.00     0.008 C 
HETATM    6  C9  UNL     1     -34.467  16.091  -7.131  1.00 20.00     0.047 C 
ENDROOT
BRANCH   5   7
HETATM    7  C1  UNL     1     -33.621  16.610  -3.544  1.00 20.00    -0.026 C 
HETATM    8  C2  UNL     1     -33.620  17.173  -2.327  1.00 20.00    -0.035 C 
HETATM    9  C10 UNL     1     -32.425  17.821  -1.712  1.00 20.00     0.036 C 
ENDBRANCH   5   7
BRANCH   6  10
HETATM   10  C3  UNL     1     -35.703  15.466  -7.756  1.00 20.00     0.235 C 
HETATM   11  O11 UNL     1     -36.043  14.303  -7.567  1.00 20.00    -0.306 OA
ENDBRANCH   6  10
TORSDOF 2
ENDMDL
MODEL 8
REMARK VINA RESULT:      -3.4     10.361     11.721
REMARK  2 active torsions:
REMARK  status: ('A' for Active; 'I' for Inactive)
REMARK    1  A    between atoms: C1_1  and  C8_8 
REMARK    2  A    between atoms: C3_3  and  C9_9 
ROOT
HETATM    1  C4  UNL     1     -41.648  13.756   8.278  1.00 20.00     0.009 C 
HETATM    2  C5  UNL     1     -41.869  15.760   6.728  1.00 20.00     0.009 C 
HETATM    3  C6  UNL     1     -40.431  14.402   8.942  1.00 20.00     0.012 C 
HETATM    4  C7  UNL     1     -40.661  16.415   7.404  1.00 20.00     0.012 C 
HETATM    5  C8  UNL     1     -41.899  14.243   6.856  1.00 20.00     0.008 C 
HETATM    6  C9  UNL     1     -40.406  15.922   8.823  1.00 20.00     0.047 C 
ENDROOT
BRANCH   5   7
HETATM    7  C1  UNL     1     -40.862  13.627   5.930  1.00 20.00    -0.026 C 
HETATM    8  C2  UNL     1     -40.532  12.327   5.938  1.00 20.00    -0.035 C 
HETATM    9  C10 UNL     1     -39.514  11.723   5.029  1.00 20.00     0.036 C 
ENDBRANCH   5   7
BRANCH   6  10
HETATM   10  C3  UNL     1     -41.440  16.505   9.773  1.00 20.00     0.235 C 
HETATM   11  O11 UNL     1     -41.286  16.562  10.988  1.00 20.00    -0.306 OA
ENDBRANCH   6  10
TORSDOF 2
ENDMDL
MODEL 9
REMARK VINA RESULT:      -3.4     11.466     12.602
REMARK  2 active torsions:
REMARK  status: ('A' for Active; 'I' for Inactive)
REMARK    1  A    between atoms: C1_1  and  C8_8 
REMARK    2  A    between atoms: C3_3  and  C9_9 
ROOT
HETATM    1  C4  UNL     1     -34.667  18.917  -3.653  1.00 20.00     0.009 C 
HETATM    2  C5  UNL     1     -33.033  16.968  -3.587  1.00 20.00     0.009 C 
HETATM    3  C6  UNL     1     -35.099  18.604  -2.219  1.00 20.00     0.012 C 
HETATM    4  C7  UNL     1     -33.453  16.667  -2.146  1.00 20.00     0.012 C 
HETATM    5  C8  UNL     1     -34.088  17.717  -4.392  1.00 20.00     0.008 C 
HETATM    6  C9  UNL     1     -34.039  17.865  -1.410  1.00 20.00     0.047 C 
ENDROOT
BRANCH   5   7
HETATM    7  C1  UNL     1     -35.218  16.770  -4.765  1.00 20.00    -0.026 C 
HETATM    8  C2  UNL     1     -35.028  15.522  -5.218  1.00 20.00    -0.035 C 
HETATM    9  C10 UNL     1     -36.137  14.593  -5.584  1.00 20.00     0.036 C 
ENDBRANCH   5   7
BRANCH   6  10
HETATM   10  C3  UNL     1     -32.935  18.842  -1.039  1.00 20.00     0.235 C 
HETATM   11  O11 UNL     1     -31.803  18.495  -0.719  1.00 20.00    -0.306 OA
ENDBRANCH   6  10
TORSDOF 2
ENDMDL
