MODEL 1
REMARK VINA RESULT:      -3.7      0.000      0.000
REMARK  1 active torsions:
REMARK  status: ('A' for Active; 'I' for Inactive)
REMARK    1  A    between atoms: C3_3  and  C6_6 
ROOT
HETATM    1  C1  UNL     1     -33.463  16.392  -3.805  1.00 20.00    -0.029 C 
HETATM    2  C2  UNL     1     -34.046  17.402  -4.458  1.00 20.00    -0.021 C 
HETATM    3  C4  UNL     1     -33.931  15.065  -4.308  1.00 20.00     0.046 C 
HETATM    4  C5  UNL     1     -35.028  16.914  -5.499  1.00 20.00    -0.015 C 
HETATM    5  C6  UNL     1     -34.560  15.424  -5.675  1.00 20.00     0.046 C 
HETATM    6  C7  UNL     1     -34.942  17.761  -6.775  1.00 20.00     0.020 C 
HETATM    7  C8  UNL     1     -36.448  17.049  -4.914  1.00 20.00     0.020 C 
HETATM    8  C9  UNL     1     -33.506  15.219  -6.783  1.00 20.00     0.026 C 
ENDROOT
BRANCH   5   9
HETATM    9  C3  UNL     1     -35.706  14.500  -5.993  1.00 20.00     0.228 C 
HETATM   10  O10 UNL     1     -36.186  14.430  -7.121  1.00 20.00    -0.279 OA
HETATM   11 CL11 UNL     1     -36.222  13.595  -4.601  1.00 20.00    -0.043 Cl
ENDBRANCH   5   9
TORSDOF 1
ENDMDL
MODEL 2
REMARK VINA RESULT:      -3.5      1.399      1.399
REMARK  1 active torsions:
REMARK  status: ('A' for Active; 'I' for Inactive)
REMARK    1  A    between atoms: C3_3  and  C6_6 
ROOT
HETATM    1  C1  UNL     1     -33.429  15.823  -3.592  1.00 20.00    -0.029 C 
HETATM    2  C2  UNL     1     -33.631  17.072  -4.024  1.00 20.00    -0.021 C 
HETATM    3  C4  UNL     1     -34.296  14.841  -4.312  1.00 20.00     0.046 C 
HETATM    4  C5  UNL     1     -34.694  17.136  -5.098  1.00 20.00    -0.015 C 
HETATM    5  C6  UNL     1     -34.738  15.635  -5.563  1.00 20.00     0.046 C 
HETATM    6  C7  UNL     1     -34.303  18.130  -6.199  1.00 20.00     0.020 C 
HETATM    7  C8  UNL     1     -36.004  17.617  -4.442  1.00 20.00     0.020 C 
HETATM    8  C9  UNL     1     -33.784  15.307  -6.731  1.00 20.00     0.026 C 
ENDROOT
BRANCH   5   9
HETATM    9  C3  UNL     1     -36.117  15.214  -6.000  1.00 20.00     0.228 C 
HETATM   10  O10 UNL     1     -36.840  14.527  -5.284  1.00 20.00    -0.279 OA
HETATM   11 CL11 UNL     1     -36.514  15.813  -7.583  1.00 20.00    -0.043 Cl
ENDBRANCH   5   9
TORSDOF 1
ENDMDL
MODEL 3
REMARK VINA RESULT:      -3.3      0.960      1.102
REMARK  1 active torsions:
REMARK  status: ('A' for Active; 'I' for Inactive)
REMARK    1  A    between atoms: C3_3  and  C6_6 
ROOT
HETATM    1  C1  UNL     1     -34.312  17.490  -4.470  1.00 20.00    -0.029 C 
HETATM    2  C2  UNL     1     -35.287  18.102  -5.150  1.00 20.00    -0.021 C 
HETATM    3  C4  UNL     1     -34.243  16.033  -4.794  1.00 20.00     0.046 C 
HETATM    4  C5  UNL     1     -36.054  17.141  -6.031  1.00 20.00    -0.015 C 
HETATM    5  C6  UNL     1     -35.043  15.941  -6.115  1.00 20.00     0.046 C 
HETATM    6  C7  UNL     1     -36.388  17.785  -7.383  1.00 20.00     0.020 C 
HETATM    7  C8  UNL     1     -37.373  16.788  -5.315  1.00 20.00     0.020 C 
HETATM    8  C9  UNL     1     -34.062  16.021  -7.304  1.00 20.00     0.026 C 
ENDROOT
BRANCH   5   9
HETATM    9  C3  UNL     1     -35.743  14.611  -6.221  1.00 20.00     0.228 C 
HETATM   10  O10 UNL     1     -36.202  14.207  -7.286  1.00 20.00    -0.279 OA
HETATM   11 CL11 UNL     1     -35.804  13.779  -4.696  1.00 20.00    -0.043 Cl
ENDBRANCH   5   9
TORSDOF 1
ENDMDL
MODEL 4
REMARK VINA RESULT:      -3.2     13.274     14.279
REMARK  1 active torsions:
REMARK  status: ('A' for Active; 'I' for Inactive)
REMARK    1  A    between atoms: C3_3  and  C6_6 
ROOT
HETATM    1  C1  UNL     1     -43.098  15.167   5.710  1.00 20.00    -0.029 C 
HETATM    2  C2  UNL     1     -42.785  15.487   6.970  1.00 20.00    -0.021 C 
HETATM    3  C4  UNL     1     -42.288  14.013   5.215  1.00 20.00     0.046 C 
HETATM    4  C5  UNL     1     -41.687  14.607   7.524  1.00 20.00    -0.015 C 
HETATM    5  C6  UNL     1     -41.745  13.394   6.525  1.00 20.00     0.046 C 
HETATM    6  C7  UNL     1     -41.965  14.237   8.987  1.00 20.00     0.020 C 
HETATM    7  C8  UNL     1     -40.365  15.397   7.458  1.00 20.00     0.020 C 
HETATM    8  C9  UNL     1     -42.684  12.253   6.969  1.00 20.00     0.026 C 
ENDROOT
BRANCH   5   9
HETATM    9  C3  UNL     1     -40.390  12.776   6.299  1.00 20.00     0.228 C 
HETATM   10  O10 UNL     1     -39.664  12.454   7.236  1.00 20.00    -0.279 OA
HETATM   11 CL11 UNL     1     -40.026  12.594   4.610  1.00 20.00    -0.043 Cl
ENDBRANCH   5   9
TORSDOF 1
ENDMDL
MODEL 5
REMARK VINA RESULT:      -3.2     14.025     15.007
REMARK  1 active torsions:
REMARK  status: ('A' for Active; 'I' for Inactive)
REMARK    1  A    between atoms: C3_3  and  C6_6 
ROOT
HETATM    1  C1  UNL     1     -42.796  15.213   5.601  1.00 20.00    -0.029 C 
HETATM    2  C2  UNL     1     -42.210  14.045   5.316  1.00 20.00    -0.021 C 
HETATM    3  C4  UNL     1     -42.707  15.535   7.058  1.00 20.00     0.046 C 
HETATM    4  C5  UNL     1     -41.649  13.375   6.550  1.00 20.00    -0.015 C 
HETATM    5  C6  UNL     1     -41.583  14.590   7.545  1.00 20.00     0.046 C 
HETATM    6  C7  UNL     1     -40.292  12.725   6.252  1.00 20.00     0.020 C 
HETATM    7  C8  UNL     1     -42.638  12.274   6.985  1.00 20.00     0.020 C 
HETATM    8  C9  UNL     1     -40.241  15.351   7.526  1.00 20.00     0.026 C 
ENDROOT
BRANCH   5   9
HETATM    9  C3  UNL     1     -41.822  14.171   8.973  1.00 20.00     0.228 C 
HETATM   10  O10 UNL     1     -40.957  13.599   9.631  1.00 20.00    -0.279 OA
HETATM   11 CL11 UNL     1     -43.416  14.594   9.521  1.00 20.00    -0.043 Cl
ENDBRANCH   5   9
TORSDOF 1
ENDMDL
MODEL 6
REMARK VINA RESULT:      -3.2     13.951     14.947
REMARK  1 active torsions:
REMARK  status: ('A' for Active; 'I' for Inactive)
REMARK    1  A    between atoms: C3_3  and  C6_6 
ROOT
HETATM    1  C1  UNL     1     -43.103  12.563   7.993  1.00 20.00    -0.029 C 
HETATM    2  C2  UNL     1     -42.634  12.468   6.744  1.00 20.00    -0.021 C 
HETATM    3  C4  UNL     1     -42.539  13.749   8.706  1.00 20.00     0.046 C 
HETATM    4  C5  UNL     1     -41.651  13.571   6.421  1.00 20.00    -0.015 C 
HETATM    5  C6  UNL     1     -41.994  14.614   7.546  1.00 20.00     0.046 C 
HETATM    6  C7  UNL     1     -41.858  14.089   4.992  1.00 20.00     0.020 C 
HETATM    7  C8  UNL     1     -40.229  12.988   6.533  1.00 20.00     0.020 C 
HETATM    8  C9  UNL     1     -43.066  15.649   7.144  1.00 20.00     0.026 C 
ENDROOT
BRANCH   5   9
HETATM    9  C3  UNL     1     -40.783  15.395   7.988  1.00 20.00     0.228 C 
HETATM   10  O10 UNL     1     -40.345  16.333   7.329  1.00 20.00    -0.279 OA
HETATM   11 CL11 UNL     1     -40.134  14.802   9.487  1.00 20.00    -0.043 Cl
ENDBRANCH   5   9
TORSDOF 1
ENDMDL
MODEL 7
REMARK VINA RESULT:      -3.1      2.077      3.262
REMARK  1 active torsions:
REMARK  status: ('A' for Active; 'I' for Inactive)
REMARK    1  A    between atoms: C3_3  and  C6_6 
ROOT
HETATM    1  C1  UNL     1     -33.460  16.208  -3.538  1.00 20.00    -0.029 C 
HETATM    2  C2  UNL     1     -34.018  15.147  -4.131  1.00 20.00    -0.021 C 
HETATM    3  C4  UNL     1     -33.751  17.472  -4.280  1.00 20.00     0.046 C 
HETATM    4  C5  UNL     1     -34.760  15.526  -5.393  1.00 20.00    -0.015 C 
HETATM    5  C6  UNL     1     -34.948  17.072  -5.174  1.00 20.00     0.046 C 
HETATM    6  C7  UNL     1     -36.071  14.739  -5.515  1.00 20.00     0.020 C 
HETATM    7  C8  UNL     1     -33.862  15.178  -6.596  1.00 20.00     0.020 C 
HETATM    8  C9  UNL     1     -36.261  17.455  -4.460  1.00 20.00     0.026 C 
ENDROOT
BRANCH   5   9
HETATM    9  C3  UNL     1     -34.922  17.838  -6.472  1.00 20.00     0.228 C 
HETATM   10  O10 UNL     1     -33.955  18.519  -6.800  1.00 20.00    -0.279 OA
HETATM   11 CL11 UNL     1     -36.385  17.626  -7.386  1.00 20.00    -0.043 Cl
ENDBRANCH   5   9
TORSDOF 1
ENDMDL
MODEL 8
REMARK VINA RESULT:      -3.0      1.597      2.351
REMARK  1 active torsions:
REMARK  status: ('A' for Active; 'I' for Inactive)
REMARK    1  A    between atoms: C3_3  and  C6_6 
ROOT
HETATM    1  C1  UNL     1     -35.763  18.003  -4.274  1.00 20.00    -0.029 C 
HETATM    2  C2  UNL     1     -36.785  17.551  -5.008  1.00 20.00    -0.021 C 
HETATM    3  C4  UNL     1     -34.482  17.320  -4.630  1.00 20.00     0.046 C 
HETATM    4  C5  UNL     1     -36.358  16.463  -5.967  1.00 20.00    -0.015 C 
HETATM    5  C6  UNL     1     -34.803  16.695  -6.007  1.00 20.00     0.046 C 
HETATM    6  C7  UNL     1     -37.058  16.621  -7.323  1.00 20.00     0.020 C 
HETATM    7  C8  UNL     1     -36.763  15.105  -5.358  1.00 20.00     0.020 C 
HETATM    8  C9  UNL     1     -34.336  17.658  -7.119  1.00 20.00     0.026 C 
ENDROOT
BRANCH   5   9
HETATM    9  C3  UNL     1     -34.040  15.410  -6.199  1.00 20.00     0.228 C 
HETATM   10  O10 UNL     1     -33.913  14.894  -7.306  1.00 20.00    -0.279 OA
HETATM   11 CL11 UNL     1     -33.399  14.799  -4.704  1.00 20.00    -0.043 Cl
ENDBRANCH   5   9
TORSDOF 1
ENDMDL
MODEL 9
REMARK VINA RESULT:      -3.0      1.845      3.128
REMARK  1 active torsions:
REMARK  status: ('A' for Active; 'I' for Inactive)
REMARK    1  A    between atoms: C3_3  and  C6_6 
ROOT
HETATM    1  C1  UNL     1     -37.148  16.638  -7.848  1.00 20.00    -0.029 C 
HETATM    2  C2  UNL     1     -36.854  17.555  -6.920  1.00 20.00    -0.021 C 
HETATM    3  C4  UNL     1     -36.181  15.498  -7.824  1.00 20.00     0.046 C 
HETATM    4  C5  UNL     1     -35.618  17.188  -6.130  1.00 20.00    -0.015 C 
HETATM    5  C6  UNL     1     -35.514  15.650  -6.437  1.00 20.00     0.046 C 
HETATM    6  C7  UNL     1     -35.795  17.528  -4.644  1.00 20.00     0.020 C 
HETATM    7  C8  UNL     1     -34.437  18.009  -6.686  1.00 20.00     0.020 C 
HETATM    8  C9  UNL     1     -36.252  14.751  -5.422  1.00 20.00     0.026 C 
ENDROOT
BRANCH   5   9
HETATM    9  C3  UNL     1     -34.085  15.172  -6.478  1.00 20.00     0.228 C 
HETATM   10  O10 UNL     1     -33.492  15.005  -7.540  1.00 20.00    -0.279 OA
HETATM   11 CL11 UNL     1     -33.437  14.907  -4.888  1.00 20.00    -0.043 Cl
ENDBRANCH   5   9
TORSDOF 1
ENDMDL
