MODEL 1
REMARK VINA RESULT:      -4.6      0.000      0.000
REMARK  3 active torsions:
REMARK  status: ('A' for Active; 'I' for Inactive)
REMARK    1  A    between atoms: C1_1  and  C7_7 
REMARK    2  A    between atoms: C2_2  and  C9_9 
REMARK    3  A    between atoms: C9_9  and  C10_10 
ROOT
HETATM    1  C3  UNL     1     -32.856  18.933   1.074  1.00 20.00     0.128 C 
HETATM    2  C4  UNL     1     -31.489  19.241   0.521  1.00 20.00     0.079 C 
HETATM    3  C5  UNL     1     -33.711  18.175   0.092  1.00 20.00     0.095 C 
HETATM    4  C6  UNL     1     -31.453  18.363  -0.724  1.00 20.00     0.025 C 
HETATM    5  C7  UNL     1     -32.904  18.316  -1.199  1.00 20.00     0.072 C 
HETATM    6  O11 UNL     1     -33.228  19.262   2.192  1.00 20.00    -0.298 OA
ENDROOT
BRANCH   5   7
HETATM    7  C1  UNL     1     -33.151  17.211  -2.131  1.00 20.00    -0.101 C 
HETATM    8  C2  UNL     1     -33.352  16.306  -2.893  1.00 20.00    -0.106 C 
BRANCH   8   9
HETATM    9  C9  UNL     1     -33.601  15.198  -3.826  1.00 20.00     0.093 C 
BRANCH   9  10
HETATM   10  C10 UNL     1     -34.561  15.591  -4.948  1.00 20.00     0.007 C 
HETATM   11  C8  UNL     1     -34.070  15.172  -6.327  1.00 20.00     0.006 C 
ENDBRANCH   9  10
ENDBRANCH   8   9
ENDBRANCH   5   7
TORSDOF 3
ENDMDL
MODEL 2
REMARK VINA RESULT:      -4.4     10.972     11.913
REMARK  3 active torsions:
REMARK  status: ('A' for Active; 'I' for Inactive)
REMARK    1  A    between atoms: C1_1  and  C7_7 
REMARK    2  A    between atoms: C2_2  and  C9_9 
REMARK    3  A    between atoms: C9_9  and  C10_10 
ROOT
HETATM    1  C3  UNL     1     -32.154   8.455   0.865  1.00 20.00     0.128 C 
HETATM    2  C4  UNL     1     -32.661   9.844   1.150  1.00 20.00     0.079 C 
HETATM    3  C5  UNL     1     -32.151   7.585   2.095  1.00 20.00     0.095 C 
HETATM    4  C6  UNL     1     -33.254   9.679   2.544  1.00 20.00     0.025 C 
HETATM    5  C7  UNL     1     -32.382   8.612   3.204  1.00 20.00     0.072 C 
HETATM    6  O11 UNL     1     -31.786   8.077  -0.240  1.00 20.00    -0.298 OA
ENDROOT
BRANCH   5   7
HETATM    7  C1  UNL     1     -33.022   8.020   4.384  1.00 20.00    -0.101 C 
HETATM    8  C2  UNL     1     -33.548   7.535   5.348  1.00 20.00    -0.106 C 
BRANCH   8   9
HETATM    9  C9  UNL     1     -34.188   6.940   6.529  1.00 20.00     0.093 C 
BRANCH   9  10
HETATM   10  C10 UNL     1     -34.493   5.455   6.336  1.00 20.00     0.007 C 
HETATM   11  C8  UNL     1     -34.859   5.103   4.900  1.00 20.00     0.006 C 
ENDBRANCH   9  10
ENDBRANCH   8   9
ENDBRANCH   5   7
TORSDOF 3
ENDMDL
MODEL 3
REMARK VINA RESULT:      -4.4      2.916      6.087
REMARK  3 active torsions:
REMARK  status: ('A' for Active; 'I' for Inactive)
REMARK    1  A    between atoms: C1_1  and  C7_7 
REMARK    2  A    between atoms: C2_2  and  C9_9 
REMARK    3  A    between atoms: C9_9  and  C10_10 
ROOT
HETATM    1  C3  UNL     1     -34.570  16.504  -5.224  1.00 20.00     0.128 C 
HETATM    2  C4  UNL     1     -33.903  15.189  -4.915  1.00 20.00     0.079 C 
HETATM    3  C5  UNL     1     -34.379  17.514  -4.122  1.00 20.00     0.095 C 
HETATM    4  C6  UNL     1     -33.039  15.554  -3.713  1.00 20.00     0.025 C 
HETATM    5  C7  UNL     1     -33.832  16.642  -2.991  1.00 20.00     0.072 C 
HETATM    6  O11 UNL     1     -35.195  16.726  -6.253  1.00 20.00    -0.298 OA
ENDROOT
BRANCH   5   7
HETATM    7  C1  UNL     1     -33.004  17.406  -2.052  1.00 20.00    -0.101 C 
HETATM    8  C2  UNL     1     -32.327  18.031  -1.283  1.00 20.00    -0.106 C 
BRANCH   8   9
HETATM    9  C9  UNL     1     -31.495  18.795  -0.343  1.00 20.00     0.093 C 
BRANCH   9  10
HETATM   10  C10 UNL     1     -31.830  18.480   1.115  1.00 20.00     0.007 C 
HETATM   11  C8  UNL     1     -30.599  18.420   2.009  1.00 20.00     0.006 C 
ENDBRANCH   9  10
ENDBRANCH   8   9
ENDBRANCH   5   7
TORSDOF 3
ENDMDL
MODEL 4
REMARK VINA RESULT:      -4.2      1.964      3.039
REMARK  3 active torsions:
REMARK  status: ('A' for Active; 'I' for Inactive)
REMARK    1  A    between atoms: C1_1  and  C7_7 
REMARK    2  A    between atoms: C2_2  and  C9_9 
REMARK    3  A    between atoms: C9_9  and  C10_10 
ROOT
HETATM    1  C3  UNL     1     -31.028  19.048   3.645  1.00 20.00     0.128 C 
HETATM    2  C4  UNL     1     -29.767  18.635   2.933  1.00 20.00     0.079 C 
HETATM    3  C5  UNL     1     -32.201  19.165   2.705  1.00 20.00     0.095 C 
HETATM    4  C6  UNL     1     -30.303  18.209   1.571  1.00 20.00     0.025 C 
HETATM    5  C7  UNL     1     -31.514  19.112   1.340  1.00 20.00     0.072 C 
HETATM    6  O11 UNL     1     -31.093  19.263   4.847  1.00 20.00    -0.298 OA
ENDROOT
BRANCH   5   7
HETATM    7  C1  UNL     1     -32.401  18.596   0.292  1.00 20.00    -0.101 C 
HETATM    8  C2  UNL     1     -33.126  18.174  -0.567  1.00 20.00    -0.106 C 
BRANCH   8   9
HETATM    9  C9  UNL     1     -34.015  17.656  -1.615  1.00 20.00     0.093 C 
BRANCH   9  10
HETATM   10  C10 UNL     1     -33.331  16.603  -2.487  1.00 20.00     0.007 C 
HETATM   11  C8  UNL     1     -33.675  16.737  -3.964  1.00 20.00     0.006 C 
ENDBRANCH   9  10
ENDBRANCH   8   9
ENDBRANCH   5   7
TORSDOF 3
ENDMDL
MODEL 5
REMARK VINA RESULT:      -4.2      3.299      6.451
REMARK  3 active torsions:
REMARK  status: ('A' for Active; 'I' for Inactive)
REMARK    1  A    between atoms: C1_1  and  C7_7 
REMARK    2  A    between atoms: C2_2  and  C9_9 
REMARK    3  A    between atoms: C9_9  and  C10_10 
ROOT
HETATM    1  C3  UNL     1     -35.340  14.978  -5.934  1.00 20.00     0.128 C 
HETATM    2  C4  UNL     1     -35.221  16.322  -6.604  1.00 20.00     0.079 C 
HETATM    3  C5  UNL     1     -34.650  14.945  -4.595  1.00 20.00     0.095 C 
HETATM    4  C6  UNL     1     -34.691  17.189  -5.468  1.00 20.00     0.025 C 
HETATM    5  C7  UNL     1     -33.837  16.239  -4.630  1.00 20.00     0.072 C 
HETATM    6  O11 UNL     1     -35.929  14.023  -6.423  1.00 20.00    -0.298 OA
ENDROOT
BRANCH   5   7
HETATM    7  C1  UNL     1     -33.573  16.766  -3.287  1.00 20.00    -0.101 C 
HETATM    8  C2  UNL     1     -33.355  17.195  -2.187  1.00 20.00    -0.106 C 
BRANCH   8   9
HETATM    9  C9  UNL     1     -33.090  17.724  -0.843  1.00 20.00     0.093 C 
BRANCH   9  10
HETATM   10  C10 UNL     1     -31.768  18.489  -0.771  1.00 20.00     0.007 C 
HETATM   11  C8  UNL     1     -31.162  18.501   0.625  1.00 20.00     0.006 C 
ENDBRANCH   9  10
ENDBRANCH   8   9
ENDBRANCH   5   7
TORSDOF 3
ENDMDL
MODEL 6
REMARK VINA RESULT:      -4.0     11.123     11.914
REMARK  3 active torsions:
REMARK  status: ('A' for Active; 'I' for Inactive)
REMARK    1  A    between atoms: C1_1  and  C7_7 
REMARK    2  A    between atoms: C2_2  and  C9_9 
REMARK    3  A    between atoms: C9_9  and  C10_10 
ROOT
HETATM    1  C3  UNL     1     -34.313   6.509   6.019  1.00 20.00     0.128 C 
HETATM    2  C4  UNL     1     -34.629   5.187   5.369  1.00 20.00     0.079 C 
HETATM    3  C5  UNL     1     -33.402   7.358   5.170  1.00 20.00     0.095 C 
HETATM    4  C6  UNL     1     -34.115   5.406   3.951  1.00 20.00     0.025 C 
HETATM    5  C7  UNL     1     -32.928   6.353   4.119  1.00 20.00     0.072 C 
HETATM    6  O11 UNL     1     -34.746   6.853   7.110  1.00 20.00    -0.298 OA
ENDROOT
BRANCH   5   7
HETATM    7  C1  UNL     1     -32.551   7.004   2.860  1.00 20.00    -0.101 C 
HETATM    8  C2  UNL     1     -32.241   7.535   1.829  1.00 20.00    -0.106 C 
BRANCH   8   9
HETATM    9  C9  UNL     1     -31.866   8.186   0.567  1.00 20.00     0.093 C 
BRANCH   9  10
HETATM   10  C10 UNL     1     -32.709   9.429   0.283  1.00 20.00     0.007 C 
HETATM   11  C8  UNL     1     -33.102  10.183   1.545  1.00 20.00     0.006 C 
ENDBRANCH   9  10
ENDBRANCH   8   9
ENDBRANCH   5   7
TORSDOF 3
ENDMDL
MODEL 7
REMARK VINA RESULT:      -4.0      2.670      5.924
REMARK  3 active torsions:
REMARK  status: ('A' for Active; 'I' for Inactive)
REMARK    1  A    between atoms: C1_1  and  C7_7 
REMARK    2  A    between atoms: C2_2  and  C9_9 
REMARK    3  A    between atoms: C9_9  and  C10_10 
ROOT
HETATM    1  C3  UNL     1     -34.985  17.970  -3.537  1.00 20.00     0.128 C 
HETATM    2  C4  UNL     1     -34.197  16.717  -3.819  1.00 20.00     0.079 C 
HETATM    3  C5  UNL     1     -34.549  18.642  -2.260  1.00 20.00     0.095 C 
HETATM    4  C6  UNL     1     -33.058  16.833  -2.813  1.00 20.00     0.025 C 
HETATM    5  C7  UNL     1     -33.676  17.562  -1.621  1.00 20.00     0.072 C 
HETATM    6  O11 UNL     1     -35.875  18.393  -4.262  1.00 20.00    -0.298 OA
ENDROOT
BRANCH   5   7
HETATM    7  C1  UNL     1     -32.661  18.128  -0.726  1.00 20.00    -0.101 C 
HETATM    8  C2  UNL     1     -31.829  18.588   0.007  1.00 20.00    -0.106 C 
BRANCH   8   9
HETATM    9  C9  UNL     1     -30.811  19.155   0.901  1.00 20.00     0.093 C 
BRANCH   9  10
HETATM   10  C10 UNL     1     -30.718  18.399   2.226  1.00 20.00     0.007 C 
HETATM   11  C8  UNL     1     -29.469  18.748   3.025  1.00 20.00     0.006 C 
ENDBRANCH   9  10
ENDBRANCH   8   9
ENDBRANCH   5   7
TORSDOF 3
ENDMDL
MODEL 8
REMARK VINA RESULT:      -3.7     11.625     12.944
REMARK  3 active torsions:
REMARK  status: ('A' for Active; 'I' for Inactive)
REMARK    1  A    between atoms: C1_1  and  C7_7 
REMARK    2  A    between atoms: C2_2  and  C9_9 
REMARK    3  A    between atoms: C9_9  and  C10_10 
ROOT
HETATM    1  C3  UNL     1     -41.211  16.653  10.589  1.00 20.00     0.128 C 
HETATM    2  C4  UNL     1     -40.748  15.516  11.462  1.00 20.00     0.079 C 
HETATM    3  C5  UNL     1     -41.061  16.342   9.122  1.00 20.00     0.095 C 
HETATM    4  C6  UNL     1     -40.600  14.386  10.450  1.00 20.00     0.025 C 
HETATM    5  C7  UNL     1     -40.189  15.087   9.156  1.00 20.00     0.072 C 
HETATM    6  O11 UNL     1     -41.657  17.707  11.022  1.00 20.00    -0.298 OA
ENDROOT
BRANCH   5   7
HETATM    7  C1  UNL     1     -40.390  14.240   7.975  1.00 20.00    -0.101 C 
HETATM    8  C2  UNL     1     -40.553  13.548   7.009  1.00 20.00    -0.106 C 
BRANCH   8   9
HETATM    9  C9  UNL     1     -40.753  12.697   5.827  1.00 20.00     0.093 C 
BRANCH   9  10
HETATM   10  C10 UNL     1     -39.618  11.692   5.638  1.00 20.00     0.007 C 
HETATM   11  C8  UNL     1     -39.074  11.668   4.216  1.00 20.00     0.006 C 
ENDBRANCH   9  10
ENDBRANCH   8   9
ENDBRANCH   5   7
TORSDOF 3
ENDMDL
MODEL 9
REMARK VINA RESULT:      -3.7     13.967     15.448
REMARK  3 active torsions:
REMARK  status: ('A' for Active; 'I' for Inactive)
REMARK    1  A    between atoms: C1_1  and  C7_7 
REMARK    2  A    between atoms: C2_2  and  C9_9 
REMARK    3  A    between atoms: C9_9  and  C10_10 
ROOT
HETATM    1  C3  UNL     1     -41.390   7.240   0.661  1.00 20.00     0.128 C 
HETATM    2  C4  UNL     1     -42.881   7.404   0.800  1.00 20.00     0.079 C 
HETATM    3  C5  UNL     1     -41.024   6.067  -0.212  1.00 20.00     0.095 C 
HETATM    4  C6  UNL     1     -43.399   6.462  -0.281  1.00 20.00     0.025 C 
HETATM    5  C7  UNL     1     -42.363   5.340  -0.336  1.00 20.00     0.072 C 
HETATM    6  O11 UNL     1     -40.571   7.975   1.197  1.00 20.00    -0.298 OA
ENDROOT
BRANCH   5   7
HETATM    7  C1  UNL     1     -42.455   4.556  -1.572  1.00 20.00    -0.101 C 
HETATM    8  C2  UNL     1     -42.530   3.916  -2.585  1.00 20.00    -0.106 C 
BRANCH   8   9
HETATM    9  C9  UNL     1     -42.621   3.129  -3.822  1.00 20.00     0.093 C 
BRANCH   9  10
HETATM   10  C10 UNL     1     -41.472   2.130  -3.960  1.00 20.00     0.007 C 
HETATM   11  C8  UNL     1     -41.930   0.680  -3.873  1.00 20.00     0.006 C 
ENDBRANCH   9  10
ENDBRANCH   8   9
ENDBRANCH   5   7
TORSDOF 3
ENDMDL
