MODEL 1
REMARK VINA RESULT:      -3.8      0.000      0.000
REMARK  3 active torsions:
REMARK  status: ('A' for Active; 'I' for Inactive)
REMARK    1  A    between atoms: C1_1  and  C3_3 
REMARK    2  A    between atoms: C2_2  and  N8_8 
REMARK    3  A    between atoms: C4_4  and  C5_5 
ROOT
HETATM    1  C1  UNL     1     -33.625  17.309  -1.433  1.00 20.00    -0.056 C 
HETATM    2  C2  UNL     1     -33.585  16.915  -2.566  1.00 20.00     0.012 C 
ENDROOT
BRANCH   1   3
HETATM    3  C3  UNL     1     -33.677  17.774  -0.091  1.00 20.00     0.069 C 
HETATM    4  C4  UNL     1     -32.756  18.617   0.388  1.00 20.00     0.050 C 
BRANCH   4   5
HETATM    5  C5  UNL     1     -31.668  19.067  -0.502  1.00 20.00     0.259 C 
HETATM    6  O9  UNL     1     -30.524  18.642  -0.394  1.00 20.00    -0.302 OA
ENDBRANCH   4   5
ENDBRANCH   1   3
BRANCH   2   7
HETATM    7  N8  UNL     1     -33.538  16.442  -3.923  1.00 20.00    -0.350 N 
HETATM    8  C6  UNL     1     -34.419  17.073  -4.896  1.00 20.00     0.159 C 
HETATM    9  C7  UNL     1     -33.163  15.055  -4.152  1.00 20.00     0.159 C 
ENDBRANCH   2   7
TORSDOF 3
ENDMDL
MODEL 2
REMARK VINA RESULT:      -3.7     11.976     12.528
REMARK  3 active torsions:
REMARK  status: ('A' for Active; 'I' for Inactive)
REMARK    1  A    between atoms: C1_1  and  C3_3 
REMARK    2  A    between atoms: C2_2  and  N8_8 
REMARK    3  A    between atoms: C4_4  and  C5_5 
ROOT
HETATM    1  C1  UNL     1     -33.408   7.545   5.131  1.00 20.00    -0.056 C 
HETATM    2  C2  UNL     1     -32.990   8.005   4.105  1.00 20.00     0.012 C 
ENDROOT
BRANCH   1   3
HETATM    3  C3  UNL     1     -33.901   6.994   6.345  1.00 20.00     0.069 C 
HETATM    4  C4  UNL     1     -34.633   5.874   6.352  1.00 20.00     0.050 C 
BRANCH   4   5
HETATM    5  C5  UNL     1     -34.927   5.205   5.070  1.00 20.00     0.259 C 
HETATM    6  O9  UNL     1     -34.276   4.244   4.677  1.00 20.00    -0.302 OA
ENDBRANCH   4   5
ENDBRANCH   1   3
BRANCH   2   7
HETATM    7  N8  UNL     1     -32.489   8.556   2.874  1.00 20.00    -0.350 N 
HETATM    8  C6  UNL     1     -32.996   9.854   2.451  1.00 20.00     0.159 C 
HETATM    9  C7  UNL     1     -32.052   7.632   1.839  1.00 20.00     0.159 C 
ENDBRANCH   2   7
TORSDOF 3
ENDMDL
MODEL 3
REMARK VINA RESULT:      -3.2      4.081      6.286
REMARK  3 active torsions:
REMARK  status: ('A' for Active; 'I' for Inactive)
REMARK    1  A    between atoms: C1_1  and  C3_3 
REMARK    2  A    between atoms: C2_2  and  N8_8 
REMARK    3  A    between atoms: C4_4  and  C5_5 
ROOT
HETATM    1  C1  UNL     1     -30.824  18.662   0.887  1.00 20.00    -0.056 C 
HETATM    2  C2  UNL     1     -30.420  18.866   1.999  1.00 20.00     0.012 C 
ENDROOT
BRANCH   1   3
HETATM    3  C3  UNL     1     -31.304  18.415  -0.428  1.00 20.00     0.069 C 
HETATM    4  C4  UNL     1     -32.591  18.598  -0.743  1.00 20.00     0.050 C 
BRANCH   4   5
HETATM    5  C5  UNL     1     -33.522  19.068   0.302  1.00 20.00     0.259 C 
HETATM    6  O9  UNL     1     -34.354  18.325   0.808  1.00 20.00    -0.302 OA
ENDBRANCH   4   5
ENDBRANCH   1   3
BRANCH   2   7
HETATM    7  N8  UNL     1     -29.935  19.110   3.331  1.00 20.00    -0.350 N 
HETATM    8  C6  UNL     1     -28.625  18.585   3.687  1.00 20.00     0.159 C 
HETATM    9  C7  UNL     1     -30.914  19.263   4.397  1.00 20.00     0.159 C 
ENDBRANCH   2   7
TORSDOF 3
ENDMDL
MODEL 4
REMARK VINA RESULT:      -3.2      2.958      5.035
REMARK  3 active torsions:
REMARK  status: ('A' for Active; 'I' for Inactive)
REMARK    1  A    between atoms: C1_1  and  C3_3 
REMARK    2  A    between atoms: C2_2  and  N8_8 
REMARK    3  A    between atoms: C4_4  and  C5_5 
ROOT
HETATM    1  C1  UNL     1     -33.351  16.025  -3.168  1.00 20.00    -0.056 C 
HETATM    2  C2  UNL     1     -33.331  16.864  -2.311  1.00 20.00     0.012 C 
ENDROOT
BRANCH   1   3
HETATM    3  C3  UNL     1     -33.376  15.027  -4.180  1.00 20.00     0.069 C 
HETATM    4  C4  UNL     1     -34.136  15.165  -5.272  1.00 20.00     0.050 C 
BRANCH   4   5
HETATM    5  C5  UNL     1     -34.958  16.382  -5.421  1.00 20.00     0.259 C 
HETATM    6  O9  UNL     1     -36.180  16.352  -5.340  1.00 20.00    -0.302 OA
ENDBRANCH   4   5
ENDBRANCH   1   3
BRANCH   2   7
HETATM    7  N8  UNL     1     -33.306  17.869  -1.283  1.00 20.00    -0.350 N 
HETATM    8  C6  UNL     1     -34.472  18.731  -1.143  1.00 20.00     0.159 C 
HETATM    9  C7  UNL     1     -32.016  18.410  -0.885  1.00 20.00     0.159 C 
ENDBRANCH   2   7
TORSDOF 3
ENDMDL
MODEL 5
REMARK VINA RESULT:      -3.2      2.652      3.287
REMARK  3 active torsions:
REMARK  status: ('A' for Active; 'I' for Inactive)
REMARK    1  A    between atoms: C1_1  and  C3_3 
REMARK    2  A    between atoms: C2_2  and  N8_8 
REMARK    3  A    between atoms: C4_4  and  C5_5 
ROOT
HETATM    1  C1  UNL     1     -33.682  16.073  -3.547  1.00 20.00    -0.056 C 
HETATM    2  C2  UNL     1     -34.067  15.567  -4.565  1.00 20.00     0.012 C 
ENDROOT
BRANCH   1   3
HETATM    3  C3  UNL     1     -33.223  16.678  -2.345  1.00 20.00     0.069 C 
HETATM    4  C4  UNL     1     -33.767  17.811  -1.887  1.00 20.00     0.050 C 
BRANCH   4   5
HETATM    5  C5  UNL     1     -34.863  18.437  -2.651  1.00 20.00     0.259 C 
HETATM    6  O9  UNL     1     -35.877  18.854  -2.104  1.00 20.00    -0.302 OA
ENDBRANCH   4   5
ENDBRANCH   1   3
BRANCH   2   7
HETATM    7  N8  UNL     1     -34.528  14.960  -5.784  1.00 20.00    -0.350 N 
HETATM    8  C6  UNL     1     -33.911  15.383  -7.033  1.00 20.00     0.159 C 
HETATM    9  C7  UNL     1     -35.905  14.491  -5.837  1.00 20.00     0.159 C 
ENDBRANCH   2   7
TORSDOF 3
ENDMDL
MODEL 6
REMARK VINA RESULT:      -3.1     15.397     15.900
REMARK  3 active torsions:
REMARK  status: ('A' for Active; 'I' for Inactive)
REMARK    1  A    between atoms: C1_1  and  C3_3 
REMARK    2  A    between atoms: C2_2  and  N8_8 
REMARK    3  A    between atoms: C4_4  and  C5_5 
ROOT
HETATM    1  C1  UNL     1     -23.782  16.960  10.732  1.00 20.00    -0.056 C 
HETATM    2  C2  UNL     1     -23.038  17.509   9.968  1.00 20.00     0.012 C 
ENDROOT
BRANCH   1   3
HETATM    3  C3  UNL     1     -24.665  16.315  11.641  1.00 20.00     0.069 C 
HETATM    4  C4  UNL     1     -25.577  17.007  12.332  1.00 20.00     0.050 C 
BRANCH   4   5
HETATM    5  C5  UNL     1     -25.662  18.468  12.139  1.00 20.00     0.259 C 
HETATM    6  O9  UNL     1     -26.730  19.067  12.188  1.00 20.00    -0.302 OA
ENDBRANCH   4   5
ENDBRANCH   1   3
BRANCH   2   7
HETATM    7  N8  UNL     1     -22.145  18.167   9.052  1.00 20.00    -0.350 N 
HETATM    8  C6  UNL     1     -21.646  17.404   7.917  1.00 20.00     0.159 C 
HETATM    9  C7  UNL     1     -21.305  19.239   9.566  1.00 20.00     0.159 C 
ENDBRANCH   2   7
TORSDOF 3
ENDMDL
MODEL 7
REMARK VINA RESULT:      -3.1      1.632      2.256
REMARK  3 active torsions:
REMARK  status: ('A' for Active; 'I' for Inactive)
REMARK    1  A    between atoms: C1_1  and  C3_3 
REMARK    2  A    between atoms: C2_2  and  N8_8 
REMARK    3  A    between atoms: C4_4  and  C5_5 
ROOT
HETATM    1  C1  UNL     1     -32.665  17.641  -1.858  1.00 20.00    -0.056 C 
HETATM    2  C2  UNL     1     -33.225  17.038  -2.731  1.00 20.00     0.012 C 
ENDROOT
BRANCH   1   3
HETATM    3  C3  UNL     1     -31.995  18.353  -0.825  1.00 20.00     0.069 C 
HETATM    4  C4  UNL     1     -32.615  18.665   0.318  1.00 20.00     0.050 C 
BRANCH   4   5
HETATM    5  C5  UNL     1     -34.021  18.256   0.502  1.00 20.00     0.259 C 
HETATM    6  O9  UNL     1     -34.767  18.835   1.282  1.00 20.00    -0.302 OA
ENDBRANCH   4   5
ENDBRANCH   1   3
BRANCH   2   7
HETATM    7  N8  UNL     1     -33.897  16.316  -3.777  1.00 20.00    -0.350 N 
HETATM    8  C6  UNL     1     -33.321  15.051  -4.212  1.00 20.00     0.159 C 
HETATM    9  C7  UNL     1     -34.665  17.078  -4.750  1.00 20.00     0.159 C 
ENDBRANCH   2   7
TORSDOF 3
ENDMDL
MODEL 8
REMARK VINA RESULT:      -3.1     11.685     12.981
REMARK  3 active torsions:
REMARK  status: ('A' for Active; 'I' for Inactive)
REMARK    1  A    between atoms: C1_1  and  C3_3 
REMARK    2  A    between atoms: C2_2  and  N8_8 
REMARK    3  A    between atoms: C4_4  and  C5_5 
ROOT
HETATM    1  C1  UNL     1     -40.886  13.645   7.113  1.00 20.00    -0.056 C 
HETATM    2  C2  UNL     1     -40.625  14.552   7.855  1.00 20.00     0.012 C 
ENDROOT
BRANCH   1   3
HETATM    3  C3  UNL     1     -41.201  12.571   6.237  1.00 20.00     0.069 C 
HETATM    4  C4  UNL     1     -40.242  11.810   5.700  1.00 20.00     0.050 C 
BRANCH   4   5
HETATM    5  C5  UNL     1     -38.832  12.097   6.031  1.00 20.00     0.259 C 
HETATM    6  O9  UNL     1     -37.957  12.120   5.174  1.00 20.00    -0.302 OA
ENDBRANCH   4   5
ENDBRANCH   1   3
BRANCH   2   7
HETATM    7  N8  UNL     1     -40.312  15.638   8.744  1.00 20.00    -0.350 N 
HETATM    8  C6  UNL     1     -40.189  15.343  10.165  1.00 20.00     0.159 C 
HETATM    9  C7  UNL     1     -40.742  16.976   8.368  1.00 20.00     0.159 C 
ENDBRANCH   2   7
TORSDOF 3
ENDMDL
MODEL 9
REMARK VINA RESULT:      -2.9      1.693      2.092
REMARK  3 active torsions:
REMARK  status: ('A' for Active; 'I' for Inactive)
REMARK    1  A    between atoms: C1_1  and  C3_3 
REMARK    2  A    between atoms: C2_2  and  N8_8 
REMARK    3  A    between atoms: C4_4  and  C5_5 
ROOT
HETATM    1  C1  UNL     1     -33.967  18.323  -0.540  1.00 20.00    -0.056 C 
HETATM    2  C2  UNL     1     -34.367  18.288  -1.671  1.00 20.00     0.012 C 
ENDROOT
BRANCH   1   3
HETATM    3  C3  UNL     1     -33.487  18.367   0.798  1.00 20.00     0.069 C 
HETATM    4  C4  UNL     1     -32.257  18.808   1.079  1.00 20.00     0.050 C 
BRANCH   4   5
HETATM    5  C5  UNL     1     -31.388  19.258  -0.026  1.00 20.00     0.259 C 
HETATM    6  O9  UNL     1     -30.478  18.561  -0.459  1.00 20.00    -0.302 OA
ENDBRANCH   4   5
ENDBRANCH   1   3
BRANCH   2   7
HETATM    7  N8  UNL     1     -34.847  18.247  -3.026  1.00 20.00    -0.350 N 
HETATM    8  C6  UNL     1     -33.864  18.298  -4.099  1.00 20.00     0.159 C 
HETATM    9  C7  UNL     1     -36.173  18.779  -3.299  1.00 20.00     0.159 C 
ENDBRANCH   2   7
TORSDOF 3
ENDMDL
