MODEL 1
REMARK VINA RESULT:      -4.7      0.000      0.000
REMARK  2 active torsions:
REMARK  status: ('A' for Active; 'I' for Inactive)
REMARK    1  A    between atoms: C1_1  and  C5_5 
REMARK    2  A    between atoms: C1_1  and  O10_10 
ROOT
HETATM    1  C2  UNL     1     -35.076   5.657   4.528  1.00 20.00     0.015 C 
HETATM    2  C3  UNL     1     -34.559   4.997   5.817  1.00 20.00     0.006 C 
HETATM    3  C4  UNL     1     -34.293   7.455   6.713  1.00 20.00     0.011 A 
HETATM    4  C5  UNL     1     -34.038   6.744   4.191  1.00 20.00     0.090 C 
HETATM    5  C6  UNL     1     -33.760   6.062   6.510  1.00 20.00    -0.009 A 
HETATM    6  C7  UNL     1     -33.436   7.126   5.518  1.00 20.00     0.004 A 
ENDROOT
BRANCH   4   7
HETATM    7  C1  UNL     1     -33.010   6.214   3.239  1.00 20.00     0.263 C 
HETATM    8  O9  UNL     1     -33.059   5.104   2.727  1.00 20.00    -0.265 OA
BRANCH   7   9
HETATM    9  O10 UNL     1     -32.039   7.151   3.048  1.00 20.00    -0.326 OA
HETATM   10  C8  UNL     1     -32.185   7.958   1.874  1.00 20.00     0.213 C 
ENDBRANCH   7   9
ENDBRANCH   4   7
TORSDOF 2
ENDMDL
MODEL 2
REMARK VINA RESULT:      -4.6      1.123      1.635
REMARK  2 active torsions:
REMARK  status: ('A' for Active; 'I' for Inactive)
REMARK    1  A    between atoms: C1_1  and  C5_5 
REMARK    2  A    between atoms: C1_1  and  O10_10 
ROOT
HETATM    1  C2  UNL     1     -34.646   5.966   3.992  1.00 20.00     0.015 C 
HETATM    2  C3  UNL     1     -34.182   4.728   4.775  1.00 20.00     0.006 C 
HETATM    3  C4  UNL     1     -35.127   5.976   6.888  1.00 20.00     0.011 A 
HETATM    4  C5  UNL     1     -34.095   7.169   4.781  1.00 20.00     0.090 C 
HETATM    5  C6  UNL     1     -34.045   5.190   6.197  1.00 20.00    -0.009 A 
HETATM    6  C7  UNL     1     -33.985   6.680   6.202  1.00 20.00     0.004 A 
ENDROOT
BRANCH   4   7
HETATM    7  C1  UNL     1     -32.769   7.597   4.230  1.00 20.00     0.263 C 
HETATM    8  O9  UNL     1     -32.045   8.430   4.758  1.00 20.00    -0.265 OA
BRANCH   7   9
HETATM    9  O10 UNL     1     -32.516   6.920   3.075  1.00 20.00    -0.326 OA
HETATM   10  C8  UNL     1     -32.171   7.733   1.948  1.00 20.00     0.213 C 
ENDBRANCH   7   9
ENDBRANCH   4   7
TORSDOF 2
ENDMDL
MODEL 3
REMARK VINA RESULT:      -4.0      1.588      2.600
REMARK  2 active torsions:
REMARK  status: ('A' for Active; 'I' for Inactive)
REMARK    1  A    between atoms: C1_1  and  C5_5 
REMARK    2  A    between atoms: C1_1  and  O10_10 
ROOT
HETATM    1  C2  UNL     1     -33.445   6.508   6.469  1.00 20.00     0.015 C 
HETATM    2  C3  UNL     1     -34.910   6.042   6.508  1.00 20.00     0.006 C 
HETATM    3  C4  UNL     1     -34.253   4.513   4.473  1.00 20.00     0.011 A 
HETATM    4  C5  UNL     1     -33.176   6.857   4.993  1.00 20.00     0.090 C 
HETATM    5  C6  UNL     1     -35.183   5.490   5.140  1.00 20.00    -0.009 A 
HETATM    6  C7  UNL     1     -34.129   5.992   4.212  1.00 20.00     0.004 A 
ENDROOT
BRANCH   4   7
HETATM    7  C1  UNL     1     -33.410   8.316   4.747  1.00 20.00     0.263 C 
HETATM    8  O9  UNL     1     -33.941   9.070   5.550  1.00 20.00    -0.265 OA
BRANCH   7   9
HETATM    9  O10 UNL     1     -32.944   8.649   3.509  1.00 20.00    -0.326 OA
HETATM   10  C8  UNL     1     -31.911   7.803   2.992  1.00 20.00     0.213 C 
ENDBRANCH   7   9
ENDBRANCH   4   7
TORSDOF 2
ENDMDL
MODEL 4
REMARK VINA RESULT:      -3.9      1.423      1.990
REMARK  2 active torsions:
REMARK  status: ('A' for Active; 'I' for Inactive)
REMARK    1  A    between atoms: C1_1  and  C5_5 
REMARK    2  A    between atoms: C1_1  and  O10_10 
ROOT
HETATM    1  C2  UNL     1     -34.831   6.073   6.019  1.00 20.00     0.015 C 
HETATM    2  C3  UNL     1     -33.621   6.673   6.753  1.00 20.00     0.006 C 
HETATM    3  C4  UNL     1     -33.980   8.758   5.191  1.00 20.00     0.011 A 
HETATM    4  C5  UNL     1     -34.530   6.273   4.522  1.00 20.00     0.090 C 
HETATM    5  C6  UNL     1     -33.086   7.730   5.830  1.00 20.00    -0.009 A 
HETATM    6  C7  UNL     1     -33.635   7.483   4.466  1.00 20.00     0.004 A 
ENDROOT
BRANCH   4   7
HETATM    7  C1  UNL     1     -33.867   5.057   3.951  1.00 20.00     0.263 C 
HETATM    8  O9  UNL     1     -34.119   3.912   4.300  1.00 20.00    -0.265 OA
BRANCH   7   9
HETATM    9  O10 UNL     1     -32.959   5.434   3.007  1.00 20.00    -0.326 OA
HETATM   10  C8  UNL     1     -32.961   4.654   1.806  1.00 20.00     0.213 C 
ENDBRANCH   7   9
ENDBRANCH   4   7
TORSDOF 2
ENDMDL
MODEL 5
REMARK VINA RESULT:      -3.9     15.847     16.822
REMARK  2 active torsions:
REMARK  status: ('A' for Active; 'I' for Inactive)
REMARK    1  A    between atoms: C1_1  and  C5_5 
REMARK    2  A    between atoms: C1_1  and  O10_10 
ROOT
HETATM    1  C2  UNL     1     -24.682  18.859  10.180  1.00 20.00     0.015 C 
HETATM    2  C3  UNL     1     -24.572  17.452  10.790  1.00 20.00     0.006 C 
HETATM    3  C4  UNL     1     -22.679  18.487  12.294  1.00 20.00     0.011 A 
HETATM    4  C5  UNL     1     -23.235  19.263   9.841  1.00 20.00     0.090 C 
HETATM    5  C6  UNL     1     -23.202  17.395  11.400  1.00 20.00    -0.009 A 
HETATM    6  C7  UNL     1     -22.382  18.496  10.817  1.00 20.00     0.004 A 
ENDROOT
BRANCH   4   7
HETATM    7  C1  UNL     1     -22.912  18.918   8.420  1.00 20.00     0.263 C 
HETATM    8  O9  UNL     1     -23.727  18.938   7.508  1.00 20.00    -0.265 OA
BRANCH   7   9
HETATM    9  O10 UNL     1     -21.593  18.587   8.320  1.00 20.00    -0.326 OA
HETATM   10  C8  UNL     1     -21.301  17.469   7.474  1.00 20.00     0.213 C 
ENDBRANCH   7   9
ENDBRANCH   4   7
TORSDOF 2
ENDMDL
MODEL 6
REMARK VINA RESULT:      -3.9      2.073      3.736
REMARK  2 active torsions:
REMARK  status: ('A' for Active; 'I' for Inactive)
REMARK    1  A    between atoms: C1_1  and  C5_5 
REMARK    2  A    between atoms: C1_1  and  O10_10 
ROOT
HETATM    1  C2  UNL     1     -33.742   8.771   4.940  1.00 20.00     0.015 C 
HETATM    2  C3  UNL     1     -32.209   8.874   4.965  1.00 20.00     0.006 C 
HETATM    3  C4  UNL     1     -32.323   7.960   2.502  1.00 20.00     0.011 A 
HETATM    4  C5  UNL     1     -34.040   7.359   4.404  1.00 20.00     0.090 C 
HETATM    5  C6  UNL     1     -31.736   7.942   3.888  1.00 20.00    -0.009 A 
HETATM    6  C7  UNL     1     -32.850   7.012   3.548  1.00 20.00     0.004 A 
ENDROOT
BRANCH   4   7
HETATM    7  C1  UNL     1     -34.219   6.393   5.535  1.00 20.00     0.263 C 
HETATM    8  O9  UNL     1     -33.798   6.580   6.668  1.00 20.00    -0.265 OA
BRANCH   7   9
HETATM    9  O10 UNL     1     -34.911   5.303   5.098  1.00 20.00    -0.326 OA
HETATM   10  C8  UNL     1     -34.113   4.244   4.557  1.00 20.00     0.213 C 
ENDBRANCH   7   9
ENDBRANCH   4   7
TORSDOF 2
ENDMDL
MODEL 7
REMARK VINA RESULT:      -3.7      1.336      2.434
REMARK  2 active torsions:
REMARK  status: ('A' for Active; 'I' for Inactive)
REMARK    1  A    between atoms: C1_1  and  C5_5 
REMARK    2  A    between atoms: C1_1  and  O10_10 
ROOT
HETATM    1  C2  UNL     1     -33.181   7.249   5.570  1.00 20.00     0.015 C 
HETATM    2  C3  UNL     1     -34.708   7.085   5.498  1.00 20.00     0.006 C 
HETATM    3  C4  UNL     1     -34.188   4.679   4.571  1.00 20.00     0.011 A 
HETATM    4  C5  UNL     1     -32.664   6.792   4.193  1.00 20.00     0.090 C 
HETATM    5  C6  UNL     1     -34.937   5.983   4.505  1.00 20.00    -0.009 A 
HETATM    6  C7  UNL     1     -33.693   5.807   3.703  1.00 20.00     0.004 A 
ENDROOT
BRANCH   4   7
HETATM    7  C1  UNL     1     -32.521   7.962   3.269  1.00 20.00     0.263 C 
HETATM    8  O9  UNL     1     -32.634   9.129   3.619  1.00 20.00    -0.265 OA
BRANCH   7   9
HETATM    9  O10 UNL     1     -32.252   7.517   2.009  1.00 20.00    -0.326 OA
HETATM   10  C8  UNL     1     -32.270   8.519   0.985  1.00 20.00     0.213 C 
ENDBRANCH   7   9
ENDBRANCH   4   7
TORSDOF 2
ENDMDL
MODEL 8
REMARK VINA RESULT:      -3.7     12.159     13.116
REMARK  2 active torsions:
REMARK  status: ('A' for Active; 'I' for Inactive)
REMARK    1  A    between atoms: C1_1  and  C5_5 
REMARK    2  A    between atoms: C1_1  and  O10_10 
ROOT
HETATM    1  C2  UNL     1     -33.895  17.784  -4.357  1.00 20.00     0.015 C 
HETATM    2  C3  UNL     1     -34.812  18.264  -3.221  1.00 20.00     0.006 C 
HETATM    3  C4  UNL     1     -32.754  17.793  -1.652  1.00 20.00     0.011 A 
HETATM    4  C5  UNL     1     -33.295  16.457  -3.855  1.00 20.00     0.090 C 
HETATM    5  C6  UNL     1     -34.222  17.683  -1.969  1.00 20.00    -0.009 A 
HETATM    6  C7  UNL     1     -33.301  16.576  -2.353  1.00 20.00     0.004 A 
ENDROOT
BRANCH   4   7
HETATM    7  C1  UNL     1     -34.114  15.296  -4.330  1.00 20.00     0.263 C 
HETATM    8  O9  UNL     1     -34.076  14.180  -3.829  1.00 20.00    -0.265 OA
BRANCH   7   9
HETATM    9  O10 UNL     1     -34.885  15.684  -5.385  1.00 20.00    -0.326 OA
HETATM   10  C8  UNL     1     -35.770  14.684  -5.901  1.00 20.00     0.213 C 
ENDBRANCH   7   9
ENDBRANCH   4   7
TORSDOF 2
ENDMDL
MODEL 9
REMARK VINA RESULT:      -3.6     12.185     13.395
REMARK  2 active torsions:
REMARK  status: ('A' for Active; 'I' for Inactive)
REMARK    1  A    between atoms: C1_1  and  C5_5 
REMARK    2  A    between atoms: C1_1  and  O10_10 
ROOT
HETATM    1  C2  UNL     1     -34.573  16.410  -5.774  1.00 20.00     0.015 C 
HETATM    2  C3  UNL     1     -34.219  16.953  -4.380  1.00 20.00     0.006 C 
HETATM    3  C4  UNL     1     -32.602  14.884  -4.222  1.00 20.00     0.011 A 
HETATM    4  C5  UNL     1     -34.870  14.914  -5.557  1.00 20.00     0.090 C 
HETATM    5  C6  UNL     1     -33.660  15.778  -3.631  1.00 20.00    -0.009 A 
HETATM    6  C7  UNL     1     -34.062  14.532  -4.345  1.00 20.00     0.004 A 
ENDROOT
BRANCH   4   7
HETATM    7  C1  UNL     1     -36.337  14.695  -5.347  1.00 20.00     0.263 C 
HETATM    8  O9  UNL     1     -36.804  13.784  -4.677  1.00 20.00    -0.265 OA
BRANCH   7   9
HETATM    9  O10 UNL     1     -37.041  15.654  -6.013  1.00 20.00    -0.326 OA
HETATM   10  C8  UNL     1     -38.092  16.277  -5.265  1.00 20.00     0.213 C 
ENDBRANCH   7   9
ENDBRANCH   4   7
TORSDOF 2
ENDMDL
