MODEL 1
REMARK VINA RESULT:      -3.9      0.000      0.000
REMARK  2 active torsions:
REMARK  status: ('A' for Active; 'I' for Inactive)
REMARK    1  A    between atoms: C4_4  and  C6_6 
REMARK    2  A    between atoms: C7_7  and  O10_10 
ROOT
HETATM    1  C1  UNL     1     -22.306  17.609   8.694  1.00 20.00     0.218 C 
HETATM    2  C4  UNL     1     -23.094  18.599   8.997  1.00 20.00     0.043 C 
HETATM    3  O9  UNL     1     -21.593  16.715   8.420  1.00 20.00    -0.284 OA
ENDROOT
BRANCH   2   4
HETATM    4  C6  UNL     1     -23.541  18.943  10.382  1.00 20.00     0.064 C 
HETATM    5  C3  UNL     1     -22.613  18.390  11.422  1.00 20.00    -0.020 C 
HETATM    6  C2  UNL     1     -23.160  17.382  12.107  1.00 20.00    -0.027 C 
HETATM    7  C5  UNL     1     -24.544  17.075  11.639  1.00 20.00     0.059 C 
HETATM    8  C7  UNL     1     -24.881  18.284  10.759  1.00 20.00     0.135 C 
BRANCH   8   9
HETATM    9  O10 UNL     1     -25.662  19.203  11.528  1.00 20.00    -0.389 OA
HETATM   10  C8  UNL     1     -26.611  18.522  12.332  1.00 20.00     0.202 C 
ENDBRANCH   8   9
ENDBRANCH   2   4
TORSDOF 2
ENDMDL
MODEL 2
REMARK VINA RESULT:      -3.9     15.552     16.302
REMARK  2 active torsions:
REMARK  status: ('A' for Active; 'I' for Inactive)
REMARK    1  A    between atoms: C4_4  and  C6_6 
REMARK    2  A    between atoms: C7_7  and  O10_10 
ROOT
HETATM    1  C1  UNL     1     -31.733  18.867  -0.733  1.00 20.00     0.218 C 
HETATM    2  C4  UNL     1     -32.949  19.216  -1.035  1.00 20.00     0.043 C 
HETATM    3  O9  UNL     1     -30.634  18.551  -0.459  1.00 20.00    -0.284 OA
ENDROOT
BRANCH   2   4
HETATM    4  C6  UNL     1     -33.993  18.296  -1.581  1.00 20.00     0.064 C 
HETATM    5  C3  UNL     1     -33.491  16.887  -1.698  1.00 20.00    -0.020 C 
HETATM    6  C2  UNL     1     -33.309  16.516  -2.968  1.00 20.00    -0.027 C 
HETATM    7  C5  UNL     1     -33.647  17.612  -3.924  1.00 20.00     0.059 C 
HETATM    8  C7  UNL     1     -34.379  18.624  -3.036  1.00 20.00     0.135 C 
BRANCH   8   9
HETATM    9  O10 UNL     1     -35.787  18.443  -3.206  1.00 20.00    -0.389 OA
HETATM   10  C8  UNL     1     -36.522  19.263  -2.313  1.00 20.00     0.202 C 
ENDBRANCH   8   9
ENDBRANCH   2   4
TORSDOF 2
ENDMDL
MODEL 3
REMARK VINA RESULT:      -3.8     15.352     15.868
REMARK  2 active torsions:
REMARK  status: ('A' for Active; 'I' for Inactive)
REMARK    1  A    between atoms: C4_4  and  C6_6 
REMARK    2  A    between atoms: C7_7  and  O10_10 
ROOT
HETATM    1  C1  UNL     1     -32.696   9.188   1.545  1.00 20.00     0.218 C 
HETATM    2  C4  UNL     1     -32.840   9.187   2.838  1.00 20.00     0.043 C 
HETATM    3  O9  UNL     1     -32.564   9.190   0.377  1.00 20.00    -0.284 OA
ENDROOT
BRANCH   2   4
HETATM    4  C6  UNL     1     -32.496   8.042   3.736  1.00 20.00     0.064 C 
HETATM    5  C3  UNL     1     -32.135   6.811   2.960  1.00 20.00    -0.020 C 
HETATM    6  C2  UNL     1     -33.070   5.861   3.048  1.00 20.00    -0.027 C 
HETATM    7  C5  UNL     1     -34.226   6.292   3.889  1.00 20.00     0.059 C 
HETATM    8  C7  UNL     1     -33.695   7.557   4.574  1.00 20.00     0.135 C 
BRANCH   8   9
HETATM    9  O10 UNL     1     -33.249   7.211   5.886  1.00 20.00    -0.389 OA
HETATM   10  C8  UNL     1     -34.202   6.404   6.557  1.00 20.00     0.202 C 
ENDBRANCH   8   9
ENDBRANCH   2   4
TORSDOF 2
ENDMDL
MODEL 4
REMARK VINA RESULT:      -3.7     18.275     19.070
REMARK  2 active torsions:
REMARK  status: ('A' for Active; 'I' for Inactive)
REMARK    1  A    between atoms: C4_4  and  C6_6 
REMARK    2  A    between atoms: C7_7  and  O10_10 
ROOT
HETATM    1  C1  UNL     1     -35.689  14.674  -6.159  1.00 20.00     0.218 C 
HETATM    2  C4  UNL     1     -35.210  15.081  -5.020  1.00 20.00     0.043 C 
HETATM    3  O9  UNL     1     -36.123  14.306  -7.188  1.00 20.00    -0.284 OA
ENDROOT
BRANCH   2   4
HETATM    4  C6  UNL     1     -34.107  16.078  -4.864  1.00 20.00     0.064 C 
HETATM    5  C3  UNL     1     -33.171  15.707  -3.752  1.00 20.00    -0.020 C 
HETATM    6  C2  UNL     1     -33.288  16.519  -2.697  1.00 20.00    -0.027 C 
HETATM    7  C5  UNL     1     -34.328  17.568  -2.912  1.00 20.00     0.059 C 
HETATM    8  C7  UNL     1     -34.612  17.463  -4.415  1.00 20.00     0.135 C 
BRANCH   8   9
HETATM    9  O10 UNL     1     -33.868  18.481  -5.089  1.00 20.00    -0.389 OA
HETATM   10  C8  UNL     1     -34.288  18.617  -6.437  1.00 20.00     0.202 C 
ENDBRANCH   8   9
ENDBRANCH   2   4
TORSDOF 2
ENDMDL
MODEL 5
REMARK VINA RESULT:      -3.7     16.745     18.000
REMARK  2 active torsions:
REMARK  status: ('A' for Active; 'I' for Inactive)
REMARK    1  A    between atoms: C4_4  and  C6_6 
REMARK    2  A    between atoms: C7_7  and  O10_10 
ROOT
HETATM    1  C1  UNL     1     -39.139  12.190   5.380  1.00 20.00     0.218 C 
HETATM    2  C4  UNL     1     -40.435  12.252   5.472  1.00 20.00     0.043 C 
HETATM    3  O9  UNL     1     -37.968  12.135   5.296  1.00 20.00    -0.284 OA
ENDROOT
BRANCH   2   4
HETATM    4  C6  UNL     1     -41.184  12.764   6.660  1.00 20.00     0.064 C 
HETATM    5  C3  UNL     1     -42.487  13.395   6.270  1.00 20.00    -0.020 C 
HETATM    6  C2  UNL     1     -42.474  14.723   6.418  1.00 20.00    -0.027 C 
HETATM    7  C5  UNL     1     -41.157  15.215   6.922  1.00 20.00     0.059 C 
HETATM    8  C7  UNL     1     -40.461  13.925   7.369  1.00 20.00     0.135 C 
BRANCH   8   9
HETATM    9  O10 UNL     1     -40.619  13.790   8.784  1.00 20.00    -0.389 OA
HETATM   10  C8  UNL     1     -40.226  14.973   9.460  1.00 20.00     0.202 C 
ENDBRANCH   8   9
ENDBRANCH   2   4
TORSDOF 2
ENDMDL
MODEL 6
REMARK VINA RESULT:      -3.6     14.777     15.569
REMARK  2 active torsions:
REMARK  status: ('A' for Active; 'I' for Inactive)
REMARK    1  A    between atoms: C4_4  and  C6_6 
REMARK    2  A    between atoms: C7_7  and  O10_10 
ROOT
HETATM    1  C1  UNL     1     -34.247  18.513  -3.927  1.00 20.00     0.218 C 
HETATM    2  C4  UNL     1     -33.185  18.916  -3.292  1.00 20.00     0.043 C 
HETATM    3  O9  UNL     1     -35.206  18.150  -4.501  1.00 20.00    -0.284 OA
ENDROOT
BRANCH   2   4
HETATM    4  C6  UNL     1     -32.558  18.204  -2.136  1.00 20.00     0.064 C 
HETATM    5  C3  UNL     1     -33.544  17.335  -1.414  1.00 20.00    -0.020 C 
HETATM    6  C2  UNL     1     -33.863  17.820  -0.210  1.00 20.00    -0.027 C 
HETATM    7  C5  UNL     1     -33.157  19.103   0.080  1.00 20.00     0.059 C 
HETATM    8  C7  UNL     1     -32.094  19.163  -1.023  1.00 20.00     0.135 C 
BRANCH   8   9
HETATM    9  O10 UNL     1     -30.853  18.700  -0.485  1.00 20.00    -0.389 OA
HETATM   10  C8  UNL     1     -30.697  19.104   0.865  1.00 20.00     0.202 C 
ENDBRANCH   8   9
ENDBRANCH   2   4
TORSDOF 2
ENDMDL
MODEL 7
REMARK VINA RESULT:      -3.6     17.632     18.195
REMARK  2 active torsions:
REMARK  status: ('A' for Active; 'I' for Inactive)
REMARK    1  A    between atoms: C4_4  and  C6_6 
REMARK    2  A    between atoms: C7_7  and  O10_10 
ROOT
HETATM    1  C1  UNL     1     -39.326  12.043   4.449  1.00 20.00     0.218 C 
HETATM    2  C4  UNL     1     -39.479  12.317   5.712  1.00 20.00     0.043 C 
HETATM    3  O9  UNL     1     -39.187  11.794   3.309  1.00 20.00    -0.284 OA
ENDROOT
BRANCH   2   4
HETATM    4  C6  UNL     1     -40.778  12.682   6.356  1.00 20.00     0.064 C 
HETATM    5  C3  UNL     1     -41.675  13.435   5.419  1.00 20.00    -0.020 C 
HETATM    6  C2  UNL     1     -41.796  14.722   5.756  1.00 20.00    -0.027 C 
HETATM    7  C5  UNL     1     -40.996  15.060   6.970  1.00 20.00     0.059 C 
HETATM    8  C7  UNL     1     -40.610  13.680   7.518  1.00 20.00     0.135 C 
BRANCH   8   9
HETATM    9  O10 UNL     1     -41.515  13.340   8.571  1.00 20.00    -0.389 OA
HETATM   10  C8  UNL     1     -41.681  14.420   9.474  1.00 20.00     0.202 C 
ENDBRANCH   8   9
ENDBRANCH   2   4
TORSDOF 2
ENDMDL
MODEL 8
REMARK VINA RESULT:      -3.5     15.385     16.450
REMARK  2 active torsions:
REMARK  status: ('A' for Active; 'I' for Inactive)
REMARK    1  A    between atoms: C4_4  and  C6_6 
REMARK    2  A    between atoms: C7_7  and  O10_10 
ROOT
HETATM    1  C1  UNL     1     -33.434  18.335   0.463  1.00 20.00     0.218 C 
HETATM    2  C4  UNL     1     -33.806  17.671  -0.592  1.00 20.00     0.043 C 
HETATM    3  O9  UNL     1     -33.099  18.934   1.417  1.00 20.00    -0.284 OA
ENDROOT
BRANCH   2   4
HETATM    4  C6  UNL     1     -32.968  17.467  -1.814  1.00 20.00     0.064 C 
HETATM    5  C3  UNL     1     -32.617  18.766  -2.475  1.00 20.00    -0.020 C 
HETATM    6  C2  UNL     1     -33.257  18.935  -3.635  1.00 20.00    -0.027 C 
HETATM    7  C5  UNL     1     -34.157  17.786  -3.950  1.00 20.00     0.059 C 
HETATM    8  C7  UNL     1     -33.717  16.723  -2.936  1.00 20.00     0.135 C 
BRANCH   8   9
HETATM    9  O10 UNL     1     -32.822  15.818  -3.586  1.00 20.00    -0.389 OA
HETATM   10  C8  UNL     1     -33.529  14.855  -4.349  1.00 20.00     0.202 C 
ENDBRANCH   8   9
ENDBRANCH   2   4
TORSDOF 2
ENDMDL
MODEL 9
REMARK VINA RESULT:      -3.5     17.177     17.976
REMARK  2 active torsions:
REMARK  status: ('A' for Active; 'I' for Inactive)
REMARK    1  A    between atoms: C4_4  and  C6_6 
REMARK    2  A    between atoms: C7_7  and  O10_10 
ROOT
HETATM    1  C1  UNL     1     -34.516  14.999  -4.777  1.00 20.00     0.218 C 
HETATM    2  C4  UNL     1     -33.741  15.306  -3.779  1.00 20.00     0.043 C 
HETATM    3  O9  UNL     1     -35.217  14.721  -5.679  1.00 20.00    -0.284 OA
ENDROOT
BRANCH   2   4
HETATM    4  C6  UNL     1     -33.220  16.678  -3.491  1.00 20.00     0.064 C 
HETATM    5  C3  UNL     1     -33.191  16.968  -2.020  1.00 20.00    -0.020 C 
HETATM    6  C2  UNL     1     -34.117  17.861  -1.659  1.00 20.00    -0.027 C 
HETATM    7  C5  UNL     1     -34.936  18.317  -2.821  1.00 20.00     0.059 C 
HETATM    8  C7  UNL     1     -34.142  17.792  -4.023  1.00 20.00     0.135 C 
BRANCH   8   9
HETATM    9  O10 UNL     1     -33.346  18.860  -4.543  1.00 20.00    -0.389 OA
HETATM   10  C8  UNL     1     -33.800  19.263  -5.824  1.00 20.00     0.202 C 
ENDBRANCH   8   9
ENDBRANCH   2   4
TORSDOF 2
ENDMDL
