MODEL 1
REMARK VINA RESULT:      -3.9      0.000      0.000
REMARK  1 active torsions:
REMARK  status: ('A' for Active; 'I' for Inactive)
REMARK    1  A    between atoms: C1_1  and  C4_4 
ROOT
HETATM    1  C2  UNL     1     -27.657  -0.437  10.124  1.00 20.00     0.014 C 
HETATM    2  C3  UNL     1     -27.217  -0.458  11.595  1.00 20.00     0.012 C 
HETATM    3  C4  UNL     1     -27.683  -1.980  10.154  1.00 20.00     0.064 C 
HETATM    4  C5  UNL     1     -26.347  -2.861  12.332  1.00 20.00    -0.000 A 
HETATM    5  C6  UNL     1     -26.741  -1.839  11.307  1.00 20.00    -0.019 A 
HETATM    6  C7  UNL     1     -25.299  -2.310  11.371  1.00 20.00    -0.035 A 
HETATM    7  C9  UNL     1     -26.812  -4.275  12.275  1.00 20.00     0.011 C 
HETATM    8  C10 UNL     1     -24.759  -3.180  10.263  1.00 20.00     0.016 C 
HETATM    9  C11 UNL     1     -24.255  -1.393  11.961  1.00 20.00     0.016 C 
ENDROOT
BRANCH   3  10
HETATM   10  C1  UNL     1     -29.018  -2.659  10.492  1.00 20.00     0.128 C 
HETATM   11  C8  UNL     1     -29.259  -4.015   9.887  1.00 20.00     0.091 C 
HETATM   12  O12 UNL     1     -29.848  -2.122  11.223  1.00 20.00    -0.298 OA
ENDBRANCH   3  10
TORSDOF 1
ENDMDL
MODEL 2
REMARK VINA RESULT:      -3.7     23.807     25.729
REMARK  1 active torsions:
REMARK  status: ('A' for Active; 'I' for Inactive)
REMARK    1  A    between atoms: C1_1  and  C4_4 
ROOT
HETATM    1  C2  UNL     1     -32.827  14.877  -4.229  1.00 20.00     0.014 C 
HETATM    2  C3  UNL     1     -34.323  14.532  -4.210  1.00 20.00     0.012 C 
HETATM    3  C4  UNL     1     -33.215  16.371  -4.218  1.00 20.00     0.064 C 
HETATM    4  C5  UNL     1     -35.827  16.628  -4.859  1.00 20.00    -0.000 A 
HETATM    5  C6  UNL     1     -34.520  15.897  -4.772  1.00 20.00    -0.019 A 
HETATM    6  C7  UNL     1     -35.104  16.218  -6.136  1.00 20.00    -0.035 A 
HETATM    7  C9  UNL     1     -35.978  18.054  -4.453  1.00 20.00     0.011 C 
HETATM    8  C10 UNL     1     -34.437  17.263  -6.996  1.00 20.00     0.016 C 
HETATM    9  C11 UNL     1     -35.732  15.107  -6.943  1.00 20.00     0.016 C 
ENDROOT
BRANCH   3  10
HETATM   10  C1  UNL     1     -33.308  17.069  -2.854  1.00 20.00     0.128 C 
HETATM   11  C8  UNL     1     -32.904  18.518  -2.807  1.00 20.00     0.091 C 
HETATM   12  O12 UNL     1     -33.696  16.474  -1.851  1.00 20.00    -0.298 OA
ENDBRANCH   3  10
TORSDOF 1
ENDMDL
MODEL 3
REMARK VINA RESULT:      -3.7     24.226     26.145
REMARK  1 active torsions:
REMARK  status: ('A' for Active; 'I' for Inactive)
REMARK    1  A    between atoms: C1_1  and  C4_4 
ROOT
HETATM    1  C2  UNL     1     -34.502  14.508  -4.271  1.00 20.00     0.014 C 
HETATM    2  C3  UNL     1     -33.353  15.511  -4.091  1.00 20.00     0.012 C 
HETATM    3  C4  UNL     1     -35.128  15.476  -5.298  1.00 20.00     0.064 C 
HETATM    4  C5  UNL     1     -33.970  17.907  -5.068  1.00 20.00    -0.000 A 
HETATM    5  C6  UNL     1     -34.317  16.523  -4.604  1.00 20.00    -0.019 A 
HETATM    6  C7  UNL     1     -34.841  17.720  -3.830  1.00 20.00    -0.035 A 
HETATM    7  C9  UNL     1     -34.501  18.485  -6.333  1.00 20.00     0.011 C 
HETATM    8  C10 UNL     1     -36.312  18.046  -3.886  1.00 20.00     0.016 C 
HETATM    9  C11 UNL     1     -34.212  18.065  -2.502  1.00 20.00     0.016 C 
ENDROOT
BRANCH   3  10
HETATM   10  C1  UNL     1     -34.776  15.263  -6.777  1.00 20.00     0.128 C 
HETATM   11  C8  UNL     1     -35.901  15.402  -7.767  1.00 20.00     0.091 C 
HETATM   12  O12 UNL     1     -33.631  14.995  -7.136  1.00 20.00    -0.298 OA
ENDBRANCH   3  10
TORSDOF 1
ENDMDL
MODEL 4
REMARK VINA RESULT:      -3.6     24.096     25.955
REMARK  1 active torsions:
REMARK  status: ('A' for Active; 'I' for Inactive)
REMARK    1  A    between atoms: C1_1  and  C4_4 
ROOT
HETATM    1  C2  UNL     1     -35.489  18.336  -5.186  1.00 20.00     0.014 C 
HETATM    2  C3  UNL     1     -34.636  17.724  -6.307  1.00 20.00     0.012 C 
HETATM    3  C4  UNL     1     -34.974  17.224  -4.247  1.00 20.00     0.064 C 
HETATM    4  C5  UNL     1     -33.850  15.253  -5.715  1.00 20.00    -0.000 A 
HETATM    5  C6  UNL     1     -34.704  16.469  -5.509  1.00 20.00    -0.019 A 
HETATM    6  C7  UNL     1     -35.354  15.171  -5.953  1.00 20.00    -0.035 A 
HETATM    7  C9  UNL     1     -33.184  14.541  -4.589  1.00 20.00     0.011 C 
HETATM    8  C10 UNL     1     -36.232  14.418  -4.985  1.00 20.00     0.016 C 
HETATM    9  C11 UNL     1     -35.805  15.031  -7.387  1.00 20.00     0.016 C 
ENDROOT
BRANCH   3  10
HETATM   10  C1  UNL     1     -33.731  17.531  -3.401  1.00 20.00     0.128 C 
HETATM   11  C8  UNL     1     -33.630  16.838  -2.070  1.00 20.00     0.091 C 
HETATM   12  O12 UNL     1     -32.859  18.305  -3.793  1.00 20.00    -0.298 OA
ENDBRANCH   3  10
TORSDOF 1
ENDMDL
MODEL 5
REMARK VINA RESULT:      -3.3     20.818     22.802
REMARK  1 active torsions:
REMARK  status: ('A' for Active; 'I' for Inactive)
REMARK    1  A    between atoms: C1_1  and  C4_4 
ROOT
HETATM    1  C2  UNL     1     -42.709  14.451   5.235  1.00 20.00     0.014 C 
HETATM    2  C3  UNL     1     -43.417  14.508   6.597  1.00 20.00     0.012 C 
HETATM    3  C4  UNL     1     -41.373  14.267   5.986  1.00 20.00     0.064 C 
HETATM    4  C5  UNL     1     -41.701  14.930   8.585  1.00 20.00    -0.000 A 
HETATM    5  C6  UNL     1     -42.087  14.904   7.135  1.00 20.00    -0.019 A 
HETATM    6  C7  UNL     1     -41.756  16.232   7.793  1.00 20.00    -0.035 A 
HETATM    7  C9  UNL     1     -40.421  14.358   9.086  1.00 20.00     0.011 C 
HETATM    8  C10 UNL     1     -40.479  16.942   7.418  1.00 20.00     0.016 C 
HETATM    9  C11 UNL     1     -42.880  17.182   8.129  1.00 20.00     0.016 C 
ENDROOT
BRANCH   3  10
HETATM   10  C1  UNL     1     -40.895  12.831   6.240  1.00 20.00     0.128 C 
HETATM   11  C8  UNL     1     -39.465  12.522   5.888  1.00 20.00     0.091 C 
HETATM   12  O12 UNL     1     -41.642  11.976   6.710  1.00 20.00    -0.298 OA
ENDBRANCH   3  10
TORSDOF 1
ENDMDL
MODEL 6
REMARK VINA RESULT:      -3.3     21.139     22.929
REMARK  1 active torsions:
REMARK  status: ('A' for Active; 'I' for Inactive)
REMARK    1  A    between atoms: C1_1  and  C4_4 
ROOT
HETATM    1  C2  UNL     1     -41.509  12.436   6.332  1.00 20.00     0.014 C 
HETATM    2  C3  UNL     1     -40.255  13.250   6.682  1.00 20.00     0.012 C 
HETATM    3  C4  UNL     1     -42.274  13.767   6.166  1.00 20.00     0.064 C 
HETATM    4  C5  UNL     1     -40.851  15.770   7.290  1.00 20.00    -0.000 A 
HETATM    5  C6  UNL     1     -41.209  14.333   7.049  1.00 20.00    -0.019 A 
HETATM    6  C7  UNL     1     -41.390  14.922   8.437  1.00 20.00    -0.035 A 
HETATM    7  C9  UNL     1     -41.626  16.899   6.704  1.00 20.00     0.011 C 
HETATM    8  C10 UNL     1     -42.785  15.158   8.960  1.00 20.00     0.016 C 
HETATM    9  C11 UNL     1     -40.409  14.551   9.523  1.00 20.00     0.016 C 
ENDROOT
BRANCH   3  10
HETATM   10  C1  UNL     1     -42.337  14.376   4.759  1.00 20.00     0.128 C 
HETATM   11  C8  UNL     1     -43.417  15.393   4.510  1.00 20.00     0.091 C 
HETATM   12  O12 UNL     1     -41.542  14.051   3.879  1.00 20.00    -0.298 OA
ENDBRANCH   3  10
TORSDOF 1
ENDMDL
MODEL 7
REMARK VINA RESULT:      -3.3     24.734     26.792
REMARK  1 active torsions:
REMARK  status: ('A' for Active; 'I' for Inactive)
REMARK    1  A    between atoms: C1_1  and  C4_4 
ROOT
HETATM    1  C2  UNL     1     -36.952  17.483  -4.730  1.00 20.00     0.014 C 
HETATM    2  C3  UNL     1     -37.313  16.272  -5.601  1.00 20.00     0.012 C 
HETATM    3  C4  UNL     1     -35.548  17.473  -5.372  1.00 20.00     0.064 C 
HETATM    4  C5  UNL     1     -35.150  15.114  -6.628  1.00 20.00    -0.000 A 
HETATM    5  C6  UNL     1     -35.844  16.039  -5.673  1.00 20.00    -0.019 A 
HETATM    6  C7  UNL     1     -35.112  14.823  -5.132  1.00 20.00    -0.035 A 
HETATM    7  C9  UNL     1     -33.934  15.513  -7.390  1.00 20.00     0.011 C 
HETATM    8  C10 UNL     1     -33.834  15.017  -4.356  1.00 20.00     0.016 C 
HETATM    9  C11 UNL     1     -35.916  13.638  -4.653  1.00 20.00     0.016 C 
ENDROOT
BRANCH   3  10
HETATM   10  C1  UNL     1     -35.329  18.358  -6.607  1.00 20.00     0.128 C 
HETATM   11  C8  UNL     1     -34.042  19.137  -6.661  1.00 20.00     0.091 C 
HETATM   12  O12 UNL     1     -36.161  18.426  -7.509  1.00 20.00    -0.298 OA
ENDBRANCH   3  10
TORSDOF 1
ENDMDL
MODEL 8
REMARK VINA RESULT:      -3.3     24.258     26.389
REMARK  1 active torsions:
REMARK  status: ('A' for Active; 'I' for Inactive)
REMARK    1  A    between atoms: C1_1  and  C4_4 
ROOT
HETATM    1  C2  UNL     1     -35.650  14.982  -6.804  1.00 20.00     0.014 C 
HETATM    2  C3  UNL     1     -36.687  15.711  -5.937  1.00 20.00     0.012 C 
HETATM    3  C4  UNL     1     -34.544  15.581  -5.910  1.00 20.00     0.064 C 
HETATM    4  C5  UNL     1     -35.567  17.608  -4.446  1.00 20.00    -0.000 A 
HETATM    5  C6  UNL     1     -35.564  16.620  -5.575  1.00 20.00    -0.019 A 
HETATM    6  C7  UNL     1     -35.492  18.105  -5.885  1.00 20.00    -0.035 A 
HETATM    7  C9  UNL     1     -34.427  17.746  -3.497  1.00 20.00     0.011 C 
HETATM    8  C10 UNL     1     -34.205  18.684  -6.418  1.00 20.00     0.016 C 
HETATM    9  C11 UNL     1     -36.718  18.800  -6.427  1.00 20.00     0.016 C 
ENDROOT
BRANCH   3  10
HETATM   10  C1  UNL     1     -34.065  14.740  -4.718  1.00 20.00     0.128 C 
HETATM   11  C8  UNL     1     -32.673  15.012  -4.214  1.00 20.00     0.091 C 
HETATM   12  O12 UNL     1     -34.783  13.888  -4.199  1.00 20.00    -0.298 OA
ENDBRANCH   3  10
TORSDOF 1
ENDMDL
MODEL 9
REMARK VINA RESULT:      -3.2     21.864     23.336
REMARK  1 active torsions:
REMARK  status: ('A' for Active; 'I' for Inactive)
REMARK    1  A    between atoms: C1_1  and  C4_4 
ROOT
HETATM    1  C2  UNL     1     -40.214  14.656   9.067  1.00 20.00     0.014 C 
HETATM    2  C3  UNL     1     -41.695  14.282   9.228  1.00 20.00     0.012 C 
HETATM    3  C4  UNL     1     -40.611  15.532   7.859  1.00 20.00     0.064 C 
HETATM    4  C5  UNL     1     -43.106  14.878   7.053  1.00 20.00    -0.000 A 
HETATM    5  C6  UNL     1     -41.819  14.654   7.792  1.00 20.00    -0.019 A 
HETATM    6  C7  UNL     1     -42.203  13.713   6.663  1.00 20.00    -0.035 A 
HETATM    7  C9  UNL     1     -43.325  16.049   6.159  1.00 20.00     0.011 C 
HETATM    8  C10 UNL     1     -41.427  13.760   5.370  1.00 20.00     0.016 C 
HETATM    9  C11 UNL     1     -42.699  12.328   7.001  1.00 20.00     0.016 C 
ENDROOT
BRANCH   3  10
HETATM   10  C1  UNL     1     -40.905  17.014   8.127  1.00 20.00     0.128 C 
HETATM   11  C8  UNL     1     -40.466  17.992   7.071  1.00 20.00     0.091 C 
HETATM   12  O12 UNL     1     -41.474  17.384   9.152  1.00 20.00    -0.298 OA
ENDBRANCH   3  10
TORSDOF 1
ENDMDL
