MODEL 1
REMARK VINA RESULT:      -3.7      0.000      0.000
REMARK  1 active torsions:
REMARK  status: ('A' for Active; 'I' for Inactive)
REMARK    1  A    between atoms: C3_3  and  C6_6 
ROOT
HETATM    1  C1  UNL     1     -33.476  15.180  -4.235  1.00 20.00    -0.024 C 
HETATM    2  C2  UNL     1     -33.809  16.354  -3.666  1.00 20.00    -0.083 C 
HETATM    3  C4  UNL     1     -33.721  14.839  -5.675  1.00 20.00     0.032 C 
HETATM    4  C5  UNL     1     -34.508  17.458  -4.451  1.00 20.00     0.021 C 
HETATM    5  C6  UNL     1     -35.100  16.967  -5.799  1.00 20.00     0.066 C 
HETATM    6  C7  UNL     1     -34.091  16.060  -6.531  1.00 20.00    -0.003 C 
HETATM    7  C8  UNL     1     -33.442  16.633  -2.234  1.00 20.00     0.043 C 
HETATM    8  C10 UNL     1     -35.561  18.222  -3.634  1.00 20.00     0.015 C 
HETATM    9  C11 UNL     1     -34.572  15.630  -7.917  1.00 20.00     0.011 C 
ENDROOT
BRANCH   5  10
HETATM   10  C3  UNL     1     -36.417  16.259  -5.616  1.00 20.00     0.128 C 
HETATM   11  C9  UNL     1     -37.641  16.957  -6.145  1.00 20.00     0.091 C 
HETATM   12  O12 UNL     1     -36.489  15.163  -5.063  1.00 20.00    -0.298 OA
ENDBRANCH   5  10
TORSDOF 1
ENDMDL
MODEL 2
REMARK VINA RESULT:      -3.2     14.037     15.537
REMARK  1 active torsions:
REMARK  status: ('A' for Active; 'I' for Inactive)
REMARK    1  A    between atoms: C3_3  and  C6_6 
ROOT
HETATM    1  C1  UNL     1     -40.101  15.240   9.228  1.00 20.00    -0.024 C 
HETATM    2  C2  UNL     1     -40.973  14.728  10.115  1.00 20.00    -0.083 C 
HETATM    3  C4  UNL     1     -40.455  15.638   7.825  1.00 20.00     0.032 C 
HETATM    4  C5  UNL     1     -42.433  14.477   9.753  1.00 20.00     0.021 C 
HETATM    5  C6  UNL     1     -42.699  14.517   8.225  1.00 20.00     0.066 C 
HETATM    6  C7  UNL     1     -41.971  15.715   7.585  1.00 20.00    -0.003 C 
HETATM    7  C8  UNL     1     -40.539  14.444  11.527  1.00 20.00     0.043 C 
HETATM    8  C10 UNL     1     -43.010  13.198  10.378  1.00 20.00     0.015 C 
HETATM    9  C11 UNL     1     -42.280  15.874   6.096  1.00 20.00     0.011 C 
ENDROOT
BRANCH   5  10
HETATM   10  C3  UNL     1     -42.304  13.231   7.546  1.00 20.00     0.128 C 
HETATM   11  C9  UNL     1     -43.417  12.411   6.950  1.00 20.00     0.091 C 
HETATM   12  O12 UNL     1     -41.131  12.869   7.482  1.00 20.00    -0.298 OA
ENDBRANCH   5  10
TORSDOF 1
ENDMDL
MODEL 3
REMARK VINA RESULT:      -3.2     13.996     15.616
REMARK  1 active torsions:
REMARK  status: ('A' for Active; 'I' for Inactive)
REMARK    1  A    between atoms: C3_3  and  C6_6 
ROOT
HETATM    1  C1  UNL     1     -41.029  14.424  10.511  1.00 20.00    -0.024 C 
HETATM    2  C2  UNL     1     -42.134  13.718  10.208  1.00 20.00    -0.083 C 
HETATM    3  C4  UNL     1     -40.417  15.463   9.619  1.00 20.00     0.032 C 
HETATM    4  C5  UNL     1     -42.864  13.900   8.883  1.00 20.00     0.021 C 
HETATM    5  C6  UNL     1     -42.029  14.668   7.825  1.00 20.00     0.066 C 
HETATM    6  C7  UNL     1     -41.341  15.889   8.467  1.00 20.00    -0.003 C 
HETATM    7  C8  UNL     1     -42.719  12.760  11.209  1.00 20.00     0.043 C 
HETATM    8  C10 UNL     1     -43.417  12.590   8.300  1.00 20.00     0.015 C 
HETATM    9  C11 UNL     1     -40.588  16.750   7.453  1.00 20.00     0.011 C 
ENDROOT
BRANCH   5  10
HETATM   10  C3  UNL     1     -41.015  13.781   7.149  1.00 20.00     0.128 C 
HETATM   11  C9  UNL     1     -41.182  13.569   5.668  1.00 20.00     0.091 C 
HETATM   12  O12 UNL     1     -40.096  13.257   7.776  1.00 20.00    -0.298 OA
ENDBRANCH   5  10
TORSDOF 1
ENDMDL
MODEL 4
REMARK VINA RESULT:      -3.2      1.901      3.541
REMARK  1 active torsions:
REMARK  status: ('A' for Active; 'I' for Inactive)
REMARK    1  A    between atoms: C3_3  and  C6_6 
ROOT
HETATM    1  C1  UNL     1     -33.264  16.613  -2.907  1.00 20.00    -0.024 C 
HETATM    2  C2  UNL     1     -33.550  15.821  -3.957  1.00 20.00    -0.083 C 
HETATM    3  C4  UNL     1     -34.061  17.823  -2.518  1.00 20.00     0.032 C 
HETATM    4  C5  UNL     1     -34.725  16.109  -4.884  1.00 20.00     0.021 C 
HETATM    5  C6  UNL     1     -35.295  17.543  -4.720  1.00 20.00     0.066 C 
HETATM    6  C7  UNL     1     -35.422  17.902  -3.227  1.00 20.00    -0.003 C 
HETATM    7  C8  UNL     1     -32.741  14.579  -4.211  1.00 20.00     0.043 C 
HETATM    8  C10 UNL     1     -34.434  15.799  -6.360  1.00 20.00     0.015 C 
HETATM    9  C11 UNL     1     -36.080  19.263  -2.996  1.00 20.00     0.011 C 
ENDROOT
BRANCH   5  10
HETATM   10  C3  UNL     1     -34.465  18.570  -5.446  1.00 20.00     0.128 C 
HETATM   11  C9  UNL     1     -35.110  19.253  -6.621  1.00 20.00     0.091 C 
HETATM   12  O12 UNL     1     -33.318  18.837  -5.094  1.00 20.00    -0.298 OA
ENDBRANCH   5  10
TORSDOF 1
ENDMDL
MODEL 5
REMARK VINA RESULT:      -3.2      1.326      2.984
REMARK  1 active torsions:
REMARK  status: ('A' for Active; 'I' for Inactive)
REMARK    1  A    between atoms: C3_3  and  C6_6 
ROOT
HETATM    1  C1  UNL     1     -35.075  18.020  -3.726  1.00 20.00    -0.024 C 
HETATM    2  C2  UNL     1     -34.286  16.961  -3.468  1.00 20.00    -0.083 C 
HETATM    3  C4  UNL     1     -36.153  18.039  -4.769  1.00 20.00     0.032 C 
HETATM    4  C5  UNL     1     -34.406  15.660  -4.254  1.00 20.00     0.021 C 
HETATM    5  C6  UNL     1     -35.230  15.809  -5.560  1.00 20.00     0.066 C 
HETATM    6  C7  UNL     1     -36.502  16.639  -5.301  1.00 20.00    -0.003 C 
HETATM    7  C8  UNL     1     -33.292  17.013  -2.341  1.00 20.00     0.043 C 
HETATM    8  C10 UNL     1     -33.055  14.982  -4.530  1.00 20.00     0.015 C 
HETATM    9  C11 UNL     1     -37.412  16.732  -6.526  1.00 20.00     0.011 C 
ENDROOT
BRANCH   5  10
HETATM   10  C3  UNL     1     -34.418  16.413  -6.677  1.00 20.00     0.128 C 
HETATM   11  C9  UNL     1     -34.086  15.513  -7.836  1.00 20.00     0.091 C 
HETATM   12  O12 UNL     1     -34.046  17.585  -6.643  1.00 20.00    -0.298 OA
ENDBRANCH   5  10
TORSDOF 1
ENDMDL
MODEL 6
REMARK VINA RESULT:      -3.1     12.901     14.098
REMARK  1 active torsions:
REMARK  status: ('A' for Active; 'I' for Inactive)
REMARK    1  A    between atoms: C3_3  and  C6_6 
ROOT
HETATM    1  C1  UNL     1     -41.297  13.268   5.194  1.00 20.00    -0.024 C 
HETATM    2  C2  UNL     1     -40.413  13.335   6.206  1.00 20.00    -0.083 C 
HETATM    3  C4  UNL     1     -42.362  14.291   4.932  1.00 20.00     0.032 C 
HETATM    4  C5  UNL     1     -40.434  14.475   7.217  1.00 20.00     0.021 C 
HETATM    5  C6  UNL     1     -41.748  15.300   7.180  1.00 20.00     0.066 C 
HETATM    6  C7  UNL     1     -42.157  15.593   5.723  1.00 20.00    -0.003 C 
HETATM    7  C8  UNL     1     -39.326  12.303   6.331  1.00 20.00     0.043 C 
HETATM    8  C10 UNL     1     -40.105  14.031   8.651  1.00 20.00     0.015 C 
HETATM    9  C11 UNL     1     -43.386  16.495   5.619  1.00 20.00     0.011 C 
ENDROOT
BRANCH   5  10
HETATM   10  C3  UNL     1     -42.869  14.617   7.920  1.00 20.00     0.128 C 
HETATM   11  C9  UNL     1     -43.417  15.330   9.126  1.00 20.00     0.091 C 
HETATM   12  O12 UNL     1     -43.314  13.530   7.555  1.00 20.00    -0.298 OA
ENDBRANCH   5  10
TORSDOF 1
ENDMDL
MODEL 7
REMARK VINA RESULT:      -3.1      1.718      3.432
REMARK  1 active torsions:
REMARK  status: ('A' for Active; 'I' for Inactive)
REMARK    1  A    between atoms: C3_3  and  C6_6 
ROOT
HETATM    1  C1  UNL     1     -34.527  16.331  -7.657  1.00 20.00    -0.024 C 
HETATM    2  C2  UNL     1     -34.411  17.543  -7.084  1.00 20.00    -0.083 C 
HETATM    3  C4  UNL     1     -35.123  15.130  -6.984  1.00 20.00     0.032 C 
HETATM    4  C5  UNL     1     -34.863  17.801  -5.652  1.00 20.00     0.021 C 
HETATM    5  C6  UNL     1     -35.108  16.498  -4.845  1.00 20.00     0.066 C 
HETATM    6  C7  UNL     1     -35.887  15.477  -5.697  1.00 20.00    -0.003 C 
HETATM    7  C8  UNL     1     -33.880  18.707  -7.875  1.00 20.00     0.043 C 
HETATM    8  C10 UNL     1     -33.945  18.761  -4.880  1.00 20.00     0.015 C 
HETATM    9  C11 UNL     1     -36.254  14.211  -4.922  1.00 20.00     0.011 C 
ENDROOT
BRANCH   5  10
HETATM   10  C3  UNL     1     -33.824  15.897  -4.335  1.00 20.00     0.128 C 
HETATM   11  C9  UNL     1     -33.414  16.263  -2.934  1.00 20.00     0.091 C 
HETATM   12  O12 UNL     1     -33.144  15.142  -5.030  1.00 20.00    -0.298 OA
ENDBRANCH   5  10
TORSDOF 1
ENDMDL
MODEL 8
REMARK VINA RESULT:      -3.1     13.676     15.339
REMARK  1 active torsions:
REMARK  status: ('A' for Active; 'I' for Inactive)
REMARK    1  A    between atoms: C3_3  and  C6_6 
ROOT
HETATM    1  C1  UNL     1     -42.762  13.094   6.347  1.00 20.00    -0.024 C 
HETATM    2  C2  UNL     1     -42.566  14.398   6.073  1.00 20.00    -0.083 C 
HETATM    3  C4  UNL     1     -42.958  12.539   7.726  1.00 20.00     0.032 C 
HETATM    4  C5  UNL     1     -42.497  15.448   7.176  1.00 20.00     0.021 C 
HETATM    5  C6  UNL     1     -42.310  14.837   8.591  1.00 20.00     0.066 C 
HETATM    6  C7  UNL     1     -43.240  13.623   8.779  1.00 20.00    -0.003 C 
HETATM    7  C8  UNL     1     -42.468  14.866   4.648  1.00 20.00     0.043 C 
HETATM    8  C10 UNL     1     -41.461  16.550   6.912  1.00 20.00     0.015 C 
HETATM    9  C11 UNL     1     -43.181  13.041  10.191  1.00 20.00     0.011 C 
ENDROOT
BRANCH   5  10
HETATM   10  C3  UNL     1     -40.876  14.456   8.859  1.00 20.00     0.128 C 
HETATM   11  C9  UNL     1     -40.189  15.165   9.995  1.00 20.00     0.091 C 
HETATM   12  O12 UNL     1     -40.297  13.607   8.183  1.00 20.00    -0.298 OA
ENDBRANCH   5  10
TORSDOF 1
ENDMDL
MODEL 9
REMARK VINA RESULT:      -3.0      1.723      3.616
REMARK  1 active torsions:
REMARK  status: ('A' for Active; 'I' for Inactive)
REMARK    1  A    between atoms: C3_3  and  C6_6 
ROOT
HETATM    1  C1  UNL     1     -35.345  15.638  -7.247  1.00 20.00    -0.024 C 
HETATM    2  C2  UNL     1     -36.387  16.331  -6.751  1.00 20.00    -0.083 C 
HETATM    3  C4  UNL     1     -34.154  15.209  -6.442  1.00 20.00     0.032 C 
HETATM    4  C5  UNL     1     -36.435  16.775  -5.293  1.00 20.00     0.021 C 
HETATM    5  C6  UNL     1     -35.061  16.676  -4.578  1.00 20.00     0.066 C 
HETATM    6  C7  UNL     1     -34.369  15.344  -4.926  1.00 20.00    -0.003 C 
HETATM    7  C8  UNL     1     -37.575  16.638  -7.620  1.00 20.00     0.043 C 
HETATM    8  C10 UNL     1     -37.060  18.164  -5.093  1.00 20.00     0.015 C 
HETATM    9  C11 UNL     1     -33.058  15.138  -4.168  1.00 20.00     0.011 C 
ENDROOT
BRANCH   5  10
HETATM   10  C3  UNL     1     -34.166  17.843  -4.908  1.00 20.00     0.128 C 
HETATM   11  C9  UNL     1     -33.433  18.479  -3.757  1.00 20.00     0.091 C 
HETATM   12  O12 UNL     1     -34.039  18.254  -6.060  1.00 20.00    -0.298 OA
ENDBRANCH   5  10
TORSDOF 1
ENDMDL
