MODEL 1
REMARK VINA RESULT:      -6.0      0.000      0.000
REMARK  0 active torsions:
REMARK  status: ('A' for Active; 'I' for Inactive)
ROOT
HETATM    1  C1  UNL     1     -33.653   5.663   6.594  1.00 20.00     0.012 A 
HETATM    2  C2  UNL     1     -32.453   7.028   3.146  1.00 20.00     0.006 A 
HETATM    3  C3  UNL     1     -34.171   4.386   4.624  1.00 20.00     0.101 C 
HETATM    4  C4  UNL     1     -34.611   5.105   5.849  1.00 20.00     0.016 A 
HETATM    5  C5  UNL     1     -33.455   6.302   3.666  1.00 20.00     0.035 A 
HETATM    6  C6  UNL     1     -32.137   8.685   5.086  1.00 20.00     0.015 A 
HETATM    7  C7  UNL     1     -34.559   6.560   5.944  1.00 20.00     0.017 A 
HETATM    8  C8  UNL     1     -32.425   8.417   3.635  1.00 20.00     0.015 A 
HETATM    9  C9  UNL     1     -34.294   7.185   4.600  1.00 20.00     0.048 A 
HETATM   10  C10 UNL     1     -33.566   8.518   4.637  1.00 20.00     0.004 A 
HETATM   11  N11 UNL     1     -33.638   4.944   3.576  1.00 20.00    -0.269 NA
ENDROOT
TORSDOF 0
ENDMDL
MODEL 2
REMARK VINA RESULT:      -5.9      1.489      3.469
REMARK  0 active torsions:
REMARK  status: ('A' for Active; 'I' for Inactive)
ROOT
HETATM    1  C1  UNL     1     -32.489   5.213   3.097  1.00 20.00     0.012 A 
HETATM    2  C2  UNL     1     -33.553   7.292   6.219  1.00 20.00     0.006 A 
HETATM    3  C3  UNL     1     -32.072   7.580   3.082  1.00 20.00     0.101 C 
HETATM    4  C4  UNL     1     -32.687   6.374   2.467  1.00 20.00     0.016 A 
HETATM    5  C5  UNL     1     -33.416   7.436   4.891  1.00 20.00     0.035 A 
HETATM    6  C6  UNL     1     -34.397   4.863   6.250  1.00 20.00     0.015 A 
HETATM    7  C7  UNL     1     -33.832   5.705   3.073  1.00 20.00     0.017 A 
HETATM    8  C8  UNL     1     -34.590   6.314   6.594  1.00 20.00     0.015 A 
HETATM    9  C9  UNL     1     -34.434   6.541   4.171  1.00 20.00     0.048 A 
HETATM   10  C10 UNL     1     -35.121   5.761   5.279  1.00 20.00     0.004 A 
HETATM   11  N11 UNL     1     -32.421   8.104   4.221  1.00 20.00    -0.269 NA
ENDROOT
TORSDOF 0
ENDMDL
MODEL 3
REMARK VINA RESULT:      -5.1      1.471      2.359
REMARK  0 active torsions:
REMARK  status: ('A' for Active; 'I' for Inactive)
ROOT
HETATM    1  C1  UNL     1     -35.431   6.019   4.062  1.00 20.00     0.012 A 
HETATM    2  C2  UNL     1     -32.807   8.651   5.239  1.00 20.00     0.006 A 
HETATM    3  C3  UNL     1     -34.781   6.020   6.377  1.00 20.00     0.101 C 
HETATM    4  C4  UNL     1     -34.926   5.312   5.077  1.00 20.00     0.016 A 
HETATM    5  C5  UNL     1     -33.209   7.404   5.534  1.00 20.00     0.035 A 
HETATM    6  C6  UNL     1     -33.110   8.553   2.687  1.00 20.00     0.015 A 
HETATM    7  C7  UNL     1     -34.064   5.614   3.940  1.00 20.00     0.017 A 
HETATM    8  C8  UNL     1     -32.232   8.773   3.888  1.00 20.00     0.015 A 
HETATM    9  C9  UNL     1     -32.899   6.474   4.352  1.00 20.00     0.048 A 
HETATM   10  C10 UNL     1     -32.351   7.388   3.269  1.00 20.00     0.004 A 
HETATM   11  N11 UNL     1     -33.958   7.000   6.611  1.00 20.00    -0.269 NA
ENDROOT
TORSDOF 0
ENDMDL
MODEL 4
REMARK VINA RESULT:      -4.8     15.323     16.343
REMARK  0 active torsions:
REMARK  status: ('A' for Active; 'I' for Inactive)
ROOT
HETATM    1  C1  UNL     1     -24.401  16.408  11.599  1.00 20.00     0.012 A 
HETATM    2  C2  UNL     1     -23.892  19.114   8.840  1.00 20.00     0.006 A 
HETATM    3  C3  UNL     1     -25.725  18.411  11.714  1.00 20.00     0.101 C 
HETATM    4  C4  UNL     1     -24.758  17.465  12.332  1.00 20.00     0.016 A 
HETATM    5  C5  UNL     1     -24.231  19.025  10.136  1.00 20.00     0.035 A 
HETATM    6  C6  UNL     1     -22.153  17.220   8.773  1.00 20.00     0.015 A 
HETATM    7  C7  UNL     1     -23.378  17.370  11.870  1.00 20.00     0.017 A 
HETATM    8  C8  UNL     1     -22.515  18.665   8.566  1.00 20.00     0.015 A 
HETATM    9  C9  UNL     1     -23.033  18.506  10.943  1.00 20.00     0.048 A 
HETATM   10  C10 UNL     1     -21.967  18.196   9.906  1.00 20.00     0.004 A 
HETATM   11  N11 UNL     1     -25.482  19.168  10.684  1.00 20.00    -0.269 NA
ENDROOT
TORSDOF 0
ENDMDL
MODEL 5
REMARK VINA RESULT:      -4.1      1.263      3.342
REMARK  0 active torsions:
REMARK  status: ('A' for Active; 'I' for Inactive)
ROOT
HETATM    1  C1  UNL     1     -34.114   8.880   4.896  1.00 20.00     0.012 A 
HETATM    2  C2  UNL     1     -33.543   5.382   3.274  1.00 20.00     0.006 A 
HETATM    3  C3  UNL     1     -32.062   8.503   3.703  1.00 20.00     0.101 C 
HETATM    4  C4  UNL     1     -32.780   8.886   4.947  1.00 20.00     0.016 A 
HETATM    5  C5  UNL     1     -32.836   6.385   3.820  1.00 20.00     0.035 A 
HETATM    6  C6  UNL     1     -35.605   5.493   4.806  1.00 20.00     0.015 A 
HETATM    7  C7  UNL     1     -33.504   7.905   5.747  1.00 20.00     0.017 A 
HETATM    8  C8  UNL     1     -34.451   4.722   4.228  1.00 20.00     0.015 A 
HETATM    9  C9  UNL     1     -33.182   6.500   5.310  1.00 20.00     0.048 A 
HETATM   10  C10 UNL     1     -34.286   5.482   5.536  1.00 20.00     0.004 A 
HETATM   11  N11 UNL     1     -32.066   7.316   3.168  1.00 20.00    -0.269 NA
ENDROOT
TORSDOF 0
ENDMDL
MODEL 6
REMARK VINA RESULT:      -4.0      1.480      3.228
REMARK  0 active torsions:
REMARK  status: ('A' for Active; 'I' for Inactive)
ROOT
HETATM    1  C1  UNL     1     -32.556   8.077   5.051  1.00 20.00     0.012 A 
HETATM    2  C2  UNL     1     -34.023   4.468   4.893  1.00 20.00     0.006 A 
HETATM    3  C3  UNL     1     -34.130   7.415   6.742  1.00 20.00     0.101 C 
HETATM    4  C4  UNL     1     -33.718   8.340   5.654  1.00 20.00     0.016 A 
HETATM    5  C5  UNL     1     -34.376   5.700   5.294  1.00 20.00     0.035 A 
HETATM    6  C6  UNL     1     -32.650   5.124   2.820  1.00 20.00     0.015 A 
HETATM    7  C7  UNL     1     -33.735   7.932   4.254  1.00 20.00     0.017 A 
HETATM    8  C8  UNL     1     -33.795   4.372   3.440  1.00 20.00     0.015 A 
HETATM    9  C9  UNL     1     -34.467   6.628   4.075  1.00 20.00     0.048 A 
HETATM   10  C10 UNL     1     -34.005   5.780   2.902  1.00 20.00     0.004 A 
HETATM   11  N11 UNL     1     -34.462   6.167   6.582  1.00 20.00    -0.269 NA
ENDROOT
TORSDOF 0
ENDMDL
MODEL 7
REMARK VINA RESULT:      -3.9     12.292     13.692
REMARK  0 active torsions:
REMARK  status: ('A' for Active; 'I' for Inactive)
ROOT
HETATM    1  C1  UNL     1     -35.849  16.621  -5.227  1.00 20.00     0.012 A 
HETATM    2  C2  UNL     1     -33.490  16.708  -2.125  1.00 20.00     0.006 A 
HETATM    3  C3  UNL     1     -34.017  15.067  -5.149  1.00 20.00     0.101 C 
HETATM    4  C4  UNL     1     -34.753  16.161  -5.836  1.00 20.00     0.016 A 
HETATM    5  C5  UNL     1     -33.446  16.423  -3.436  1.00 20.00     0.035 A 
HETATM    6  C6  UNL     1     -35.159  18.661  -2.216  1.00 20.00     0.015 A 
HETATM    7  C7  UNL     1     -34.746  17.528  -5.324  1.00 20.00     0.017 A 
HETATM    8  C8  UNL     1     -33.807  18.119  -1.845  1.00 20.00     0.015 A 
HETATM    9  C9  UNL     1     -33.710  17.701  -4.245  1.00 20.00     0.048 A 
HETATM   10  C10 UNL     1     -34.027  18.763  -3.206  1.00 20.00     0.004 A 
HETATM   11  N11 UNL     1     -33.378  15.183  -4.021  1.00 20.00    -0.269 NA
ENDROOT
TORSDOF 0
ENDMDL
MODEL 8
REMARK VINA RESULT:      -3.8     12.594     14.344
REMARK  0 active torsions:
REMARK  status: ('A' for Active; 'I' for Inactive)
ROOT
HETATM    1  C1  UNL     1     -34.049  15.654  -7.506  1.00 20.00     0.012 A 
HETATM    2  C2  UNL     1     -33.819  17.205  -3.937  1.00 20.00     0.006 A 
HETATM    3  C3  UNL     1     -35.371  17.604  -7.027  1.00 20.00     0.101 C 
HETATM    4  C4  UNL     1     -35.272  16.189  -7.476  1.00 20.00     0.016 A 
HETATM    5  C5  UNL     1     -34.704  17.067  -4.938  1.00 20.00     0.035 A 
HETATM    6  C6  UNL     1     -32.634  14.935  -4.162  1.00 20.00     0.015 A 
HETATM    7  C7  UNL     1     -34.959  15.111  -6.545  1.00 20.00     0.017 A 
HETATM    8  C8  UNL     1     -33.412  15.922  -3.338  1.00 20.00     0.015 A 
HETATM    9  C9  UNL     1     -35.044  15.581  -5.117  1.00 20.00     0.048 A 
HETATM   10  C10 UNL     1     -34.138  14.852  -4.139  1.00 20.00     0.004 A 
HETATM   11  N11 UNL     1     -35.122  18.029  -5.823  1.00 20.00    -0.269 NA
ENDROOT
TORSDOF 0
ENDMDL
MODEL 9
REMARK VINA RESULT:      -3.8     12.331     13.695
REMARK  0 active torsions:
REMARK  status: ('A' for Active; 'I' for Inactive)
ROOT
HETATM    1  C1  UNL     1     -33.704  16.326  -2.443  1.00 20.00     0.012 A 
HETATM    2  C2  UNL     1     -36.282  16.231  -5.365  1.00 20.00     0.006 A 
HETATM    3  C3  UNL     1     -34.259  18.394  -3.535  1.00 20.00     0.101 C 
HETATM    4  C4  UNL     1     -33.248  17.392  -3.104  1.00 20.00     0.016 A 
HETATM    5  C5  UNL     1     -35.205  16.931  -4.972  1.00 20.00     0.035 A 
HETATM    6  C6  UNL     1     -35.536  13.906  -4.561  1.00 20.00     0.015 A 
HETATM    7  C7  UNL     1     -33.148  16.082  -3.738  1.00 20.00     0.017 A 
HETATM    8  C8  UNL     1     -35.981  14.821  -5.668  1.00 20.00     0.015 A 
HETATM    9  C9  UNL     1     -33.968  16.023  -5.000  1.00 20.00     0.048 A 
HETATM   10  C10 UNL     1     -34.500  14.648  -5.365  1.00 20.00     0.004 A 
HETATM   11  N11 UNL     1     -35.180  18.193  -4.433  1.00 20.00    -0.269 NA
ENDROOT
TORSDOF 0
ENDMDL
