MODEL 1
REMARK VINA RESULT:      -3.8      0.000      0.000
REMARK  1 active torsions:
REMARK  status: ('A' for Active; 'I' for Inactive)
REMARK    1  A    between atoms: C2_2  and  C6_6 
ROOT
HETATM    1  C1  UNL     1     -33.867  15.323  -4.250  1.00 20.00     0.139 C 
HETATM    2  C3  UNL     1     -33.648  16.048  -2.939  1.00 20.00     0.089 C 
HETATM    3  C4  UNL     1     -33.184  17.479  -3.158  1.00 20.00     0.081 C 
HETATM    4  C5  UNL     1     -34.495  17.365  -5.569  1.00 20.00     0.093 C 
HETATM    5  C6  UNL     1     -34.882  15.935  -5.204  1.00 20.00     0.133 C 
HETATM    6  O8  UNL     1     -33.296  14.259  -4.488  1.00 20.00    -0.297 OA
HETATM    7  S10 UNL     1     -34.406  18.436  -4.101  1.00 20.00    -0.168 SA
ENDROOT
BRANCH   5   8
HETATM    8  C2  UNL     1     -35.036  15.143  -6.467  1.00 20.00     0.135 C 
HETATM    9  C7  UNL     1     -34.096  15.477  -7.594  1.00 20.00     0.091 C 
HETATM   10  O9  UNL     1     -35.889  14.263  -6.577  1.00 20.00    -0.298 OA
ENDBRANCH   5   8
TORSDOF 1
ENDMDL
MODEL 2
REMARK VINA RESULT:      -3.7     12.179     13.457
REMARK  1 active torsions:
REMARK  status: ('A' for Active; 'I' for Inactive)
REMARK    1  A    between atoms: C2_2  and  C6_6 
ROOT
HETATM    1  C1  UNL     1     -33.650   5.891   3.757  1.00 20.00     0.139 C 
HETATM    2  C3  UNL     1     -34.742   5.123   4.471  1.00 20.00     0.089 C 
HETATM    3  C4  UNL     1     -34.507   5.075   5.972  1.00 20.00     0.081 C 
HETATM    4  C5  UNL     1     -33.130   7.433   5.669  1.00 20.00     0.093 C 
HETATM    5  C6  UNL     1     -33.449   7.338   4.180  1.00 20.00     0.133 C 
HETATM    6  O8  UNL     1     -33.013   5.378   2.837  1.00 20.00    -0.297 OA
HETATM    7  S10 UNL     1     -34.467   6.743   6.691  1.00 20.00    -0.168 SA
ENDROOT
BRANCH   5   8
HETATM    8  C2  UNL     1     -32.355   8.017   3.412  1.00 20.00     0.135 C 
HETATM    9  C7  UNL     1     -32.776   8.873   2.248  1.00 20.00     0.091 C 
HETATM   10  O9  UNL     1     -31.171   7.881   3.719  1.00 20.00    -0.298 OA
ENDBRANCH   5   8
TORSDOF 1
ENDMDL
MODEL 3
REMARK VINA RESULT:      -3.6     13.027     14.100
REMARK  1 active torsions:
REMARK  status: ('A' for Active; 'I' for Inactive)
REMARK    1  A    between atoms: C2_2  and  C6_6 
ROOT
HETATM    1  C1  UNL     1     -42.250  12.996   6.729  1.00 20.00     0.139 C 
HETATM    2  C3  UNL     1     -43.386  13.991   6.837  1.00 20.00     0.089 C 
HETATM    3  C4  UNL     1     -43.047  15.131   7.784  1.00 20.00     0.081 C 
HETATM    4  C5  UNL     1     -40.415  14.656   7.157  1.00 20.00     0.093 C 
HETATM    5  C6  UNL     1     -40.915  13.539   6.244  1.00 20.00     0.133 C 
HETATM    6  O8  UNL     1     -42.431  11.800   6.959  1.00 20.00    -0.297 OA
HETATM    7  S10 UNL     1     -41.584  16.048   7.222  1.00 20.00    -0.168 SA
ENDROOT
BRANCH   5   8
HETATM    8  C2  UNL     1     -39.857  12.480   6.161  1.00 20.00     0.135 C 
HETATM    9  C7  UNL     1     -39.606  11.879   4.805  1.00 20.00     0.091 C 
HETATM   10  O9  UNL     1     -39.224  12.121   7.154  1.00 20.00    -0.298 OA
ENDBRANCH   5   8
TORSDOF 1
ENDMDL
MODEL 4
REMARK VINA RESULT:      -3.4     12.810     13.648
REMARK  1 active torsions:
REMARK  status: ('A' for Active; 'I' for Inactive)
REMARK    1  A    between atoms: C2_2  and  C6_6 
ROOT
HETATM    1  C1  UNL     1     -33.778   7.248   5.574  1.00 20.00     0.139 C 
HETATM    2  C3  UNL     1     -33.356   8.693   5.415  1.00 20.00     0.089 C 
HETATM    3  C4  UNL     1     -32.097   8.823   4.574  1.00 20.00     0.081 C 
HETATM    4  C5  UNL     1     -32.846   6.467   3.377  1.00 20.00     0.093 C 
HETATM    5  C6  UNL     1     -34.066   6.479   4.294  1.00 20.00     0.133 C 
HETATM    6  O8  UNL     1     -33.940   6.755   6.690  1.00 20.00    -0.297 OA
HETATM    7  S10 UNL     1     -32.339   8.149   2.905  1.00 20.00    -0.168 SA
ENDROOT
BRANCH   5   8
HETATM    8  C2  UNL     1     -34.484   5.063   4.554  1.00 20.00     0.135 C 
HETATM    9  C7  UNL     1     -33.574   3.983   4.033  1.00 20.00     0.091 C 
HETATM   10  O9  UNL     1     -35.519   4.797   5.164  1.00 20.00    -0.298 OA
ENDBRANCH   5   8
TORSDOF 1
ENDMDL
MODEL 5
REMARK VINA RESULT:      -3.3     12.202     13.453
REMARK  1 active torsions:
REMARK  status: ('A' for Active; 'I' for Inactive)
REMARK    1  A    between atoms: C2_2  and  C6_6 
ROOT
HETATM    1  C1  UNL     1     -33.741   7.490   5.482  1.00 20.00     0.139 C 
HETATM    2  C3  UNL     1     -34.223   6.410   6.428  1.00 20.00     0.089 C 
HETATM    3  C4  UNL     1     -35.009   5.332   5.700  1.00 20.00     0.081 C 
HETATM    4  C5  UNL     1     -33.546   5.998   3.472  1.00 20.00     0.093 C 
HETATM    5  C6  UNL     1     -32.845   7.041   4.339  1.00 20.00     0.133 C 
HETATM    6  O8  UNL     1     -34.014   8.674   5.681  1.00 20.00    -0.297 OA
HETATM    7  S10 UNL     1     -33.998   4.519   4.428  1.00 20.00    -0.168 SA
ENDROOT
BRANCH   5   8
HETATM    8  C2  UNL     1     -32.413   8.179   3.464  1.00 20.00     0.135 C 
HETATM    9  C7  UNL     1     -32.271   7.887   1.994  1.00 20.00     0.091 C 
HETATM   10  O9  UNL     1     -32.187   9.297   3.925  1.00 20.00    -0.298 OA
ENDBRANCH   5   8
TORSDOF 1
ENDMDL
MODEL 6
REMARK VINA RESULT:      -3.3      1.814      2.635
REMARK  1 active torsions:
REMARK  status: ('A' for Active; 'I' for Inactive)
REMARK    1  A    between atoms: C2_2  and  C6_6 
ROOT
HETATM    1  C1  UNL     1     -35.061  17.359  -4.299  1.00 20.00     0.139 C 
HETATM    2  C3  UNL     1     -34.961  18.750  -3.709  1.00 20.00     0.089 C 
HETATM    3  C4  UNL     1     -34.640  18.709  -2.224  1.00 20.00     0.081 C 
HETATM    4  C5  UNL     1     -33.431  16.291  -2.715  1.00 20.00     0.093 C 
HETATM    5  C6  UNL     1     -33.827  16.479  -4.177  1.00 20.00     0.133 C 
HETATM    6  O8  UNL     1     -36.072  16.999  -4.902  1.00 20.00    -0.297 OA
HETATM    7  S10 UNL     1     -33.055  17.878  -1.910  1.00 20.00    -0.168 SA
ENDROOT
BRANCH   5   8
HETATM    8  C2  UNL     1     -34.020  15.127  -4.798  1.00 20.00     0.135 C 
HETATM    9  C7  UNL     1     -33.942  15.055  -6.299  1.00 20.00     0.091 C 
HETATM   10  O9  UNL     1     -34.229  14.127  -4.112  1.00 20.00    -0.298 OA
ENDBRANCH   5   8
TORSDOF 1
ENDMDL
MODEL 7
REMARK VINA RESULT:      -3.3     18.012     19.029
REMARK  1 active torsions:
REMARK  status: ('A' for Active; 'I' for Inactive)
REMARK    1  A    between atoms: C2_2  and  C6_6 
ROOT
HETATM    1  C1  UNL     1     -23.540  17.876  11.415  1.00 20.00     0.139 C 
HETATM    2  C3  UNL     1     -24.856  17.976  12.158  1.00 20.00     0.089 C 
HETATM    3  C4  UNL     1     -25.623  19.232  11.777  1.00 20.00     0.081 C 
HETATM    4  C5  UNL     1     -24.309  19.111   9.368  1.00 20.00     0.093 C 
HETATM    5  C6  UNL     1     -23.618  17.857   9.896  1.00 20.00     0.133 C 
HETATM    6  O8  UNL     1     -22.478  17.749  12.023  1.00 20.00    -0.297 OA
HETATM    7  S10 UNL     1     -26.007  19.263  10.002  1.00 20.00    -0.168 SA
ENDROOT
BRANCH   5   8
HETATM    8  C2  UNL     1     -22.268  17.746   9.251  1.00 20.00     0.135 C 
HETATM    9  C7  UNL     1     -21.458  19.011   9.159  1.00 20.00     0.091 C 
HETATM   10  O9  UNL     1     -21.845  16.674   8.821  1.00 20.00    -0.298 OA
ENDBRANCH   5   8
TORSDOF 1
ENDMDL
MODEL 8
REMARK VINA RESULT:      -3.3      1.851      2.479
REMARK  1 active torsions:
REMARK  status: ('A' for Active; 'I' for Inactive)
REMARK    1  A    between atoms: C2_2  and  C6_6 
ROOT
HETATM    1  C1  UNL     1     -35.608  14.821  -5.683  1.00 20.00     0.139 C 
HETATM    2  C3  UNL     1     -34.714  14.274  -4.591  1.00 20.00     0.089 C 
HETATM    3  C4  UNL     1     -33.474  15.131  -4.396  1.00 20.00     0.081 C 
HETATM    4  C5  UNL     1     -34.969  17.227  -5.355  1.00 20.00     0.093 C 
HETATM    5  C6  UNL     1     -36.124  16.239  -5.492  1.00 20.00     0.133 C 
HETATM    6  O8  UNL     1     -35.945  14.119  -6.636  1.00 20.00    -0.297 OA
HETATM    7  S10 UNL     1     -33.909  16.832  -3.930  1.00 20.00    -0.168 SA
ENDROOT
BRANCH   5   8
HETATM    8  C2  UNL     1     -37.006  16.688  -6.618  1.00 20.00     0.135 C 
HETATM    9  C7  UNL     1     -36.355  17.500  -7.705  1.00 20.00     0.091 C 
HETATM   10  O9  UNL     1     -38.203  16.404  -6.652  1.00 20.00    -0.298 OA
ENDBRANCH   5   8
TORSDOF 1
ENDMDL
MODEL 9
REMARK VINA RESULT:      -3.2      1.858      2.940
REMARK  1 active torsions:
REMARK  status: ('A' for Active; 'I' for Inactive)
REMARK    1  A    between atoms: C2_2  and  C6_6 
ROOT
HETATM    1  C1  UNL     1     -36.562  15.994  -5.601  1.00 20.00     0.139 C 
HETATM    2  C3  UNL     1     -37.597  17.094  -5.486  1.00 20.00     0.089 C 
HETATM    3  C4  UNL     1     -37.368  17.956  -4.256  1.00 20.00     0.081 C 
HETATM    4  C5  UNL     1     -34.719  17.259  -4.459  1.00 20.00     0.093 C 
HETATM    5  C6  UNL     1     -35.109  16.435  -5.683  1.00 20.00     0.133 C 
HETATM    6  O8  UNL     1     -36.900  14.814  -5.692  1.00 20.00    -0.297 OA
HETATM    7  S10 UNL     1     -35.739  18.757  -4.300  1.00 20.00    -0.168 SA
ENDROOT
BRANCH   5   8
HETATM    8  C2  UNL     1     -34.162  15.279  -5.803  1.00 20.00     0.135 C 
HETATM    9  C7  UNL     1     -33.672  14.669  -4.518  1.00 20.00     0.091 C 
HETATM   10  O9  UNL     1     -33.805  14.850  -6.900  1.00 20.00    -0.298 OA
ENDBRANCH   5   8
TORSDOF 1
ENDMDL
