MODEL 1
REMARK VINA RESULT:      -4.4      0.000      0.000
REMARK  1 active torsions:
REMARK  status: ('A' for Active; 'I' for Inactive)
REMARK    1  A    between atoms: C2_2  and  C3_3 
ROOT
HETATM    1  C1  UNL     1     -33.906   8.004   4.372  1.00 20.00    -0.007 C 
HETATM    2  C2  UNL     1     -33.912   6.670   4.292  1.00 20.00    -0.012 C 
HETATM    3  C4  UNL     1     -32.134   7.387   2.930  1.00 20.00     0.022 C 
HETATM    4  C5  UNL     1     -32.705   6.121   3.601  1.00 20.00     0.019 C 
HETATM    5  C6  UNL     1     -32.671   8.589   3.741  1.00 20.00    -0.029 C 
HETATM    6  C8  UNL     1     -32.990   5.028   2.579  1.00 20.00     0.015 C 
HETATM    7  C9  UNL     1     -31.677   9.030   4.820  1.00 20.00     0.019 C 
HETATM    8  C10 UNL     1     -33.009   9.766   2.823  1.00 20.00     0.019 C 
ENDROOT
BRANCH   2   9
HETATM    9  C3  UNL     1     -34.973   5.871   4.884  1.00 20.00     0.151 C 
HETATM   10  C7  UNL     1     -34.717   5.207   6.219  1.00 20.00     0.096 C 
HETATM   11  O11 UNL     1     -36.061   5.727   4.309  1.00 20.00    -0.293 OA
ENDBRANCH   2   9
TORSDOF 1
ENDMDL
MODEL 2
REMARK VINA RESULT:      -4.0     11.653     12.691
REMARK  1 active torsions:
REMARK  status: ('A' for Active; 'I' for Inactive)
REMARK    1  A    between atoms: C2_2  and  C3_3 
ROOT
HETATM    1  C1  UNL     1     -33.399  16.800  -1.919  1.00 20.00    -0.007 C 
HETATM    2  C2  UNL     1     -33.363  16.795  -3.256  1.00 20.00    -0.012 C 
HETATM    3  C4  UNL     1     -33.536  19.054  -2.626  1.00 20.00     0.022 C 
HETATM    4  C5  UNL     1     -33.207  18.162  -3.840  1.00 20.00     0.019 C 
HETATM    5  C6  UNL     1     -33.268  18.195  -1.369  1.00 20.00    -0.029 C 
HETATM    6  C8  UNL     1     -34.121  18.465  -5.020  1.00 20.00     0.015 C 
HETATM    7  C9  UNL     1     -31.854  18.422  -0.822  1.00 20.00     0.019 C 
HETATM    8  C10 UNL     1     -34.307  18.472  -0.280  1.00 20.00     0.019 C 
ENDROOT
BRANCH   2   9
HETATM    9  C3  UNL     1     -33.411  15.558  -4.019  1.00 20.00     0.151 C 
HETATM   10  C7  UNL     1     -34.748  15.092  -4.553  1.00 20.00     0.096 C 
HETATM   11  O11 UNL     1     -32.386  14.894  -4.226  1.00 20.00    -0.293 OA
ENDBRANCH   2   9
TORSDOF 1
ENDMDL
MODEL 3
REMARK VINA RESULT:      -3.9     11.732     12.754
REMARK  1 active torsions:
REMARK  status: ('A' for Active; 'I' for Inactive)
REMARK    1  A    between atoms: C2_2  and  C3_3 
ROOT
HETATM    1  C1  UNL     1     -33.389  16.493  -2.823  1.00 20.00    -0.007 C 
HETATM    2  C2  UNL     1     -34.057  16.313  -3.967  1.00 20.00    -0.012 C 
HETATM    3  C4  UNL     1     -34.908  18.296  -3.030  1.00 20.00     0.022 C 
HETATM    4  C5  UNL     1     -34.888  17.496  -4.349  1.00 20.00     0.019 C 
HETATM    5  C6  UNL     1     -33.659  17.851  -2.233  1.00 20.00    -0.029 C 
HETATM    6  C8  UNL     1     -36.298  17.166  -4.822  1.00 20.00     0.015 C 
HETATM    7  C9  UNL     1     -32.471  18.786  -2.479  1.00 20.00     0.019 C 
HETATM    8  C10 UNL     1     -33.964  17.766  -0.736  1.00 20.00     0.019 C 
ENDROOT
BRANCH   2   9
HETATM    9  C3  UNL     1     -33.913  15.102  -4.758  1.00 20.00     0.151 C 
HETATM   10  C7  UNL     1     -33.885  15.224  -6.266  1.00 20.00     0.096 C 
HETATM   11  O11 UNL     1     -33.821  13.992  -4.215  1.00 20.00    -0.293 OA
ENDBRANCH   2   9
TORSDOF 1
ENDMDL
MODEL 4
REMARK VINA RESULT:      -3.9      9.951     11.082
REMARK  1 active torsions:
REMARK  status: ('A' for Active; 'I' for Inactive)
REMARK    1  A    between atoms: C2_2  and  C3_3 
ROOT
HETATM    1  C1  UNL     1     -40.249  14.413   7.233  1.00 20.00    -0.007 C 
HETATM    2  C2  UNL     1     -41.027  13.582   6.531  1.00 20.00    -0.012 C 
HETATM    3  C4  UNL     1     -42.282  14.191   8.424  1.00 20.00     0.022 C 
HETATM    4  C5  UNL     1     -42.432  13.529   7.040  1.00 20.00     0.019 C 
HETATM    5  C6  UNL     1     -41.013  15.072   8.350  1.00 20.00    -0.029 C 
HETATM    6  C8  UNL     1     -43.022  12.129   7.152  1.00 20.00     0.015 C 
HETATM    7  C9  UNL     1     -41.353  16.520   7.984  1.00 20.00     0.019 C 
HETATM    8  C10 UNL     1     -40.236  15.029   9.668  1.00 20.00     0.019 C 
ENDROOT
BRANCH   2   9
HETATM    9  C3  UNL     1     -40.533  12.873   5.362  1.00 20.00     0.151 C 
HETATM   10  C7  UNL     1     -39.624  11.681   5.573  1.00 20.00     0.096 C 
HETATM   11  O11 UNL     1     -40.839  13.235   4.218  1.00 20.00    -0.293 OA
ENDBRANCH   2   9
TORSDOF 1
ENDMDL
MODEL 5
REMARK VINA RESULT:      -3.9     11.526     12.870
REMARK  1 active torsions:
REMARK  status: ('A' for Active; 'I' for Inactive)
REMARK    1  A    between atoms: C2_2  and  C3_3 
ROOT
HETATM    1  C1  UNL     1     -33.419  16.814  -2.487  1.00 20.00    -0.007 C 
HETATM    2  C2  UNL     1     -34.134  16.927  -3.610  1.00 20.00    -0.012 C 
HETATM    3  C4  UNL     1     -34.771  18.743  -2.258  1.00 20.00     0.022 C 
HETATM    4  C5  UNL     1     -34.864  18.229  -3.709  1.00 20.00     0.019 C 
HETATM    5  C6  UNL     1     -33.546  18.042  -1.626  1.00 20.00    -0.029 C 
HETATM    6  C8  UNL     1     -36.312  18.121  -4.171  1.00 20.00     0.015 C 
HETATM    7  C9  UNL     1     -32.284  18.905  -1.736  1.00 20.00     0.019 C 
HETATM    8  C10 UNL     1     -33.812  17.681  -0.162  1.00 20.00     0.019 C 
ENDROOT
BRANCH   2   9
HETATM    9  C3  UNL     1     -34.125  15.894  -4.632  1.00 20.00     0.151 C 
HETATM   10  C7  UNL     1     -34.075  14.446  -4.195  1.00 20.00     0.096 C 
HETATM   11  O11 UNL     1     -34.151  16.185  -5.836  1.00 20.00    -0.293 OA
ENDBRANCH   2   9
TORSDOF 1
ENDMDL
MODEL 6
REMARK VINA RESULT:      -3.6     11.558     13.244
REMARK  1 active torsions:
REMARK  status: ('A' for Active; 'I' for Inactive)
REMARK    1  A    between atoms: C2_2  and  C3_3 
ROOT
HETATM    1  C1  UNL     1     -34.612  17.608  -4.999  1.00 20.00    -0.007 C 
HETATM    2  C2  UNL     1     -34.598  16.278  -5.131  1.00 20.00    -0.012 C 
HETATM    3  C4  UNL     1     -33.274  16.749  -3.246  1.00 20.00     0.022 C 
HETATM    4  C5  UNL     1     -33.984  15.581  -3.960  1.00 20.00     0.019 C 
HETATM    5  C6  UNL     1     -34.002  18.039  -3.692  1.00 20.00    -0.029 C 
HETATM    6  C8  UNL     1     -33.007  14.467  -4.314  1.00 20.00     0.015 C 
HETATM    7  C9  UNL     1     -35.097  18.440  -2.697  1.00 20.00     0.019 C 
HETATM    8  C10 UNL     1     -33.013  19.192  -3.882  1.00 20.00     0.019 C 
ENDROOT
BRANCH   2   9
HETATM    9  C3  UNL     1     -35.187  15.617  -6.284  1.00 20.00     0.151 C 
HETATM   10  C7  UNL     1     -34.537  15.810  -7.637  1.00 20.00     0.096 C 
HETATM   11  O11 UNL     1     -36.202  14.915  -6.169  1.00 20.00    -0.293 OA
ENDBRANCH   2   9
TORSDOF 1
ENDMDL
MODEL 7
REMARK VINA RESULT:      -3.6     11.928     13.241
REMARK  1 active torsions:
REMARK  status: ('A' for Active; 'I' for Inactive)
REMARK    1  A    between atoms: C2_2  and  C3_3 
ROOT
HETATM    1  C1  UNL     1     -34.301  18.119  -4.282  1.00 20.00    -0.007 C 
HETATM    2  C2  UNL     1     -34.387  16.854  -4.707  1.00 20.00    -0.012 C 
HETATM    3  C4  UNL     1     -33.151  16.776  -2.708  1.00 20.00     0.022 C 
HETATM    4  C5  UNL     1     -33.908  15.864  -3.695  1.00 20.00     0.019 C 
HETATM    5  C6  UNL     1     -33.742  18.194  -2.887  1.00 20.00    -0.029 C 
HETATM    6  C8  UNL     1     -33.004  14.768  -4.246  1.00 20.00     0.015 C 
HETATM    7  C9  UNL     1     -34.861  18.469  -1.876  1.00 20.00     0.019 C 
HETATM    8  C10 UNL     1     -32.652  19.263  -2.772  1.00 20.00     0.019 C 
ENDROOT
BRANCH   2   9
HETATM    9  C3  UNL     1     -34.954  16.518  -6.003  1.00 20.00     0.151 C 
HETATM   10  C7  UNL     1     -36.234  15.713  -6.044  1.00 20.00     0.096 C 
HETATM   11  O11 UNL     1     -34.402  16.875  -7.054  1.00 20.00    -0.293 OA
ENDBRANCH   2   9
TORSDOF 1
ENDMDL
MODEL 8
REMARK VINA RESULT:      -3.5     11.504     13.411
REMARK  1 active torsions:
REMARK  status: ('A' for Active; 'I' for Inactive)
REMARK    1  A    between atoms: C2_2  and  C3_3 
ROOT
HETATM    1  C1  UNL     1     -34.716  17.173  -5.382  1.00 20.00    -0.007 C 
HETATM    2  C2  UNL     1     -34.426  15.945  -4.941  1.00 20.00    -0.012 C 
HETATM    3  C4  UNL     1     -36.343  15.709  -6.283  1.00 20.00     0.022 C 
HETATM    4  C5  UNL     1     -35.229  14.878  -5.615  1.00 20.00     0.019 C 
HETATM    5  C6  UNL     1     -35.780  17.140  -6.447  1.00 20.00    -0.029 C 
HETATM    6  C8  UNL     1     -35.805  13.821  -4.682  1.00 20.00     0.015 C 
HETATM    7  C9  UNL     1     -35.156  17.345  -7.832  1.00 20.00     0.019 C 
HETATM    8  C10 UNL     1     -36.864  18.191  -6.195  1.00 20.00     0.019 C 
ENDROOT
BRANCH   2   9
HETATM    9  C3  UNL     1     -33.386  15.711  -3.953  1.00 20.00     0.151 C 
HETATM   10  C7  UNL     1     -33.422  16.505  -2.666  1.00 20.00     0.096 C 
HETATM   11  O11 UNL     1     -32.484  14.886  -4.157  1.00 20.00    -0.293 OA
ENDBRANCH   2   9
TORSDOF 1
ENDMDL
MODEL 9
REMARK VINA RESULT:      -3.4     11.780     13.483
REMARK  1 active torsions:
REMARK  status: ('A' for Active; 'I' for Inactive)
REMARK    1  A    between atoms: C2_2  and  C3_3 
ROOT
HETATM    1  C1  UNL     1     -35.678  17.417  -4.674  1.00 20.00    -0.007 C 
HETATM    2  C2  UNL     1     -34.479  16.899  -4.388  1.00 20.00    -0.012 C 
HETATM    3  C4  UNL     1     -35.570  15.294  -5.716  1.00 20.00     0.022 C 
HETATM    4  C5  UNL     1     -34.175  15.662  -5.170  1.00 20.00     0.019 C 
HETATM    5  C6  UNL     1     -36.395  16.602  -5.718  1.00 20.00    -0.029 C 
HETATM    6  C8  UNL     1     -33.574  14.520  -4.360  1.00 20.00     0.015 C 
HETATM    7  C9  UNL     1     -36.335  17.305  -7.078  1.00 20.00     0.019 C 
HETATM    8  C10 UNL     1     -37.850  16.336  -5.325  1.00 20.00     0.019 C 
ENDROOT
BRANCH   2   9
HETATM    9  C3  UNL     1     -33.571  17.542  -3.452  1.00 20.00     0.151 C 
HETATM   10  C7  UNL     1     -33.514  17.024  -2.031  1.00 20.00     0.096 C 
HETATM   11  O11 UNL     1     -32.861  18.495  -3.802  1.00 20.00    -0.293 OA
ENDBRANCH   2   9
TORSDOF 1
ENDMDL
