MODEL 1
REMARK VINA RESULT:      -5.8      0.000      0.000
REMARK  0 active torsions:
REMARK  status: ('A' for Active; 'I' for Inactive)
ROOT
HETATM    1  C1  UNL     1     -33.402   5.339   2.998  1.00 20.00     0.012 C 
HETATM    2  C2  UNL     1     -32.481   6.545   3.196  1.00 20.00     0.077 C 
HETATM    3  C3  UNL     1     -33.958   4.843   4.332  1.00 20.00     0.082 C 
HETATM    4  C4  UNL     1     -34.228   7.262   5.005  1.00 20.00     0.264 A 
HETATM    5  C5  UNL     1     -33.086   7.589   4.080  1.00 20.00     0.237 A 
HETATM    6  C6  UNL     1     -34.833   5.905   4.980  1.00 20.00     0.274 C 
HETATM    7  O7  UNL     1     -32.883   7.335   5.484  1.00 20.00    -0.332 OA
HETATM    8  F8  UNL     1     -32.954   8.911   3.679  1.00 20.00    -0.209 F 
HETATM    9  F9  UNL     1     -35.144   5.523   6.245  1.00 20.00    -0.203 F 
HETATM   10  F10 UNL     1     -36.011   5.975   4.302  1.00 20.00    -0.203 F 
ENDROOT
TORSDOF 0
ENDMDL
MODEL 2
REMARK VINA RESULT:      -5.6      2.051      2.995
REMARK  0 active torsions:
REMARK  status: ('A' for Active; 'I' for Inactive)
ROOT
HETATM    1  C1  UNL     1     -32.720   7.258   3.969  1.00 20.00     0.012 C 
HETATM    2  C2  UNL     1     -33.497   6.118   3.307  1.00 20.00     0.077 C 
HETATM    3  C3  UNL     1     -33.556   7.944   5.048  1.00 20.00     0.082 C 
HETATM    4  C4  UNL     1     -34.378   5.654   5.725  1.00 20.00     0.264 A 
HETATM    5  C5  UNL     1     -34.146   5.212   4.304  1.00 20.00     0.237 A 
HETATM    6  C6  UNL     1     -33.875   6.977   6.178  1.00 20.00     0.274 C 
HETATM    7  O7  UNL     1     -35.429   5.687   4.757  1.00 20.00    -0.332 OA
HETATM    8  F8  UNL     1     -34.053   3.847   4.074  1.00 20.00    -0.209 F 
HETATM    9  F9  UNL     1     -34.781   7.545   7.015  1.00 20.00    -0.203 F 
HETATM   10  F10 UNL     1     -32.748   6.776   6.915  1.00 20.00    -0.203 F 
ENDROOT
TORSDOF 0
ENDMDL
MODEL 3
REMARK VINA RESULT:      -5.1      1.844      2.378
REMARK  0 active torsions:
REMARK  status: ('A' for Active; 'I' for Inactive)
ROOT
HETATM    1  C1  UNL     1     -33.328   7.598   4.046  1.00 20.00     0.012 C 
HETATM    2  C2  UNL     1     -33.119   7.853   5.539  1.00 20.00     0.077 C 
HETATM    3  C3  UNL     1     -33.343   6.101   3.737  1.00 20.00     0.082 C 
HETATM    4  C4  UNL     1     -34.680   5.780   5.855  1.00 20.00     0.264 A 
HETATM    5  C5  UNL     1     -34.018   7.019   6.396  1.00 20.00     0.237 A 
HETATM    6  C6  UNL     1     -34.518   5.421   4.422  1.00 20.00     0.274 C 
HETATM    7  O7  UNL     1     -33.497   5.700   6.653  1.00 20.00    -0.332 OA
HETATM    8  F8  UNL     1     -34.632   7.647   7.470  1.00 20.00    -0.209 F 
HETATM    9  F9  UNL     1     -34.392   4.075   4.302  1.00 20.00    -0.203 F 
HETATM   10  F10 UNL     1     -35.663   5.758   3.766  1.00 20.00    -0.203 F 
ENDROOT
TORSDOF 0
ENDMDL
MODEL 4
REMARK VINA RESULT:      -5.0      1.305      3.286
REMARK  0 active torsions:
REMARK  status: ('A' for Active; 'I' for Inactive)
ROOT
HETATM    1  C1  UNL     1     -32.909   5.553   3.044  1.00 20.00     0.012 C 
HETATM    2  C2  UNL     1     -34.043   5.418   4.061  1.00 20.00     0.077 C 
HETATM    3  C3  UNL     1     -32.766   6.996   2.563  1.00 20.00     0.082 C 
HETATM    4  C4  UNL     1     -33.187   7.725   4.944  1.00 20.00     0.264 A 
HETATM    5  C5  UNL     1     -33.980   6.459   5.133  1.00 20.00     0.237 A 
HETATM    6  C6  UNL     1     -32.375   7.912   3.713  1.00 20.00     0.274 C 
HETATM    7  O7  UNL     1     -34.604   7.703   4.757  1.00 20.00    -0.332 OA
HETATM    8  F8  UNL     1     -34.203   6.041   6.437  1.00 20.00    -0.209 F 
HETATM    9  F9  UNL     1     -32.455   9.205   3.308  1.00 20.00    -0.203 F 
HETATM   10  F10 UNL     1     -31.069   7.690   4.026  1.00 20.00    -0.203 F 
ENDROOT
TORSDOF 0
ENDMDL
MODEL 5
REMARK VINA RESULT:      -4.8      1.746      2.558
REMARK  0 active torsions:
REMARK  status: ('A' for Active; 'I' for Inactive)
ROOT
HETATM    1  C1  UNL     1     -34.455   5.749   6.341  1.00 20.00     0.012 C 
HETATM    2  C2  UNL     1     -34.036   7.218   6.433  1.00 20.00     0.077 C 
HETATM    3  C3  UNL     1     -35.018   5.419   4.959  1.00 20.00     0.082 C 
HETATM    4  C4  UNL     1     -33.195   6.869   3.982  1.00 20.00     0.264 A 
HETATM    5  C5  UNL     1     -33.203   7.651   5.269  1.00 20.00     0.237 A 
HETATM    6  C6  UNL     1     -33.952   5.593   3.888  1.00 20.00     0.274 C 
HETATM    7  O7  UNL     1     -33.984   8.051   4.125  1.00 20.00    -0.332 OA
HETATM    8  F8  UNL     1     -32.088   8.430   5.543  1.00 20.00    -0.209 F 
HETATM    9  F9  UNL     1     -34.525   5.495   2.661  1.00 20.00    -0.203 F 
HETATM   10  F10 UNL     1     -33.066   4.563   3.979  1.00 20.00    -0.203 F 
ENDROOT
TORSDOF 0
ENDMDL
MODEL 6
REMARK VINA RESULT:      -4.6      1.503      3.505
REMARK  0 active torsions:
REMARK  status: ('A' for Active; 'I' for Inactive)
ROOT
HETATM    1  C1  UNL     1     -34.154   7.243   6.561  1.00 20.00     0.012 C 
HETATM    2  C2  UNL     1     -34.858   5.928   6.221  1.00 20.00     0.077 C 
HETATM    3  C3  UNL     1     -32.864   7.405   5.759  1.00 20.00     0.082 C 
HETATM    4  C4  UNL     1     -34.099   6.450   3.774  1.00 20.00     0.264 A 
HETATM    5  C5  UNL     1     -34.975   5.706   4.746  1.00 20.00     0.237 A 
HETATM    6  C6  UNL     1     -33.164   7.493   4.270  1.00 20.00     0.274 C 
HETATM    7  O7  UNL     1     -33.799   5.109   4.164  1.00 20.00    -0.332 OA
HETATM    8  F8  UNL     1     -36.191   5.235   4.271  1.00 20.00    -0.209 F 
HETATM    9  F9  UNL     1     -32.001   7.429   3.571  1.00 20.00    -0.203 F 
HETATM   10  F10 UNL     1     -33.704   8.713   4.002  1.00 20.00    -0.203 F 
ENDROOT
TORSDOF 0
ENDMDL
MODEL 7
REMARK VINA RESULT:      -4.5      1.863      2.293
REMARK  0 active torsions:
REMARK  status: ('A' for Active; 'I' for Inactive)
ROOT
HETATM    1  C1  UNL     1     -34.017   5.728   3.851  1.00 20.00     0.012 C 
HETATM    2  C2  UNL     1     -32.780   5.820   2.955  1.00 20.00     0.077 C 
HETATM    3  C3  UNL     1     -33.841   6.555   5.124  1.00 20.00     0.082 C 
HETATM    4  C4  UNL     1     -32.739   8.326   3.699  1.00 20.00     0.264 A 
HETATM    5  C5  UNL     1     -32.318   7.229   2.758  1.00 20.00     0.237 A 
HETATM    6  C6  UNL     1     -33.704   8.033   4.791  1.00 20.00     0.274 C 
HETATM    7  O7  UNL     1     -31.460   7.701   3.816  1.00 20.00    -0.332 OA
HETATM    8  F8  UNL     1     -31.954   7.603   1.473  1.00 20.00    -0.209 F 
HETATM    9  F9  UNL     1     -33.347   8.716   5.909  1.00 20.00    -0.203 F 
HETATM   10  F10 UNL     1     -34.924   8.514   4.423  1.00 20.00    -0.203 F 
ENDROOT
TORSDOF 0
ENDMDL
MODEL 8
REMARK VINA RESULT:      -4.0      8.698      9.627
REMARK  0 active torsions:
REMARK  status: ('A' for Active; 'I' for Inactive)
ROOT
HETATM    1  C1  UNL     1     -42.890   6.446   1.436  1.00 20.00     0.012 C 
HETATM    2  C2  UNL     1     -42.442   5.194   0.681  1.00 20.00     0.077 C 
HETATM    3  C3  UNL     1     -41.810   7.527   1.408  1.00 20.00     0.082 C 
HETATM    4  C4  UNL     1     -41.383   6.895  -1.000  1.00 20.00     0.264 A 
HETATM    5  C5  UNL     1     -41.869   5.510  -0.665  1.00 20.00     0.237 A 
HETATM    6  C6  UNL     1     -41.554   7.996  -0.017  1.00 20.00     0.274 C 
HETATM    7  O7  UNL     1     -40.472   5.860  -0.623  1.00 20.00    -0.332 OA
HETATM    8  F8  UNL     1     -42.259   4.702  -1.724  1.00 20.00    -0.209 F 
HETATM    9  F9  UNL     1     -40.458   8.797  -0.037  1.00 20.00    -0.203 F 
HETATM   10  F10 UNL     1     -42.600   8.768  -0.418  1.00 20.00    -0.203 F 
ENDROOT
TORSDOF 0
ENDMDL
MODEL 9
REMARK VINA RESULT:      -3.9     12.797     13.703
REMARK  0 active torsions:
REMARK  status: ('A' for Active; 'I' for Inactive)
ROOT
HETATM    1  C1  UNL     1     -33.076  15.365  -3.874  1.00 20.00     0.012 C 
HETATM    2  C2  UNL     1     -33.586  16.773  -3.563  1.00 20.00     0.077 C 
HETATM    3  C3  UNL     1     -34.167  14.511  -4.520  1.00 20.00     0.082 C 
HETATM    4  C4  UNL     1     -34.836  16.552  -5.849  1.00 20.00     0.264 A 
HETATM    5  C5  UNL     1     -34.300  17.394  -4.722  1.00 20.00     0.237 A 
HETATM    6  C6  UNL     1     -34.577  15.089  -5.866  1.00 20.00     0.274 C 
HETATM    7  O7  UNL     1     -35.690  17.019  -4.803  1.00 20.00    -0.332 OA
HETATM    8  F8  UNL     1     -34.013  18.722  -5.004  1.00 20.00    -0.209 F 
HETATM    9  F9  UNL     1     -35.678  14.437  -6.320  1.00 20.00    -0.203 F 
HETATM   10  F10 UNL     1     -33.588  14.841  -6.769  1.00 20.00    -0.203 F 
ENDROOT
TORSDOF 0
ENDMDL
