MODEL 1
REMARK VINA RESULT:      -4.5      0.000      0.000
REMARK  4 active torsions:
REMARK  status: ('A' for Active; 'I' for Inactive)
REMARK    1  A    between atoms: C1_1  and  C7_7 
REMARK    2  A    between atoms: C2_2  and  C9_9 
REMARK    3  A    between atoms: C4_4  and  C9_9 
REMARK    4  A    between atoms: C9_9  and  O10_10 
ROOT
HETATM    1  C1  UNL     1     -33.216  17.040  -2.066  1.00 20.00    -0.094 C 
HETATM    2  C2  UNL     1     -33.341  16.229  -2.943  1.00 20.00    -0.070 C 
ENDROOT
BRANCH   2   3
HETATM    3  C9  UNL     1     -33.488  15.232  -4.011  1.00 20.00     0.219 C 
BRANCH   3   4
HETATM    4  C4  UNL     1     -34.258  15.818  -5.155  1.00 20.00     0.007 C 
HETATM    5  C3  UNL     1     -34.261  15.308  -6.392  1.00 20.00     0.010 C 
ENDBRANCH   3   4
BRANCH   3   6
HETATM    6  O10 UNL     1     -32.206  14.845  -4.497  1.00 20.00    -0.380 OA
HETATM    7  H22 UNL     1     -31.704  15.663  -4.637  1.00 20.00     0.211 HD
ENDBRANCH   3   6
ENDBRANCH   2   3
BRANCH   1   8
HETATM    8  C7  UNL     1     -33.068  18.013  -1.014  1.00 20.00     0.020 A 
HETATM    9  C5  UNL     1     -34.203  18.990  -0.809  1.00 20.00     0.024 A 
HETATM   10  C6  UNL     1     -33.984  17.885   0.182  1.00 20.00     0.024 A 
HETATM   11  C8  UNL     1     -31.665  18.499  -0.781  1.00 20.00     0.029 C 
ENDBRANCH   1   8
TORSDOF 4
ENDMDL
MODEL 2
REMARK VINA RESULT:      -4.4      0.600      1.623
REMARK  4 active torsions:
REMARK  status: ('A' for Active; 'I' for Inactive)
REMARK    1  A    between atoms: C1_1  and  C7_7 
REMARK    2  A    between atoms: C2_2  and  C9_9 
REMARK    3  A    between atoms: C4_4  and  C9_9 
REMARK    4  A    between atoms: C9_9  and  O10_10 
ROOT
HETATM    1  C1  UNL     1     -33.140  17.015  -2.129  1.00 20.00    -0.094 C 
HETATM    2  C2  UNL     1     -33.323  16.220  -3.010  1.00 20.00    -0.070 C 
ENDROOT
BRANCH   2   3
HETATM    3  C9  UNL     1     -33.541  15.251  -4.091  1.00 20.00     0.219 C 
BRANCH   3   4
HETATM    4  C4  UNL     1     -34.255  15.910  -5.231  1.00 20.00     0.007 C 
HETATM    5  C3  UNL     1     -35.452  16.499  -5.121  1.00 20.00     0.010 C 
ENDBRANCH   3   4
BRANCH   3   6
HETATM    6  O10 UNL     1     -32.290  14.770  -4.574  1.00 20.00    -0.380 OA
HETATM    7  H22 UNL     1     -31.745  15.550  -4.759  1.00 20.00     0.211 HD
ENDBRANCH   3   6
ENDBRANCH   2   3
BRANCH   1   8
HETATM    8  C7  UNL     1     -32.921  17.970  -1.073  1.00 20.00     0.020 A 
HETATM    9  C5  UNL     1     -31.491  18.221  -0.651  1.00 20.00     0.024 A 
HETATM   10  C6  UNL     1     -32.228  19.263  -1.440  1.00 20.00     0.024 A 
HETATM   11  C8  UNL     1     -33.989  18.016  -0.017  1.00 20.00     0.029 C 
ENDBRANCH   1   8
TORSDOF 4
ENDMDL
MODEL 3
REMARK VINA RESULT:      -4.0     10.619     12.083
REMARK  4 active torsions:
REMARK  status: ('A' for Active; 'I' for Inactive)
REMARK    1  A    between atoms: C1_1  and  C7_7 
REMARK    2  A    between atoms: C2_2  and  C9_9 
REMARK    3  A    between atoms: C4_4  and  C9_9 
REMARK    4  A    between atoms: C9_9  and  O10_10 
ROOT
HETATM    1  C1  UNL     1     -41.462  13.712   5.587  1.00 20.00    -0.094 C 
HETATM    2  C2  UNL     1     -40.620  12.889   5.824  1.00 20.00    -0.070 C 
ENDROOT
BRANCH   2   3
HETATM    3  C9  UNL     1     -39.589  11.887   6.119  1.00 20.00     0.219 C 
BRANCH   3   4
HETATM    4  C4  UNL     1     -38.594  11.831   5.000  1.00 20.00     0.007 C 
HETATM    5  C3  UNL     1     -38.927  11.665   3.714  1.00 20.00     0.010 C 
ENDBRANCH   3   4
BRANCH   3   6
HETATM    6  O10 UNL     1     -38.892  12.241   7.310  1.00 20.00    -0.380 OA
HETATM    7  H22 UNL     1     -39.409  12.943   7.735  1.00 20.00     0.211 HD
ENDBRANCH   3   6
ENDBRANCH   2   3
BRANCH   1   8
HETATM    8  C7  UNL     1     -42.472  14.700   5.303  1.00 20.00     0.020 A 
HETATM    9  C5  UNL     1     -43.417  15.065   6.425  1.00 20.00     0.024 A 
HETATM   10  C6  UNL     1     -42.352  16.034   6.005  1.00 20.00     0.024 A 
HETATM   11  C8  UNL     1     -43.010  14.684   3.901  1.00 20.00     0.029 C 
ENDBRANCH   1   8
TORSDOF 4
ENDMDL
MODEL 4
REMARK VINA RESULT:      -3.9      2.085      4.958
REMARK  4 active torsions:
REMARK  status: ('A' for Active; 'I' for Inactive)
REMARK    1  A    between atoms: C1_1  and  C7_7 
REMARK    2  A    between atoms: C2_2  and  C9_9 
REMARK    3  A    between atoms: C4_4  and  C9_9 
REMARK    4  A    between atoms: C9_9  and  O10_10 
ROOT
HETATM    1  C1  UNL     1     -33.108  17.170  -2.755  1.00 20.00    -0.094 C 
HETATM    2  C2  UNL     1     -32.671  17.857  -1.873  1.00 20.00    -0.070 C 
ENDROOT
BRANCH   2   3
HETATM    3  C9  UNL     1     -32.143  18.702  -0.795  1.00 20.00     0.219 C 
BRANCH   3   4
HETATM    4  C4  UNL     1     -32.832  18.376   0.495  1.00 20.00     0.007 C 
HETATM    5  C3  UNL     1     -34.162  18.317   0.636  1.00 20.00     0.010 C 
ENDBRANCH   3   4
BRANCH   3   6
HETATM    6  O10 UNL     1     -30.749  18.459  -0.623  1.00 20.00    -0.380 OA
HETATM    7  H22 UNL     1     -30.667  17.565  -0.256  1.00 20.00     0.211 HD
ENDBRANCH   3   6
ENDBRANCH   2   3
BRANCH   1   8
HETATM    8  C7  UNL     1     -33.632  16.344  -3.813  1.00 20.00     0.020 A 
HETATM    9  C5  UNL     1     -32.784  15.178  -4.267  1.00 20.00     0.024 A 
HETATM   10  C6  UNL     1     -34.022  14.927  -3.457  1.00 20.00     0.024 A 
HETATM   11  C8  UNL     1     -34.454  17.066  -4.843  1.00 20.00     0.029 C 
ENDBRANCH   1   8
TORSDOF 4
ENDMDL
MODEL 5
REMARK VINA RESULT:      -3.8     11.123     11.804
REMARK  4 active torsions:
REMARK  status: ('A' for Active; 'I' for Inactive)
REMARK    1  A    between atoms: C1_1  and  C7_7 
REMARK    2  A    between atoms: C2_2  and  C9_9 
REMARK    3  A    between atoms: C4_4  and  C9_9 
REMARK    4  A    between atoms: C9_9  and  O10_10 
ROOT
HETATM    1  C1  UNL     1     -33.541   7.120   4.310  1.00 20.00    -0.094 C 
HETATM    2  C2  UNL     1     -32.922   7.844   3.579  1.00 20.00    -0.070 C 
ENDROOT
BRANCH   2   3
HETATM    3  C9  UNL     1     -32.171   8.729   2.679  1.00 20.00     0.219 C 
BRANCH   3   4
HETATM    4  C4  UNL     1     -32.150   8.153   1.296  1.00 20.00     0.007 C 
HETATM    5  C3  UNL     1     -32.547   8.819   0.204  1.00 20.00     0.010 C 
ENDBRANCH   3   4
BRANCH   3   6
HETATM    6  O10 UNL     1     -32.801  10.006   2.615  1.00 20.00    -0.380 OA
HETATM    7  H22 UNL     1     -33.737   9.844   2.420  1.00 20.00     0.211 HD
ENDBRANCH   3   6
ENDBRANCH   2   3
BRANCH   1   8
HETATM    8  C7  UNL     1     -34.283   6.252   5.188  1.00 20.00     0.020 A 
HETATM    9  C5  UNL     1     -35.534   5.610   4.632  1.00 20.00     0.024 A 
HETATM   10  C6  UNL     1     -34.304   4.778   4.849  1.00 20.00     0.024 A 
HETATM   11  C8  UNL     1     -34.273   6.644   6.638  1.00 20.00     0.029 C 
ENDBRANCH   1   8
TORSDOF 4
ENDMDL
MODEL 6
REMARK VINA RESULT:      -3.7     10.629     12.259
REMARK  4 active torsions:
REMARK  status: ('A' for Active; 'I' for Inactive)
REMARK    1  A    between atoms: C1_1  and  C7_7 
REMARK    2  A    between atoms: C2_2  and  C9_9 
REMARK    3  A    between atoms: C4_4  and  C9_9 
REMARK    4  A    between atoms: C9_9  and  O10_10 
ROOT
HETATM    1  C1  UNL     1     -40.493  13.952   7.389  1.00 20.00    -0.094 C 
HETATM    2  C2  UNL     1     -39.939  13.063   6.801  1.00 20.00    -0.070 C 
ENDROOT
BRANCH   2   3
HETATM    3  C9  UNL     1     -39.259  11.974   6.090  1.00 20.00     0.219 C 
BRANCH   3   4
HETATM    4  C4  UNL     1     -39.700  11.944   4.658  1.00 20.00     0.007 C 
HETATM    5  C3  UNL     1     -38.899  11.618   3.637  1.00 20.00     0.010 C 
ENDBRANCH   3   4
BRANCH   3   6
HETATM    6  O10 UNL     1     -37.849  12.184   6.111  1.00 20.00    -0.380 OA
HETATM    7  H22 UNL     1     -37.654  12.826   5.411  1.00 20.00     0.211 HD
ENDBRANCH   3   6
ENDBRANCH   2   3
BRANCH   1   8
HETATM    8  C7  UNL     1     -41.159  15.018   8.094  1.00 20.00     0.020 A 
HETATM    9  C5  UNL     1     -40.402  15.679   9.224  1.00 20.00     0.024 A 
HETATM   10  C6  UNL     1     -40.597  16.413   7.930  1.00 20.00     0.024 A 
HETATM   11  C8  UNL     1     -42.647  14.867   8.232  1.00 20.00     0.029 C 
ENDBRANCH   1   8
TORSDOF 4
ENDMDL
MODEL 7
REMARK VINA RESULT:      -3.6      2.229      4.935
REMARK  4 active torsions:
REMARK  status: ('A' for Active; 'I' for Inactive)
REMARK    1  A    between atoms: C1_1  and  C7_7 
REMARK    2  A    between atoms: C2_2  and  C9_9 
REMARK    3  A    between atoms: C4_4  and  C9_9 
REMARK    4  A    between atoms: C9_9  and  O10_10 
ROOT
HETATM    1  C1  UNL     1     -33.144  17.809  -2.639  1.00 20.00    -0.094 C 
HETATM    2  C2  UNL     1     -32.588  18.373  -1.736  1.00 20.00    -0.070 C 
ENDROOT
BRANCH   2   3
HETATM    3  C9  UNL     1     -31.914  19.066  -0.631  1.00 20.00     0.219 C 
BRANCH   3   4
HETATM    4  C4  UNL     1     -32.655  18.830   0.649  1.00 20.00     0.007 C 
HETATM    5  C3  UNL     1     -33.859  18.248   0.718  1.00 20.00     0.010 C 
ENDBRANCH   3   4
BRANCH   3   6
HETATM    6  O10 UNL     1     -30.591  18.561  -0.473  1.00 20.00    -0.380 OA
HETATM    7  H22 UNL     1     -29.991  19.244  -0.810  1.00 20.00     0.211 HD
ENDBRANCH   3   6
ENDBRANCH   2   3
BRANCH   1   8
HETATM    8  C7  UNL     1     -33.811  17.133  -3.722  1.00 20.00     0.020 A 
HETATM    9  C5  UNL     1     -35.183  17.636  -4.112  1.00 20.00     0.024 A 
HETATM   10  C6  UNL     1     -34.009  17.908  -5.005  1.00 20.00     0.024 A 
HETATM   11  C8  UNL     1     -33.543  15.658  -3.821  1.00 20.00     0.029 C 
ENDBRANCH   1   8
TORSDOF 4
ENDMDL
MODEL 8
REMARK VINA RESULT:      -3.5     10.811     12.248
REMARK  4 active torsions:
REMARK  status: ('A' for Active; 'I' for Inactive)
REMARK    1  A    between atoms: C1_1  and  C7_7 
REMARK    2  A    between atoms: C2_2  and  C9_9 
REMARK    3  A    between atoms: C4_4  and  C9_9 
REMARK    4  A    between atoms: C9_9  and  O10_10 
ROOT
HETATM    1  C1  UNL     1     -41.041  14.715   6.855  1.00 20.00    -0.094 C 
HETATM    2  C2  UNL     1     -40.600  13.626   6.609  1.00 20.00    -0.070 C 
ENDROOT
BRANCH   2   3
HETATM    3  C9  UNL     1     -40.068  12.291   6.309  1.00 20.00     0.219 C 
BRANCH   3   4
HETATM    4  C4  UNL     1     -39.864  12.142   4.832  1.00 20.00     0.007 C 
HETATM    5  C3  UNL     1     -38.746  11.656   4.278  1.00 20.00     0.010 C 
ENDBRANCH   3   4
BRANCH   3   6
HETATM    6  O10 UNL     1     -38.806  12.114   6.947  1.00 20.00    -0.380 OA
HETATM    7  H22 UNL     1     -38.286  11.529   6.376  1.00 20.00     0.211 HD
ENDBRANCH   3   6
ENDBRANCH   2   3
BRANCH   1   8
HETATM    8  C7  UNL     1     -41.571  16.023   7.150  1.00 20.00     0.020 A 
HETATM    9  C5  UNL     1     -41.891  16.330   8.595  1.00 20.00     0.024 A 
HETATM   10  C6  UNL     1     -40.693  16.961   7.948  1.00 20.00     0.024 A 
HETATM   11  C8  UNL     1     -42.454  16.613   6.088  1.00 20.00     0.029 C 
ENDBRANCH   1   8
TORSDOF 4
ENDMDL
MODEL 9
REMARK VINA RESULT:      -3.5     14.201     15.099
REMARK  4 active torsions:
REMARK  status: ('A' for Active; 'I' for Inactive)
REMARK    1  A    between atoms: C1_1  and  C7_7 
REMARK    2  A    between atoms: C2_2  and  C9_9 
REMARK    3  A    between atoms: C4_4  and  C9_9 
REMARK    4  A    between atoms: C9_9  and  O10_10 
ROOT
HETATM    1  C1  UNL     1     -42.591   5.493  -0.641  1.00 20.00    -0.094 C 
HETATM    2  C2  UNL     1     -42.911   4.610  -1.389  1.00 20.00    -0.070 C 
ENDROOT
BRANCH   2   3
HETATM    3  C9  UNL     1     -43.310   3.535  -2.306  1.00 20.00     0.219 C 
BRANCH   3   4
HETATM    4  C4  UNL     1     -42.287   3.382  -3.389  1.00 20.00     0.007 C 
HETATM    5  C3  UNL     1     -41.812   2.202  -3.806  1.00 20.00     0.010 C 
ENDBRANCH   3   4
BRANCH   3   6
HETATM    6  O10 UNL     1     -43.393   2.299  -1.601  1.00 20.00    -0.380 OA
HETATM    7  H22 UNL     1     -43.304   2.511  -0.659  1.00 20.00     0.211 HD
ENDBRANCH   3   6
ENDBRANCH   2   3
BRANCH   1   8
HETATM    8  C7  UNL     1     -42.206   6.553   0.257  1.00 20.00     0.020 A 
HETATM    9  C5  UNL     1     -40.726   6.815   0.424  1.00 20.00     0.024 A 
HETATM   10  C6  UNL     1     -41.570   7.781  -0.355  1.00 20.00     0.024 A 
HETATM   11  C8  UNL     1     -43.097   6.739   1.451  1.00 20.00     0.029 C 
ENDBRANCH   1   8
TORSDOF 4
ENDMDL
