MODEL 1
REMARK VINA RESULT:      -5.5      0.000      0.000
REMARK  1 active torsions:
REMARK  status: ('A' for Active; 'I' for Inactive)
REMARK    1  A    between atoms: C1_1  and  C7_7 
ROOT
HETATM    1  C2  UNL     1     -33.458   4.520   3.175  1.00 20.00     0.001 C 
HETATM    2  C3  UNL     1     -33.574   7.129   6.239  1.00 20.00     0.014 C 
HETATM    3  C4  UNL     1     -34.049   4.293   4.557  1.00 20.00     0.005 C 
HETATM    4  C5  UNL     1     -33.021   5.974   3.240  1.00 20.00     0.006 C 
HETATM    5  C6  UNL     1     -34.675   6.078   6.293  1.00 20.00     0.006 C 
HETATM    6  C7  UNL     1     -33.821   7.820   4.903  1.00 20.00     0.076 C 
HETATM    7  C8  UNL     1     -34.818   5.584   4.852  1.00 20.00    -0.010 C 
HETATM    8  C9  UNL     1     -34.183   6.674   3.954  1.00 20.00     0.002 C 
ENDROOT
BRANCH   6   9
HETATM    9  C1  UNL     1     -32.655   8.641   4.449  1.00 20.00     0.223 C 
HETATM   10  O10 UNL     1     -31.718   8.898   5.198  1.00 20.00    -0.279 OA
HETATM   11 CL11 UNL     1     -32.817   9.147   2.794  1.00 20.00    -0.043 Cl
ENDBRANCH   6   9
TORSDOF 1
ENDMDL
MODEL 2
REMARK VINA RESULT:      -5.0      1.139      1.139
REMARK  1 active torsions:
REMARK  status: ('A' for Active; 'I' for Inactive)
REMARK    1  A    between atoms: C1_1  and  C7_7 
ROOT
HETATM    1  C2  UNL     1     -33.601   4.314   3.362  1.00 20.00     0.001 C 
HETATM    2  C3  UNL     1     -33.499   7.233   6.133  1.00 20.00     0.014 C 
HETATM    3  C4  UNL     1     -34.031   4.219   4.817  1.00 20.00     0.005 C 
HETATM    4  C5  UNL     1     -33.221   5.779   3.227  1.00 20.00     0.006 C 
HETATM    5  C6  UNL     1     -34.542   6.160   6.417  1.00 20.00     0.006 C 
HETATM    6  C7  UNL     1     -33.916   7.768   4.768  1.00 20.00     0.076 C 
HETATM    7  C8  UNL     1     -34.818   5.510   5.060  1.00 20.00    -0.010 C 
HETATM    8  C9  UNL     1     -34.329   6.516   3.990  1.00 20.00     0.002 C 
ENDROOT
BRANCH   6   9
HETATM    9  C1  UNL     1     -32.841   8.570   4.106  1.00 20.00     0.223 C 
HETATM   10  O10 UNL     1     -32.760   8.655   2.884  1.00 20.00    -0.279 OA
HETATM   11 CL11 UNL     1     -31.782   9.323   5.259  1.00 20.00    -0.043 Cl
ENDBRANCH   6   9
TORSDOF 1
ENDMDL
MODEL 3
REMARK VINA RESULT:      -4.6     15.308     16.713
REMARK  1 active torsions:
REMARK  status: ('A' for Active; 'I' for Inactive)
REMARK    1  A    between atoms: C1_1  and  C7_7 
ROOT
HETATM    1  C2  UNL     1     -24.553  16.643  11.563  1.00 20.00     0.001 C 
HETATM    2  C3  UNL     1     -21.293  18.519  10.128  1.00 20.00     0.014 C 
HETATM    3  C4  UNL     1     -23.300  17.032  12.332  1.00 20.00     0.005 C 
HETATM    4  C5  UNL     1     -24.280  17.214  10.181  1.00 20.00     0.006 C 
HETATM    5  C6  UNL     1     -21.503  18.722  11.623  1.00 20.00     0.006 C 
HETATM    6  C7  UNL     1     -22.574  19.075   9.519  1.00 20.00     0.076 C 
HETATM    7  C8  UNL     1     -22.991  18.452  11.851  1.00 20.00    -0.010 C 
HETATM    8  C9  UNL     1     -23.675  18.593  10.468  1.00 20.00     0.002 C 
ENDROOT
BRANCH   6   9
HETATM    9  C1  UNL     1     -22.771  18.657   8.097  1.00 20.00     0.223 C 
HETATM   10  O10 UNL     1     -23.746  19.021   7.447  1.00 20.00    -0.279 OA
HETATM   11 CL11 UNL     1     -21.485  17.634   7.532  1.00 20.00    -0.043 Cl
ENDBRANCH   6   9
TORSDOF 1
ENDMDL
MODEL 4
REMARK VINA RESULT:      -4.5      2.566      4.151
REMARK  1 active torsions:
REMARK  status: ('A' for Active; 'I' for Inactive)
REMARK    1  A    between atoms: C1_1  and  C7_7 
ROOT
HETATM    1  C2  UNL     1     -32.595   8.793   5.636  1.00 20.00     0.001 C 
HETATM    2  C3  UNL     1     -32.697   5.752   2.999  1.00 20.00     0.014 C 
HETATM    3  C4  UNL     1     -31.953   8.745   4.259  1.00 20.00     0.005 C 
HETATM    4  C5  UNL     1     -33.330   7.464   5.701  1.00 20.00     0.006 C 
HETATM    5  C6  UNL     1     -32.487   7.113   2.350  1.00 20.00     0.006 C 
HETATM    6  C7  UNL     1     -34.030   5.915   3.721  1.00 20.00     0.076 C 
HETATM    7  C8  UNL     1     -33.029   8.121   3.365  1.00 20.00    -0.010 C 
HETATM    8  C9  UNL     1     -33.961   7.326   4.311  1.00 20.00     0.002 C 
ENDROOT
BRANCH   6   9
HETATM    9  C1  UNL     1     -34.277   4.843   4.734  1.00 20.00     0.223 C 
HETATM   10  O10 UNL     1     -33.919   3.684   4.547  1.00 20.00    -0.279 OA
HETATM   11 CL11 UNL     1     -35.103   5.448   6.138  1.00 20.00    -0.043 Cl
ENDBRANCH   6   9
TORSDOF 1
ENDMDL
MODEL 5
REMARK VINA RESULT:      -4.5      1.666      2.440
REMARK  1 active torsions:
REMARK  status: ('A' for Active; 'I' for Inactive)
REMARK    1  A    between atoms: C1_1  and  C7_7 
ROOT
HETATM    1  C2  UNL     1     -34.691   5.174   5.611  1.00 20.00     0.001 C 
HETATM    2  C3  UNL     1     -32.216   8.222   4.721  1.00 20.00     0.014 C 
HETATM    3  C4  UNL     1     -34.235   6.291   6.536  1.00 20.00     0.005 C 
HETATM    4  C5  UNL     1     -34.051   5.561   4.288  1.00 20.00     0.006 C 
HETATM    5  C6  UNL     1     -33.174   8.530   5.864  1.00 20.00     0.006 C 
HETATM    6  C7  UNL     1     -33.153   7.901   3.562  1.00 20.00     0.076 C 
HETATM    7  C8  UNL     1     -34.337   7.554   5.677  1.00 20.00    -0.010 C 
HETATM    8  C9  UNL     1     -34.270   7.077   4.205  1.00 20.00     0.002 C 
ENDROOT
BRANCH   6   9
HETATM    9  C1  UNL     1     -32.461   7.211   2.429  1.00 20.00     0.223 C 
HETATM   10  O10 UNL     1     -32.210   6.010   2.464  1.00 20.00    -0.279 OA
HETATM   11 CL11 UNL     1     -32.086   8.301   1.130  1.00 20.00    -0.043 Cl
ENDBRANCH   6   9
TORSDOF 1
ENDMDL
MODEL 6
REMARK VINA RESULT:      -4.3      2.457      3.568
REMARK  1 active torsions:
REMARK  status: ('A' for Active; 'I' for Inactive)
REMARK    1  A    between atoms: C1_1  and  C7_7 
ROOT
HETATM    1  C2  UNL     1     -32.187   7.757   1.841  1.00 20.00     0.001 C 
HETATM    2  C3  UNL     1     -34.319   7.760   5.256  1.00 20.00     0.014 C 
HETATM    3  C4  UNL     1     -32.347   8.903   2.827  1.00 20.00     0.005 C 
HETATM    4  C5  UNL     1     -32.951   6.632   2.520  1.00 20.00     0.006 C 
HETATM    5  C6  UNL     1     -33.173   8.764   5.253  1.00 20.00     0.006 C 
HETATM    6  C7  UNL     1     -33.612   6.428   5.036  1.00 20.00     0.076 C 
HETATM    7  C8  UNL     1     -32.195   8.241   4.199  1.00 20.00    -0.010 C 
HETATM    8  C9  UNL     1     -32.539   6.746   3.992  1.00 20.00     0.002 C 
ENDROOT
BRANCH   6   9
HETATM    9  C1  UNL     1     -34.549   5.333   4.633  1.00 20.00     0.223 C 
HETATM   10  O10 UNL     1     -34.207   4.155   4.649  1.00 20.00    -0.279 OA
HETATM   11 CL11 UNL     1     -36.106   5.945   4.163  1.00 20.00    -0.043 Cl
ENDBRANCH   6   9
TORSDOF 1
ENDMDL
MODEL 7
REMARK VINA RESULT:      -4.2     12.314     13.795
REMARK  1 active torsions:
REMARK  status: ('A' for Active; 'I' for Inactive)
REMARK    1  A    between atoms: C1_1  and  C7_7 
ROOT
HETATM    1  C2  UNL     1     -35.918  18.575  -3.994  1.00 20.00     0.001 C 
HETATM    2  C3  UNL     1     -33.895  15.096  -3.871  1.00 20.00     0.014 C 
HETATM    3  C4  UNL     1     -34.799  18.193  -3.039  1.00 20.00     0.005 C 
HETATM    4  C5  UNL     1     -35.997  17.364  -4.908  1.00 20.00     0.006 C 
HETATM    5  C6  UNL     1     -33.114  16.275  -3.306  1.00 20.00     0.006 C 
HETATM    6  C7  UNL     1     -34.184  15.528  -5.304  1.00 20.00     0.076 C 
HETATM    7  C8  UNL     1     -33.759  17.512  -3.933  1.00 20.00    -0.010 C 
HETATM    8  C9  UNL     1     -34.529  17.015  -5.181  1.00 20.00     0.002 C 
ENDROOT
BRANCH   6   9
HETATM    9  C1  UNL     1     -35.252  14.707  -5.954  1.00 20.00     0.223 C 
HETATM   10  O10 UNL     1     -35.434  14.732  -7.168  1.00 20.00    -0.279 OA
HETATM   11 CL11 UNL     1     -36.147  13.766  -4.800  1.00 20.00    -0.043 Cl
ENDBRANCH   6   9
TORSDOF 1
ENDMDL
MODEL 8
REMARK VINA RESULT:      -4.0     12.435     13.659
REMARK  1 active torsions:
REMARK  status: ('A' for Active; 'I' for Inactive)
REMARK    1  A    between atoms: C1_1  and  C7_7 
ROOT
HETATM    1  C2  UNL     1     -34.149  17.931  -2.730  1.00 20.00     0.001 C 
HETATM    2  C3  UNL     1     -34.870  14.477  -4.669  1.00 20.00     0.014 C 
HETATM    3  C4  UNL     1     -33.460  16.593  -2.516  1.00 20.00     0.005 C 
HETATM    4  C5  UNL     1     -35.084  17.636  -3.892  1.00 20.00     0.006 C 
HETATM    5  C6  UNL     1     -33.460  14.573  -4.100  1.00 20.00     0.006 C 
HETATM    6  C7  UNL     1     -34.946  15.675  -5.608  1.00 20.00     0.076 C 
HETATM    7  C8  UNL     1     -33.204  16.072  -3.933  1.00 20.00    -0.010 C 
HETATM    8  C9  UNL     1     -34.229  16.791  -4.844  1.00 20.00     0.002 C 
ENDROOT
BRANCH   6   9
HETATM    9  C1  UNL     1     -36.348  16.013  -6.006  1.00 20.00     0.223 C 
HETATM   10  O10 UNL     1     -37.313  15.421  -5.532  1.00 20.00    -0.279 OA
HETATM   11 CL11 UNL     1     -36.404  17.297  -7.176  1.00 20.00    -0.043 Cl
ENDBRANCH   6   9
TORSDOF 1
ENDMDL
MODEL 9
REMARK VINA RESULT:      -4.0     12.896     14.418
REMARK  1 active torsions:
REMARK  status: ('A' for Active; 'I' for Inactive)
REMARK    1  A    between atoms: C1_1  and  C7_7 
ROOT
HETATM    1  C2  UNL     1     -33.305  16.261  -3.101  1.00 20.00     0.001 C 
HETATM    2  C3  UNL     1     -34.529  17.728  -6.644  1.00 20.00     0.014 C 
HETATM    3  C4  UNL     1     -33.348  17.719  -3.529  1.00 20.00     0.005 C 
HETATM    4  C5  UNL     1     -33.910  15.549  -4.300  1.00 20.00     0.006 C 
HETATM    5  C6  UNL     1     -34.655  18.723  -5.497  1.00 20.00     0.006 C 
HETATM    6  C7  UNL     1     -35.398  16.563  -6.188  1.00 20.00     0.076 C 
HETATM    7  C8  UNL     1     -34.700  17.862  -4.234  1.00 20.00    -0.010 C 
HETATM    8  C9  UNL     1     -35.096  16.437  -4.693  1.00 20.00     0.002 C 
ENDROOT
BRANCH   6   9
HETATM    9  C1  UNL     1     -35.147  15.311  -6.968  1.00 20.00     0.223 C 
HETATM   10  O10 UNL     1     -35.917  14.357  -6.920  1.00 20.00    -0.279 OA
HETATM   11 CL11 UNL     1     -33.683  15.403  -7.899  1.00 20.00    -0.043 Cl
ENDBRANCH   6   9
TORSDOF 1
ENDMDL
