MODEL 1
REMARK VINA RESULT:      -4.0      0.000      0.000
REMARK  1 active torsions:
REMARK  status: ('A' for Active; 'I' for Inactive)
REMARK    1  A    between atoms: C3_3  and  C6_6 
ROOT
HETATM    1  C1  UNL     1     -40.602   6.579   0.539  1.00 20.00    -0.022 C 
HETATM    2  C2  UNL     1     -41.258   7.296   1.464  1.00 20.00    -0.022 C 
HETATM    3  C4  UNL     1     -41.605   6.194  -0.525  1.00 20.00     0.053 C 
HETATM    4  C5  UNL     1     -42.699   7.397   1.017  1.00 20.00     0.047 C 
HETATM    5  C6  UNL     1     -42.553   5.145   0.111  1.00 20.00     0.062 C 
HETATM    6  C7  UNL     1     -43.387   6.005   1.121  1.00 20.00     0.003 C 
HETATM    7  C8  UNL     1     -42.475   7.455  -0.495  1.00 20.00     0.186 C 
HETATM    8  C9  UNL     1     -43.417   5.417   2.525  1.00 20.00     0.011 C 
HETATM    9  F11 UNL     1     -41.794   8.559  -0.873  1.00 20.00    -0.248 F 
ENDROOT
BRANCH   5  10
HETATM   10  C3  UNL     1     -43.417   4.510  -0.936  1.00 20.00     0.236 C 
HETATM   11  O10 UNL     1     -43.029   4.261  -2.073  1.00 20.00    -0.306 OA
ENDBRANCH   5  10
TORSDOF 1
ENDMDL
MODEL 2
REMARK VINA RESULT:      -3.9      9.786     10.467
REMARK  1 active torsions:
REMARK  status: ('A' for Active; 'I' for Inactive)
REMARK    1  A    between atoms: C3_3  and  C6_6 
ROOT
HETATM    1  C1  UNL     1     -33.872   8.946   3.481  1.00 20.00    -0.022 C 
HETATM    2  C2  UNL     1     -32.761   8.533   2.851  1.00 20.00    -0.022 C 
HETATM    3  C4  UNL     1     -33.899   8.270   4.833  1.00 20.00     0.053 C 
HETATM    4  C5  UNL     1     -32.041   7.585   3.783  1.00 20.00     0.047 C 
HETATM    5  C6  UNL     1     -34.190   6.768   4.578  1.00 20.00     0.062 C 
HETATM    6  C7  UNL     1     -32.853   6.266   3.931  1.00 20.00     0.003 C 
HETATM    7  C8  UNL     1     -32.393   8.249   5.116  1.00 20.00     0.186 C 
HETATM    8  C9  UNL     1     -33.066   5.504   2.631  1.00 20.00     0.011 C 
HETATM    9  F11 UNL     1     -31.873   9.491   5.226  1.00 20.00    -0.248 F 
ENDROOT
BRANCH   5  10
HETATM   10  C3  UNL     1     -34.494   6.063   5.864  1.00 20.00     0.236 C 
HETATM   11  O10 UNL     1     -34.445   4.844   5.994  1.00 20.00    -0.306 OA
ENDBRANCH   5  10
TORSDOF 1
ENDMDL
MODEL 3
REMARK VINA RESULT:      -3.8      9.527     10.113
REMARK  1 active torsions:
REMARK  status: ('A' for Active; 'I' for Inactive)
REMARK    1  A    between atoms: C3_3  and  C6_6 
ROOT
HETATM    1  C1  UNL     1     -31.484   8.214   4.313  1.00 20.00    -0.022 C 
HETATM    2  C2  UNL     1     -32.402   8.891   5.019  1.00 20.00    -0.022 C 
HETATM    3  C4  UNL     1     -32.226   7.393   3.283  1.00 20.00     0.053 C 
HETATM    4  C5  UNL     1     -33.759   8.529   4.458  1.00 20.00     0.047 C 
HETATM    5  C6  UNL     1     -32.962   6.266   4.053  1.00 20.00     0.062 C 
HETATM    6  C7  UNL     1     -34.097   7.049   4.800  1.00 20.00     0.003 C 
HETATM    7  C8  UNL     1     -33.372   8.366   2.987  1.00 20.00     0.186 C 
HETATM    8  C9  UNL     1     -34.157   6.740   6.289  1.00 20.00     0.011 C 
HETATM    9  F11 UNL     1     -32.937   9.521   2.438  1.00 20.00    -0.248 F 
ENDROOT
BRANCH   5  10
HETATM   10  C3  UNL     1     -33.512   5.248   3.102  1.00 20.00     0.236 C 
HETATM   11  O10 UNL     1     -32.857   4.748   2.194  1.00 20.00    -0.306 OA
ENDBRANCH   5  10
TORSDOF 1
ENDMDL
MODEL 4
REMARK VINA RESULT:      -3.8      8.857     10.213
REMARK  1 active torsions:
REMARK  status: ('A' for Active; 'I' for Inactive)
REMARK    1  A    between atoms: C3_3  and  C6_6 
ROOT
HETATM    1  C1  UNL     1     -35.542   5.824   4.337  1.00 20.00    -0.022 C 
HETATM    2  C2  UNL     1     -35.383   5.520   5.634  1.00 20.00    -0.022 C 
HETATM    3  C4  UNL     1     -34.162   6.012   3.748  1.00 20.00     0.053 C 
HETATM    4  C5  UNL     1     -33.897   5.499   5.913  1.00 20.00     0.047 C 
HETATM    5  C6  UNL     1     -33.597   7.329   4.339  1.00 20.00     0.062 C 
HETATM    6  C7  UNL     1     -33.320   6.941   5.832  1.00 20.00     0.003 C 
HETATM    7  C8  UNL     1     -33.411   4.957   4.567  1.00 20.00     0.186 C 
HETATM    8  C9  UNL     1     -33.925   7.922   6.828  1.00 20.00     0.011 C 
HETATM    9  F11 UNL     1     -33.855   3.705   4.324  1.00 20.00    -0.248 F 
ENDROOT
BRANCH   5  10
HETATM   10  C3  UNL     1     -32.347   7.738   3.622  1.00 20.00     0.236 C 
HETATM   11  O10 UNL     1     -32.131   7.481   2.442  1.00 20.00    -0.306 OA
ENDBRANCH   5  10
TORSDOF 1
ENDMDL
MODEL 5
REMARK VINA RESULT:      -3.7     19.803     20.792
REMARK  1 active torsions:
REMARK  status: ('A' for Active; 'I' for Inactive)
REMARK    1  A    between atoms: C3_3  and  C6_6 
ROOT
HETATM    1  C1  UNL     1     -28.330  -1.246  12.126  1.00 20.00    -0.022 C 
HETATM    2  C2  UNL     1     -28.916  -2.017  11.198  1.00 20.00    -0.022 C 
HETATM    3  C4  UNL     1     -26.931  -0.942  11.640  1.00 20.00     0.053 C 
HETATM    4  C5  UNL     1     -27.912  -2.225  10.086  1.00 20.00     0.047 C 
HETATM    5  C6  UNL     1     -26.125  -2.263  11.736  1.00 20.00     0.062 C 
HETATM    6  C7  UNL     1     -26.745  -3.126  10.584  1.00 20.00     0.003 C 
HETATM    7  C8  UNL     1     -27.217  -0.863  10.136  1.00 20.00     0.186 C 
HETATM    8  C9  UNL     1     -27.168  -4.516  11.040  1.00 20.00     0.011 C 
HETATM    9  F11 UNL     1     -28.051   0.153   9.824  1.00 20.00    -0.248 F 
ENDROOT
BRANCH   5  10
HETATM   10  C3  UNL     1     -24.664  -2.007  11.525  1.00 20.00     0.236 C 
HETATM   11  O10 UNL     1     -24.079  -1.024  11.966  1.00 20.00    -0.306 OA
ENDBRANCH   5  10
TORSDOF 1
ENDMDL
MODEL 6
REMARK VINA RESULT:      -3.5     12.811     14.003
REMARK  1 active torsions:
REMARK  status: ('A' for Active; 'I' for Inactive)
REMARK    1  A    between atoms: C3_3  and  C6_6 
ROOT
HETATM    1  C1  UNL     1     -33.870  15.296  -6.772  1.00 20.00    -0.022 C 
HETATM    2  C2  UNL     1     -34.918  16.085  -7.054  1.00 20.00    -0.022 C 
HETATM    3  C4  UNL     1     -33.947  14.955  -5.301  1.00 20.00     0.053 C 
HETATM    4  C5  UNL     1     -35.700  16.269  -5.773  1.00 20.00     0.047 C 
HETATM    5  C6  UNL     1     -33.614  16.254  -4.522  1.00 20.00     0.062 C 
HETATM    6  C7  UNL     1     -34.885  17.137  -4.772  1.00 20.00     0.003 C 
HETATM    7  C8  UNL     1     -35.471  14.889  -5.154  1.00 20.00     0.186 C 
HETATM    8  C9  UNL     1     -34.553  18.536  -5.271  1.00 20.00     0.011 C 
HETATM    9  F11 UNL     1     -36.016  13.896  -5.892  1.00 20.00    -0.248 F 
ENDROOT
BRANCH   5  10
HETATM   10  C3  UNL     1     -33.409  15.960  -3.068  1.00 20.00     0.236 C 
HETATM   11  O10 UNL     1     -33.660  16.762  -2.174  1.00 20.00    -0.306 OA
ENDBRANCH   5  10
TORSDOF 1
ENDMDL
MODEL 7
REMARK VINA RESULT:      -3.4     14.091     14.899
REMARK  1 active torsions:
REMARK  status: ('A' for Active; 'I' for Inactive)
REMARK    1  A    between atoms: C3_3  and  C6_6 
ROOT
HETATM    1  C1  UNL     1     -32.543  19.253  -2.202  1.00 20.00    -0.022 C 
HETATM    2  C2  UNL     1     -32.356  18.116  -1.515  1.00 20.00    -0.022 C 
HETATM    3  C4  UNL     1     -33.976  19.259  -2.682  1.00 20.00     0.053 C 
HETATM    4  C5  UNL     1     -33.667  17.361  -1.531  1.00 20.00     0.047 C 
HETATM    5  C6  UNL     1     -34.083  18.174  -3.786  1.00 20.00     0.062 C 
HETATM    6  C7  UNL     1     -33.964  16.842  -2.968  1.00 20.00     0.003 C 
HETATM    7  C8  UNL     1     -34.627  18.551  -1.489  1.00 20.00     0.186 C 
HETATM    8  C9  UNL     1     -32.917  15.888  -3.526  1.00 20.00     0.011 C 
HETATM    9  F11 UNL     1     -34.516  19.263  -0.346  1.00 20.00    -0.248 F 
ENDROOT
BRANCH   5  10
HETATM   10  C3  UNL     1     -35.393  18.279  -4.505  1.00 20.00     0.236 C 
HETATM   11  O10 UNL     1     -36.072  17.307  -4.817  1.00 20.00    -0.306 OA
ENDBRANCH   5  10
TORSDOF 1
ENDMDL
MODEL 8
REMARK VINA RESULT:      -3.4     13.024     14.161
REMARK  1 active torsions:
REMARK  status: ('A' for Active; 'I' for Inactive)
REMARK    1  A    between atoms: C3_3  and  C6_6 
ROOT
HETATM    1  C1  UNL     1     -35.447  14.693  -4.763  1.00 20.00    -0.022 C 
HETATM    2  C2  UNL     1     -34.291  14.300  -4.207  1.00 20.00    -0.022 C 
HETATM    3  C4  UNL     1     -35.178  15.989  -5.493  1.00 20.00     0.053 C 
HETATM    4  C5  UNL     1     -33.245  15.331  -4.570  1.00 20.00     0.047 C 
HETATM    5  C6  UNL     1     -34.936  17.072  -4.409  1.00 20.00     0.062 C 
HETATM    6  C7  UNL     1     -33.537  16.668  -3.829  1.00 20.00     0.003 C 
HETATM    7  C8  UNL     1     -33.750  15.700  -5.966  1.00 20.00     0.186 C 
HETATM    8  C9  UNL     1     -33.525  16.567  -2.311  1.00 20.00     0.011 C 
HETATM    9  F11 UNL     1     -33.693  14.661  -6.826  1.00 20.00    -0.248 F 
ENDROOT
BRANCH   5  10
HETATM   10  C3  UNL     1     -34.919  18.438  -5.022  1.00 20.00     0.236 C 
HETATM   11  O10 UNL     1     -33.912  19.135  -5.091  1.00 20.00    -0.306 OA
ENDBRANCH   5  10
TORSDOF 1
ENDMDL
MODEL 9
REMARK VINA RESULT:      -3.4      9.166     10.259
REMARK  1 active torsions:
REMARK  status: ('A' for Active; 'I' for Inactive)
REMARK    1  A    between atoms: C3_3  and  C6_6 
ROOT
HETATM    1  C1  UNL     1     -40.794  14.323   8.554  1.00 20.00    -0.022 C 
HETATM    2  C2  UNL     1     -42.127  14.423   8.670  1.00 20.00    -0.022 C 
HETATM    3  C4  UNL     1     -40.472  14.302   7.077  1.00 20.00     0.053 C 
HETATM    4  C5  UNL     1     -42.698  14.474   7.271  1.00 20.00     0.047 C 
HETATM    5  C6  UNL     1     -40.965  12.937   6.530  1.00 20.00     0.062 C 
HETATM    6  C7  UNL     1     -42.524  13.094   6.574  1.00 20.00     0.003 C 
HETATM    7  C8  UNL     1     -41.572  15.248   6.584  1.00 20.00     0.186 C 
HETATM    8  C9  UNL     1     -43.222  11.938   7.276  1.00 20.00     0.011 C 
HETATM    9  F11 UNL     1     -41.432  16.499   7.073  1.00 20.00    -0.248 F 
ENDROOT
BRANCH   5  10
HETATM   10  C3  UNL     1     -40.461  12.713   5.137  1.00 20.00     0.236 C 
HETATM   11  O10 UNL     1     -39.740  11.772   4.823  1.00 20.00    -0.306 OA
ENDBRANCH   5  10
TORSDOF 1
ENDMDL
