MODEL 1
REMARK VINA RESULT:      -3.5      0.000      0.000
REMARK  5 active torsions:
REMARK  status: ('A' for Active; 'I' for Inactive)
REMARK    1  A    between atoms: C1_1  and  C5_5 
REMARK    2  A    between atoms: C5_5  and  C8_8 
REMARK    3  A    between atoms: C6_6  and  N9_9 
REMARK    4  A    between atoms: C7_7  and  N9_9 
REMARK    5  A    between atoms: C8_8  and  N9_9 
ROOT
HETATM    1  C1  UNL     1     -27.413  18.902  12.213  1.00 20.00    -0.092 C 
HETATM    2  C2  UNL     1     -28.579  18.621  12.163  1.00 20.00    -0.022 C 
HETATM    3  S10 UNL     1     -30.318  18.204  12.092  1.00 20.00     0.008 SA
ENDROOT
BRANCH   1   4
HETATM    4  C5  UNL     1     -25.984  19.246  12.272  1.00 20.00     0.122 C 
BRANCH   4   5
HETATM    5  C8  UNL     1     -25.243  18.856  11.002  1.00 20.00     0.246 C 
BRANCH   5   6
HETATM    6  N9  UNL     1     -23.765  18.791  11.263  1.00 20.00    -0.071 N 
HETATM    7  H25 UNL     1     -23.530  19.599  11.854  1.00 20.00     0.279 HD
BRANCH   6   8
HETATM    8  C6  UNL     1     -23.385  17.561  12.038  1.00 20.00     0.230 C 
HETATM    9  C3  UNL     1     -24.217  16.392  11.556  1.00 20.00     0.034 C 
ENDBRANCH   6   8
BRANCH   6  10
HETATM   10  C7  UNL     1     -22.965  18.928  10.000  1.00 20.00     0.230 C 
HETATM   11  C4  UNL     1     -23.897  19.258   8.854  1.00 20.00     0.034 C 
ENDBRANCH   6  10
ENDBRANCH   5   6
ENDBRANCH   4   5
ENDBRANCH   1   4
TORSDOF 5
ENDMDL
MODEL 2
REMARK VINA RESULT:      -3.5     14.958     16.074
REMARK  5 active torsions:
REMARK  status: ('A' for Active; 'I' for Inactive)
REMARK    1  A    between atoms: C1_1  and  C5_5 
REMARK    2  A    between atoms: C5_5  and  C8_8 
REMARK    3  A    between atoms: C6_6  and  N9_9 
REMARK    4  A    between atoms: C7_7  and  N9_9 
REMARK    5  A    between atoms: C8_8  and  N9_9 
ROOT
HETATM    1  C1  UNL     1     -31.846  18.485  -0.579  1.00 20.00    -0.092 C 
HETATM    2  C2  UNL     1     -31.251  18.677   0.445  1.00 20.00    -0.022 C 
HETATM    3  S10 UNL     1     -30.363  18.958   1.974  1.00 20.00     0.008 SA
ENDROOT
BRANCH   1   4
HETATM    4  C5  UNL     1     -32.575  18.252  -1.835  1.00 20.00     0.122 C 
BRANCH   4   5
HETATM    5  C8  UNL     1     -33.523  17.066  -1.740  1.00 20.00     0.246 C 
BRANCH   5   6
HETATM    6  N9  UNL     1     -34.048  16.712  -3.103  1.00 20.00    -0.071 N 
HETATM    7  H25 UNL     1     -34.972  16.282  -2.964  1.00 20.00     0.279 HD
BRANCH   6   8
HETATM    8  C6  UNL     1     -34.258  17.930  -3.958  1.00 20.00     0.230 C 
HETATM    9  C3  UNL     1     -35.740  18.125  -4.192  1.00 20.00     0.034 C 
ENDBRANCH   6   8
BRANCH   6  10
HETATM   10  C7  UNL     1     -33.189  15.687  -3.787  1.00 20.00     0.230 C 
HETATM   11  C4  UNL     1     -34.048  14.509  -4.193  1.00 20.00     0.034 C 
ENDBRANCH   6  10
ENDBRANCH   5   6
ENDBRANCH   4   5
ENDBRANCH   1   4
TORSDOF 5
ENDMDL
MODEL 3
REMARK VINA RESULT:      -3.4     16.937     17.956
REMARK  5 active torsions:
REMARK  status: ('A' for Active; 'I' for Inactive)
REMARK    1  A    between atoms: C1_1  and  C5_5 
REMARK    2  A    between atoms: C5_5  and  C8_8 
REMARK    3  A    between atoms: C6_6  and  N9_9 
REMARK    4  A    between atoms: C7_7  and  N9_9 
REMARK    5  A    between atoms: C8_8  and  N9_9 
ROOT
HETATM    1  C1  UNL     1     -33.551  17.064  -1.846  1.00 20.00    -0.092 C 
HETATM    2  C2  UNL     1     -33.730  17.706  -0.847  1.00 20.00    -0.022 C 
HETATM    3  S10 UNL     1     -33.998  18.660   0.644  1.00 20.00     0.008 SA
ENDROOT
BRANCH   1   4
HETATM    4  C5  UNL     1     -33.332  16.280  -3.070  1.00 20.00     0.122 C 
BRANCH   4   5
HETATM    5  C8  UNL     1     -34.040  16.879  -4.275  1.00 20.00     0.246 C 
BRANCH   5   6
HETATM    6  N9  UNL     1     -35.251  16.061  -4.624  1.00 20.00    -0.071 N 
HETATM    7  H25 UNL     1     -35.647  15.720  -3.738  1.00 20.00     0.279 HD
BRANCH   6   8
HETATM    8  C6  UNL     1     -36.316  16.888  -5.286  1.00 20.00     0.230 C 
HETATM    9  C3  UNL     1     -36.490  18.182  -4.521  1.00 20.00     0.034 C 
ENDBRANCH   6   8
BRANCH   6  10
HETATM   10  C7  UNL     1     -34.896  14.849  -5.437  1.00 20.00     0.230 C 
HETATM   11  C4  UNL     1     -34.147  15.285  -6.678  1.00 20.00     0.034 C 
ENDBRANCH   6  10
ENDBRANCH   5   6
ENDBRANCH   4   5
ENDBRANCH   1   4
TORSDOF 5
ENDMDL
MODEL 4
REMARK VINA RESULT:      -3.4     17.081     18.031
REMARK  5 active torsions:
REMARK  status: ('A' for Active; 'I' for Inactive)
REMARK    1  A    between atoms: C1_1  and  C5_5 
REMARK    2  A    between atoms: C5_5  and  C8_8 
REMARK    3  A    between atoms: C6_6  and  N9_9 
REMARK    4  A    between atoms: C7_7  and  N9_9 
REMARK    5  A    between atoms: C8_8  and  N9_9 
ROOT
HETATM    1  C1  UNL     1     -33.500  17.139  -1.889  1.00 20.00    -0.092 C 
HETATM    2  C2  UNL     1     -33.680  17.768  -0.882  1.00 20.00    -0.022 C 
HETATM    3  S10 UNL     1     -33.945  18.708   0.617  1.00 20.00     0.008 SA
ENDROOT
BRANCH   1   4
HETATM    4  C5  UNL     1     -33.281  16.367  -3.121  1.00 20.00     0.122 C 
BRANCH   4   5
HETATM    5  C8  UNL     1     -34.095  16.902  -4.290  1.00 20.00     0.246 C 
BRANCH   5   6
HETATM    6  N9  UNL     1     -33.984  15.975  -5.467  1.00 20.00    -0.071 N 
HETATM    7  H25 UNL     1     -32.990  15.944  -5.729  1.00 20.00     0.279 HD
BRANCH   6   8
HETATM    8  C6  UNL     1     -34.386  14.571  -5.115  1.00 20.00     0.230 C 
HETATM    9  C3  UNL     1     -35.874  14.409  -5.334  1.00 20.00     0.034 C 
ENDBRANCH   6   8
BRANCH   6  10
HETATM   10  C7  UNL     1     -34.734  16.492  -6.661  1.00 20.00     0.230 C 
HETATM   11  C4  UNL     1     -33.956  16.163  -7.917  1.00 20.00     0.034 C 
ENDBRANCH   6  10
ENDBRANCH   5   6
ENDBRANCH   4   5
ENDBRANCH   1   4
TORSDOF 5
ENDMDL
MODEL 5
REMARK VINA RESULT:      -3.3     15.326     16.326
REMARK  5 active torsions:
REMARK  status: ('A' for Active; 'I' for Inactive)
REMARK    1  A    between atoms: C1_1  and  C5_5 
REMARK    2  A    between atoms: C5_5  and  C8_8 
REMARK    3  A    between atoms: C6_6  and  N9_9 
REMARK    4  A    between atoms: C7_7  and  N9_9 
REMARK    5  A    between atoms: C8_8  and  N9_9 
ROOT
HETATM    1  C1  UNL     1     -32.691  18.226  -0.634  1.00 20.00    -0.092 C 
HETATM    2  C2  UNL     1     -31.885  18.499   0.212  1.00 20.00    -0.022 C 
HETATM    3  S10 UNL     1     -30.682  18.911   1.472  1.00 20.00     0.008 SA
ENDROOT
BRANCH   1   4
HETATM    4  C5  UNL     1     -33.680  17.889  -1.669  1.00 20.00     0.122 C 
BRANCH   4   5
HETATM    5  C8  UNL     1     -33.300  16.636  -2.444  1.00 20.00     0.246 C 
BRANCH   5   6
HETATM    6  N9  UNL     1     -33.246  16.933  -3.916  1.00 20.00    -0.071 N 
HETATM    7  H25 UNL     1     -32.276  16.774  -4.218  1.00 20.00     0.279 HD
BRANCH   6   8
HETATM    8  C6  UNL     1     -34.109  15.994  -4.710  1.00 20.00     0.230 C 
HETATM    9  C3  UNL     1     -33.834  14.573  -4.270  1.00 20.00     0.034 C 
ENDBRANCH   6   8
BRANCH   6  10
HETATM   10  C7  UNL     1     -33.564  18.372  -4.211  1.00 20.00     0.230 C 
HETATM   11  C4  UNL     1     -34.536  18.439  -5.368  1.00 20.00     0.034 C 
ENDBRANCH   6  10
ENDBRANCH   5   6
ENDBRANCH   4   5
ENDBRANCH   1   4
TORSDOF 5
ENDMDL
MODEL 6
REMARK VINA RESULT:      -3.1     17.834     18.972
REMARK  5 active torsions:
REMARK  status: ('A' for Active; 'I' for Inactive)
REMARK    1  A    between atoms: C1_1  and  C5_5 
REMARK    2  A    between atoms: C5_5  and  C8_8 
REMARK    3  A    between atoms: C6_6  and  N9_9 
REMARK    4  A    between atoms: C7_7  and  N9_9 
REMARK    5  A    between atoms: C8_8  and  N9_9 
ROOT
HETATM    1  C1  UNL     1     -33.452  15.770  -3.383  1.00 20.00    -0.092 C 
HETATM    2  C2  UNL     1     -33.266  16.677  -2.618  1.00 20.00    -0.022 C 
HETATM    3  S10 UNL     1     -32.984  18.029  -1.481  1.00 20.00     0.008 SA
ENDROOT
BRANCH   1   4
HETATM    4  C5  UNL     1     -33.681  14.659  -4.319  1.00 20.00     0.122 C 
BRANCH   4   5
HETATM    5  C8  UNL     1     -34.068  15.145  -5.707  1.00 20.00     0.246 C 
BRANCH   5   6
HETATM    6  N9  UNL     1     -35.152  16.181  -5.611  1.00 20.00    -0.071 N 
HETATM    7  H25 UNL     1     -35.106  16.574  -4.662  1.00 20.00     0.279 HD
BRANCH   6   8
HETATM    8  C6  UNL     1     -34.926  17.320  -6.565  1.00 20.00     0.230 C 
HETATM    9  C3  UNL     1     -34.337  18.492  -5.810  1.00 20.00     0.034 C 
ENDBRANCH   6   8
BRANCH   6  10
HETATM   10  C7  UNL     1     -36.520  15.580  -5.769  1.00 20.00     0.230 C 
HETATM   11  C4  UNL     1     -37.560  16.595  -5.348  1.00 20.00     0.034 C 
ENDBRANCH   6  10
ENDBRANCH   5   6
ENDBRANCH   4   5
ENDBRANCH   1   4
TORSDOF 5
ENDMDL
MODEL 7
REMARK VINA RESULT:      -3.0     15.848     16.606
REMARK  5 active torsions:
REMARK  status: ('A' for Active; 'I' for Inactive)
REMARK    1  A    between atoms: C1_1  and  C5_5 
REMARK    2  A    between atoms: C5_5  and  C8_8 
REMARK    3  A    between atoms: C6_6  and  N9_9 
REMARK    4  A    between atoms: C7_7  and  N9_9 
REMARK    5  A    between atoms: C8_8  and  N9_9 
ROOT
HETATM    1  C1  UNL     1     -40.516  15.838   7.924  1.00 20.00    -0.092 C 
HETATM    2  C2  UNL     1     -40.557  16.993   7.599  1.00 20.00    -0.022 C 
HETATM    3  S10 UNL     1     -40.623  18.714   7.115  1.00 20.00     0.008 SA
ENDROOT
BRANCH   1   4
HETATM    4  C5  UNL     1     -40.464  14.423   8.322  1.00 20.00     0.122 C 
BRANCH   4   5
HETATM    5  C8  UNL     1     -41.173  13.517   7.327  1.00 20.00     0.246 C 
BRANCH   5   6
HETATM    6  N9  UNL     1     -40.368  13.404   6.064  1.00 20.00    -0.071 N 
HETATM    7  H25 UNL     1     -39.747  14.223   6.031  1.00 20.00     0.279 HD
BRANCH   6   8
HETATM    8  C6  UNL     1     -39.485  12.188   6.067  1.00 20.00     0.230 C 
HETATM    9  C3  UNL     1     -39.211  11.767   4.640  1.00 20.00     0.034 C 
ENDBRANCH   6   8
BRANCH   6  10
HETATM   10  C7  UNL     1     -41.234  13.465   4.838  1.00 20.00     0.230 C 
HETATM   11  C4  UNL     1     -42.303  14.517   5.037  1.00 20.00     0.034 C 
ENDBRANCH   6  10
ENDBRANCH   5   6
ENDBRANCH   4   5
ENDBRANCH   1   4
TORSDOF 5
ENDMDL
MODEL 8
REMARK VINA RESULT:      -2.9     15.626     16.831
REMARK  5 active torsions:
REMARK  status: ('A' for Active; 'I' for Inactive)
REMARK    1  A    between atoms: C1_1  and  C5_5 
REMARK    2  A    between atoms: C5_5  and  C8_8 
REMARK    3  A    between atoms: C6_6  and  N9_9 
REMARK    4  A    between atoms: C7_7  and  N9_9 
REMARK    5  A    between atoms: C8_8  and  N9_9 
ROOT
HETATM    1  C1  UNL     1     -40.334  15.232   8.934  1.00 20.00    -0.092 C 
HETATM    2  C2  UNL     1     -40.319  15.047  10.120  1.00 20.00    -0.022 C 
HETATM    3  S10 UNL     1     -40.294  14.776  11.889  1.00 20.00     0.008 SA
ENDROOT
BRANCH   1   4
HETATM    4  C5  UNL     1     -40.354  15.457   7.481  1.00 20.00     0.122 C 
BRANCH   4   5
HETATM    5  C8  UNL     1     -41.516  14.748   6.803  1.00 20.00     0.246 C 
BRANCH   5   6
HETATM    6  N9  UNL     1     -41.261  13.268   6.748  1.00 20.00    -0.071 N 
HETATM    7  H25 UNL     1     -40.667  13.038   7.556  1.00 20.00     0.279 HD
BRANCH   6   8
HETATM    8  C6  UNL     1     -42.528  12.474   6.899  1.00 20.00     0.230 C 
HETATM    9  C3  UNL     1     -43.188  12.833   8.212  1.00 20.00     0.034 C 
ENDBRANCH   6   8
BRANCH   6  10
HETATM   10  C7  UNL     1     -40.495  12.875   5.518  1.00 20.00     0.230 C 
HETATM   11  C4  UNL     1     -39.516  11.776   5.871  1.00 20.00     0.034 C 
ENDBRANCH   6  10
ENDBRANCH   5   6
ENDBRANCH   4   5
ENDBRANCH   1   4
TORSDOF 5
ENDMDL
MODEL 9
REMARK VINA RESULT:      -2.9     15.987     16.901
REMARK  5 active torsions:
REMARK  status: ('A' for Active; 'I' for Inactive)
REMARK    1  A    between atoms: C1_1  and  C5_5 
REMARK    2  A    between atoms: C5_5  and  C8_8 
REMARK    3  A    between atoms: C6_6  and  N9_9 
REMARK    4  A    between atoms: C7_7  and  N9_9 
REMARK    5  A    between atoms: C8_8  and  N9_9 
ROOT
HETATM    1  C1  UNL     1     -40.533  15.722   7.810  1.00 20.00    -0.092 C 
HETATM    2  C2  UNL     1     -40.606  16.911   7.660  1.00 20.00    -0.022 C 
HETATM    3  S10 UNL     1     -40.715  18.684   7.440  1.00 20.00     0.008 SA
ENDROOT
BRANCH   1   4
HETATM    4  C5  UNL     1     -40.444  14.266   7.992  1.00 20.00     0.122 C 
BRANCH   4   5
HETATM    5  C8  UNL     1     -41.612  13.531   7.352  1.00 20.00     0.246 C 
BRANCH   5   6
HETATM    6  N9  UNL     1     -41.167  12.847   6.090  1.00 20.00    -0.071 N 
HETATM    7  H25 UNL     1     -41.733  11.994   5.997  1.00 20.00     0.279 HD
BRANCH   6   8
HETATM    8  C6  UNL     1     -41.438  13.685   4.873  1.00 20.00     0.230 C 
HETATM    9  C3  UNL     1     -42.768  14.388   5.038  1.00 20.00     0.034 C 
ENDBRANCH   6   8
BRANCH   6  10
HETATM   10  C7  UNL     1     -39.731  12.412   6.164  1.00 20.00     0.230 C 
HETATM   11  C4  UNL     1     -39.317  11.836   4.827  1.00 20.00     0.034 C 
ENDBRANCH   6  10
ENDBRANCH   5   6
ENDBRANCH   4   5
ENDBRANCH   1   4
TORSDOF 5
ENDMDL
