MODEL 1
REMARK VINA RESULT:      -3.8      0.000      0.000
REMARK  1 active torsions:
REMARK  status: ('A' for Active; 'I' for Inactive)
REMARK    1  A    between atoms: C1_1  and  C4_4 
ROOT
HETATM    1  C1  UNL     1     -40.413  12.883   5.992  1.00 20.00    -0.068 C 
HETATM    2  C2  UNL     1     -39.768  12.301   5.163  1.00 20.00    -0.108 C 
HETATM    3  C6  UNL     1     -38.983  11.593   4.154  1.00 20.00     0.112 C 
ENDROOT
BRANCH   1   4
HETATM    4  C4  UNL     1     -41.193  13.585   6.994  1.00 20.00     0.129 C 
HETATM    5  C5  UNL     1     -42.349  14.507   6.453  1.00 20.00     0.016 C 
HETATM    6  C3  UNL     1     -43.222  13.685   7.425  1.00 20.00     0.182 C 
HETATM    7  C8  UNL     1     -42.773  14.305   4.993  1.00 20.00     0.021 C 
HETATM    8  C9  UNL     1     -42.271  15.995   6.786  1.00 20.00     0.021 C 
HETATM    9  O10 UNL     1     -42.188  12.678   7.559  1.00 20.00    -0.366 OA
HETATM   10  C7  UNL     1     -40.290  14.109   8.109  1.00 20.00     0.061 C 
ENDBRANCH   1   4
TORSDOF 1
ENDMDL
MODEL 2
REMARK VINA RESULT:      -3.7      1.342      2.166
REMARK  1 active torsions:
REMARK  status: ('A' for Active; 'I' for Inactive)
REMARK    1  A    between atoms: C1_1  and  C4_4 
ROOT
HETATM    1  C1  UNL     1     -41.024  12.702   5.971  1.00 20.00    -0.068 C 
HETATM    2  C2  UNL     1     -40.106  12.275   5.323  1.00 20.00    -0.108 C 
HETATM    3  C6  UNL     1     -38.990  11.755   4.536  1.00 20.00     0.112 C 
ENDROOT
BRANCH   1   4
HETATM    4  C4  UNL     1     -42.132  13.218   6.753  1.00 20.00     0.129 C 
HETATM    5  C5  UNL     1     -41.785  14.355   7.784  1.00 20.00     0.016 C 
HETATM    6  C3  UNL     1     -42.914  15.117   7.058  1.00 20.00     0.182 C 
HETATM    7  C8  UNL     1     -40.428  15.051   7.620  1.00 20.00     0.021 C 
HETATM    8  C9  UNL     1     -42.065  14.073   9.258  1.00 20.00     0.021 C 
HETATM    9  O10 UNL     1     -42.885  14.179   5.953  1.00 20.00    -0.366 OA
HETATM   10  C7  UNL     1     -43.057  12.083   7.187  1.00 20.00     0.061 C 
ENDBRANCH   1   4
TORSDOF 1
ENDMDL
MODEL 3
REMARK VINA RESULT:      -3.6     12.853     14.466
REMARK  1 active torsions:
REMARK  status: ('A' for Active; 'I' for Inactive)
REMARK    1  A    between atoms: C1_1  and  C4_4 
ROOT
HETATM    1  C1  UNL     1     -34.274  15.955  -4.610  1.00 20.00    -0.068 C 
HETATM    2  C2  UNL     1     -33.800  16.351  -3.580  1.00 20.00    -0.108 C 
HETATM    3  C6  UNL     1     -33.223  16.832  -2.326  1.00 20.00     0.112 C 
ENDROOT
BRANCH   1   4
HETATM    4  C4  UNL     1     -34.847  15.477  -5.855  1.00 20.00     0.129 C 
HETATM    5  C5  UNL     1     -35.136  16.569  -6.952  1.00 20.00     0.016 C 
HETATM    6  C3  UNL     1     -34.291  15.639  -7.849  1.00 20.00     0.182 C 
HETATM    7  C8  UNL     1     -34.471  17.938  -6.761  1.00 20.00     0.021 C 
HETATM    8  C9  UNL     1     -36.583  16.737  -7.409  1.00 20.00     0.021 C 
HETATM    9  O10 UNL     1     -33.790  14.920  -6.693  1.00 20.00    -0.366 OA
HETATM   10  C7  UNL     1     -35.901  14.405  -5.584  1.00 20.00     0.061 C 
ENDBRANCH   1   4
TORSDOF 1
ENDMDL
MODEL 4
REMARK VINA RESULT:      -3.4     12.448     13.759
REMARK  1 active torsions:
REMARK  status: ('A' for Active; 'I' for Inactive)
REMARK    1  A    between atoms: C1_1  and  C4_4 
ROOT
HETATM    1  C1  UNL     1     -34.095  17.240  -3.781  1.00 20.00    -0.068 C 
HETATM    2  C2  UNL     1     -33.570  17.445  -2.719  1.00 20.00    -0.108 C 
HETATM    3  C6  UNL     1     -32.932  17.693  -1.428  1.00 20.00     0.112 C 
ENDROOT
BRANCH   1   4
HETATM    4  C4  UNL     1     -34.729  16.994  -5.062  1.00 20.00     0.129 C 
HETATM    5  C5  UNL     1     -34.699  15.506  -5.578  1.00 20.00     0.016 C 
HETATM    6  C3  UNL     1     -36.225  15.703  -5.701  1.00 20.00     0.182 C 
HETATM    7  C8  UNL     1     -34.343  14.423  -4.552  1.00 20.00     0.021 C 
HETATM    8  C9  UNL     1     -33.991  15.239  -6.904  1.00 20.00     0.021 C 
HETATM    9  O10 UNL     1     -36.174  16.896  -4.879  1.00 20.00    -0.366 OA
HETATM   10  C7  UNL     1     -34.415  18.122  -6.043  1.00 20.00     0.061 C 
ENDBRANCH   1   4
TORSDOF 1
ENDMDL
MODEL 5
REMARK VINA RESULT:      -3.3     11.300     13.017
REMARK  1 active torsions:
REMARK  status: ('A' for Active; 'I' for Inactive)
REMARK    1  A    between atoms: C1_1  and  C4_4 
ROOT
HETATM    1  C1  UNL     1     -33.822  17.611  -1.976  1.00 20.00    -0.068 C 
HETATM    2  C2  UNL     1     -33.838  17.825  -0.794  1.00 20.00    -0.108 C 
HETATM    3  C6  UNL     1     -33.859  18.086   0.644  1.00 20.00     0.112 C 
ENDROOT
BRANCH   1   4
HETATM    4  C4  UNL     1     -33.802  17.353  -3.404  1.00 20.00     0.129 C 
HETATM    5  C5  UNL     1     -35.061  17.840  -4.215  1.00 20.00     0.016 C 
HETATM    6  C3  UNL     1     -34.005  18.556  -5.084  1.00 20.00     0.182 C 
HETATM    7  C8  UNL     1     -35.996  18.834  -3.515  1.00 20.00     0.021 C 
HETATM    8  C9  UNL     1     -35.869  16.778  -4.956  1.00 20.00     0.021 C 
HETATM    9  O10 UNL     1     -32.988  18.365  -4.069  1.00 20.00    -0.366 OA
HETATM   10  C7  UNL     1     -33.228  15.967  -3.692  1.00 20.00     0.061 C 
ENDBRANCH   1   4
TORSDOF 1
ENDMDL
MODEL 6
REMARK VINA RESULT:      -3.2     21.090     22.926
REMARK  1 active torsions:
REMARK  status: ('A' for Active; 'I' for Inactive)
REMARK    1  A    between atoms: C1_1  and  C4_4 
ROOT
HETATM    1  C1  UNL     1     -24.571  -2.826  10.256  1.00 20.00    -0.068 C 
HETATM    2  C2  UNL     1     -24.007  -3.236   9.278  1.00 20.00    -0.108 C 
HETATM    3  C6  UNL     1     -23.321  -3.734   8.087  1.00 20.00     0.112 C 
ENDROOT
BRANCH   1   4
HETATM    4  C4  UNL     1     -25.252  -2.331  11.438  1.00 20.00     0.129 C 
HETATM    5  C5  UNL     1     -26.704  -1.764  11.217  1.00 20.00     0.016 C 
HETATM    6  C3  UNL     1     -27.076  -2.764  12.332  1.00 20.00     0.182 C 
HETATM    7  C8  UNL     1     -27.389  -2.109   9.888  1.00 20.00     0.021 C 
HETATM    8  C9  UNL     1     -26.947  -0.301  11.579  1.00 20.00     0.021 C 
HETATM    9  O10 UNL     1     -25.810  -3.456  12.183  1.00 20.00    -0.366 OA
HETATM   10  C7  UNL     1     -24.285  -1.558  12.332  1.00 20.00     0.061 C 
ENDBRANCH   1   4
TORSDOF 1
ENDMDL
MODEL 7
REMARK VINA RESULT:      -3.0      1.199      2.734
REMARK  1 active torsions:
REMARK  status: ('A' for Active; 'I' for Inactive)
REMARK    1  A    between atoms: C1_1  and  C4_4 
ROOT
HETATM    1  C1  UNL     1     -41.965  14.056   4.973  1.00 20.00    -0.068 C 
HETATM    2  C2  UNL     1     -42.193  14.631   3.943  1.00 20.00    -0.108 C 
HETATM    3  C6  UNL     1     -42.469  15.330   2.689  1.00 20.00     0.112 C 
ENDROOT
BRANCH   1   4
HETATM    4  C4  UNL     1     -41.691  13.363   6.218  1.00 20.00     0.129 C 
HETATM    5  C5  UNL     1     -41.692  14.248   7.520  1.00 20.00     0.016 C 
HETATM    6  C3  UNL     1     -42.704  13.196   8.023  1.00 20.00     0.182 C 
HETATM    7  C8  UNL     1     -42.323  15.642   7.412  1.00 20.00     0.021 C 
HETATM    8  C9  UNL     1     -40.397  14.309   8.327  1.00 20.00     0.021 C 
HETATM    9  O10 UNL     1     -42.903  12.693   6.678  1.00 20.00    -0.366 OA
HETATM   10  C7  UNL     1     -40.580  12.333   6.026  1.00 20.00     0.061 C 
ENDBRANCH   1   4
TORSDOF 1
ENDMDL
MODEL 8
REMARK VINA RESULT:      -3.0     11.921     13.219
REMARK  1 active torsions:
REMARK  status: ('A' for Active; 'I' for Inactive)
REMARK    1  A    between atoms: C1_1  and  C4_4 
ROOT
HETATM    1  C1  UNL     1     -35.488  17.478  -4.555  1.00 20.00    -0.068 C 
HETATM    2  C2  UNL     1     -36.059  16.850  -5.405  1.00 20.00    -0.108 C 
HETATM    3  C6  UNL     1     -36.753  16.085  -6.439  1.00 20.00     0.112 C 
ENDROOT
BRANCH   1   4
HETATM    4  C4  UNL     1     -34.798  18.238  -3.529  1.00 20.00     0.129 C 
HETATM    5  C5  UNL     1     -33.635  17.491  -2.776  1.00 20.00     0.016 C 
HETATM    6  C3  UNL     1     -32.807  18.725  -3.195  1.00 20.00     0.182 C 
HETATM    7  C8  UNL     1     -33.106  16.203  -3.418  1.00 20.00     0.021 C 
HETATM    8  C9  UNL     1     -33.778  17.315  -1.266  1.00 20.00     0.021 C 
HETATM    9  O10 UNL     1     -33.820  19.122  -4.154  1.00 20.00    -0.366 OA
HETATM   10  C7  UNL     1     -35.790  19.069  -2.718  1.00 20.00     0.061 C 
ENDBRANCH   1   4
TORSDOF 1
ENDMDL
MODEL 9
REMARK VINA RESULT:      -3.0      1.976      3.065
REMARK  1 active torsions:
REMARK  status: ('A' for Active; 'I' for Inactive)
REMARK    1  A    between atoms: C1_1  and  C4_4 
ROOT
HETATM    1  C1  UNL     1     -40.656  13.971   6.783  1.00 20.00    -0.068 C 
HETATM    2  C2  UNL     1     -40.107  12.987   6.366  1.00 20.00    -0.108 C 
HETATM    3  C6  UNL     1     -39.438  11.791   5.859  1.00 20.00     0.112 C 
ENDROOT
BRANCH   1   4
HETATM    4  C4  UNL     1     -41.321  15.158   7.286  1.00 20.00     0.129 C 
HETATM    5  C5  UNL     1     -41.438  15.277   8.852  1.00 20.00     0.016 C 
HETATM    6  C3  UNL     1     -40.776  16.652   8.622  1.00 20.00     0.182 C 
HETATM    7  C8  UNL     1     -40.550  14.347   9.688  1.00 20.00     0.021 C 
HETATM    8  C9  UNL     1     -42.843  15.348   9.445  1.00 20.00     0.021 C 
HETATM    9  O10 UNL     1     -40.386  16.279   7.276  1.00 20.00    -0.366 OA
HETATM   10  C7  UNL     1     -42.536  15.500   6.426  1.00 20.00     0.061 C 
ENDBRANCH   1   4
TORSDOF 1
ENDMDL
