MODEL 1
REMARK VINA RESULT:      -3.7      0.000      0.000
REMARK  0 active torsions:
REMARK  status: ('A' for Active; 'I' for Inactive)
ROOT
HETATM    1  C1  UNL     1     -39.290  11.847   5.936  1.00 20.00     0.015 C 
HETATM    2  C2  UNL     1     -40.262  12.497   6.207  1.00 20.00    -0.076 C 
HETATM    3  C3  UNL     1     -42.553  12.371   7.078  1.00 20.00     0.057 C 
HETATM    4  C4  UNL     1     -43.417  13.286   7.926  1.00 20.00     0.044 C 
HETATM    5  C5  UNL     1     -41.458  13.296   6.540  1.00 20.00     0.218 C 
HETATM    6  C6  UNL     1     -42.433  14.319   8.506  1.00 20.00     0.154 C 
HETATM    7  C7  UNL     1     -41.934  14.043   5.283  1.00 20.00     0.064 C 
HETATM    8  C8  UNL     1     -43.081  15.714   8.496  1.00 20.00     0.049 C 
HETATM    9  C9  UNL     1     -42.077  13.948   9.956  1.00 20.00     0.049 C 
HETATM   10  C10 UNL     1     -40.413  15.359   7.462  1.00 20.00     0.313 C 
HETATM   11  N11 UNL     1     -41.201  14.163   7.703  1.00 20.00     0.114 N 
ENDROOT
TORSDOF 0
ENDMDL
MODEL 2
REMARK VINA RESULT:      -3.6     12.743     14.505
REMARK  0 active torsions:
REMARK  status: ('A' for Active; 'I' for Inactive)
ROOT
HETATM    1  C1  UNL     1     -35.861  18.960  -2.249  1.00 20.00     0.015 C 
HETATM    2  C2  UNL     1     -35.156  18.312  -2.973  1.00 20.00    -0.076 C 
HETATM    3  C3  UNL     1     -33.532  16.473  -3.036  1.00 20.00     0.057 C 
HETATM    4  C4  UNL     1     -33.202  15.383  -4.039  1.00 20.00     0.044 C 
HETATM    5  C5  UNL     1     -34.289  17.516  -3.864  1.00 20.00     0.218 C 
HETATM    6  C6  UNL     1     -34.387  15.392  -5.024  1.00 20.00     0.154 C 
HETATM    7  C7  UNL     1     -33.314  18.454  -4.595  1.00 20.00     0.064 C 
HETATM    8  C8  UNL     1     -33.870  15.191  -6.458  1.00 20.00     0.049 C 
HETATM    9  C9  UNL     1     -35.361  14.251  -4.683  1.00 20.00     0.049 C 
HETATM   10  C10 UNL     1     -35.731  17.317  -5.884  1.00 20.00     0.313 C 
HETATM   11  N11 UNL     1     -35.095  16.662  -4.754  1.00 20.00     0.114 N 
ENDROOT
TORSDOF 0
ENDMDL
MODEL 3
REMARK VINA RESULT:      -3.3     13.312     14.785
REMARK  0 active torsions:
REMARK  status: ('A' for Active; 'I' for Inactive)
ROOT
HETATM    1  C1  UNL     1     -33.668  15.265  -7.906  1.00 20.00     0.015 C 
HETATM    2  C2  UNL     1     -34.040  15.538  -6.798  1.00 20.00    -0.076 C 
HETATM    3  C3  UNL     1     -33.457  15.394  -4.418  1.00 20.00     0.057 C 
HETATM    4  C4  UNL     1     -33.689  16.288  -3.213  1.00 20.00     0.044 C 
HETATM    5  C5  UNL     1     -34.498  15.873  -5.435  1.00 20.00     0.218 C 
HETATM    6  C6  UNL     1     -34.140  17.634  -3.812  1.00 20.00     0.154 C 
HETATM    7  C7  UNL     1     -35.863  15.211  -5.181  1.00 20.00     0.064 C 
HETATM    8  C8  UNL     1     -35.268  18.230  -2.953  1.00 20.00     0.049 C 
HETATM    9  C9  UNL     1     -32.959  18.620  -3.834  1.00 20.00     0.049 C 
HETATM   10  C10 UNL     1     -35.560  18.092  -5.818  1.00 20.00     0.313 C 
HETATM   11  N11 UNL     1     -34.478  17.330  -5.219  1.00 20.00     0.114 N 
ENDROOT
TORSDOF 0
ENDMDL
MODEL 4
REMARK VINA RESULT:      -3.3      1.170      2.304
REMARK  0 active torsions:
REMARK  status: ('A' for Active; 'I' for Inactive)
ROOT
HETATM    1  C1  UNL     1     -39.352  12.138   5.271  1.00 20.00     0.015 C 
HETATM    2  C2  UNL     1     -40.140  12.715   5.969  1.00 20.00    -0.076 C 
HETATM    3  C3  UNL     1     -40.430  13.813   8.146  1.00 20.00     0.057 C 
HETATM    4  C4  UNL     1     -41.241  14.998   8.636  1.00 20.00     0.044 C 
HETATM    5  C5  UNL     1     -41.109  13.424   6.829  1.00 20.00     0.218 C 
HETATM    6  C6  UNL     1     -41.694  15.715   7.350  1.00 20.00     0.154 C 
HETATM    7  C7  UNL     1     -42.323  12.515   7.082  1.00 20.00     0.064 C 
HETATM    8  C8  UNL     1     -43.145  16.198   7.510  1.00 20.00     0.049 C 
HETATM    9  C9  UNL     1     -40.793  16.933   7.082  1.00 20.00     0.049 C 
HETATM   10  C10 UNL     1     -42.363  14.756   5.140  1.00 20.00     0.313 C 
HETATM   11  N11 UNL     1     -41.443  14.743   6.264  1.00 20.00     0.114 N 
ENDROOT
TORSDOF 0
ENDMDL
MODEL 5
REMARK VINA RESULT:      -3.3     20.330     22.727
REMARK  0 active torsions:
REMARK  status: ('A' for Active; 'I' for Inactive)
ROOT
HETATM    1  C1  UNL     1     -23.740  -3.625   9.204  1.00 20.00     0.015 C 
HETATM    2  C2  UNL     1     -24.458  -3.245  10.089  1.00 20.00    -0.076 C 
HETATM    3  C3  UNL     1     -24.865  -1.406  11.662  1.00 20.00     0.057 C 
HETATM    4  C4  UNL     1     -26.110  -0.785  12.268  1.00 20.00     0.044 C 
HETATM    5  C5  UNL     1     -25.339  -2.780  11.177  1.00 20.00     0.218 C 
HETATM    6  C6  UNL     1     -27.271  -1.340  11.421  1.00 20.00     0.154 C 
HETATM    7  C7  UNL     1     -25.317  -3.806  12.322  1.00 20.00     0.064 C 
HETATM    8  C8  UNL     1     -28.463  -1.676  12.332  1.00 20.00     0.049 C 
HETATM    9  C9  UNL     1     -27.716  -0.288  10.389  1.00 20.00     0.049 C 
HETATM   10  C10 UNL     1     -27.553  -3.598  10.384  1.00 20.00     0.313 C 
HETATM   11  N11 UNL     1     -26.684  -2.468  10.665  1.00 20.00     0.114 N 
ENDROOT
TORSDOF 0
ENDMDL
MODEL 6
REMARK VINA RESULT:      -3.3     13.707     15.506
REMARK  0 active torsions:
REMARK  status: ('A' for Active; 'I' for Inactive)
ROOT
HETATM    1  C1  UNL     1     -33.292  16.639  -2.706  1.00 20.00     0.015 C 
HETATM    2  C2  UNL     1     -33.957  16.812  -3.691  1.00 20.00    -0.076 C 
HETATM    3  C3  UNL     1     -34.086  18.053  -5.805  1.00 20.00     0.057 C 
HETATM    4  C4  UNL     1     -34.623  17.737  -7.189  1.00 20.00     0.044 C 
HETATM    5  C5  UNL     1     -34.775  17.025  -4.901  1.00 20.00     0.218 C 
HETATM    6  C6  UNL     1     -34.838  16.212  -7.181  1.00 20.00     0.154 C 
HETATM    7  C7  UNL     1     -36.177  17.504  -4.489  1.00 20.00     0.064 C 
HETATM    8  C8  UNL     1     -36.144  15.869  -7.918  1.00 20.00     0.049 C 
HETATM    9  C9  UNL     1     -33.667  15.514  -7.896  1.00 20.00     0.049 C 
HETATM   10  C10 UNL     1     -35.606  14.717  -5.330  1.00 20.00     0.313 C 
HETATM   11  N11 UNL     1     -34.768  15.825  -5.756  1.00 20.00     0.114 N 
ENDROOT
TORSDOF 0
ENDMDL
MODEL 7
REMARK VINA RESULT:      -3.1     12.573     14.413
REMARK  0 active torsions:
REMARK  status: ('A' for Active; 'I' for Inactive)
ROOT
HETATM    1  C1  UNL     1     -33.812  17.341  -1.234  1.00 20.00     0.015 C 
HETATM    2  C2  UNL     1     -33.846  17.195  -2.425  1.00 20.00    -0.076 C 
HETATM    3  C3  UNL     1     -33.214  15.691  -4.259  1.00 20.00     0.057 C 
HETATM    4  C4  UNL     1     -33.836  15.328  -5.595  1.00 20.00     0.044 C 
HETATM    5  C5  UNL     1     -33.887  17.017  -3.890  1.00 20.00     0.218 C 
HETATM    6  C6  UNL     1     -35.274  15.874  -5.513  1.00 20.00     0.154 C 
HETATM    7  C7  UNL     1     -33.177  18.202  -4.566  1.00 20.00     0.064 C 
HETATM    8  C8  UNL     1     -35.671  16.491  -6.865  1.00 20.00     0.049 C 
HETATM    9  C9  UNL     1     -36.251  14.733  -5.183  1.00 20.00     0.049 C 
HETATM   10  C10 UNL     1     -36.130  17.956  -4.424  1.00 20.00     0.313 C 
HETATM   11  N11 UNL     1     -35.267  16.790  -4.352  1.00 20.00     0.114 N 
ENDROOT
TORSDOF 0
ENDMDL
MODEL 8
REMARK VINA RESULT:      -3.1     13.421     14.509
REMARK  0 active torsions:
REMARK  status: ('A' for Active; 'I' for Inactive)
ROOT
HETATM    1  C1  UNL     1     -33.286  16.640  -2.340  1.00 20.00     0.015 C 
HETATM    2  C2  UNL     1     -33.707  16.150  -3.353  1.00 20.00    -0.076 C 
HETATM    3  C3  UNL     1     -35.103  14.342  -4.251  1.00 20.00     0.057 C 
HETATM    4  C4  UNL     1     -36.025  14.210  -5.449  1.00 20.00     0.044 C 
HETATM    5  C5  UNL     1     -34.223  15.547  -4.598  1.00 20.00     0.218 C 
HETATM    6  C6  UNL     1     -36.239  15.657  -5.934  1.00 20.00     0.154 C 
HETATM    7  C7  UNL     1     -33.040  15.128  -5.487  1.00 20.00     0.064 C 
HETATM    8  C8  UNL     1     -36.229  15.694  -7.472  1.00 20.00     0.049 C 
HETATM    9  C9  UNL     1     -37.595  16.183  -5.434  1.00 20.00     0.049 C 
HETATM   10  C10 UNL     1     -34.638  17.578  -5.977  1.00 20.00     0.313 C 
HETATM   11  N11 UNL     1     -35.189  16.445  -5.253  1.00 20.00     0.114 N 
ENDROOT
TORSDOF 0
ENDMDL
MODEL 9
REMARK VINA RESULT:      -3.1     20.855     22.531
REMARK  0 active torsions:
REMARK  status: ('A' for Active; 'I' for Inactive)
ROOT
HETATM    1  C1  UNL     1     -24.179  -3.181   9.655  1.00 20.00     0.015 C 
HETATM    2  C2  UNL     1     -25.205  -2.906  10.215  1.00 20.00    -0.076 C 
HETATM    3  C3  UNL     1     -27.331  -1.701   9.982  1.00 20.00     0.057 C 
HETATM    4  C4  UNL     1     -28.744  -1.937  10.483  1.00 20.00     0.044 C 
HETATM    5  C5  UNL     1     -26.466  -2.567  10.904  1.00 20.00     0.218 C 
HETATM    6  C6  UNL     1     -28.740  -3.395  10.979  1.00 20.00     0.154 C 
HETATM    7  C7  UNL     1     -26.146  -1.828  12.214  1.00 20.00     0.064 C 
HETATM    8  C8  UNL     1     -29.555  -3.503  12.278  1.00 20.00     0.049 C 
HETATM    9  C9  UNL     1     -29.375  -4.311   9.918  1.00 20.00     0.049 C 
HETATM   10  C10 UNL     1     -26.931  -4.687  12.123  1.00 20.00     0.313 C 
HETATM   11  N11 UNL     1     -27.310  -3.762  11.069  1.00 20.00     0.114 N 
ENDROOT
TORSDOF 0
ENDMDL
