MODEL 1
REMARK VINA RESULT:      -6.2      0.000      0.000
REMARK  0 active torsions:
REMARK  status: ('A' for Active; 'I' for Inactive)
ROOT
HETATM    1  C1  UNL     1     -32.456   7.395   3.006  1.00 20.00     0.057 C 
HETATM    2  C2  UNL     1     -34.439   4.886   4.855  1.00 20.00    -0.019 C 
HETATM    3  C3  UNL     1     -33.665   5.920   4.500  1.00 20.00    -0.051 C 
HETATM    4  C4  UNL     1     -32.988   6.185   3.250  1.00 20.00    -0.052 C 
HETATM    5  C5  UNL     1     -32.617   8.524   3.968  1.00 20.00     0.150 C 
HETATM    6  C6  UNL     1     -34.940   5.032   6.258  1.00 20.00     0.028 C 
HETATM    7  C7  UNL     1     -33.543   8.332   5.153  1.00 20.00     0.092 C 
HETATM    8  C8  UNL     1     -34.654   6.504   6.564  1.00 20.00     0.013 C 
HETATM    9  C9  UNL     1     -33.501   6.890   5.633  1.00 20.00     0.026 C 
HETATM   10  C10 UNL     1     -32.877   5.074   2.246  1.00 20.00     0.049 C 
HETATM   11  O11 UNL     1     -32.062   9.598   3.747  1.00 20.00    -0.293 OA
ENDROOT
TORSDOF 0
ENDMDL
MODEL 2
REMARK VINA RESULT:      -6.1      1.116      2.681
REMARK  0 active torsions:
REMARK  status: ('A' for Active; 'I' for Inactive)
ROOT
HETATM    1  C1  UNL     1     -32.386   8.370   3.612  1.00 20.00     0.057 C 
HETATM    2  C2  UNL     1     -34.107   6.546   6.326  1.00 20.00    -0.019 C 
HETATM    3  C3  UNL     1     -33.673   7.002   5.144  1.00 20.00    -0.051 C 
HETATM    4  C4  UNL     1     -32.941   8.208   4.826  1.00 20.00    -0.052 C 
HETATM    5  C5  UNL     1     -32.429   7.287   2.588  1.00 20.00     0.150 C 
HETATM    6  C6  UNL     1     -34.819   5.238   6.182  1.00 20.00     0.028 C 
HETATM    7  C7  UNL     1     -32.962   5.928   2.998  1.00 20.00     0.092 C 
HETATM    8  C8  UNL     1     -34.415   4.790   4.776  1.00 20.00     0.013 C 
HETATM    9  C9  UNL     1     -34.071   6.081   4.028  1.00 20.00     0.026 C 
HETATM   10  C10 UNL     1     -32.836   9.278   5.874  1.00 20.00     0.049 C 
HETATM   11  O11 UNL     1     -31.972   7.490   1.465  1.00 20.00    -0.293 OA
ENDROOT
TORSDOF 0
ENDMDL
MODEL 3
REMARK VINA RESULT:      -6.1      2.044      3.484
REMARK  0 active torsions:
REMARK  status: ('A' for Active; 'I' for Inactive)
ROOT
HETATM    1  C1  UNL     1     -34.239   4.893   4.671  1.00 20.00     0.057 C 
HETATM    2  C2  UNL     1     -32.255   7.633   3.185  1.00 20.00    -0.019 C 
HETATM    3  C3  UNL     1     -33.123   6.898   3.893  1.00 20.00    -0.051 C 
HETATM    4  C4  UNL     1     -33.540   5.525   3.713  1.00 20.00    -0.052 C 
HETATM    5  C5  UNL     1     -34.533   5.547   5.979  1.00 20.00     0.150 C 
HETATM    6  C6  UNL     1     -32.126   9.016   3.742  1.00 20.00     0.028 C 
HETATM    7  C7  UNL     1     -33.880   6.882   6.279  1.00 20.00     0.092 C 
HETATM    8  C8  UNL     1     -32.767   8.882   5.125  1.00 20.00     0.013 C 
HETATM    9  C9  UNL     1     -33.734   7.701   5.005  1.00 20.00     0.026 C 
HETATM   10  C10 UNL     1     -33.193   4.835   2.425  1.00 20.00     0.049 C 
HETATM   11  O11 UNL     1     -35.232   4.968   6.808  1.00 20.00    -0.293 OA
ENDROOT
TORSDOF 0
ENDMDL
MODEL 4
REMARK VINA RESULT:      -6.0      1.815      2.947
REMARK  0 active torsions:
REMARK  status: ('A' for Active; 'I' for Inactive)
ROOT
HETATM    1  C1  UNL     1     -32.521   6.619   2.731  1.00 20.00     0.057 C 
HETATM    2  C2  UNL     1     -33.809   7.407   6.103  1.00 20.00    -0.019 C 
HETATM    3  C3  UNL     1     -33.609   6.906   4.878  1.00 20.00    -0.051 C 
HETATM    4  C4  UNL     1     -32.777   7.393   3.800  1.00 20.00    -0.052 C 
HETATM    5  C5  UNL     1     -33.008   5.212   2.657  1.00 20.00     0.150 C 
HETATM    6  C6  UNL     1     -34.754   6.560   6.895  1.00 20.00     0.028 C 
HETATM    7  C7  UNL     1     -33.655   4.607   3.888  1.00 20.00     0.092 C 
HETATM    8  C8  UNL     1     -34.798   5.261   6.086  1.00 20.00     0.013 C 
HETATM    9  C9  UNL     1     -34.428   5.668   4.657  1.00 20.00     0.026 C 
HETATM   10  C10 UNL     1     -32.228   8.788   3.895  1.00 20.00     0.049 C 
HETATM   11  O11 UNL     1     -32.816   4.552   1.637  1.00 20.00    -0.293 OA
ENDROOT
TORSDOF 0
ENDMDL
MODEL 5
REMARK VINA RESULT:      -5.3      1.865      3.676
REMARK  0 active torsions:
REMARK  status: ('A' for Active; 'I' for Inactive)
ROOT
HETATM    1  C1  UNL     1     -33.892   4.846   3.929  1.00 20.00     0.057 C 
HETATM    2  C2  UNL     1     -33.681   8.144   5.581  1.00 20.00    -0.019 C 
HETATM    3  C3  UNL     1     -33.456   7.045   4.851  1.00 20.00    -0.051 C 
HETATM    4  C4  UNL     1     -34.091   5.747   4.907  1.00 20.00    -0.052 C 
HETATM    5  C5  UNL     1     -33.088   5.179   2.718  1.00 20.00     0.150 C 
HETATM    6  C6  UNL     1     -32.786   9.270   5.168  1.00 20.00     0.028 C 
HETATM    7  C7  UNL     1     -32.637   6.614   2.525  1.00 20.00     0.092 C 
HETATM    8  C8  UNL     1     -32.246   8.792   3.819  1.00 20.00     0.013 C 
HETATM    9  C9  UNL     1     -32.342   7.264   3.868  1.00 20.00     0.026 C 
HETATM   10  C10 UNL     1     -34.956   5.425   6.092  1.00 20.00     0.049 C 
HETATM   11  O11 UNL     1     -32.868   4.313   1.874  1.00 20.00    -0.293 OA
ENDROOT
TORSDOF 0
ENDMDL
MODEL 6
REMARK VINA RESULT:      -5.1      0.797      2.897
REMARK  0 active torsions:
REMARK  status: ('A' for Active; 'I' for Inactive)
ROOT
HETATM    1  C1  UNL     1     -33.503   7.874   5.835  1.00 20.00     0.057 C 
HETATM    2  C2  UNL     1     -33.999   4.645   4.109  1.00 20.00    -0.019 C 
HETATM    3  C3  UNL     1     -33.767   5.928   4.415  1.00 20.00    -0.051 C 
HETATM    4  C4  UNL     1     -34.029   6.652   5.639  1.00 20.00    -0.052 C 
HETATM    5  C5  UNL     1     -32.570   8.486   4.846  1.00 20.00     0.150 C 
HETATM    6  C6  UNL     1     -33.556   4.325   2.716  1.00 20.00     0.028 C 
HETATM    7  C7  UNL     1     -32.085   7.633   3.690  1.00 20.00     0.092 C 
HETATM    8  C8  UNL     1     -32.673   5.523   2.361  1.00 20.00     0.013 C 
HETATM    9  C9  UNL     1     -33.172   6.665   3.251  1.00 20.00     0.026 C 
HETATM   10  C10 UNL     1     -34.916   6.016   6.671  1.00 20.00     0.049 C 
HETATM   11  O11 UNL     1     -32.160   9.632   5.022  1.00 20.00    -0.293 OA
ENDROOT
TORSDOF 0
ENDMDL
MODEL 7
REMARK VINA RESULT:      -4.8      2.056      4.078
REMARK  0 active torsions:
REMARK  status: ('A' for Active; 'I' for Inactive)
ROOT
HETATM    1  C1  UNL     1     -33.931   7.136   6.223  1.00 20.00     0.057 C 
HETATM    2  C2  UNL     1     -32.398   7.591   2.892  1.00 20.00    -0.019 C 
HETATM    3  C3  UNL     1     -32.907   7.094   4.026  1.00 20.00    -0.051 C 
HETATM    4  C4  UNL     1     -33.198   7.754   5.280  1.00 20.00    -0.052 C 
HETATM    5  C5  UNL     1     -34.539   5.796   5.979  1.00 20.00     0.150 C 
HETATM    6  C6  UNL     1     -32.275   6.536   1.838  1.00 20.00     0.028 C 
HETATM    7  C7  UNL     1     -34.461   5.212   4.582  1.00 20.00     0.092 C 
HETATM    8  C8  UNL     1     -33.144   5.405   2.392  1.00 20.00     0.013 C 
HETATM    9  C9  UNL     1     -33.159   5.619   3.909  1.00 20.00     0.026 C 
HETATM   10  C10 UNL     1     -32.644   9.130   5.509  1.00 20.00     0.049 C 
HETATM   11  O11 UNL     1     -35.147   5.228   6.885  1.00 20.00    -0.293 OA
ENDROOT
TORSDOF 0
ENDMDL
MODEL 8
REMARK VINA RESULT:      -4.7      1.301      1.918
REMARK  0 active torsions:
REMARK  status: ('A' for Active; 'I' for Inactive)
ROOT
HETATM    1  C1  UNL     1     -32.779   6.088   2.439  1.00 20.00     0.057 C 
HETATM    2  C2  UNL     1     -34.312   6.298   5.795  1.00 20.00    -0.019 C 
HETATM    3  C3  UNL     1     -33.569   6.484   4.696  1.00 20.00    -0.051 C 
HETATM    4  C4  UNL     1     -33.371   5.621   3.552  1.00 20.00    -0.052 C 
HETATM    5  C5  UNL     1     -32.386   7.521   2.311  1.00 20.00     0.150 C 
HETATM    6  C6  UNL     1     -34.225   7.470   6.720  1.00 20.00     0.028 C 
HETATM    7  C7  UNL     1     -32.823   8.487   3.394  1.00 20.00     0.092 C 
HETATM    8  C8  UNL     1     -33.611   8.555   5.832  1.00 20.00     0.013 C 
HETATM    9  C9  UNL     1     -32.840   7.795   4.748  1.00 20.00     0.026 C 
HETATM   10  C10 UNL     1     -33.822   4.192   3.648  1.00 20.00     0.049 C 
HETATM   11  O11 UNL     1     -31.786   7.901   1.308  1.00 20.00    -0.293 OA
ENDROOT
TORSDOF 0
ENDMDL
MODEL 9
REMARK VINA RESULT:      -4.1     12.566     14.092
REMARK  0 active torsions:
REMARK  status: ('A' for Active; 'I' for Inactive)
ROOT
HETATM    1  C1  UNL     1     -36.346  16.422  -6.497  1.00 20.00     0.057 C 
HETATM    2  C2  UNL     1     -34.272  17.577  -3.665  1.00 20.00    -0.019 C 
HETATM    3  C3  UNL     1     -34.924  16.849  -4.581  1.00 20.00    -0.051 C 
HETATM    4  C4  UNL     1     -35.986  17.232  -5.486  1.00 20.00    -0.052 C 
HETATM    5  C5  UNL     1     -35.614  15.153  -6.774  1.00 20.00     0.150 C 
HETATM    6  C6  UNL     1     -33.234  16.764  -2.957  1.00 20.00     0.028 C 
HETATM    7  C7  UNL     1     -34.341  14.871  -5.999  1.00 20.00     0.092 C 
HETATM    8  C8  UNL     1     -33.105  15.530  -3.853  1.00 20.00     0.013 C 
HETATM    9  C9  UNL     1     -34.445  15.427  -4.587  1.00 20.00     0.026 C 
HETATM   10  C10 UNL     1     -36.687  18.540  -5.254  1.00 20.00     0.049 C 
HETATM   11  O11 UNL     1     -36.009  14.402  -7.663  1.00 20.00    -0.293 OA
ENDROOT
TORSDOF 0
ENDMDL
