MODEL 1
REMARK VINA RESULT:      -5.5      0.000      0.000
REMARK  1 active torsions:
REMARK  status: ('A' for Active; 'I' for Inactive)
REMARK    1  A    between atoms: C3_3  and  C5_5 
ROOT
HETATM    1  C1  UNL     1     -32.717   8.298   3.786  1.00 20.00     0.050 A 
HETATM    2  C2  UNL     1     -33.381   7.369   4.619  1.00 20.00    -0.026 A 
HETATM    3  C3  UNL     1     -32.471   7.637   2.600  1.00 20.00     0.113 A 
HETATM    4  C4  UNL     1     -33.493   6.216   3.876  1.00 20.00     0.060 A 
HETATM    5  C6  UNL     1     -33.917   7.474   6.000  1.00 20.00     0.041 C 
HETATM    6  C7  UNL     1     -34.088   4.927   4.287  1.00 20.00     0.066 C 
HETATM    7  C8  UNL     1     -34.209   6.073   6.582  1.00 20.00     0.005 C 
HETATM    8  C9  UNL     1     -34.916   5.146   5.570  1.00 20.00     0.007 C 
HETATM    9  O11 UNL     1     -32.942   6.358   2.648  1.00 20.00    -0.311 OA
ENDROOT
BRANCH   3  10
HETATM   10  C5  UNL     1     -31.835   8.065   1.400  1.00 20.00     0.295 C 
HETATM   11  O10 UNL     1     -32.376   8.791   0.538  1.00 20.00    -0.299 OA
ENDBRANCH   3  10
TORSDOF 1
ENDMDL
MODEL 2
REMARK VINA RESULT:      -5.4      0.770      1.858
REMARK  1 active torsions:
REMARK  status: ('A' for Active; 'I' for Inactive)
REMARK    1  A    between atoms: C3_3  and  C5_5 
ROOT
HETATM    1  C1  UNL     1     -32.928   6.059   2.569  1.00 20.00     0.050 A 
HETATM    2  C2  UNL     1     -33.511   5.938   3.851  1.00 20.00    -0.026 A 
HETATM    3  C3  UNL     1     -32.496   7.366   2.471  1.00 20.00     0.113 A 
HETATM    4  C4  UNL     1     -33.385   7.177   4.436  1.00 20.00     0.060 A 
HETATM    5  C6  UNL     1     -34.139   4.791   4.555  1.00 20.00     0.041 C 
HETATM    6  C7  UNL     1     -33.854   7.600   5.773  1.00 20.00     0.066 C 
HETATM    7  C8  UNL     1     -34.950   5.277   5.778  1.00 20.00     0.005 C 
HETATM    8  C9  UNL     1     -34.198   6.345   6.602  1.00 20.00     0.007 C 
HETATM    9  O11 UNL     1     -32.774   8.059   3.612  1.00 20.00    -0.311 OA
ENDROOT
BRANCH   3  10
HETATM   10  C5  UNL     1     -31.838   8.061   1.416  1.00 20.00     0.295 C 
HETATM   11  O10 UNL     1     -32.415   8.820   0.607  1.00 20.00    -0.299 OA
ENDBRANCH   3  10
TORSDOF 1
ENDMDL
MODEL 3
REMARK VINA RESULT:      -4.2     12.368     12.742
REMARK  1 active torsions:
REMARK  status: ('A' for Active; 'I' for Inactive)
REMARK    1  A    between atoms: C3_3  and  C5_5 
ROOT
HETATM    1  C1  UNL     1     -31.634  19.196   3.047  1.00 20.00     0.050 A 
HETATM    2  C2  UNL     1     -32.221  19.001   1.777  1.00 20.00    -0.026 A 
HETATM    3  C3  UNL     1     -30.280  18.996   2.873  1.00 20.00     0.113 A 
HETATM    4  C4  UNL     1     -31.181  18.701   0.927  1.00 20.00     0.060 A 
HETATM    5  C6  UNL     1     -33.627  19.086   1.306  1.00 20.00     0.041 C 
HETATM    6  C7  UNL     1     -31.252  18.384  -0.515  1.00 20.00     0.066 C 
HETATM    7  C8  UNL     1     -33.782  18.417  -0.079  1.00 20.00     0.005 C 
HETATM    8  C9  UNL     1     -32.641  18.791  -1.049  1.00 20.00     0.007 C 
HETATM    9  O11 UNL     1     -29.994  18.690   1.576  1.00 20.00    -0.311 OA
ENDROOT
BRANCH   3  10
HETATM   10  C5  UNL     1     -29.195  19.059   3.795  1.00 20.00     0.295 C 
HETATM   11  O10 UNL     1     -28.142  18.394   3.688  1.00 20.00    -0.299 OA
ENDBRANCH   3  10
TORSDOF 1
ENDMDL
MODEL 4
REMARK VINA RESULT:      -4.2     11.621     13.098
REMARK  1 active torsions:
REMARK  status: ('A' for Active; 'I' for Inactive)
REMARK    1  A    between atoms: C3_3  and  C5_5 
ROOT
HETATM    1  C1  UNL     1     -33.016  19.020  -2.942  1.00 20.00     0.050 A 
HETATM    2  C2  UNL     1     -33.561  18.023  -3.781  1.00 20.00    -0.026 A 
HETATM    3  C3  UNL     1     -32.506  18.357  -1.845  1.00 20.00     0.113 A 
HETATM    4  C4  UNL     1     -33.338  16.829  -3.134  1.00 20.00     0.060 A 
HETATM    5  C6  UNL     1     -34.234  18.091  -5.103  1.00 20.00     0.041 C 
HETATM    6  C7  UNL     1     -33.734  15.473  -3.570  1.00 20.00     0.066 C 
HETATM    7  C8  UNL     1     -34.971  16.768  -5.411  1.00 20.00     0.005 C 
HETATM    8  C9  UNL     1     -34.126  15.524  -5.062  1.00 20.00     0.007 C 
HETATM    9  O11 UNL     1     -32.702  17.012  -1.953  1.00 20.00    -0.311 OA
ENDROOT
BRANCH   3  10
HETATM   10  C5  UNL     1     -31.843  18.839  -0.680  1.00 20.00     0.295 C 
HETATM   11  O10 UNL     1     -30.625  18.678  -0.446  1.00 20.00    -0.299 OA
ENDBRANCH   3  10
TORSDOF 1
ENDMDL
MODEL 5
REMARK VINA RESULT:      -4.2     11.909     13.169
REMARK  1 active torsions:
REMARK  status: ('A' for Active; 'I' for Inactive)
REMARK    1  A    between atoms: C3_3  and  C5_5 
ROOT
HETATM    1  C1  UNL     1     -33.086  16.712  -2.373  1.00 20.00     0.050 A 
HETATM    2  C2  UNL     1     -33.648  16.256  -3.587  1.00 20.00    -0.026 A 
HETATM    3  C3  UNL     1     -33.092  18.089  -2.445  1.00 20.00     0.113 A 
HETATM    4  C4  UNL     1     -33.958  17.390  -4.303  1.00 20.00     0.060 A 
HETATM    5  C6  UNL     1     -33.927  14.893  -4.106  1.00 20.00     0.041 C 
HETATM    6  C7  UNL     1     -34.548  17.475  -5.655  1.00 20.00     0.066 C 
HETATM    7  C8  UNL     1     -34.196  14.931  -5.627  1.00 20.00     0.005 C 
HETATM    8  C9  UNL     1     -35.124  16.095  -6.036  1.00 20.00     0.007 C 
HETATM    9  O11 UNL     1     -33.624  18.514  -3.627  1.00 20.00    -0.311 OA
ENDROOT
BRANCH   3  10
HETATM   10  C5  UNL     1     -32.652  19.080  -1.522  1.00 20.00     0.295 C 
HETATM   11  O10 UNL     1     -31.480  19.175  -1.097  1.00 20.00    -0.299 OA
ENDBRANCH   3  10
TORSDOF 1
ENDMDL
MODEL 6
REMARK VINA RESULT:      -4.2     16.204     16.876
REMARK  1 active torsions:
REMARK  status: ('A' for Active; 'I' for Inactive)
REMARK    1  A    between atoms: C3_3  and  C5_5 
ROOT
HETATM    1  C1  UNL     1     -24.101  18.412  11.941  1.00 20.00     0.050 A 
HETATM    2  C2  UNL     1     -23.307  18.454  10.774  1.00 20.00    -0.026 A 
HETATM    3  C3  UNL     1     -25.335  18.912  11.578  1.00 20.00     0.113 A 
HETATM    4  C4  UNL     1     -24.117  18.970   9.789  1.00 20.00     0.060 A 
HETATM    5  C6  UNL     1     -21.903  18.046  10.509  1.00 20.00     0.041 C 
HETATM    6  C7  UNL     1     -23.769  19.245   8.379  1.00 20.00     0.066 C 
HETATM    7  C8  UNL     1     -21.402  18.645   9.175  1.00 20.00     0.005 C 
HETATM    8  C9  UNL     1     -22.445  18.527   8.043  1.00 20.00     0.007 C 
HETATM    9  O11 UNL     1     -25.353  19.259  10.260  1.00 20.00    -0.311 OA
ENDROOT
BRANCH   3  10
HETATM   10  C5  UNL     1     -26.527  19.109  12.332  1.00 20.00     0.295 C 
HETATM   11  O10 UNL     1     -27.673  19.167  11.834  1.00 20.00    -0.299 OA
ENDBRANCH   3  10
TORSDOF 1
ENDMDL
MODEL 7
REMARK VINA RESULT:      -4.1     11.896     13.250
REMARK  1 active torsions:
REMARK  status: ('A' for Active; 'I' for Inactive)
REMARK    1  A    between atoms: C3_3  and  C5_5 
ROOT
HETATM    1  C1  UNL     1     -34.137  15.326  -4.467  1.00 20.00     0.050 A 
HETATM    2  C2  UNL     1     -33.765  16.450  -3.696  1.00 20.00    -0.026 A 
HETATM    3  C3  UNL     1     -34.539  15.821  -5.690  1.00 20.00     0.113 A 
HETATM    4  C4  UNL     1     -33.965  17.542  -4.509  1.00 20.00     0.060 A 
HETATM    5  C6  UNL     1     -33.239  16.579  -2.313  1.00 20.00     0.041 C 
HETATM    6  C7  UNL     1     -33.754  18.967  -4.180  1.00 20.00     0.066 C 
HETATM    7  C8  UNL     1     -33.352  18.040  -1.819  1.00 20.00     0.005 C 
HETATM    8  C9  UNL     1     -32.914  19.063  -2.889  1.00 20.00     0.007 C 
HETATM    9  O11 UNL     1     -34.439  17.180  -5.723  1.00 20.00    -0.311 OA
ENDROOT
BRANCH   3  10
HETATM   10  C5  UNL     1     -35.016  15.162  -6.859  1.00 20.00     0.295 C 
HETATM   11  O10 UNL     1     -35.930  14.308  -6.863  1.00 20.00    -0.299 OA
ENDBRANCH   3  10
TORSDOF 1
ENDMDL
MODEL 8
REMARK VINA RESULT:      -4.1     11.779     13.367
REMARK  1 active torsions:
REMARK  status: ('A' for Active; 'I' for Inactive)
REMARK    1  A    between atoms: C3_3  and  C5_5 
ROOT
HETATM    1  C1  UNL     1     -35.006  17.518  -6.000  1.00 20.00     0.050 A 
HETATM    2  C2  UNL     1     -34.353  17.676  -4.756  1.00 20.00    -0.026 A 
HETATM    3  C3  UNL     1     -35.044  16.160  -6.239  1.00 20.00     0.113 A 
HETATM    4  C4  UNL     1     -34.049  16.403  -4.331  1.00 20.00     0.060 A 
HETATM    5  C6  UNL     1     -34.019  18.879  -3.952  1.00 20.00     0.041 C 
HETATM    6  C7  UNL     1     -33.339  16.005  -3.097  1.00 20.00     0.066 C 
HETATM    7  C8  UNL     1     -32.978  18.537  -2.862  1.00 20.00     0.005 C 
HETATM    8  C9  UNL     1     -33.293  17.211  -2.136  1.00 20.00     0.007 C 
HETATM    9  O11 UNL     1     -34.457  15.469  -5.221  1.00 20.00    -0.311 OA
ENDROOT
BRANCH   3  10
HETATM   10  C5  UNL     1     -35.576  15.412  -7.328  1.00 20.00     0.295 C 
HETATM   11  O10 UNL     1     -36.050  14.260  -7.226  1.00 20.00    -0.299 OA
ENDBRANCH   3  10
TORSDOF 1
ENDMDL
MODEL 9
REMARK VINA RESULT:      -3.9      9.458     10.315
REMARK  1 active torsions:
REMARK  status: ('A' for Active; 'I' for Inactive)
REMARK    1  A    between atoms: C3_3  and  C5_5 
ROOT
HETATM    1  C1  UNL     1     -39.525  12.537   6.203  1.00 20.00     0.050 A 
HETATM    2  C2  UNL     1     -40.497  13.450   6.671  1.00 20.00    -0.026 A 
HETATM    3  C3  UNL     1     -39.774  12.374   4.856  1.00 20.00     0.113 A 
HETATM    4  C4  UNL     1     -41.260  13.776   5.573  1.00 20.00     0.060 A 
HETATM    5  C6  UNL     1     -40.749  14.036   8.012  1.00 20.00     0.041 C 
HETATM    6  C7  UNL     1     -42.430  14.678   5.519  1.00 20.00     0.066 C 
HETATM    7  C8  UNL     1     -42.152  14.681   8.072  1.00 20.00     0.005 C 
HETATM    8  C9  UNL     1     -42.476  15.516   6.814  1.00 20.00     0.007 C 
HETATM    9  O11 UNL     1     -40.839  13.129   4.462  1.00 20.00    -0.311 OA
ENDROOT
BRANCH   3  10
HETATM   10  C5  UNL     1     -39.123  11.579   3.870  1.00 20.00     0.295 C 
HETATM   11  O10 UNL     1     -39.049  11.882   2.659  1.00 20.00    -0.299 OA
ENDBRANCH   3  10
TORSDOF 1
ENDMDL
