MODEL 1
REMARK VINA RESULT:      -4.4      0.000      0.000
REMARK  1 active torsions:
REMARK  status: ('A' for Active; 'I' for Inactive)
REMARK    1  A    between atoms: C3_3  and  C8_8 
ROOT
HETATM    1  C1  UNL     1     -35.419   5.344   5.863  1.00 20.00    -0.025 C 
HETATM    2  C2  UNL     1     -35.550   5.697   4.576  1.00 20.00    -0.022 C 
HETATM    3  C4  UNL     1     -33.373   4.973   4.852  1.00 20.00     0.021 C 
HETATM    4  C5  UNL     1     -33.540   6.914   6.224  1.00 20.00     0.063 C 
HETATM    5  C6  UNL     1     -33.949   5.421   6.200  1.00 20.00     0.012 C 
HETATM    6  C7  UNL     1     -34.166   6.019   4.058  1.00 20.00     0.059 C 
HETATM    7  C8  UNL     1     -33.698   7.330   4.734  1.00 20.00     0.202 C 
HETATM    8  F11 UNL     1     -34.656   8.285   4.615  1.00 20.00    -0.231 F 
ENDROOT
BRANCH   7   9
HETATM    9  C3  UNL     1     -32.417   7.819   4.132  1.00 20.00     0.338 C 
HETATM   10  O9  UNL     1     -31.947   7.430   3.073  1.00 20.00    -0.256 OA
HETATM   11  F10 UNL     1     -31.753   8.785   4.782  1.00 20.00    -0.161 F 
ENDBRANCH   7   9
TORSDOF 1
ENDMDL
MODEL 2
REMARK VINA RESULT:      -4.1      9.077     10.107
REMARK  1 active torsions:
REMARK  status: ('A' for Active; 'I' for Inactive)
REMARK    1  A    between atoms: C3_3  and  C8_8 
ROOT
HETATM    1  C1  UNL     1     -41.553   8.370  -0.636  1.00 20.00    -0.025 C 
HETATM    2  C2  UNL     1     -42.809   8.152  -0.217  1.00 20.00    -0.022 C 
HETATM    3  C4  UNL     1     -41.407   7.450   1.480  1.00 20.00     0.021 C 
HETATM    4  C5  UNL     1     -40.919   5.996  -0.343  1.00 20.00     0.063 C 
HETATM    5  C6  UNL     1     -40.654   7.441   0.145  1.00 20.00     0.012 C 
HETATM    6  C7  UNL     1     -42.746   7.069   0.836  1.00 20.00     0.059 C 
HETATM    7  C8  UNL     1     -42.376   5.741   0.133  1.00 20.00     0.202 C 
HETATM    8  F11 UNL     1     -43.188   5.537  -0.936  1.00 20.00    -0.231 F 
ENDROOT
BRANCH   7   9
HETATM    9  C3  UNL     1     -42.482   4.584   1.078  1.00 20.00     0.338 C 
HETATM   10  O9  UNL     1     -43.408   3.787   1.109  1.00 20.00    -0.256 OA
HETATM   11  F10 UNL     1     -41.467   4.382   1.930  1.00 20.00    -0.161 F 
ENDBRANCH   7   9
TORSDOF 1
ENDMDL
MODEL 3
REMARK VINA RESULT:      -4.0      1.463      2.158
REMARK  1 active torsions:
REMARK  status: ('A' for Active; 'I' for Inactive)
REMARK    1  A    between atoms: C3_3  and  C8_8 
ROOT
HETATM    1  C1  UNL     1     -34.377   4.454   5.199  1.00 20.00    -0.025 C 
HETATM    2  C2  UNL     1     -34.725   5.209   6.251  1.00 20.00    -0.022 C 
HETATM    3  C4  UNL     1     -35.408   6.347   4.360  1.00 20.00     0.021 C 
HETATM    4  C5  UNL     1     -33.032   6.271   4.191  1.00 20.00     0.063 C 
HETATM    5  C6  UNL     1     -34.279   5.373   4.004  1.00 20.00     0.012 C 
HETATM    6  C7  UNL     1     -34.847   6.634   5.759  1.00 20.00     0.059 C 
HETATM    7  C8  UNL     1     -33.427   7.143   5.416  1.00 20.00     0.202 C 
HETATM    8  F11 UNL     1     -32.582   6.903   6.452  1.00 20.00    -0.231 F 
ENDROOT
BRANCH   7   9
HETATM    9  C3  UNL     1     -33.441   8.607   5.102  1.00 20.00     0.338 C 
HETATM   10  O9  UNL     1     -32.792   9.141   4.215  1.00 20.00    -0.256 OA
HETATM   11  F10 UNL     1     -34.255   9.390   5.824  1.00 20.00    -0.161 F 
ENDBRANCH   7   9
TORSDOF 1
ENDMDL
MODEL 4
REMARK VINA RESULT:      -4.0      1.387      2.357
REMARK  1 active torsions:
REMARK  status: ('A' for Active; 'I' for Inactive)
REMARK    1  A    between atoms: C3_3  and  C8_8 
ROOT
HETATM    1  C1  UNL     1     -33.932   6.081   5.856  1.00 20.00    -0.025 C 
HETATM    2  C2  UNL     1     -33.684   7.388   6.027  1.00 20.00    -0.022 C 
HETATM    3  C4  UNL     1     -34.939   7.194   4.096  1.00 20.00     0.021 C 
HETATM    4  C5  UNL     1     -32.901   6.061   3.606  1.00 20.00     0.063 C 
HETATM    5  C6  UNL     1     -34.223   5.871   4.388  1.00 20.00     0.012 C 
HETATM    6  C7  UNL     1     -33.800   8.047   4.670  1.00 20.00     0.059 C 
HETATM    7  C8  UNL     1     -32.605   7.574   3.808  1.00 20.00     0.202 C 
HETATM    8  F11 UNL     1     -31.443   7.735   4.492  1.00 20.00    -0.231 F 
ENDROOT
BRANCH   7   9
HETATM    9  C3  UNL     1     -32.542   8.328   2.516  1.00 20.00     0.338 C 
HETATM   10  O9  UNL     1     -32.166   7.863   1.450  1.00 20.00    -0.256 OA
HETATM   11  F10 UNL     1     -32.965   9.600   2.517  1.00 20.00    -0.161 F 
ENDBRANCH   7   9
TORSDOF 1
ENDMDL
MODEL 5
REMARK VINA RESULT:      -3.8     12.533     13.818
REMARK  1 active torsions:
REMARK  status: ('A' for Active; 'I' for Inactive)
REMARK    1  A    between atoms: C3_3  and  C8_8 
ROOT
HETATM    1  C1  UNL     1     -36.153  15.852  -7.070  1.00 20.00    -0.025 C 
HETATM    2  C2  UNL     1     -36.590  16.009  -5.812  1.00 20.00    -0.022 C 
HETATM    3  C4  UNL     1     -34.678  17.290  -6.019  1.00 20.00     0.021 C 
HETATM    4  C5  UNL     1     -33.935  15.046  -6.323  1.00 20.00     0.063 C 
HETATM    5  C6  UNL     1     -34.678  16.178  -7.074  1.00 20.00     0.012 C 
HETATM    6  C7  UNL     1     -35.402  16.430  -4.975  1.00 20.00     0.059 C 
HETATM    7  C8  UNL     1     -34.445  15.219  -4.865  1.00 20.00     0.202 C 
HETATM    8  F11 UNL     1     -35.133  14.114  -4.476  1.00 20.00    -0.231 F 
ENDROOT
BRANCH   7   9
HETATM    9  C3  UNL     1     -33.338  15.495  -3.894  1.00 20.00     0.338 C 
HETATM   10  O9  UNL     1     -33.458  16.127  -2.856  1.00 20.00    -0.256 OA
HETATM   11  F10 UNL     1     -32.132  14.976  -4.164  1.00 20.00    -0.161 F 
ENDBRANCH   7   9
TORSDOF 1
ENDMDL
MODEL 6
REMARK VINA RESULT:      -3.8      2.168      3.575
REMARK  1 active torsions:
REMARK  status: ('A' for Active; 'I' for Inactive)
REMARK    1  A    between atoms: C3_3  and  C8_8 
ROOT
HETATM    1  C1  UNL     1     -32.149   8.708   4.812  1.00 20.00    -0.025 C 
HETATM    2  C2  UNL     1     -32.704   8.442   3.620  1.00 20.00    -0.022 C 
HETATM    3  C4  UNL     1     -34.437   8.621   5.138  1.00 20.00     0.021 C 
HETATM    4  C5  UNL     1     -33.190   6.727   5.869  1.00 20.00     0.063 C 
HETATM    5  C6  UNL     1     -33.136   8.274   5.870  1.00 20.00     0.012 C 
HETATM    6  C7  UNL     1     -34.057   7.821   3.885  1.00 20.00     0.059 C 
HETATM    7  C8  UNL     1     -33.825   6.413   4.485  1.00 20.00     0.202 C 
HETATM    8  F11 UNL     1     -32.950   5.717   3.716  1.00 20.00    -0.231 F 
ENDROOT
BRANCH   7   9
HETATM    9  C3  UNL     1     -35.113   5.657   4.598  1.00 20.00     0.338 C 
HETATM   10  O9  UNL     1     -35.256   4.600   5.194  1.00 20.00    -0.256 OA
HETATM   11  F10 UNL     1     -36.203   6.198   4.035  1.00 20.00    -0.161 F 
ENDBRANCH   7   9
TORSDOF 1
ENDMDL
MODEL 7
REMARK VINA RESULT:      -3.8      2.180      3.443
REMARK  1 active torsions:
REMARK  status: ('A' for Active; 'I' for Inactive)
REMARK    1  A    between atoms: C3_3  and  C8_8 
ROOT
HETATM    1  C1  UNL     1     -32.796   8.435   2.731  1.00 20.00    -0.025 C 
HETATM    2  C2  UNL     1     -33.772   8.996   3.460  1.00 20.00    -0.022 C 
HETATM    3  C4  UNL     1     -32.186   8.220   4.951  1.00 20.00     0.021 C 
HETATM    4  C5  UNL     1     -33.022   6.258   3.887  1.00 20.00     0.063 C 
HETATM    5  C6  UNL     1     -32.076   7.455   3.627  1.00 20.00     0.012 C 
HETATM    6  C7  UNL     1     -33.708   8.381   4.840  1.00 20.00     0.059 C 
HETATM    7  C8  UNL     1     -34.160   6.905   4.726  1.00 20.00     0.202 C 
HETATM    8  F11 UNL     1     -35.338   6.829   4.054  1.00 20.00    -0.231 F 
ENDROOT
BRANCH   7   9
HETATM    9  C3  UNL     1     -34.308   6.281   6.079  1.00 20.00     0.338 C 
HETATM   10  O9  UNL     1     -34.229   5.084   6.311  1.00 20.00    -0.256 OA
HETATM   11  F10 UNL     1     -34.504   7.098   7.123  1.00 20.00    -0.161 F 
ENDBRANCH   7   9
TORSDOF 1
ENDMDL
MODEL 8
REMARK VINA RESULT:      -3.8     12.878     14.088
REMARK  1 active torsions:
REMARK  status: ('A' for Active; 'I' for Inactive)
REMARK    1  A    between atoms: C3_3  and  C8_8 
ROOT
HETATM    1  C1  UNL     1     -36.057  16.570  -7.656  1.00 20.00    -0.025 C 
HETATM    2  C2  UNL     1     -35.902  15.238  -7.666  1.00 20.00    -0.022 C 
HETATM    3  C4  UNL     1     -36.733  15.796  -5.584  1.00 20.00     0.021 C 
HETATM    4  C5  UNL     1     -34.594  16.841  -5.678  1.00 20.00     0.063 C 
HETATM    5  C6  UNL     1     -36.037  17.010  -6.210  1.00 20.00     0.012 C 
HETATM    6  C7  UNL     1     -35.768  14.791  -6.228  1.00 20.00     0.059 C 
HETATM    7  C8  UNL     1     -34.406  15.298  -5.696  1.00 20.00     0.202 C 
HETATM    8  F11 UNL     1     -33.413  14.958  -6.558  1.00 20.00    -0.231 F 
ENDROOT
BRANCH   7   9
HETATM    9  C3  UNL     1     -34.114  14.735  -4.340  1.00 20.00     0.338 C 
HETATM   10  O9  UNL     1     -34.424  13.613  -3.965  1.00 20.00    -0.256 OA
HETATM   11  F10 UNL     1     -33.428  15.503  -3.482  1.00 20.00    -0.161 F 
ENDBRANCH   7   9
TORSDOF 1
ENDMDL
MODEL 9
REMARK VINA RESULT:      -3.8      9.993     10.691
REMARK  1 active torsions:
REMARK  status: ('A' for Active; 'I' for Inactive)
REMARK    1  A    between atoms: C3_3  and  C8_8 
ROOT
HETATM    1  C1  UNL     1     -42.932  15.045   7.437  1.00 20.00    -0.025 C 
HETATM    2  C2  UNL     1     -42.439  14.136   8.291  1.00 20.00    -0.022 C 
HETATM    3  C4  UNL     1     -40.638  15.026   7.150  1.00 20.00     0.021 C 
HETATM    4  C5  UNL     1     -41.923  13.922   5.476  1.00 20.00     0.063 C 
HETATM    5  C6  UNL     1     -41.919  15.213   6.329  1.00 20.00     0.012 C 
HETATM    6  C7  UNL     1     -41.101  13.690   7.745  1.00 20.00     0.059 C 
HETATM    7  C8  UNL     1     -41.360  12.862   6.464  1.00 20.00     0.202 C 
HETATM    8  F11 UNL     1     -42.294  11.906   6.707  1.00 20.00    -0.231 F 
ENDROOT
BRANCH   7   9
HETATM    9  C3  UNL     1     -40.098  12.224   5.971  1.00 20.00     0.338 C 
HETATM   10  O9  UNL     1     -39.220  11.763   6.684  1.00 20.00    -0.256 OA
HETATM   11  F10 UNL     1     -39.935  12.115   4.645  1.00 20.00    -0.161 F 
ENDBRANCH   7   9
TORSDOF 1
ENDMDL
