MODEL 1
REMARK VINA RESULT:      -5.2      0.000      0.000
REMARK  0 active torsions:
REMARK  status: ('A' for Active; 'I' for Inactive)
ROOT
HETATM    1  C1  UNL     1     -33.203   7.849   5.314  1.00 20.00     0.352 C 
HETATM    2  C2  UNL     1     -34.569   6.148   4.764  1.00 20.00     0.451 C 
HETATM    3  C3  UNL     1     -34.237   6.066   6.215  1.00 20.00     0.451 C 
HETATM    4  O4  UNL     1     -34.245   7.482   4.399  1.00 20.00    -0.294 OA
HETATM    5  O5  UNL     1     -33.083   6.879   6.364  1.00 20.00    -0.294 OA
HETATM    6  F6  UNL     1     -35.862   5.885   4.502  1.00 20.00    -0.166 F 
HETATM    7  F7  UNL     1     -33.801   5.313   4.030  1.00 20.00    -0.166 F 
HETATM    8  F8  UNL     1     -33.991   4.811   6.629  1.00 20.00    -0.166 F 
HETATM    9  F9  UNL     1     -35.220   6.588   6.980  1.00 20.00    -0.166 F 
ENDROOT
TORSDOF 0
ENDMDL
MODEL 2
REMARK VINA RESULT:      -5.2      0.001      2.552
REMARK  0 active torsions:
REMARK  status: ('A' for Active; 'I' for Inactive)
ROOT
HETATM    1  C1  UNL     1     -33.203   7.849   5.313  1.00 20.00     0.352 C 
HETATM    2  C2  UNL     1     -34.237   6.066   6.216  1.00 20.00     0.451 C 
HETATM    3  C3  UNL     1     -34.569   6.148   4.764  1.00 20.00     0.451 C 
HETATM    4  O4  UNL     1     -33.082   6.879   6.363  1.00 20.00    -0.294 OA
HETATM    5  O5  UNL     1     -34.245   7.480   4.398  1.00 20.00    -0.294 OA
HETATM    6  F6  UNL     1     -33.990   4.811   6.631  1.00 20.00    -0.166 F 
HETATM    7  F7  UNL     1     -35.220   6.589   6.980  1.00 20.00    -0.166 F 
HETATM    8  F8  UNL     1     -35.861   5.884   4.503  1.00 20.00    -0.166 F 
HETATM    9  F9  UNL     1     -33.801   5.312   4.031  1.00 20.00    -0.166 F 
ENDROOT
TORSDOF 0
ENDMDL
MODEL 3
REMARK VINA RESULT:      -5.0      1.853      2.824
REMARK  0 active torsions:
REMARK  status: ('A' for Active; 'I' for Inactive)
ROOT
HETATM    1  C1  UNL     1     -34.599   5.396   4.479  1.00 20.00     0.352 C 
HETATM    2  C2  UNL     1     -34.027   6.746   6.185  1.00 20.00     0.451 C 
HETATM    3  C3  UNL     1     -33.528   7.328   4.906  1.00 20.00     0.451 C 
HETATM    4  O4  UNL     1     -35.016   5.808   5.788  1.00 20.00    -0.294 OA
HETATM    5  O5  UNL     1     -33.552   6.245   3.988  1.00 20.00    -0.294 OA
HETATM    6  F6  UNL     1     -34.551   7.666   7.014  1.00 20.00    -0.166 F 
HETATM    7  F7  UNL     1     -33.053   6.079   6.840  1.00 20.00    -0.166 F 
HETATM    8  F8  UNL     1     -32.289   7.838   5.006  1.00 20.00    -0.166 F 
HETATM    9  F9  UNL     1     -34.355   8.290   4.442  1.00 20.00    -0.166 F 
ENDROOT
TORSDOF 0
ENDMDL
MODEL 4
REMARK VINA RESULT:      -5.0      1.854      2.557
REMARK  0 active torsions:
REMARK  status: ('A' for Active; 'I' for Inactive)
ROOT
HETATM    1  C1  UNL     1     -34.601   5.398   4.477  1.00 20.00     0.352 C 
HETATM    2  C2  UNL     1     -33.529   7.329   4.902  1.00 20.00     0.451 C 
HETATM    3  C3  UNL     1     -34.028   6.749   6.182  1.00 20.00     0.451 C 
HETATM    4  O4  UNL     1     -33.554   6.245   3.986  1.00 20.00    -0.294 OA
HETATM    5  O5  UNL     1     -35.016   5.810   5.787  1.00 20.00    -0.294 OA
HETATM    6  F6  UNL     1     -32.289   7.840   5.001  1.00 20.00    -0.166 F 
HETATM    7  F7  UNL     1     -34.357   8.291   4.438  1.00 20.00    -0.166 F 
HETATM    8  F8  UNL     1     -34.551   7.669   7.010  1.00 20.00    -0.166 F 
HETATM    9  F9  UNL     1     -33.053   6.082   6.837  1.00 20.00    -0.166 F 
ENDROOT
TORSDOF 0
ENDMDL
MODEL 5
REMARK VINA RESULT:      -5.0      1.750      2.551
REMARK  0 active torsions:
REMARK  status: ('A' for Active; 'I' for Inactive)
ROOT
HETATM    1  C1  UNL     1     -34.477   5.454   6.594  1.00 20.00     0.352 C 
HETATM    2  C2  UNL     1     -34.600   5.796   4.374  1.00 20.00     0.451 C 
HETATM    3  C3  UNL     1     -34.003   6.997   5.027  1.00 20.00     0.451 C 
HETATM    4  O4  UNL     1     -34.466   4.763   5.338  1.00 20.00    -0.294 OA
HETATM    5  O5  UNL     1     -34.353   6.870   6.396  1.00 20.00    -0.294 OA
HETATM    6  F6  UNL     1     -33.986   5.459   3.226  1.00 20.00    -0.166 F 
HETATM    7  F7  UNL     1     -35.917   5.971   4.125  1.00 20.00    -0.166 F 
HETATM    8  F8  UNL     1     -34.463   8.155   4.524  1.00 20.00    -0.166 F 
HETATM    9  F9  UNL     1     -32.655   6.991   4.935  1.00 20.00    -0.166 F 
ENDROOT
TORSDOF 0
ENDMDL
MODEL 6
REMARK VINA RESULT:      -5.0      1.750      2.556
REMARK  0 active torsions:
REMARK  status: ('A' for Active; 'I' for Inactive)
ROOT
HETATM    1  C1  UNL     1     -34.491   5.433   6.590  1.00 20.00     0.352 C 
HETATM    2  C2  UNL     1     -34.011   6.981   5.030  1.00 20.00     0.451 C 
HETATM    3  C3  UNL     1     -34.604   5.782   4.371  1.00 20.00     0.451 C 
HETATM    4  O4  UNL     1     -34.369   6.849   6.398  1.00 20.00    -0.294 OA
HETATM    5  O5  UNL     1     -34.473   4.745   5.331  1.00 20.00    -0.294 OA
HETATM    6  F6  UNL     1     -34.472   8.141   4.529  1.00 20.00    -0.166 F 
HETATM    7  F7  UNL     1     -32.663   6.978   4.946  1.00 20.00    -0.166 F 
HETATM    8  F8  UNL     1     -33.984   5.450   3.225  1.00 20.00    -0.166 F 
HETATM    9  F9  UNL     1     -35.919   5.955   4.116  1.00 20.00    -0.166 F 
ENDROOT
TORSDOF 0
ENDMDL
MODEL 7
REMARK VINA RESULT:      -4.4      1.660      1.990
REMARK  0 active torsions:
REMARK  status: ('A' for Active; 'I' for Inactive)
ROOT
HETATM    1  C1  UNL     1     -32.679   6.400   3.392  1.00 20.00     0.352 C 
HETATM    2  C2  UNL     1     -34.501   5.900   4.613  1.00 20.00     0.451 C 
HETATM    3  C3  UNL     1     -33.974   7.230   5.034  1.00 20.00     0.451 C 
HETATM    4  O4  UNL     1     -33.912   5.669   3.342  1.00 20.00    -0.294 OA
HETATM    5  O5  UNL     1     -32.643   7.259   4.541  1.00 20.00    -0.294 OA
HETATM    6  F6  UNL     1     -35.843   5.868   4.527  1.00 20.00    -0.166 F 
HETATM    7  F7  UNL     1     -34.097   4.919   5.449  1.00 20.00    -0.166 F 
HETATM    8  F8  UNL     1     -33.991   7.408   6.366  1.00 20.00    -0.166 F 
HETATM    9  F9  UNL     1     -34.658   8.241   4.454  1.00 20.00    -0.166 F 
ENDROOT
TORSDOF 0
ENDMDL
MODEL 8
REMARK VINA RESULT:      -4.4      1.658      2.547
REMARK  0 active torsions:
REMARK  status: ('A' for Active; 'I' for Inactive)
ROOT
HETATM    1  C1  UNL     1     -32.684   6.411   3.390  1.00 20.00     0.352 C 
HETATM    2  C2  UNL     1     -33.978   7.231   5.037  1.00 20.00     0.451 C 
HETATM    3  C3  UNL     1     -34.503   5.902   4.611  1.00 20.00     0.451 C 
HETATM    4  O4  UNL     1     -32.647   7.264   4.542  1.00 20.00    -0.294 OA
HETATM    5  O5  UNL     1     -33.915   5.678   3.339  1.00 20.00    -0.294 OA
HETATM    6  F6  UNL     1     -33.993   7.402   6.371  1.00 20.00    -0.166 F 
HETATM    7  F7  UNL     1     -34.665   8.244   4.464  1.00 20.00    -0.166 F 
HETATM    8  F8  UNL     1     -35.844   5.867   4.528  1.00 20.00    -0.166 F 
HETATM    9  F9  UNL     1     -34.095   4.918   5.442  1.00 20.00    -0.166 F 
ENDROOT
TORSDOF 0
ENDMDL
MODEL 9
REMARK VINA RESULT:      -4.1      8.569      9.370
REMARK  0 active torsions:
REMARK  status: ('A' for Active; 'I' for Inactive)
ROOT
HETATM    1  C1  UNL     1     -42.818   6.011   1.659  1.00 20.00     0.352 C 
HETATM    2  C2  UNL     1     -41.545   5.980  -0.195  1.00 20.00     0.451 C 
HETATM    3  C3  UNL     1     -41.427   7.313   0.463  1.00 20.00     0.451 C 
HETATM    4  O4  UNL     1     -42.067   5.129   0.814  1.00 20.00    -0.294 OA
HETATM    5  O5  UNL     1     -42.547   7.381   1.333  1.00 20.00    -0.294 OA
HETATM    6  F6  UNL     1     -40.370   5.511  -0.652  1.00 20.00    -0.166 F 
HETATM    7  F7  UNL     1     -42.426   6.008  -1.219  1.00 20.00    -0.166 F 
HETATM    8  F8  UNL     1     -41.440   8.335  -0.410  1.00 20.00    -0.166 F 
HETATM    9  F9  UNL     1     -40.307   7.399   1.212  1.00 20.00    -0.166 F 
ENDROOT
TORSDOF 0
ENDMDL
