MODEL 1
REMARK VINA RESULT:      -5.9      0.000      0.000
REMARK  0 active torsions:
REMARK  status: ('A' for Active; 'I' for Inactive)
ROOT
HETATM    1  C1  UNL     1     -34.345   4.795   4.051  1.00 20.00     0.011 C 
HETATM    2  C2  UNL     1     -34.271   6.038   6.340  1.00 20.00     0.011 C 
HETATM    3  C3  UNL     1     -33.329   5.184   3.254  1.00 20.00     0.007 C 
HETATM    4  C4  UNL     1     -33.665   7.229   6.523  1.00 20.00     0.007 C 
HETATM    5  C5  UNL     1     -32.239   7.748   3.300  1.00 20.00     0.042 C 
HETATM    6  C6  UNL     1     -32.446   8.614   4.583  1.00 20.00     0.042 C 
HETATM    7  C7  UNL     1     -34.806   5.930   4.938  1.00 20.00     0.270 C 
HETATM    8  C8  UNL     1     -32.863   6.477   3.792  1.00 20.00     0.247 C 
HETATM    9  C9  UNL     1     -33.726   8.063   5.267  1.00 20.00     0.247 C 
HETATM   10  N10 UNL     1     -34.153   7.076   4.268  1.00 20.00     0.116 N 
ENDROOT
TORSDOF 0
ENDMDL
MODEL 2
REMARK VINA RESULT:      -5.5      0.682      3.231
REMARK  0 active torsions:
REMARK  status: ('A' for Active; 'I' for Inactive)
ROOT
HETATM    1  C1  UNL     1     -32.383   7.991   3.575  1.00 20.00     0.011 C 
HETATM    2  C2  UNL     1     -32.915   5.497   3.036  1.00 20.00     0.011 C 
HETATM    3  C3  UNL     1     -32.466   8.229   4.900  1.00 20.00     0.007 C 
HETATM    4  C4  UNL     1     -33.652   4.701   3.837  1.00 20.00     0.007 C 
HETATM    5  C5  UNL     1     -34.226   6.885   6.592  1.00 20.00     0.042 C 
HETATM    6  C6  UNL     1     -34.779   5.499   6.131  1.00 20.00     0.042 C 
HETATM    7  C7  UNL     1     -33.370   6.926   3.151  1.00 20.00     0.270 C 
HETATM    8  C8  UNL     1     -33.272   7.127   5.461  1.00 20.00     0.247 C 
HETATM    9  C9  UNL     1     -34.693   5.501   4.581  1.00 20.00     0.247 C 
HETATM   10  N10 UNL     1     -34.242   6.878   4.345  1.00 20.00     0.116 N 
ENDROOT
TORSDOF 0
ENDMDL
MODEL 3
REMARK VINA RESULT:      -5.2      0.788      1.263
REMARK  0 active torsions:
REMARK  status: ('A' for Active; 'I' for Inactive)
ROOT
HETATM    1  C1  UNL     1     -34.839   4.937   5.323  1.00 20.00     0.011 C 
HETATM    2  C2  UNL     1     -33.801   7.086   6.371  1.00 20.00     0.011 C 
HETATM    3  C3  UNL     1     -34.095   4.493   4.290  1.00 20.00     0.007 C 
HETATM    4  C4  UNL     1     -32.979   7.920   5.701  1.00 20.00     0.007 C 
HETATM    5  C5  UNL     1     -32.639   6.177   2.613  1.00 20.00     0.042 C 
HETATM    6  C6  UNL     1     -32.260   7.597   3.143  1.00 20.00     0.042 C 
HETATM    7  C7  UNL     1     -34.781   6.445   5.426  1.00 20.00     0.270 C 
HETATM    8  C8  UNL     1     -33.267   5.638   3.863  1.00 20.00     0.247 C 
HETATM    9  C9  UNL     1     -33.313   7.940   4.230  1.00 20.00     0.247 C 
HETATM   10  N10 UNL     1     -34.206   6.782   4.106  1.00 20.00     0.116 N 
ENDROOT
TORSDOF 0
ENDMDL
MODEL 4
REMARK VINA RESULT:      -5.2      0.581      2.933
REMARK  0 active torsions:
REMARK  status: ('A' for Active; 'I' for Inactive)
ROOT
HETATM    1  C1  UNL     1     -34.232   7.260   6.479  1.00 20.00     0.011 C 
HETATM    2  C2  UNL     1     -32.427   8.229   4.867  1.00 20.00     0.011 C 
HETATM    3  C3  UNL     1     -34.334   5.922   6.344  1.00 20.00     0.007 C 
HETATM    4  C4  UNL     1     -32.035   7.615   3.732  1.00 20.00     0.007 C 
HETATM    5  C5  UNL     1     -33.895   4.585   3.939  1.00 20.00     0.042 C 
HETATM    6  C6  UNL     1     -33.040   5.299   2.844  1.00 20.00     0.042 C 
HETATM    7  C7  UNL     1     -33.868   7.913   5.163  1.00 20.00     0.270 C 
HETATM    8  C8  UNL     1     -33.740   5.599   5.032  1.00 20.00     0.247 C 
HETATM    9  C9  UNL     1     -33.166   6.819   3.130  1.00 20.00     0.247 C 
HETATM   10  N10 UNL     1     -34.140   6.800   4.228  1.00 20.00     0.116 N 
ENDROOT
TORSDOF 0
ENDMDL
MODEL 5
REMARK VINA RESULT:      -4.9      0.949      2.670
REMARK  0 active torsions:
REMARK  status: ('A' for Active; 'I' for Inactive)
ROOT
HETATM    1  C1  UNL     1     -32.432   6.810   2.745  1.00 20.00     0.011 C 
HETATM    2  C2  UNL     1     -33.344   8.661   4.337  1.00 20.00     0.011 C 
HETATM    3  C3  UNL     1     -33.195   5.699   2.805  1.00 20.00     0.007 C 
HETATM    4  C4  UNL     1     -34.110   8.405   5.417  1.00 20.00     0.007 C 
HETATM    5  C5  UNL     1     -34.536   4.882   5.107  1.00 20.00     0.042 C 
HETATM    6  C6  UNL     1     -34.832   5.951   6.207  1.00 20.00     0.042 C 
HETATM    7  C7  UNL     1     -32.399   7.519   4.081  1.00 20.00     0.270 C 
HETATM    8  C8  UNL     1     -33.950   5.792   4.070  1.00 20.00     0.247 C 
HETATM    9  C9  UNL     1     -33.767   7.063   6.016  1.00 20.00     0.247 C 
HETATM   10  N10 UNL     1     -32.944   6.462   4.959  1.00 20.00     0.116 N 
ENDROOT
TORSDOF 0
ENDMDL
MODEL 6
REMARK VINA RESULT:      -4.4      1.044      2.733
REMARK  0 active torsions:
REMARK  status: ('A' for Active; 'I' for Inactive)
ROOT
HETATM    1  C1  UNL     1     -33.030   5.479   2.712  1.00 20.00     0.011 C 
HETATM    2  C2  UNL     1     -32.562   7.998   2.230  1.00 20.00     0.011 C 
HETATM    3  C3  UNL     1     -33.906   5.335   3.728  1.00 20.00     0.007 C 
HETATM    4  C4  UNL     1     -32.730   8.976   3.143  1.00 20.00     0.007 C 
HETATM    5  C5  UNL     1     -34.087   7.117   5.862  1.00 20.00     0.042 C 
HETATM    6  C6  UNL     1     -33.534   8.565   5.663  1.00 20.00     0.042 C 
HETATM    7  C7  UNL     1     -32.173   6.710   2.905  1.00 20.00     0.270 C 
HETATM    8  C8  UNL     1     -33.889   6.614   4.464  1.00 20.00     0.247 C 
HETATM    9  C9  UNL     1     -32.470   8.463   4.538  1.00 20.00     0.247 C 
HETATM   10  N10 UNL     1     -32.449   7.010   4.327  1.00 20.00     0.116 N 
ENDROOT
TORSDOF 0
ENDMDL
MODEL 7
REMARK VINA RESULT:      -4.2      0.923      2.678
REMARK  0 active torsions:
REMARK  status: ('A' for Active; 'I' for Inactive)
ROOT
HETATM    1  C1  UNL     1     -33.632   8.204   5.959  1.00 20.00     0.011 C 
HETATM    2  C2  UNL     1     -35.199   6.177   5.477  1.00 20.00     0.011 C 
HETATM    3  C3  UNL     1     -33.003   8.608   4.836  1.00 20.00     0.007 C 
HETATM    4  C4  UNL     1     -35.032   5.336   4.437  1.00 20.00     0.007 C 
HETATM    5  C5  UNL     1     -32.285   6.878   2.773  1.00 20.00     0.042 C 
HETATM    6  C6  UNL     1     -33.040   5.515   2.657  1.00 20.00     0.042 C 
HETATM    7  C7  UNL     1     -33.870   6.710   5.941  1.00 20.00     0.270 C 
HETATM    8  C8  UNL     1     -33.080   7.473   3.896  1.00 20.00     0.247 C 
HETATM    9  C9  UNL     1     -33.572   5.201   4.081  1.00 20.00     0.247 C 
HETATM   10  N10 UNL     1     -32.973   6.309   4.835  1.00 20.00     0.116 N 
ENDROOT
TORSDOF 0
ENDMDL
MODEL 8
REMARK VINA RESULT:      -4.0      0.997      2.538
REMARK  0 active torsions:
REMARK  status: ('A' for Active; 'I' for Inactive)
ROOT
HETATM    1  C1  UNL     1     -34.540   5.011   4.488  1.00 20.00     0.011 C 
HETATM    2  C2  UNL     1     -33.079   5.780   2.471  1.00 20.00     0.011 C 
HETATM    3  C3  UNL     1     -35.028   6.071   5.165  1.00 20.00     0.007 C 
HETATM    4  C4  UNL     1     -32.473   6.983   2.405  1.00 20.00     0.007 C 
HETATM    5  C5  UNL     1     -33.679   8.498   5.395  1.00 20.00     0.042 C 
HETATM    6  C6  UNL     1     -32.582   8.836   4.335  1.00 20.00     0.042 C 
HETATM    7  C7  UNL     1     -33.181   5.321   3.900  1.00 20.00     0.270 C 
HETATM    8  C8  UNL     1     -34.176   7.218   4.795  1.00 20.00     0.247 C 
HETATM    9  C9  UNL     1     -32.092   7.471   3.781  1.00 20.00     0.247 C 
HETATM   10  N10 UNL     1     -32.840   6.552   4.647  1.00 20.00     0.116 N 
ENDROOT
TORSDOF 0
ENDMDL
MODEL 9
REMARK VINA RESULT:      -3.6     12.384     13.810
REMARK  0 active torsions:
REMARK  status: ('A' for Active; 'I' for Inactive)
ROOT
HETATM    1  C1  UNL     1     -33.389  14.806  -4.238  1.00 20.00     0.011 C 
HETATM    2  C2  UNL     1     -35.718  14.565  -5.385  1.00 20.00     0.011 C 
HETATM    3  C3  UNL     1     -33.292  15.979  -3.580  1.00 20.00     0.007 C 
HETATM    4  C4  UNL     1     -36.496  15.613  -5.721  1.00 20.00     0.007 C 
HETATM    5  C5  UNL     1     -34.578  18.310  -4.402  1.00 20.00     0.042 C 
HETATM    6  C6  UNL     1     -35.821  18.176  -5.339  1.00 20.00     0.042 C 
HETATM    7  C7  UNL     1     -34.263  14.942  -5.465  1.00 20.00     0.270 C 
HETATM    8  C8  UNL     1     -34.337  16.853  -4.150  1.00 20.00     0.247 C 
HETATM    9  C9  UNL     1     -35.657  16.817  -6.072  1.00 20.00     0.247 C 
HETATM   10  N10 UNL     1     -34.331  16.415  -5.584  1.00 20.00     0.116 N 
ENDROOT
TORSDOF 0
ENDMDL
