MODEL 1
REMARK VINA RESULT:      -5.6      0.000      0.000
REMARK  1 active torsions:
REMARK  status: ('A' for Active; 'I' for Inactive)
REMARK    1  A    between atoms: C5_5  and  C7_7 
ROOT
HETATM    1  C1  UNL     1     -34.543   6.573   6.473  1.00 20.00    -0.026 A 
HETATM    2  C2  UNL     1     -34.300   7.467   5.505  1.00 20.00    -0.013 A 
HETATM    3  C3  UNL     1     -34.001   4.705   4.877  1.00 20.00    -0.019 A 
HETATM    4  C4  UNL     1     -33.754   5.589   3.893  1.00 20.00    -0.071 A 
HETATM    5  C6  UNL     1     -34.401   5.094   6.271  1.00 20.00     0.054 A 
HETATM    6  C7  UNL     1     -33.866   7.078   4.120  1.00 20.00     0.123 A 
HETATM    7  C8  UNL     1     -33.411   5.133   2.503  1.00 20.00     0.044 C 
ENDROOT
BRANCH   6   8
HETATM    8  C5  UNL     1     -32.506   7.682   3.942  1.00 20.00     0.230 C 
HETATM    9  O9  UNL     1     -31.718   7.261   3.101  1.00 20.00    -0.279 OA
HETATM   10 CL10 UNL     1     -32.225   8.995   5.045  1.00 20.00    -0.043 Cl
ENDBRANCH   6   8
TORSDOF 1
ENDMDL
MODEL 2
REMARK VINA RESULT:      -5.4      1.195      1.195
REMARK  1 active torsions:
REMARK  status: ('A' for Active; 'I' for Inactive)
REMARK    1  A    between atoms: C5_5  and  C7_7 
ROOT
HETATM    1  C1  UNL     1     -34.398   6.914   6.475  1.00 20.00    -0.026 A 
HETATM    2  C2  UNL     1     -34.193   7.697   5.408  1.00 20.00    -0.013 A 
HETATM    3  C3  UNL     1     -33.944   4.881   5.064  1.00 20.00    -0.019 A 
HETATM    4  C4  UNL     1     -33.737   5.653   3.982  1.00 20.00    -0.071 A 
HETATM    5  C6  UNL     1     -34.276   5.421   6.425  1.00 20.00     0.054 A 
HETATM    6  C7  UNL     1     -33.827   7.158   4.054  1.00 20.00     0.123 A 
HETATM    7  C8  UNL     1     -33.462   5.048   2.634  1.00 20.00     0.044 C 
ENDROOT
BRANCH   6   8
HETATM    8  C5  UNL     1     -32.472   7.723   3.751  1.00 20.00     0.230 C 
HETATM    9  O9  UNL     1     -31.731   8.132   4.639  1.00 20.00    -0.279 OA
HETATM   10 CL10 UNL     1     -32.124   7.713   2.049  1.00 20.00    -0.043 Cl
ENDBRANCH   6   8
TORSDOF 1
ENDMDL
MODEL 3
REMARK VINA RESULT:      -5.3      2.246      3.462
REMARK  1 active torsions:
REMARK  status: ('A' for Active; 'I' for Inactive)
REMARK    1  A    between atoms: C5_5  and  C7_7 
ROOT
HETATM    1  C1  UNL     1     -33.943   5.010   3.298  1.00 20.00    -0.026 A 
HETATM    2  C2  UNL     1     -34.695   5.653   4.202  1.00 20.00    -0.013 A 
HETATM    3  C3  UNL     1     -32.318   6.931   3.293  1.00 20.00    -0.019 A 
HETATM    4  C4  UNL     1     -33.063   7.591   4.199  1.00 20.00    -0.071 A 
HETATM    5  C6  UNL     1     -32.661   5.571   2.759  1.00 20.00     0.054 A 
HETATM    6  C7  UNL     1     -34.334   7.000   4.760  1.00 20.00     0.123 A 
HETATM    7  C8  UNL     1     -32.695   8.976   4.652  1.00 20.00     0.044 C 
ENDROOT
BRANCH   6   8
HETATM    8  C5  UNL     1     -34.139   6.784   6.231  1.00 20.00     0.230 C 
HETATM    9  O9  UNL     1     -34.046   7.723   7.014  1.00 20.00    -0.279 OA
HETATM   10 CL10 UNL     1     -34.069   5.096   6.639  1.00 20.00    -0.043 Cl
ENDBRANCH   6   8
TORSDOF 1
ENDMDL
MODEL 4
REMARK VINA RESULT:      -5.2      2.206      3.459
REMARK  1 active torsions:
REMARK  status: ('A' for Active; 'I' for Inactive)
REMARK    1  A    between atoms: C5_5  and  C7_7 
ROOT
HETATM    1  C1  UNL     1     -32.722   8.266   3.791  1.00 20.00    -0.026 A 
HETATM    2  C2  UNL     1     -33.533   7.315   3.310  1.00 20.00    -0.013 A 
HETATM    3  C3  UNL     1     -33.305   7.571   6.138  1.00 20.00    -0.019 A 
HETATM    4  C4  UNL     1     -34.125   6.611   5.671  1.00 20.00    -0.071 A 
HETATM    5  C6  UNL     1     -32.503   8.486   5.258  1.00 20.00     0.054 A 
HETATM    6  C7  UNL     1     -34.310   6.377   4.191  1.00 20.00     0.123 A 
HETATM    7  C8  UNL     1     -34.944   5.764   6.604  1.00 20.00     0.044 C 
ENDROOT
BRANCH   6   8
HETATM    8  C5  UNL     1     -33.796   5.007   3.867  1.00 20.00     0.230 C 
HETATM    9  O9  UNL     1     -34.098   4.028   4.542  1.00 20.00    -0.279 OA
HETATM   10 CL10 UNL     1     -32.765   5.009   2.468  1.00 20.00    -0.043 Cl
ENDBRANCH   6   8
TORSDOF 1
ENDMDL
MODEL 5
REMARK VINA RESULT:      -5.2      1.606      2.130
REMARK  1 active torsions:
REMARK  status: ('A' for Active; 'I' for Inactive)
REMARK    1  A    between atoms: C5_5  and  C7_7 
ROOT
HETATM    1  C1  UNL     1     -34.782   4.975   4.726  1.00 20.00    -0.026 A 
HETATM    2  C2  UNL     1     -34.827   6.303   4.899  1.00 20.00    -0.013 A 
HETATM    3  C3  UNL     1     -32.950   5.264   3.026  1.00 20.00    -0.019 A 
HETATM    4  C4  UNL     1     -32.984   6.600   3.187  1.00 20.00    -0.071 A 
HETATM    5  C6  UNL     1     -33.825   4.308   3.785  1.00 20.00     0.054 A 
HETATM    6  C7  UNL     1     -33.928   7.257   4.164  1.00 20.00     0.123 A 
HETATM    7  C8  UNL     1     -32.120   7.507   2.356  1.00 20.00     0.044 C 
ENDROOT
BRANCH   6   8
HETATM    8  C5  UNL     1     -33.110   7.931   5.224  1.00 20.00     0.230 C 
HETATM    9  O9  UNL     1     -32.414   8.911   4.975  1.00 20.00    -0.279 OA
HETATM   10 CL10 UNL     1     -33.283   7.163   6.772  1.00 20.00    -0.043 Cl
ENDBRANCH   6   8
TORSDOF 1
ENDMDL
MODEL 6
REMARK VINA RESULT:      -5.2      2.342      3.258
REMARK  1 active torsions:
REMARK  status: ('A' for Active; 'I' for Inactive)
REMARK    1  A    between atoms: C5_5  and  C7_7 
ROOT
HETATM    1  C1  UNL     1     -32.812   8.827   4.839  1.00 20.00    -0.026 A 
HETATM    2  C2  UNL     1     -33.170   7.709   5.485  1.00 20.00    -0.013 A 
HETATM    3  C3  UNL     1     -32.545   7.507   2.713  1.00 20.00    -0.019 A 
HETATM    4  C4  UNL     1     -32.901   6.375   3.348  1.00 20.00    -0.071 A 
HETATM    5  C6  UNL     1     -32.480   8.852   3.378  1.00 20.00     0.054 A 
HETATM    6  C7  UNL     1     -33.268   6.369   4.812  1.00 20.00     0.123 A 
HETATM    7  C8  UNL     1     -32.893   5.049   2.639  1.00 20.00     0.044 C 
ENDROOT
BRANCH   6   8
HETATM    8  C5  UNL     1     -34.707   5.966   4.932  1.00 20.00     0.230 C 
HETATM    9  O9  UNL     1     -35.523   6.219   4.052  1.00 20.00    -0.279 OA
HETATM   10 CL10 UNL     1     -35.030   5.130   6.421  1.00 20.00    -0.043 Cl
ENDBRANCH   6   8
TORSDOF 1
ENDMDL
MODEL 7
REMARK VINA RESULT:      -4.8     15.605     16.813
REMARK  1 active torsions:
REMARK  status: ('A' for Active; 'I' for Inactive)
REMARK    1  A    between atoms: C5_5  and  C7_7 
ROOT
HETATM    1  C1  UNL     1     -23.625  18.869   8.313  1.00 20.00    -0.026 A 
HETATM    2  C2  UNL     1     -24.456  18.894   9.364  1.00 20.00    -0.013 A 
HETATM    3  C3  UNL     1     -21.680  18.501   9.865  1.00 20.00    -0.019 A 
HETATM    4  C4  UNL     1     -22.500  18.526  10.932  1.00 20.00    -0.071 A 
HETATM    5  C6  UNL     1     -22.148  18.650   8.447  1.00 20.00     0.054 A 
HETATM    6  C7  UNL     1     -23.991  18.712  10.781  1.00 20.00     0.123 A 
HETATM    7  C8  UNL     1     -21.961  18.427  12.332  1.00 20.00     0.044 C 
ENDROOT
BRANCH   6   8
HETATM    8  C5  UNL     1     -24.669  17.466  11.268  1.00 20.00     0.230 C 
HETATM    9  O9  UNL     1     -24.290  16.351  10.926  1.00 20.00    -0.279 OA
HETATM   10 CL10 UNL     1     -25.998  17.818  12.330  1.00 20.00    -0.043 Cl
ENDBRANCH   6   8
TORSDOF 1
ENDMDL
MODEL 8
REMARK VINA RESULT:      -4.7      2.298      3.064
REMARK  1 active torsions:
REMARK  status: ('A' for Active; 'I' for Inactive)
REMARK    1  A    between atoms: C5_5  and  C7_7 
ROOT
HETATM    1  C1  UNL     1     -34.025   7.811   6.596  1.00 20.00    -0.026 A 
HETATM    2  C2  UNL     1     -33.846   6.504   6.361  1.00 20.00    -0.013 A 
HETATM    3  C3  UNL     1     -33.187   8.337   4.283  1.00 20.00    -0.019 A 
HETATM    4  C4  UNL     1     -32.999   7.028   4.031  1.00 20.00    -0.071 A 
HETATM    5  C6  UNL     1     -33.734   8.869   5.576  1.00 20.00     0.054 A 
HETATM    6  C7  UNL     1     -33.331   5.969   5.055  1.00 20.00     0.123 A 
HETATM    7  C8  UNL     1     -32.395   6.562   2.736  1.00 20.00     0.044 C 
ENDROOT
BRANCH   6   8
HETATM    8  C5  UNL     1     -34.437   5.118   4.507  1.00 20.00     0.230 C 
HETATM    9  O9  UNL     1     -34.284   3.920   4.293  1.00 20.00    -0.279 OA
HETATM   10 CL10 UNL     1     -35.889   6.031   4.234  1.00 20.00    -0.043 Cl
ENDBRANCH   6   8
TORSDOF 1
ENDMDL
MODEL 9
REMARK VINA RESULT:      -4.7     15.946     16.553
REMARK  1 active torsions:
REMARK  status: ('A' for Active; 'I' for Inactive)
REMARK    1  A    between atoms: C5_5  and  C7_7 
ROOT
HETATM    1  C1  UNL     1     -22.846  17.956  12.200  1.00 20.00    -0.026 A 
HETATM    2  C2  UNL     1     -22.152  18.327  11.115  1.00 20.00    -0.013 A 
HETATM    3  C3  UNL     1     -24.996  18.383  10.965  1.00 20.00    -0.019 A 
HETATM    4  C4  UNL     1     -24.315  18.760   9.868  1.00 20.00    -0.071 A 
HETATM    5  C6  UNL     1     -24.344  17.924  12.238  1.00 20.00     0.054 A 
HETATM    6  C7  UNL     1     -22.805  18.754   9.831  1.00 20.00     0.123 A 
HETATM    7  C8  UNL     1     -25.026  19.263   8.643  1.00 20.00     0.044 C 
ENDROOT
BRANCH   6   8
HETATM    8  C5  UNL     1     -22.367  17.751   8.807  1.00 20.00     0.230 C 
HETATM    9  O9  UNL     1     -22.413  16.544   9.024  1.00 20.00    -0.279 OA
HETATM   10 CL10 UNL     1     -21.814  18.509   7.344  1.00 20.00    -0.043 Cl
ENDBRANCH   6   8
TORSDOF 1
ENDMDL
