MODEL 1
REMARK VINA RESULT:      -5.1      0.000      0.000
REMARK  0 active torsions:
REMARK  status: ('A' for Active; 'I' for Inactive)
ROOT
HETATM    1  C1  UNL     1     -31.886   8.365   0.936  1.00 20.00     0.012 C 
HETATM    2  C2  UNL     1     -32.188   7.785   1.943  1.00 20.00    -0.112 C 
HETATM    3  C3  UNL     1     -33.906   5.150   4.076  1.00 20.00    -0.015 C 
HETATM    4  C4  UNL     1     -34.118   5.777   5.243  1.00 20.00    -0.020 C 
HETATM    5  C5  UNL     1     -33.822   7.239   5.341  1.00 20.00     0.156 C 
HETATM    6  C6  UNL     1     -33.325   5.790   2.851  1.00 20.00     0.045 C 
HETATM    7  C7  UNL     1     -33.388   7.974   4.089  1.00 20.00     0.101 C 
HETATM    8  C8  UNL     1     -32.558   7.074   3.178  1.00 20.00     0.075 C 
HETATM    9  C9  UNL     1     -34.670   5.095   6.455  1.00 20.00     0.052 C 
HETATM   10  O10 UNL     1     -33.987   7.841   6.401  1.00 20.00    -0.293 OA
ENDROOT
TORSDOF 0
ENDMDL
MODEL 2
REMARK VINA RESULT:      -4.8      1.335      4.068
REMARK  0 active torsions:
REMARK  status: ('A' for Active; 'I' for Inactive)
ROOT
HETATM    1  C1  UNL     1     -34.819   5.175   6.780  1.00 20.00     0.012 C 
HETATM    2  C2  UNL     1     -34.479   5.760   5.787  1.00 20.00    -0.112 C 
HETATM    3  C3  UNL     1     -32.773   6.237   2.425  1.00 20.00    -0.015 C 
HETATM    4  C4  UNL     1     -32.433   7.534   2.423  1.00 20.00    -0.020 C 
HETATM    5  C5  UNL     1     -32.627   8.332   3.673  1.00 20.00     0.156 C 
HETATM    6  C6  UNL     1     -33.404   5.515   3.578  1.00 20.00     0.045 C 
HETATM    7  C7  UNL     1     -33.108   7.617   4.920  1.00 20.00     0.101 C 
HETATM    8  C8  UNL     1     -34.061   6.477   4.572  1.00 20.00     0.075 C 
HETATM    9  C9  UNL     1     -31.834   8.228   1.241  1.00 20.00     0.052 C 
HETATM   10  O10 UNL     1     -32.343   9.528   3.702  1.00 20.00    -0.293 OA
ENDROOT
TORSDOF 0
ENDMDL
MODEL 3
REMARK VINA RESULT:      -4.7      1.411      2.107
REMARK  0 active torsions:
REMARK  status: ('A' for Active; 'I' for Inactive)
ROOT
HETATM    1  C1  UNL     1     -31.722   8.387   0.961  1.00 20.00     0.012 C 
HETATM    2  C2  UNL     1     -32.399   7.953   1.852  1.00 20.00    -0.112 C 
HETATM    3  C3  UNL     1     -33.582   7.491   5.434  1.00 20.00    -0.015 C 
HETATM    4  C4  UNL     1     -34.034   6.229   5.459  1.00 20.00    -0.020 C 
HETATM    5  C5  UNL     1     -33.820   5.364   4.259  1.00 20.00     0.156 C 
HETATM    6  C6  UNL     1     -32.920   8.145   4.258  1.00 20.00     0.045 C 
HETATM    7  C7  UNL     1     -33.012   5.917   3.102  1.00 20.00     0.101 C 
HETATM    8  C8  UNL     1     -33.228   7.420   2.946  1.00 20.00     0.075 C 
HETATM    9  C9  UNL     1     -34.720   5.622   6.642  1.00 20.00     0.052 C 
HETATM   10  O10 UNL     1     -34.238   4.207   4.239  1.00 20.00    -0.293 OA
ENDROOT
TORSDOF 0
ENDMDL
MODEL 4
REMARK VINA RESULT:      -4.3     12.228     12.781
REMARK  0 active torsions:
REMARK  status: ('A' for Active; 'I' for Inactive)
ROOT
HETATM    1  C1  UNL     1     -29.360  18.889   3.061  1.00 20.00     0.012 C 
HETATM    2  C2  UNL     1     -30.263  18.623   2.315  1.00 20.00    -0.112 C 
HETATM    3  C3  UNL     1     -32.088  18.360  -1.008  1.00 20.00    -0.015 C 
HETATM    4  C4  UNL     1     -33.378  18.510  -0.674  1.00 20.00    -0.020 C 
HETATM    5  C5  UNL     1     -33.719  18.880   0.734  1.00 20.00     0.156 C 
HETATM    6  C6  UNL     1     -30.935  18.471  -0.056  1.00 20.00     0.045 C 
HETATM    7  C7  UNL     1     -32.589  19.166   1.701  1.00 20.00     0.101 C 
HETATM    8  C8  UNL     1     -31.370  18.298   1.402  1.00 20.00     0.075 C 
HETATM    9  C9  UNL     1     -34.504  18.359  -1.647  1.00 20.00     0.052 C 
HETATM   10  O10 UNL     1     -34.893  19.007   1.080  1.00 20.00    -0.293 OA
ENDROOT
TORSDOF 0
ENDMDL
MODEL 5
REMARK VINA RESULT:      -4.2     12.275     12.612
REMARK  0 active torsions:
REMARK  status: ('A' for Active; 'I' for Inactive)
ROOT
HETATM    1  C1  UNL     1     -33.530  17.014  -4.045  1.00 20.00     0.012 C 
HETATM    2  C2  UNL     1     -33.287  17.222  -2.888  1.00 20.00    -0.112 C 
HETATM    3  C3  UNL     1     -33.899  18.524   0.630  1.00 20.00    -0.015 C 
HETATM    4  C4  UNL     1     -32.670  18.823   1.076  1.00 20.00    -0.020 C 
HETATM    5  C5  UNL     1     -31.520  18.746   0.124  1.00 20.00     0.156 C 
HETATM    6  C6  UNL     1     -34.219  18.049  -0.756  1.00 20.00     0.045 C 
HETATM    7  C7  UNL     1     -31.804  18.430  -1.330  1.00 20.00     0.101 C 
HETATM    8  C8  UNL     1     -32.991  17.479  -1.469  1.00 20.00     0.075 C 
HETATM    9  C9  UNL     1     -32.386  19.263   2.477  1.00 20.00     0.052 C 
HETATM   10  O10 UNL     1     -30.376  18.994   0.503  1.00 20.00    -0.293 OA
ENDROOT
TORSDOF 0
ENDMDL
MODEL 6
REMARK VINA RESULT:      -4.1     12.275     13.154
REMARK  0 active torsions:
REMARK  status: ('A' for Active; 'I' for Inactive)
ROOT
HETATM    1  C1  UNL     1     -32.312  18.138  -1.198  1.00 20.00     0.012 C 
HETATM    2  C2  UNL     1     -33.001  17.521  -1.965  1.00 20.00    -0.112 C 
HETATM    3  C3  UNL     1     -33.788  15.049  -4.742  1.00 20.00    -0.015 C 
HETATM    4  C4  UNL     1     -34.868  15.576  -5.339  1.00 20.00    -0.020 C 
HETATM    5  C5  UNL     1     -35.329  16.936  -4.923  1.00 20.00     0.156 C 
HETATM    6  C6  UNL     1     -33.023  15.694  -3.625  1.00 20.00     0.045 C 
HETATM    7  C7  UNL     1     -34.499  17.705  -3.915  1.00 20.00     0.101 C 
HETATM    8  C8  UNL     1     -33.845  16.766  -2.905  1.00 20.00     0.075 C 
HETATM    9  C9  UNL     1     -35.625  14.886  -6.429  1.00 20.00     0.052 C 
HETATM   10  O10 UNL     1     -36.326  17.442  -5.435  1.00 20.00    -0.293 OA
ENDROOT
TORSDOF 0
ENDMDL
MODEL 7
REMARK VINA RESULT:      -4.0     11.748     13.062
REMARK  0 active torsions:
REMARK  status: ('A' for Active; 'I' for Inactive)
ROOT
HETATM    1  C1  UNL     1     -32.549  18.730  -1.011  1.00 20.00     0.012 C 
HETATM    2  C2  UNL     1     -32.859  18.147  -2.014  1.00 20.00    -0.112 C 
HETATM    3  C3  UNL     1     -35.067  17.182  -4.953  1.00 20.00    -0.015 C 
HETATM    4  C4  UNL     1     -34.751  15.898  -5.179  1.00 20.00    -0.020 C 
HETATM    5  C5  UNL     1     -33.847  15.199  -4.215  1.00 20.00     0.156 C 
HETATM    6  C6  UNL     1     -34.530  18.014  -3.828  1.00 20.00     0.045 C 
HETATM    7  C7  UNL     1     -33.403  15.940  -2.971  1.00 20.00     0.101 C 
HETATM    8  C8  UNL     1     -33.240  17.433  -3.244  1.00 20.00     0.075 C 
HETATM    9  C9  UNL     1     -35.283  15.109  -6.333  1.00 20.00     0.052 C 
HETATM   10  O10 UNL     1     -33.521  14.027  -4.401  1.00 20.00    -0.293 OA
ENDROOT
TORSDOF 0
ENDMDL
MODEL 8
REMARK VINA RESULT:      -4.0      9.880     10.804
REMARK  0 active torsions:
REMARK  status: ('A' for Active; 'I' for Inactive)
ROOT
HETATM    1  C1  UNL     1     -38.922  11.652   4.077  1.00 20.00     0.012 C 
HETATM    2  C2  UNL     1     -39.747  12.112   4.818  1.00 20.00    -0.112 C 
HETATM    3  C3  UNL     1     -42.486  14.491   5.951  1.00 20.00    -0.015 C 
HETATM    4  C4  UNL     1     -42.316  14.560   7.280  1.00 20.00    -0.020 C 
HETATM    5  C5  UNL     1     -41.119  13.902   7.888  1.00 20.00     0.156 C 
HETATM    6  C6  UNL     1     -41.593  13.741   5.008  1.00 20.00     0.045 C 
HETATM    7  C7  UNL     1     -40.096  13.269   6.968  1.00 20.00     0.101 C 
HETATM    8  C8  UNL     1     -40.758  12.678   5.726  1.00 20.00     0.075 C 
HETATM    9  C9  UNL     1     -43.247  15.293   8.192  1.00 20.00     0.052 C 
HETATM   10  O10 UNL     1     -40.942  13.929   9.105  1.00 20.00    -0.293 OA
ENDROOT
TORSDOF 0
ENDMDL
MODEL 9
REMARK VINA RESULT:      -3.7     12.030     13.178
REMARK  0 active torsions:
REMARK  status: ('A' for Active; 'I' for Inactive)
ROOT
HETATM    1  C1  UNL     1     -35.786  15.138  -7.238  1.00 20.00     0.012 C 
HETATM    2  C2  UNL     1     -35.148  15.659  -6.364  1.00 20.00    -0.112 C 
HETATM    3  C3  UNL     1     -33.293  15.888  -3.055  1.00 20.00    -0.015 C 
HETATM    4  C4  UNL     1     -33.480  17.160  -2.674  1.00 20.00    -0.020 C 
HETATM    5  C5  UNL     1     -34.414  18.019  -3.465  1.00 20.00     0.156 C 
HETATM    6  C6  UNL     1     -33.903  15.256  -4.270  1.00 20.00     0.045 C 
HETATM    7  C7  UNL     1     -35.185  17.388  -4.606  1.00 20.00     0.101 C 
HETATM    8  C8  UNL     1     -34.368  16.297  -5.291  1.00 20.00     0.075 C 
HETATM    9  C9  UNL     1     -32.827  17.765  -1.472  1.00 20.00     0.052 C 
HETATM   10  O10 UNL     1     -34.595  19.195  -3.155  1.00 20.00    -0.293 OA
ENDROOT
TORSDOF 0
ENDMDL
