MODEL 1
REMARK VINA RESULT:      -5.3      0.000      0.000
REMARK  1 active torsions:
REMARK  status: ('A' for Active; 'I' for Inactive)
REMARK    1  A    between atoms: C2_2  and  C3_3 
ROOT
HETATM    1  C1  UNL     1     -33.760   7.066   5.345  1.00 20.00    -0.043 C 
HETATM    2  C2  UNL     1     -32.862   7.967   4.946  1.00 20.00     0.055 C 
HETATM    3  C4  UNL     1     -34.372   6.739   6.688  1.00 20.00     0.040 C 
HETATM    4  C5  UNL     1     -34.729   5.394   6.024  1.00 20.00     0.046 C 
HETATM    5  C6  UNL     1     -34.550   5.998   4.610  1.00 20.00     0.199 C 
HETATM    6  F9  UNL     1     -33.914   5.200   3.721  1.00 20.00    -0.245 F 
ENDROOT
BRANCH   2   7
HETATM    7  C3  UNL     1     -32.446   8.052   3.519  1.00 20.00     0.145 C 
HETATM    8  C7  UNL     1     -32.851   9.292   2.767  1.00 20.00     0.096 C 
HETATM    9  O8  UNL     1     -31.783   7.169   2.980  1.00 20.00    -0.294 OA
ENDBRANCH   2   7
TORSDOF 1
ENDMDL
MODEL 2
REMARK VINA RESULT:      -5.0      1.826      3.513
REMARK  1 active torsions:
REMARK  status: ('A' for Active; 'I' for Inactive)
REMARK    1  A    between atoms: C2_2  and  C3_3 
ROOT
HETATM    1  C1  UNL     1     -33.103   7.730   4.889  1.00 20.00    -0.043 C 
HETATM    2  C2  UNL     1     -33.961   7.307   5.818  1.00 20.00     0.055 C 
HETATM    3  C4  UNL     1     -32.427   9.058   4.633  1.00 20.00     0.040 C 
HETATM    4  C5  UNL     1     -32.209   8.498   3.214  1.00 20.00     0.046 C 
HETATM    5  C6  UNL     1     -32.439   7.049   3.706  1.00 20.00     0.199 C 
HETATM    6  F9  UNL     1     -33.186   6.275   2.885  1.00 20.00    -0.245 F 
ENDROOT
BRANCH   2   7
HETATM    7  C3  UNL     1     -34.464   5.906   5.811  1.00 20.00     0.145 C 
HETATM    8  C7  UNL     1     -35.464   5.549   4.744  1.00 20.00     0.096 C 
HETATM    9  O8  UNL     1     -34.068   5.067   6.618  1.00 20.00    -0.294 OA
ENDBRANCH   2   7
TORSDOF 1
ENDMDL
MODEL 3
REMARK VINA RESULT:      -5.0      2.297      3.906
REMARK  1 active torsions:
REMARK  status: ('A' for Active; 'I' for Inactive)
REMARK    1  A    between atoms: C2_2  and  C3_3 
ROOT
HETATM    1  C1  UNL     1     -33.177   7.156   4.046  1.00 20.00    -0.043 C 
HETATM    2  C2  UNL     1     -33.696   5.930   3.982  1.00 20.00     0.055 C 
HETATM    3  C4  UNL     1     -31.982   7.810   3.391  1.00 20.00     0.040 C 
HETATM    4  C5  UNL     1     -32.118   8.842   4.528  1.00 20.00     0.046 C 
HETATM    5  C6  UNL     1     -33.580   8.412   4.799  1.00 20.00     0.199 C 
HETATM    6  F9  UNL     1     -33.920   8.318   6.105  1.00 20.00    -0.245 F 
ENDROOT
BRANCH   2   7
HETATM    7  C3  UNL     1     -34.913   5.573   4.762  1.00 20.00     0.145 C 
HETATM    8  C7  UNL     1     -34.696   5.070   6.164  1.00 20.00     0.096 C 
HETATM    9  O8  UNL     1     -36.044   5.703   4.300  1.00 20.00    -0.294 OA
ENDBRANCH   2   7
TORSDOF 1
ENDMDL
MODEL 4
REMARK VINA RESULT:      -4.5      1.617      1.921
REMARK  1 active torsions:
REMARK  status: ('A' for Active; 'I' for Inactive)
REMARK    1  A    between atoms: C2_2  and  C3_3 
ROOT
HETATM    1  C1  UNL     1     -33.727   6.210   4.614  1.00 20.00    -0.043 C 
HETATM    2  C2  UNL     1     -33.142   6.736   3.538  1.00 20.00     0.055 C 
HETATM    3  C4  UNL     1     -34.467   4.914   4.861  1.00 20.00     0.040 C 
HETATM    4  C5  UNL     1     -35.031   5.650   6.092  1.00 20.00     0.046 C 
HETATM    5  C6  UNL     1     -33.885   6.691   6.045  1.00 20.00     0.199 C 
HETATM    6  F9  UNL     1     -34.261   7.971   6.274  1.00 20.00    -0.245 F 
ENDROOT
BRANCH   2   7
HETATM    7  C3  UNL     1     -32.475   8.066   3.604  1.00 20.00     0.145 C 
HETATM    8  C7  UNL     1     -32.714   9.002   2.450  1.00 20.00     0.096 C 
HETATM    9  O8  UNL     1     -31.782   8.400   4.562  1.00 20.00    -0.294 OA
ENDBRANCH   2   7
TORSDOF 1
ENDMDL
MODEL 5
REMARK VINA RESULT:      -4.1     12.254     13.146
REMARK  1 active torsions:
REMARK  status: ('A' for Active; 'I' for Inactive)
REMARK    1  A    between atoms: C2_2  and  C3_3 
ROOT
HETATM    1  C1  UNL     1     -32.961  18.383  -2.795  1.00 20.00    -0.043 C 
HETATM    2  C2  UNL     1     -32.421  19.230  -1.919  1.00 20.00     0.055 C 
HETATM    3  C4  UNL     1     -33.594  18.566  -4.155  1.00 20.00     0.040 C 
HETATM    4  C5  UNL     1     -34.215  17.182  -3.882  1.00 20.00     0.046 C 
HETATM    5  C6  UNL     1     -33.157  16.878  -2.793  1.00 20.00     0.199 C 
HETATM    6  F9  UNL     1     -33.634  16.275  -1.680  1.00 20.00    -0.245 F 
ENDROOT
BRANCH   2   7
HETATM    7  C3  UNL     1     -31.863  18.741  -0.627  1.00 20.00     0.145 C 
HETATM    8  C7  UNL     1     -32.835  18.569   0.509  1.00 20.00     0.096 C 
HETATM    9  O8  UNL     1     -30.673  18.466  -0.494  1.00 20.00    -0.294 OA
ENDBRANCH   2   7
TORSDOF 1
ENDMDL
MODEL 6
REMARK VINA RESULT:      -3.9      2.096      3.267
REMARK  1 active torsions:
REMARK  status: ('A' for Active; 'I' for Inactive)
REMARK    1  A    between atoms: C2_2  and  C3_3 
ROOT
HETATM    1  C1  UNL     1     -33.606   7.371   4.808  1.00 20.00    -0.043 C 
HETATM    2  C2  UNL     1     -34.420   6.322   4.695  1.00 20.00     0.055 C 
HETATM    3  C4  UNL     1     -33.770   8.747   5.413  1.00 20.00     0.040 C 
HETATM    4  C5  UNL     1     -32.556   9.109   4.534  1.00 20.00     0.046 C 
HETATM    5  C6  UNL     1     -32.170   7.617   4.383  1.00 20.00     0.199 C 
HETATM    6  F9  UNL     1     -31.776   7.248   3.142  1.00 20.00    -0.245 F 
ENDROOT
BRANCH   2   7
HETATM    7  C3  UNL     1     -33.964   5.069   4.030  1.00 20.00     0.145 C 
HETATM    8  C7  UNL     1     -33.380   5.208   2.650  1.00 20.00     0.096 C 
HETATM    9  O8  UNL     1     -34.036   3.974   4.584  1.00 20.00    -0.294 OA
ENDBRANCH   2   7
TORSDOF 1
ENDMDL
MODEL 7
REMARK VINA RESULT:      -3.9     12.478     13.080
REMARK  1 active torsions:
REMARK  status: ('A' for Active; 'I' for Inactive)
REMARK    1  A    between atoms: C2_2  and  C3_3 
ROOT
HETATM    1  C1  UNL     1     -33.764  16.223  -3.658  1.00 20.00    -0.043 C 
HETATM    2  C2  UNL     1     -33.758  15.019  -4.230  1.00 20.00     0.055 C 
HETATM    3  C4  UNL     1     -33.183  16.759  -2.369  1.00 20.00     0.040 C 
HETATM    4  C5  UNL     1     -34.198  17.902  -2.567  1.00 20.00     0.046 C 
HETATM    5  C6  UNL     1     -34.348  17.562  -4.070  1.00 20.00     0.199 C 
HETATM    6  F9  UNL     1     -35.614  17.612  -4.547  1.00 20.00    -0.245 F 
ENDROOT
BRANCH   2   7
HETATM    7  C3  UNL     1     -34.433  14.792  -5.538  1.00 20.00     0.145 C 
HETATM    8  C7  UNL     1     -35.896  14.439  -5.494  1.00 20.00     0.096 C 
HETATM    9  O8  UNL     1     -33.838  14.908  -6.607  1.00 20.00    -0.294 OA
ENDBRANCH   2   7
TORSDOF 1
ENDMDL
MODEL 8
REMARK VINA RESULT:      -3.8      9.159      9.441
REMARK  1 active torsions:
REMARK  status: ('A' for Active; 'I' for Inactive)
REMARK    1  A    between atoms: C2_2  and  C3_3 
ROOT
HETATM    1  C1  UNL     1     -41.131  12.545   6.136  1.00 20.00    -0.043 C 
HETATM    2  C2  UNL     1     -40.113  11.686   6.077  1.00 20.00     0.055 C 
HETATM    3  C4  UNL     1     -42.412  12.578   6.937  1.00 20.00     0.040 C 
HETATM    4  C5  UNL     1     -42.880  13.573   5.858  1.00 20.00     0.046 C 
HETATM    5  C6  UNL     1     -41.420  13.856   5.428  1.00 20.00     0.199 C 
HETATM    6  F9  UNL     1     -41.221  13.944   4.092  1.00 20.00    -0.245 F 
ENDROOT
BRANCH   2   7
HETATM    7  C3  UNL     1     -38.960  11.929   5.167  1.00 20.00     0.145 C 
HETATM    8  C7  UNL     1     -39.147  11.558   3.720  1.00 20.00     0.096 C 
HETATM    9  O8  UNL     1     -37.910  12.430   5.565  1.00 20.00    -0.294 OA
ENDBRANCH   2   7
TORSDOF 1
ENDMDL
MODEL 9
REMARK VINA RESULT:      -3.8     15.989     16.385
REMARK  1 active torsions:
REMARK  status: ('A' for Active; 'I' for Inactive)
REMARK    1  A    between atoms: C2_2  and  C3_3 
ROOT
HETATM    1  C1  UNL     1     -24.065  18.392  10.355  1.00 20.00    -0.043 C 
HETATM    2  C2  UNL     1     -23.682  18.428   9.079  1.00 20.00     0.055 C 
HETATM    3  C4  UNL     1     -25.315  18.847  11.074  1.00 20.00     0.040 C 
HETATM    4  C5  UNL     1     -24.426  18.788  12.332  1.00 20.00     0.046 C 
HETATM    5  C6  UNL     1     -23.406  17.868  11.619  1.00 20.00     0.199 C 
HETATM    6  F9  UNL     1     -22.106  18.157  11.855  1.00 20.00    -0.245 F 
ENDROOT
BRANCH   2   7
HETATM    7  C3  UNL     1     -22.358  17.887   8.663  1.00 20.00     0.145 C 
HETATM    8  C7  UNL     1     -21.294  18.893   8.315  1.00 20.00     0.096 C 
HETATM    9  O8  UNL     1     -22.129  16.680   8.626  1.00 20.00    -0.294 OA
ENDBRANCH   2   7
TORSDOF 1
ENDMDL
