MODEL 1
REMARK VINA RESULT:      -4.1      0.000      0.000
REMARK  1 active torsions:
REMARK  status: ('A' for Active; 'I' for Inactive)
REMARK    1  A    between atoms: C3_3  and  C8_8 
ROOT
HETATM    1  C1  UNL     1     -41.244  13.182   5.649  1.00 20.00    -0.079 C 
HETATM    2  C2  UNL     1     -40.159  12.797   4.974  1.00 20.00    -0.028 C 
HETATM    3  C4  UNL     1     -41.990  12.367   6.675  1.00 20.00     0.039 C 
HETATM    4  C5  UNL     1     -41.689  15.336   6.754  1.00 20.00     0.023 C 
HETATM    5  C6  UNL     1     -43.416  14.029   5.750  1.00 20.00     0.014 C 
HETATM    6  C7  UNL     1     -41.980  14.495   5.498  1.00 20.00     0.015 C 
HETATM    7  C8  UNL     1     -42.480  14.596   7.853  1.00 20.00     0.077 C 
HETATM    8  C9  UNL     1     -43.077  13.382   7.098  1.00 20.00     0.003 C 
HETATM    9  C10 UNL     1     -39.481  11.480   5.160  1.00 20.00     0.036 C 
ENDROOT
BRANCH   7  10
HETATM   10  C3  UNL     1     -41.642  14.216   9.032  1.00 20.00     0.223 C 
HETATM   11  O11 UNL     1     -42.055  13.452   9.898  1.00 20.00    -0.279 OA
HETATM   12 CL12 UNL     1     -40.079  14.976   8.995  1.00 20.00    -0.043 Cl
ENDBRANCH   7  10
TORSDOF 1
ENDMDL
MODEL 2
REMARK VINA RESULT:      -4.1      2.556      3.157
REMARK  1 active torsions:
REMARK  status: ('A' for Active; 'I' for Inactive)
REMARK    1  A    between atoms: C3_3  and  C8_8 
ROOT
HETATM    1  C1  UNL     1     -41.006  12.831   6.454  1.00 20.00    -0.079 C 
HETATM    2  C2  UNL     1     -40.265  11.900   5.850  1.00 20.00    -0.028 C 
HETATM    3  C4  UNL     1     -40.562  14.225   6.819  1.00 20.00     0.039 C 
HETATM    4  C5  UNL     1     -43.335  13.487   5.994  1.00 20.00     0.023 C 
HETATM    5  C6  UNL     1     -42.391  13.561   8.186  1.00 20.00     0.014 C 
HETATM    6  C7  UNL     1     -42.431  12.673   6.939  1.00 20.00     0.015 C 
HETATM    7  C8  UNL     1     -42.983  14.945   6.355  1.00 20.00     0.077 C 
HETATM    8  C9  UNL     1     -41.871  14.785   7.421  1.00 20.00     0.003 C 
HETATM    9  C10 UNL     1     -38.857  12.112   5.402  1.00 20.00     0.036 C 
ENDROOT
BRANCH   7  10
HETATM   10  C3  UNL     1     -42.567  15.763   5.173  1.00 20.00     0.223 C 
HETATM   11  O11 UNL     1     -42.386  16.974   5.258  1.00 20.00    -0.279 OA
HETATM   12 CL12 UNL     1     -42.386  14.797   3.740  1.00 20.00    -0.043 Cl
ENDBRANCH   7  10
TORSDOF 1
ENDMDL
MODEL 3
REMARK VINA RESULT:      -4.0      2.283      3.852
REMARK  1 active torsions:
REMARK  status: ('A' for Active; 'I' for Inactive)
REMARK    1  A    between atoms: C3_3  and  C8_8 
ROOT
HETATM    1  C1  UNL     1     -41.488  14.277   8.034  1.00 20.00    -0.079 C 
HETATM    2  C2  UNL     1     -41.336  14.479   9.345  1.00 20.00    -0.028 C 
HETATM    3  C4  UNL     1     -40.560  14.755   6.946  1.00 20.00     0.039 C 
HETATM    4  C5  UNL     1     -42.116  12.209   6.854  1.00 20.00     0.023 C 
HETATM    5  C6  UNL     1     -42.735  14.375   6.064  1.00 20.00     0.014 C 
HETATM    6  C7  UNL     1     -42.640  13.566   7.360  1.00 20.00     0.015 C 
HETATM    7  C8  UNL     1     -41.196  12.613   5.683  1.00 20.00     0.077 C 
HETATM    8  C9  UNL     1     -41.259  14.159   5.703  1.00 20.00     0.003 C 
HETATM    9  C10 UNL     1     -40.178  15.199   9.952  1.00 20.00     0.036 C 
ENDROOT
BRANCH   7  10
HETATM   10  C3  UNL     1     -39.809  12.067   5.805  1.00 20.00     0.223 C 
HETATM   11  O11 UNL     1     -39.297  11.845   6.897  1.00 20.00    -0.279 OA
HETATM   12 CL12 UNL     1     -39.069  11.808   4.254  1.00 20.00    -0.043 Cl
ENDBRANCH   7  10
TORSDOF 1
ENDMDL
MODEL 4
REMARK VINA RESULT:      -3.8      2.416      3.031
REMARK  1 active torsions:
REMARK  status: ('A' for Active; 'I' for Inactive)
REMARK    1  A    between atoms: C3_3  and  C8_8 
ROOT
HETATM    1  C1  UNL     1     -41.018  12.840   6.468  1.00 20.00    -0.079 C 
HETATM    2  C2  UNL     1     -40.287  11.915   5.841  1.00 20.00    -0.028 C 
HETATM    3  C4  UNL     1     -40.560  14.221   6.863  1.00 20.00     0.039 C 
HETATM    4  C5  UNL     1     -43.341  13.528   6.030  1.00 20.00     0.023 C 
HETATM    5  C6  UNL     1     -42.390  13.543   8.220  1.00 20.00     0.014 C 
HETATM    6  C7  UNL     1     -42.443  12.684   6.953  1.00 20.00     0.015 C 
HETATM    7  C8  UNL     1     -42.974  14.974   6.422  1.00 20.00     0.077 C 
HETATM    8  C9  UNL     1     -41.861  14.779   7.481  1.00 20.00     0.003 C 
HETATM    9  C10 UNL     1     -38.879  12.124   5.393  1.00 20.00     0.036 C 
ENDROOT
BRANCH   7  10
HETATM   10  C3  UNL     1     -42.554  15.814   5.258  1.00 20.00     0.223 C 
HETATM   11  O11 UNL     1     -42.497  15.359   4.120  1.00 20.00    -0.279 OA
HETATM   12 CL12 UNL     1     -42.178  17.444   5.730  1.00 20.00    -0.043 Cl
ENDBRANCH   7  10
TORSDOF 1
ENDMDL
MODEL 5
REMARK VINA RESULT:      -3.8     20.542     21.920
REMARK  1 active torsions:
REMARK  status: ('A' for Active; 'I' for Inactive)
REMARK    1  A    between atoms: C3_3  and  C8_8 
ROOT
HETATM    1  C1  UNL     1     -26.172  -1.484  11.545  1.00 20.00    -0.079 C 
HETATM    2  C2  UNL     1     -25.095  -1.565  12.330  1.00 20.00    -0.028 C 
HETATM    3  C4  UNL     1     -26.438  -2.305  10.308  1.00 20.00     0.039 C 
HETATM    4  C5  UNL     1     -28.544  -1.337  12.189  1.00 20.00     0.023 C 
HETATM    5  C6  UNL     1     -27.679  -0.279  10.231  1.00 20.00     0.014 C 
HETATM    6  C7  UNL     1     -27.331  -0.523  11.702  1.00 20.00     0.015 C 
HETATM    7  C8  UNL     1     -28.921  -2.168  10.945  1.00 20.00     0.077 C 
HETATM    8  C9  UNL     1     -27.834  -1.772   9.916  1.00 20.00     0.003 C 
HETATM    9  C10 UNL     1     -23.976  -2.530  12.117  1.00 20.00     0.036 C 
ENDROOT
BRANCH   7  10
HETATM   10  C3  UNL     1     -28.986  -3.638  11.214  1.00 20.00     0.223 C 
HETATM   11  O11 UNL     1     -28.781  -4.100  12.332  1.00 20.00    -0.279 OA
HETATM   12 CL12 UNL     1     -29.376  -4.547   9.785  1.00 20.00    -0.043 Cl
ENDBRANCH   7  10
TORSDOF 1
ENDMDL
MODEL 6
REMARK VINA RESULT:      -3.7     12.664     14.271
REMARK  1 active torsions:
REMARK  status: ('A' for Active; 'I' for Inactive)
REMARK    1  A    between atoms: C3_3  and  C8_8 
ROOT
HETATM    1  C1  UNL     1     -36.981  16.561  -5.713  1.00 20.00    -0.079 C 
HETATM    2  C2  UNL     1     -38.266  16.493  -5.359  1.00 20.00    -0.028 C 
HETATM    3  C4  UNL     1     -35.884  17.265  -4.955  1.00 20.00     0.039 C 
HETATM    4  C5  UNL     1     -35.515  14.768  -6.549  1.00 20.00     0.023 C 
HETATM    5  C6  UNL     1     -35.287  17.040  -7.245  1.00 20.00     0.014 C 
HETATM    6  C7  UNL     1     -36.361  15.985  -6.967  1.00 20.00     0.015 C 
HETATM    7  C8  UNL     1     -34.324  15.416  -5.813  1.00 20.00     0.077 C 
HETATM    8  C9  UNL     1     -34.668  16.925  -5.847  1.00 20.00     0.003 C 
HETATM    9  C10 UNL     1     -38.823  17.092  -4.110  1.00 20.00     0.036 C 
ENDROOT
BRANCH   7  10
HETATM   10  C3  UNL     1     -34.118  14.878  -4.433  1.00 20.00     0.223 C 
HETATM   11  O11 UNL     1     -34.625  13.821  -4.069  1.00 20.00    -0.279 OA
HETATM   12 CL12 UNL     1     -33.107  15.914  -3.471  1.00 20.00    -0.043 Cl
ENDBRANCH   7  10
TORSDOF 1
ENDMDL
MODEL 7
REMARK VINA RESULT:      -3.6     12.949     14.089
REMARK  1 active torsions:
REMARK  status: ('A' for Active; 'I' for Inactive)
REMARK    1  A    between atoms: C3_3  and  C8_8 
ROOT
HETATM    1  C1  UNL     1     -34.279  16.427  -4.817  1.00 20.00    -0.079 C 
HETATM    2  C2  UNL     1     -33.552  17.045  -3.883  1.00 20.00    -0.028 C 
HETATM    3  C4  UNL     1     -35.029  15.129  -4.648  1.00 20.00     0.039 C 
HETATM    4  C5  UNL     1     -35.915  17.389  -6.385  1.00 20.00     0.023 C 
HETATM    5  C6  UNL     1     -34.552  15.510  -6.946  1.00 20.00     0.014 C 
HETATM    6  C7  UNL     1     -34.471  16.872  -6.250  1.00 20.00     0.015 C 
HETATM    7  C8  UNL     1     -36.752  16.097  -6.286  1.00 20.00     0.077 C 
HETATM    8  C9  UNL     1     -35.684  15.003  -6.042  1.00 20.00     0.003 C 
HETATM    9  C10 UNL     1     -33.391  16.550  -2.484  1.00 20.00     0.036 C 
ENDROOT
BRANCH   7  10
HETATM   10  C3  UNL     1     -37.805  16.154  -5.224  1.00 20.00     0.223 C 
HETATM   11  O11 UNL     1     -38.556  15.208  -5.008  1.00 20.00    -0.279 OA
HETATM   12 CL12 UNL     1     -37.807  17.676  -4.386  1.00 20.00    -0.043 Cl
ENDBRANCH   7  10
TORSDOF 1
ENDMDL
MODEL 8
REMARK VINA RESULT:      -3.6     14.096     15.312
REMARK  1 active torsions:
REMARK  status: ('A' for Active; 'I' for Inactive)
REMARK    1  A    between atoms: C3_3  and  C8_8 
ROOT
HETATM    1  C1  UNL     1     -34.256  15.799  -4.743  1.00 20.00    -0.079 C 
HETATM    2  C2  UNL     1     -33.319  15.849  -3.794  1.00 20.00    -0.028 C 
HETATM    3  C4  UNL     1     -35.475  16.681  -4.839  1.00 20.00     0.039 C 
HETATM    4  C5  UNL     1     -33.973  15.599  -7.180  1.00 20.00     0.023 C 
HETATM    5  C6  UNL     1     -35.834  14.651  -6.023  1.00 20.00     0.014 C 
HETATM    6  C7  UNL     1     -34.318  14.822  -5.897  1.00 20.00     0.015 C 
HETATM    7  C8  UNL     1     -35.216  16.490  -7.386  1.00 20.00     0.077 C 
HETATM    8  C9  UNL     1     -36.094  16.157  -6.155  1.00 20.00     0.003 C 
HETATM    9  C10 UNL     1     -33.317  16.832  -2.671  1.00 20.00     0.036 C 
ENDROOT
BRANCH   7  10
HETATM   10  C3  UNL     1     -34.888  17.944  -7.513  1.00 20.00     0.223 C 
HETATM   11  O11 UNL     1     -33.728  18.340  -7.573  1.00 20.00    -0.279 OA
HETATM   12 CL12 UNL     1     -36.314  18.935  -7.560  1.00 20.00    -0.043 Cl
ENDBRANCH   7  10
TORSDOF 1
ENDMDL
MODEL 9
REMARK VINA RESULT:      -3.5      2.085      3.996
REMARK  1 active torsions:
REMARK  status: ('A' for Active; 'I' for Inactive)
REMARK    1  A    between atoms: C3_3  and  C8_8 
ROOT
HETATM    1  C1  UNL     1     -41.534  14.936   9.309  1.00 20.00    -0.079 C 
HETATM    2  C2  UNL     1     -41.969  14.805  10.564  1.00 20.00    -0.028 C 
HETATM    3  C4  UNL     1     -40.285  14.322   8.730  1.00 20.00     0.039 C 
HETATM    4  C5  UNL     1     -42.812  14.786   7.210  1.00 20.00     0.023 C 
HETATM    5  C6  UNL     1     -40.927  16.228   7.463  1.00 20.00     0.014 C 
HETATM    6  C7  UNL     1     -42.176  15.763   8.216  1.00 20.00     0.015 C 
HETATM    7  C8  UNL     1     -41.584  14.155   6.522  1.00 20.00     0.077 C 
HETATM    8  C9  UNL     1     -40.392  14.804   7.266  1.00 20.00     0.003 C 
HETATM    9  C10 UNL     1     -41.286  13.981  11.605  1.00 20.00     0.036 C 
ENDROOT
BRANCH   7  10
HETATM   10  C3  UNL     1     -41.580  12.660   6.574  1.00 20.00     0.223 C 
HETATM   11  O11 UNL     1     -42.483  12.030   7.118  1.00 20.00    -0.279 OA
HETATM   12 CL12 UNL     1     -40.185  11.981   5.791  1.00 20.00    -0.043 Cl
ENDBRANCH   7  10
TORSDOF 1
ENDMDL
