MODEL 1
REMARK VINA RESULT:      -5.3      0.000      0.000
REMARK  2 active torsions:
REMARK  status: ('A' for Active; 'I' for Inactive)
REMARK    1  A    between atoms: C1_1  and  C5_5 
REMARK    2  A    between atoms: C5_5  and  C6_6 
ROOT
HETATM    1  C2  UNL     1     -35.162   5.247   5.937  1.00 20.00     0.003 C 
HETATM    2  C3  UNL     1     -35.329   5.872   4.541  1.00 20.00     0.029 C 
HETATM    3  C4  UNL     1     -33.650   5.168   5.667  1.00 20.00     0.029 C 
HETATM    4  C5  UNL     1     -33.822   6.278   4.582  1.00 20.00     0.149 C 
ENDROOT
BRANCH   4   5
HETATM    5  C1  UNL     1     -33.036   6.040   3.262  1.00 20.00     0.316 C 
HETATM    6  O7  UNL     1     -32.386   6.889   2.670  1.00 20.00    -0.259 OA
HETATM    7  F8  UNL     1     -33.039   4.801   2.752  1.00 20.00    -0.163 F 
ENDBRANCH   4   5
BRANCH   4   8
HETATM    8  C6  UNL     1     -33.586   7.692   5.113  1.00 20.00     0.404 C 
HETATM    9  F9  UNL     1     -34.149   7.825   6.322  1.00 20.00    -0.170 F 
HETATM   10  F10 UNL     1     -32.272   7.929   5.215  1.00 20.00    -0.170 F 
HETATM   11  F11 UNL     1     -34.130   8.589   4.277  1.00 20.00    -0.170 F 
ENDBRANCH   4   8
TORSDOF 2
ENDMDL
MODEL 2
REMARK VINA RESULT:      -5.3      0.009      1.141
REMARK  2 active torsions:
REMARK  status: ('A' for Active; 'I' for Inactive)
REMARK    1  A    between atoms: C1_1  and  C5_5 
REMARK    2  A    between atoms: C5_5  and  C6_6 
ROOT
HETATM    1  C2  UNL     1     -35.160   5.249   5.939  1.00 20.00     0.003 C 
HETATM    2  C3  UNL     1     -35.324   5.875   4.543  1.00 20.00     0.029 C 
HETATM    3  C4  UNL     1     -33.647   5.171   5.671  1.00 20.00     0.029 C 
HETATM    4  C5  UNL     1     -33.817   6.282   4.587  1.00 20.00     0.149 C 
ENDROOT
BRANCH   4   5
HETATM    5  C1  UNL     1     -33.029   6.046   3.268  1.00 20.00     0.316 C 
HETATM    6  O7  UNL     1     -32.376   6.895   2.680  1.00 20.00    -0.259 OA
HETATM    7  F8  UNL     1     -33.034   4.809   2.753  1.00 20.00    -0.163 F 
ENDBRANCH   4   5
BRANCH   4   8
HETATM    8  C6  UNL     1     -33.583   7.696   5.120  1.00 20.00     0.404 C 
HETATM    9  F9  UNL     1     -34.123   8.593   4.284  1.00 20.00    -0.170 F 
HETATM   10  F10 UNL     1     -34.149   7.828   6.327  1.00 20.00    -0.170 F 
HETATM   11  F11 UNL     1     -32.267   7.931   5.224  1.00 20.00    -0.170 F 
ENDBRANCH   4   8
TORSDOF 2
ENDMDL
MODEL 3
REMARK VINA RESULT:      -5.3      0.007      1.140
REMARK  2 active torsions:
REMARK  status: ('A' for Active; 'I' for Inactive)
REMARK    1  A    between atoms: C1_1  and  C5_5 
REMARK    2  A    between atoms: C5_5  and  C6_6 
ROOT
HETATM    1  C2  UNL     1     -35.161   5.242   5.943  1.00 20.00     0.003 C 
HETATM    2  C3  UNL     1     -35.330   5.868   4.548  1.00 20.00     0.029 C 
HETATM    3  C4  UNL     1     -33.649   5.164   5.671  1.00 20.00     0.029 C 
HETATM    4  C5  UNL     1     -33.823   6.274   4.587  1.00 20.00     0.149 C 
ENDROOT
BRANCH   4   5
HETATM    5  C1  UNL     1     -33.039   6.039   3.266  1.00 20.00     0.316 C 
HETATM    6  O7  UNL     1     -32.389   6.888   2.676  1.00 20.00    -0.259 OA
HETATM    7  F8  UNL     1     -33.045   4.801   2.752  1.00 20.00    -0.163 F 
ENDBRANCH   4   5
BRANCH   4   8
HETATM    8  C6  UNL     1     -33.587   7.689   5.120  1.00 20.00     0.404 C 
HETATM    9  F9  UNL     1     -32.272   7.923   5.222  1.00 20.00    -0.170 F 
HETATM   10  F10 UNL     1     -34.129   8.586   4.286  1.00 20.00    -0.170 F 
HETATM   11  F11 UNL     1     -34.151   7.819   6.330  1.00 20.00    -0.170 F 
ENDBRANCH   4   8
TORSDOF 2
ENDMDL
MODEL 4
REMARK VINA RESULT:      -5.1      2.173      3.105
REMARK  2 active torsions:
REMARK  status: ('A' for Active; 'I' for Inactive)
REMARK    1  A    between atoms: C1_1  and  C5_5 
REMARK    2  A    between atoms: C5_5  and  C6_6 
ROOT
HETATM    1  C2  UNL     1     -32.859   8.357   4.102  1.00 20.00     0.003 C 
HETATM    2  C3  UNL     1     -32.756   6.823   4.070  1.00 20.00     0.029 C 
HETATM    3  C4  UNL     1     -34.351   8.201   4.441  1.00 20.00     0.029 C 
HETATM    4  C5  UNL     1     -34.049   6.754   4.943  1.00 20.00     0.149 C 
ENDROOT
BRANCH   4   5
HETATM    5  C1  UNL     1     -35.082   5.674   4.513  1.00 20.00     0.316 C 
HETATM    6  O7  UNL     1     -34.888   4.468   4.542  1.00 20.00    -0.259 OA
HETATM    7  F8  UNL     1     -36.290   6.094   4.114  1.00 20.00    -0.163 F 
ENDBRANCH   4   5
BRANCH   4   8
HETATM    8  C6  UNL     1     -33.767   6.675   6.444  1.00 20.00     0.404 C 
HETATM    9  F9  UNL     1     -32.583   7.242   6.715  1.00 20.00    -0.170 F 
HETATM   10  F10 UNL     1     -34.726   7.319   7.123  1.00 20.00    -0.170 F 
HETATM   11  F11 UNL     1     -33.739   5.393   6.835  1.00 20.00    -0.170 F 
ENDBRANCH   4   8
TORSDOF 2
ENDMDL
MODEL 5
REMARK VINA RESULT:      -5.0      1.973      2.804
REMARK  2 active torsions:
REMARK  status: ('A' for Active; 'I' for Inactive)
REMARK    1  A    between atoms: C1_1  and  C5_5 
REMARK    2  A    between atoms: C5_5  and  C6_6 
ROOT
HETATM    1  C2  UNL     1     -33.619   8.680   4.852  1.00 20.00     0.003 C 
HETATM    2  C3  UNL     1     -32.659   7.479   4.880  1.00 20.00     0.029 C 
HETATM    3  C4  UNL     1     -34.716   7.729   4.344  1.00 20.00     0.029 C 
HETATM    4  C5  UNL     1     -33.900   6.533   4.929  1.00 20.00     0.149 C 
ENDROOT
BRANCH   4   5
HETATM    5  C1  UNL     1     -33.815   5.279   4.015  1.00 20.00     0.316 C 
HETATM    6  O7  UNL     1     -34.228   4.167   4.309  1.00 20.00    -0.259 OA
HETATM    7  F8  UNL     1     -33.282   5.435   2.795  1.00 20.00    -0.163 F 
ENDBRANCH   4   5
BRANCH   4   8
HETATM    8  C6  UNL     1     -34.317   6.148   6.350  1.00 20.00     0.404 C 
HETATM    9  F9  UNL     1     -33.364   5.393   6.915  1.00 20.00    -0.170 F 
HETATM   10  F10 UNL     1     -34.495   7.252   7.088  1.00 20.00    -0.170 F 
HETATM   11  F11 UNL     1     -35.463   5.454   6.316  1.00 20.00    -0.170 F 
ENDBRANCH   4   8
TORSDOF 2
ENDMDL
MODEL 6
REMARK VINA RESULT:      -4.9      1.786      2.831
REMARK  2 active torsions:
REMARK  status: ('A' for Active; 'I' for Inactive)
REMARK    1  A    between atoms: C1_1  and  C5_5 
REMARK    2  A    between atoms: C5_5  and  C6_6 
ROOT
HETATM    1  C2  UNL     1     -33.995   8.340   5.950  1.00 20.00     0.003 C 
HETATM    2  C3  UNL     1     -33.008   7.167   5.820  1.00 20.00     0.029 C 
HETATM    3  C4  UNL     1     -34.350   8.141   4.466  1.00 20.00     0.029 C 
HETATM    4  C5  UNL     1     -33.805   6.681   4.569  1.00 20.00     0.149 C 
ENDROOT
BRANCH   4   5
HETATM    5  C1  UNL     1     -32.935   6.214   3.369  1.00 20.00     0.316 C 
HETATM    6  O7  UNL     1     -33.164   5.233   2.677  1.00 20.00    -0.259 OA
HETATM    7  F8  UNL     1     -31.872   6.962   3.043  1.00 20.00    -0.163 F 
ENDBRANCH   4   5
BRANCH   4   8
HETATM    8  C6  UNL     1     -34.885   5.649   4.898  1.00 20.00     0.404 C 
HETATM    9  F9  UNL     1     -35.168   5.687   6.207  1.00 20.00    -0.170 F 
HETATM   10  F10 UNL     1     -35.998   5.916   4.202  1.00 20.00    -0.170 F 
HETATM   11  F11 UNL     1     -34.452   4.420   4.579  1.00 20.00    -0.170 F 
ENDBRANCH   4   8
TORSDOF 2
ENDMDL
MODEL 7
REMARK VINA RESULT:      -4.9      1.792      2.626
REMARK  2 active torsions:
REMARK  status: ('A' for Active; 'I' for Inactive)
REMARK    1  A    between atoms: C1_1  and  C5_5 
REMARK    2  A    between atoms: C5_5  and  C6_6 
ROOT
HETATM    1  C2  UNL     1     -34.740   4.822   4.010  1.00 20.00     0.003 C 
HETATM    2  C3  UNL     1     -35.388   6.165   4.390  1.00 20.00     0.029 C 
HETATM    3  C4  UNL     1     -33.368   5.511   4.110  1.00 20.00     0.029 C 
HETATM    4  C5  UNL     1     -34.024   6.606   5.010  1.00 20.00     0.149 C 
ENDROOT
BRANCH   4   5
HETATM    5  C1  UNL     1     -33.595   8.067   4.694  1.00 20.00     0.316 C 
HETATM    6  O7  UNL     1     -32.946   8.411   3.718  1.00 20.00    -0.259 OA
HETATM    7  F8  UNL     1     -33.998   9.028   5.535  1.00 20.00    -0.163 F 
ENDBRANCH   4   5
BRANCH   4   8
HETATM    8  C6  UNL     1     -33.912   6.313   6.507  1.00 20.00     0.404 C 
HETATM    9  F9  UNL     1     -34.960   6.842   7.154  1.00 20.00    -0.170 F 
HETATM   10  F10 UNL     1     -33.893   4.989   6.712  1.00 20.00    -0.170 F 
HETATM   11  F11 UNL     1     -32.782   6.848   6.992  1.00 20.00    -0.170 F 
ENDBRANCH   4   8
TORSDOF 2
ENDMDL
MODEL 8
REMARK VINA RESULT:      -4.4      1.043      2.967
REMARK  2 active torsions:
REMARK  status: ('A' for Active; 'I' for Inactive)
REMARK    1  A    between atoms: C1_1  and  C5_5 
REMARK    2  A    between atoms: C5_5  and  C6_6 
ROOT
HETATM    1  C2  UNL     1     -35.089   5.317   5.839  1.00 20.00     0.003 C 
HETATM    2  C3  UNL     1     -33.646   5.842   5.933  1.00 20.00     0.029 C 
HETATM    3  C4  UNL     1     -35.342   6.355   4.731  1.00 20.00     0.029 C 
HETATM    4  C5  UNL     1     -33.800   6.422   4.491  1.00 20.00     0.149 C 
ENDROOT
BRANCH   4   5
HETATM    5  C1  UNL     1     -33.223   7.850   4.286  1.00 20.00     0.316 C 
HETATM    6  O7  UNL     1     -32.655   8.239   3.277  1.00 20.00    -0.259 OA
HETATM    7  F8  UNL     1     -33.394   8.737   5.276  1.00 20.00    -0.163 F 
ENDBRANCH   4   5
BRANCH   4   8
HETATM    8  C6  UNL     1     -33.312   5.471   3.397  1.00 20.00     0.404 C 
HETATM    9  F9  UNL     1     -33.982   5.702   2.260  1.00 20.00    -0.170 F 
HETATM   10  F10 UNL     1     -32.004   5.659   3.180  1.00 20.00    -0.170 F 
HETATM   11  F11 UNL     1     -33.515   4.200   3.775  1.00 20.00    -0.170 F 
ENDBRANCH   4   8
TORSDOF 2
ENDMDL
MODEL 9
REMARK VINA RESULT:      -4.3      2.011      2.902
REMARK  2 active torsions:
REMARK  status: ('A' for Active; 'I' for Inactive)
REMARK    1  A    between atoms: C1_1  and  C5_5 
REMARK    2  A    between atoms: C5_5  and  C6_6 
ROOT
HETATM    1  C2  UNL     1     -33.340   8.657   5.563  1.00 20.00     0.003 C 
HETATM    2  C3  UNL     1     -34.389   8.253   4.513  1.00 20.00     0.029 C 
HETATM    3  C4  UNL     1     -33.118   7.161   5.845  1.00 20.00     0.029 C 
HETATM    4  C5  UNL     1     -33.722   6.843   4.440  1.00 20.00     0.149 C 
ENDROOT
BRANCH   4   5
HETATM    5  C1  UNL     1     -34.709   5.644   4.400  1.00 20.00     0.316 C 
HETATM    6  O7  UNL     1     -34.410   4.481   4.626  1.00 20.00    -0.259 OA
HETATM    7  F8  UNL     1     -35.996   5.907   4.134  1.00 20.00    -0.163 F 
ENDBRANCH   4   5
BRANCH   4   8
HETATM    8  C6  UNL     1     -32.669   6.724   3.337  1.00 20.00     0.404 C 
HETATM    9  F9  UNL     1     -31.518   7.275   3.744  1.00 20.00    -0.170 F 
HETATM   10  F10 UNL     1     -32.457   5.434   3.046  1.00 20.00    -0.170 F 
HETATM   11  F11 UNL     1     -33.092   7.358   2.234  1.00 20.00    -0.170 F 
ENDBRANCH   4   8
TORSDOF 2
ENDMDL
