MODEL 1
REMARK VINA RESULT:      -6.2      0.000      0.000
REMARK  1 active torsions:
REMARK  status: ('A' for Active; 'I' for Inactive)
REMARK    1  A    between atoms: C8_8  and  C9_9 
ROOT
HETATM    1  C1  UNL     1     -34.197   4.951   4.556  1.00 20.00     0.008 A 
HETATM    2  C2  UNL     1     -33.014   6.205   2.709  1.00 20.00     0.026 A 
HETATM    3  C3  UNL     1     -32.664   8.248   3.720  1.00 20.00     0.026 A 
HETATM    4  C4  UNL     1     -34.637   5.101   5.818  1.00 20.00    -0.022 A 
HETATM    5  C5  UNL     1     -33.776   7.511   5.869  1.00 20.00    -0.011 A 
HETATM    6  C6  UNL     1     -33.546   6.069   3.936  1.00 20.00    -0.026 A 
HETATM    7  C7  UNL     1     -33.345   7.343   4.613  1.00 20.00    -0.029 A 
HETATM    8  C8  UNL     1     -32.474   7.551   2.586  1.00 20.00     0.003 A 
HETATM    9  C10 UNL     1     -34.478   6.389   6.612  1.00 20.00     0.055 A 
ENDROOT
BRANCH   8  10
HETATM   10  C9  UNL     1     -31.817   8.081   1.404  1.00 20.00     0.269 C 
HETATM   11  O11 UNL     1     -32.401   8.757   0.557  1.00 20.00    -0.301 OA
ENDBRANCH   8  10
TORSDOF 1
ENDMDL
MODEL 2
REMARK VINA RESULT:      -6.2      0.097      1.818
REMARK  1 active torsions:
REMARK  status: ('A' for Active; 'I' for Inactive)
REMARK    1  A    between atoms: C8_8  and  C9_9 
ROOT
HETATM    1  C1  UNL     1     -33.830   7.460   6.000  1.00 20.00     0.008 A 
HETATM    2  C2  UNL     1     -32.732   8.154   3.833  1.00 20.00     0.026 A 
HETATM    3  C3  UNL     1     -32.961   6.227   2.587  1.00 20.00     0.026 A 
HETATM    4  C4  UNL     1     -34.443   6.414   6.583  1.00 20.00    -0.022 A 
HETATM    5  C5  UNL     1     -34.141   5.010   4.464  1.00 20.00    -0.011 A 
HETATM    6  C6  UNL     1     -33.366   7.297   4.652  1.00 20.00    -0.026 A 
HETATM    7  C7  UNL     1     -33.532   6.061   3.901  1.00 20.00    -0.029 A 
HETATM    8  C8  UNL     1     -32.486   7.485   2.564  1.00 20.00     0.003 A 
HETATM    9  C10 UNL     1     -34.667   5.080   5.887  1.00 20.00     0.055 A 
ENDROOT
BRANCH   8  10
HETATM   10  C9  UNL     1     -31.821   8.084   1.421  1.00 20.00     0.269 C 
HETATM   11  O11 UNL     1     -32.409   8.772   0.585  1.00 20.00    -0.301 OA
ENDBRANCH   8  10
TORSDOF 1
ENDMDL
MODEL 3
REMARK VINA RESULT:      -4.3     11.746     13.130
REMARK  1 active torsions:
REMARK  status: ('A' for Active; 'I' for Inactive)
REMARK    1  A    between atoms: C8_8  and  C9_9 
ROOT
HETATM    1  C1  UNL     1     -33.926  15.227  -3.860  1.00 20.00     0.008 A 
HETATM    2  C2  UNL     1     -32.930  16.836  -2.186  1.00 20.00     0.026 A 
HETATM    3  C3  UNL     1     -33.254  18.848  -3.263  1.00 20.00     0.026 A 
HETATM    4  C4  UNL     1     -34.525  15.197  -5.064  1.00 20.00    -0.022 A 
HETATM    5  C5  UNL     1     -34.356  17.744  -5.254  1.00 20.00    -0.011 A 
HETATM    6  C6  UNL     1     -33.535  16.506  -3.340  1.00 20.00    -0.026 A 
HETATM    7  C7  UNL     1     -33.760  17.754  -4.055  1.00 20.00    -0.029 A 
HETATM    8  C8  UNL     1     -32.761  18.281  -2.148  1.00 20.00     0.003 A 
HETATM    9  C10 UNL     1     -34.806  16.442  -5.892  1.00 20.00     0.055 A 
ENDROOT
BRANCH   8  10
HETATM   10  C9  UNL     1     -32.146  19.020  -1.061  1.00 20.00     0.269 C 
HETATM   11  O11 UNL     1     -30.973  18.860  -0.718  1.00 20.00    -0.301 OA
ENDBRANCH   8  10
TORSDOF 1
ENDMDL
MODEL 4
REMARK VINA RESULT:      -4.2     11.815     13.245
REMARK  1 active torsions:
REMARK  status: ('A' for Active; 'I' for Inactive)
REMARK    1  A    between atoms: C8_8  and  C9_9 
ROOT
HETATM    1  C1  UNL     1     -34.467  17.517  -5.645  1.00 20.00     0.008 A 
HETATM    2  C2  UNL     1     -33.546  18.618  -3.566  1.00 20.00     0.026 A 
HETATM    3  C3  UNL     1     -33.038  16.773  -2.280  1.00 20.00     0.026 A 
HETATM    4  C4  UNL     1     -34.723  16.306  -6.171  1.00 20.00    -0.022 A 
HETATM    5  C5  UNL     1     -33.840  15.162  -4.057  1.00 20.00    -0.011 A 
HETATM    6  C6  UNL     1     -33.900  17.569  -4.328  1.00 20.00    -0.026 A 
HETATM    7  C7  UNL     1     -33.594  16.377  -3.550  1.00 20.00    -0.029 A 
HETATM    8  C8  UNL     1     -33.017  18.117  -2.306  1.00 20.00     0.003 A 
HETATM    9  C10 UNL     1     -34.441  15.000  -5.443  1.00 20.00     0.055 A 
ENDROOT
BRANCH   8  10
HETATM   10  C9  UNL     1     -32.529  18.946  -1.218  1.00 20.00     0.269 C 
HETATM   11  O11 UNL     1     -31.335  19.041  -0.929  1.00 20.00    -0.301 OA
ENDBRANCH   8  10
TORSDOF 1
ENDMDL
MODEL 5
REMARK VINA RESULT:      -4.2     11.893     13.156
REMARK  1 active torsions:
REMARK  status: ('A' for Active; 'I' for Inactive)
REMARK    1  A    between atoms: C8_8  and  C9_9 
ROOT
HETATM    1  C1  UNL     1     -35.152  18.454  -3.313  1.00 20.00     0.008 A 
HETATM    2  C2  UNL     1     -35.509  17.139  -5.441  1.00 20.00     0.026 A 
HETATM    3  C3  UNL     1     -34.042  15.389  -5.127  1.00 20.00     0.026 A 
HETATM    4  C4  UNL     1     -34.438  18.440  -2.173  1.00 20.00    -0.022 A 
HETATM    5  C5  UNL     1     -33.290  16.263  -2.876  1.00 20.00    -0.011 A 
HETATM    6  C6  UNL     1     -34.946  17.382  -4.244  1.00 20.00    -0.026 A 
HETATM    7  C7  UNL     1     -34.009  16.294  -4.005  1.00 20.00    -0.029 A 
HETATM    8  C8  UNL     1     -34.945  15.909  -5.976  1.00 20.00     0.003 A 
HETATM    9  C10 UNL     1     -33.433  17.351  -1.827  1.00 20.00     0.055 A 
ENDROOT
BRANCH   8  10
HETATM   10  C9  UNL     1     -35.301  15.315  -7.253  1.00 20.00     0.269 C 
HETATM   11  O11 UNL     1     -36.062  14.352  -7.357  1.00 20.00    -0.301 OA
ENDBRANCH   8  10
TORSDOF 1
ENDMDL
MODEL 6
REMARK VINA RESULT:      -4.2     11.817     12.849
REMARK  1 active torsions:
REMARK  status: ('A' for Active; 'I' for Inactive)
REMARK    1  A    between atoms: C8_8  and  C9_9 
ROOT
HETATM    1  C1  UNL     1     -33.364  17.044  -1.635  1.00 20.00     0.008 A 
HETATM    2  C2  UNL     1     -33.464  15.779  -3.820  1.00 20.00     0.026 A 
HETATM    3  C3  UNL     1     -34.948  17.077  -5.013  1.00 20.00     0.026 A 
HETATM    4  C4  UNL     1     -33.865  18.133  -1.024  1.00 20.00    -0.022 A 
HETATM    5  C5  UNL     1     -35.240  18.712  -3.104  1.00 20.00    -0.011 A 
HETATM    6  C6  UNL     1     -33.791  16.775  -2.978  1.00 20.00    -0.026 A 
HETATM    7  C7  UNL     1     -34.732  17.623  -3.696  1.00 20.00    -0.029 A 
HETATM    8  C8  UNL     1     -34.182  15.975  -5.070  1.00 20.00     0.003 A 
HETATM    9  C10 UNL     1     -34.852  19.084  -1.684  1.00 20.00     0.055 A 
ENDROOT
BRANCH   8  10
HETATM   10  C9  UNL     1     -34.092  15.104  -6.229  1.00 20.00     0.269 C 
HETATM   11  O11 UNL     1     -35.080  14.690  -6.837  1.00 20.00    -0.301 OA
ENDBRANCH   8  10
TORSDOF 1
ENDMDL
MODEL 7
REMARK VINA RESULT:      -4.2     12.342     12.709
REMARK  1 active torsions:
REMARK  status: ('A' for Active; 'I' for Inactive)
REMARK    1  A    between atoms: C8_8  and  C9_9 
ROOT
HETATM    1  C1  UNL     1     -31.086  18.283  -0.450  1.00 20.00     0.008 A 
HETATM    2  C2  UNL     1     -30.112  18.739   1.836  1.00 20.00     0.026 A 
HETATM    3  C3  UNL     1     -32.030  19.044   3.078  1.00 20.00     0.026 A 
HETATM    4  C4  UNL     1     -32.264  18.176  -1.092  1.00 20.00    -0.022 A 
HETATM    5  C5  UNL     1     -33.532  18.660   1.079  1.00 20.00    -0.011 A 
HETATM    6  C6  UNL     1     -31.114  18.578   0.953  1.00 20.00    -0.026 A 
HETATM    7  C7  UNL     1     -32.350  18.763   1.700  1.00 20.00    -0.029 A 
HETATM    8  C8  UNL     1     -30.688  19.027   3.142  1.00 20.00     0.003 A 
HETATM    9  C10 UNL     1     -33.610  18.351  -0.406  1.00 20.00     0.055 A 
ENDROOT
BRANCH   8  10
HETATM   10  C9  UNL     1     -29.926  19.263   4.355  1.00 20.00     0.269 C 
HETATM   11  O11 UNL     1     -28.750  18.922   4.486  1.00 20.00    -0.301 OA
ENDBRANCH   8  10
TORSDOF 1
ENDMDL
MODEL 8
REMARK VINA RESULT:      -4.2     11.867     13.197
REMARK  1 active torsions:
REMARK  status: ('A' for Active; 'I' for Inactive)
REMARK    1  A    between atoms: C8_8  and  C9_9 
ROOT
HETATM    1  C1  UNL     1     -33.325  16.006  -3.133  1.00 20.00     0.008 A 
HETATM    2  C2  UNL     1     -34.326  15.384  -5.368  1.00 20.00     0.026 A 
HETATM    3  C3  UNL     1     -35.752  17.161  -5.720  1.00 20.00     0.026 A 
HETATM    4  C4  UNL     1     -33.370  16.962  -2.188  1.00 20.00    -0.022 A 
HETATM    5  C5  UNL     1     -35.109  18.266  -3.538  1.00 20.00    -0.011 A 
HETATM    6  C6  UNL     1     -34.165  16.164  -4.285  1.00 20.00    -0.026 A 
HETATM    7  C7  UNL     1     -35.052  17.305  -4.468  1.00 20.00    -0.029 A 
HETATM    8  C8  UNL     1     -35.306  16.006  -6.246  1.00 20.00     0.003 A 
HETATM    9  C10 UNL     1     -34.260  18.192  -2.282  1.00 20.00     0.055 A 
ENDROOT
BRANCH   8  10
HETATM   10  C9  UNL     1     -35.749  15.465  -7.518  1.00 20.00     0.269 C 
HETATM   11  O11 UNL     1     -36.102  14.293  -7.663  1.00 20.00    -0.301 OA
ENDBRANCH   8  10
TORSDOF 1
ENDMDL
MODEL 9
REMARK VINA RESULT:      -4.0     12.470     12.798
REMARK  1 active torsions:
REMARK  status: ('A' for Active; 'I' for Inactive)
REMARK    1  A    between atoms: C8_8  and  C9_9 
ROOT
HETATM    1  C1  UNL     1     -34.371  19.008   0.426  1.00 20.00     0.008 A 
HETATM    2  C2  UNL     1     -32.452  19.209   2.057  1.00 20.00     0.026 A 
HETATM    3  C3  UNL     1     -30.687  18.515   0.747  1.00 20.00     0.026 A 
HETATM    4  C4  UNL     1     -34.643  18.656  -0.844  1.00 20.00    -0.022 A 
HETATM    5  C5  UNL     1     -32.173  18.128  -1.263  1.00 20.00    -0.011 A 
HETATM    6  C6  UNL     1     -33.008  18.926   0.866  1.00 20.00    -0.026 A 
HETATM    7  C7  UNL     1     -31.923  18.482   0.003  1.00 20.00    -0.029 A 
HETATM    8  C8  UNL     1     -31.022  18.952   1.973  1.00 20.00     0.003 A 
HETATM    9  C10 UNL     1     -33.583  18.179  -1.826  1.00 20.00     0.055 A 
ENDROOT
BRANCH   8  10
HETATM   10  C9  UNL     1     -30.076  19.138   3.058  1.00 20.00     0.269 C 
HETATM   11  O11 UNL     1     -29.114  18.392   3.247  1.00 20.00    -0.301 OA
ENDBRANCH   8  10
TORSDOF 1
ENDMDL
