MODEL 1
REMARK VINA RESULT:      -3.4      0.000      0.000
REMARK  3 active torsions:
REMARK  status: ('A' for Active; 'I' for Inactive)
REMARK    1  A    between atoms: C2_2  and  N7_7 
REMARK    2  A    between atoms: C4_4  and  C5_5 
REMARK    3  A    between atoms: C5_5  and  N7_7 
ROOT
HETATM    1  C1  UNL     1     -31.795  18.447  -0.774  1.00 20.00     0.060 C 
HETATM    2  C4  UNL     1     -33.139  18.204  -1.319  1.00 20.00     0.143 C 
HETATM    3  N6  UNL     1     -30.735  18.640  -0.343  1.00 20.00    -0.197 NA
ENDROOT
BRANCH   2   4
HETATM    4  C5  UNL     1     -33.174  16.976  -2.222  1.00 20.00     0.138 C 
BRANCH   4   5
HETATM    5  N7  UNL     1     -33.639  17.330  -3.567  1.00 20.00    -0.366 N 
HETATM    6  C3  UNL     1     -33.275  18.672  -4.031  1.00 20.00     0.151 C 
BRANCH   5   7
HETATM    7  C2  UNL     1     -34.189  16.397  -4.410  1.00 20.00     0.167 C 
HETATM    8  S8  UNL     1     -33.681  14.745  -4.388  1.00 20.00    -0.048 SA
HETATM    9  S9  UNL     1     -35.429  16.817  -5.541  1.00 20.00    -0.048 SA
ENDBRANCH   5   7
ENDBRANCH   4   5
ENDBRANCH   2   4
TORSDOF 3
ENDMDL
MODEL 2
REMARK VINA RESULT:      -3.2      1.356      2.187
REMARK  3 active torsions:
REMARK  status: ('A' for Active; 'I' for Inactive)
REMARK    1  A    between atoms: C2_2  and  N7_7 
REMARK    2  A    between atoms: C4_4  and  C5_5 
REMARK    3  A    between atoms: C5_5  and  N7_7 
ROOT
HETATM    1  C1  UNL     1     -32.371  18.083  -1.581  1.00 20.00     0.060 C 
HETATM    2  C4  UNL     1     -33.254  17.077  -2.189  1.00 20.00     0.143 C 
HETATM    3  N6  UNL     1     -31.674  18.876  -1.100  1.00 20.00    -0.197 NA
ENDROOT
BRANCH   2   4
HETATM    4  C5  UNL     1     -33.698  17.479  -3.590  1.00 20.00     0.138 C 
BRANCH   4   5
HETATM    5  N7  UNL     1     -34.050  16.299  -4.386  1.00 20.00    -0.366 N 
HETATM    6  C3  UNL     1     -33.222  15.111  -4.160  1.00 20.00     0.151 C 
BRANCH   5   7
HETATM    7  C2  UNL     1     -35.202  16.247  -5.130  1.00 20.00     0.167 C 
HETATM    8  S8  UNL     1     -36.285  17.592  -5.219  1.00 20.00    -0.048 SA
HETATM    9  S9  UNL     1     -35.637  14.835  -6.031  1.00 20.00    -0.048 SA
ENDBRANCH   5   7
ENDBRANCH   4   5
ENDBRANCH   2   4
TORSDOF 3
ENDMDL
MODEL 3
REMARK VINA RESULT:      -3.1      2.046      2.725
REMARK  3 active torsions:
REMARK  status: ('A' for Active; 'I' for Inactive)
REMARK    1  A    between atoms: C2_2  and  N7_7 
REMARK    2  A    between atoms: C4_4  and  C5_5 
REMARK    3  A    between atoms: C5_5  and  N7_7 
ROOT
HETATM    1  C1  UNL     1     -33.618  17.339  -1.426  1.00 20.00     0.060 C 
HETATM    2  C4  UNL     1     -33.289  16.518  -2.600  1.00 20.00     0.143 C 
HETATM    3  N6  UNL     1     -33.876  17.986  -0.498  1.00 20.00    -0.197 NA
ENDROOT
BRANCH   2   4
HETATM    4  C5  UNL     1     -34.019  16.995  -3.851  1.00 20.00     0.138 C 
BRANCH   4   5
HETATM    5  N7  UNL     1     -34.195  15.895  -4.804  1.00 20.00    -0.366 N 
HETATM    6  C3  UNL     1     -33.669  14.595  -4.378  1.00 20.00     0.151 C 
BRANCH   5   7
HETATM    7  C2  UNL     1     -34.983  16.025  -5.920  1.00 20.00     0.167 C 
HETATM    8  S8  UNL     1     -36.659  16.437  -5.803  1.00 20.00    -0.048 SA
HETATM    9  S9  UNL     1     -34.347  15.792  -7.512  1.00 20.00    -0.048 SA
ENDBRANCH   5   7
ENDBRANCH   4   5
ENDBRANCH   2   4
TORSDOF 3
ENDMDL
MODEL 4
REMARK VINA RESULT:      -3.1     13.092     13.727
REMARK  3 active torsions:
REMARK  status: ('A' for Active; 'I' for Inactive)
REMARK    1  A    between atoms: C2_2  and  N7_7 
REMARK    2  A    between atoms: C4_4  and  C5_5 
REMARK    3  A    between atoms: C5_5  and  N7_7 
ROOT
HETATM    1  C1  UNL     1     -39.488  11.827   4.529  1.00 20.00     0.060 C 
HETATM    2  C4  UNL     1     -39.917  11.852   5.935  1.00 20.00     0.143 C 
HETATM    3  N6  UNL     1     -39.149  11.806   3.420  1.00 20.00    -0.197 NA
ENDROOT
BRANCH   2   4
HETATM    4  C5  UNL     1     -40.155  13.273   6.434  1.00 20.00     0.138 C 
BRANCH   4   5
HETATM    5  N7  UNL     1     -41.405  13.358   7.195  1.00 20.00    -0.366 N 
HETATM    6  C3  UNL     1     -42.442  12.393   6.821  1.00 20.00     0.151 C 
BRANCH   5   7
HETATM    7  C2  UNL     1     -41.516  14.141   8.317  1.00 20.00     0.167 C 
HETATM    8  S8  UNL     1     -40.368  15.385   8.670  1.00 20.00    -0.048 SA
HETATM    9  S9  UNL     1     -42.816  13.936   9.440  1.00 20.00    -0.048 SA
ENDBRANCH   5   7
ENDBRANCH   4   5
ENDBRANCH   2   4
TORSDOF 3
ENDMDL
MODEL 5
REMARK VINA RESULT:      -3.1     13.087     13.720
REMARK  3 active torsions:
REMARK  status: ('A' for Active; 'I' for Inactive)
REMARK    1  A    between atoms: C2_2  and  N7_7 
REMARK    2  A    between atoms: C4_4  and  C5_5 
REMARK    3  A    between atoms: C5_5  and  N7_7 
ROOT
HETATM    1  C1  UNL     1     -39.489  11.828   4.532  1.00 20.00     0.060 C 
HETATM    2  C4  UNL     1     -39.954  11.870   5.926  1.00 20.00     0.143 C 
HETATM    3  N6  UNL     1     -39.122  11.794   3.432  1.00 20.00    -0.197 NA
ENDROOT
BRANCH   2   4
HETATM    4  C5  UNL     1     -40.186  13.298   6.407  1.00 20.00     0.138 C 
BRANCH   4   5
HETATM    5  N7  UNL     1     -41.421  13.390   7.194  1.00 20.00    -0.366 N 
HETATM    6  C3  UNL     1     -42.467  12.424   6.848  1.00 20.00     0.151 C 
BRANCH   5   7
HETATM    7  C2  UNL     1     -41.508  14.182   8.311  1.00 20.00     0.167 C 
HETATM    8  S8  UNL     1     -42.640  13.844   9.575  1.00 20.00    -0.048 SA
HETATM    9  S9  UNL     1     -40.486  15.561   8.527  1.00 20.00    -0.048 SA
ENDBRANCH   5   7
ENDBRANCH   4   5
ENDBRANCH   2   4
TORSDOF 3
ENDMDL
MODEL 6
REMARK VINA RESULT:      -3.1     12.206     12.777
REMARK  3 active torsions:
REMARK  status: ('A' for Active; 'I' for Inactive)
REMARK    1  A    between atoms: C2_2  and  N7_7 
REMARK    2  A    between atoms: C4_4  and  C5_5 
REMARK    3  A    between atoms: C5_5  and  N7_7 
ROOT
HETATM    1  C1  UNL     1     -39.419  11.805   4.502  1.00 20.00     0.060 C 
HETATM    2  C4  UNL     1     -39.769  11.737   5.928  1.00 20.00     0.143 C 
HETATM    3  N6  UNL     1     -39.142  11.857   3.376  1.00 20.00    -0.197 NA
ENDROOT
BRANCH   2   4
HETATM    4  C5  UNL     1     -40.154  13.103   6.486  1.00 20.00     0.138 C 
BRANCH   4   5
HETATM    5  N7  UNL     1     -41.580  13.370   6.276  1.00 20.00    -0.366 N 
HETATM    6  C3  UNL     1     -42.503  12.408   6.883  1.00 20.00     0.151 C 
BRANCH   5   7
HETATM    7  C2  UNL     1     -42.021  14.551   5.732  1.00 20.00     0.167 C 
HETATM    8  S8  UNL     1     -42.476  14.667   4.068  1.00 20.00    -0.048 SA
HETATM    9  S9  UNL     1     -42.155  15.992   6.680  1.00 20.00    -0.048 SA
ENDBRANCH   5   7
ENDBRANCH   4   5
ENDBRANCH   2   4
TORSDOF 3
ENDMDL
MODEL 7
REMARK VINA RESULT:      -3.0      2.475      4.625
REMARK  3 active torsions:
REMARK  status: ('A' for Active; 'I' for Inactive)
REMARK    1  A    between atoms: C2_2  and  N7_7 
REMARK    2  A    between atoms: C4_4  and  C5_5 
REMARK    3  A    between atoms: C5_5  and  N7_7 
ROOT
HETATM    1  C1  UNL     1     -35.243  14.406  -5.368  1.00 20.00     0.060 C 
HETATM    2  C4  UNL     1     -34.391  14.427  -4.170  1.00 20.00     0.143 C 
HETATM    3  N6  UNL     1     -35.918  14.388  -6.312  1.00 20.00    -0.197 NA
ENDROOT
BRANCH   2   4
HETATM    4  C5  UNL     1     -33.349  15.539  -4.232  1.00 20.00     0.138 C 
BRANCH   4   5
HETATM    5  N7  UNL     1     -33.799  16.718  -3.486  1.00 20.00    -0.366 N 
HETATM    6  C3  UNL     1     -33.471  16.729  -2.057  1.00 20.00     0.151 C 
BRANCH   5   7
HETATM    7  C2  UNL     1     -34.302  17.826  -4.121  1.00 20.00     0.167 C 
HETATM    8  S8  UNL     1     -33.292  19.165  -4.543  1.00 20.00    -0.048 SA
HETATM    9  S9  UNL     1     -35.975  17.947  -4.544  1.00 20.00    -0.048 SA
ENDBRANCH   5   7
ENDBRANCH   4   5
ENDBRANCH   2   4
TORSDOF 3
ENDMDL
MODEL 8
REMARK VINA RESULT:      -3.0      2.025      2.471
REMARK  3 active torsions:
REMARK  status: ('A' for Active; 'I' for Inactive)
REMARK    1  A    between atoms: C2_2  and  N7_7 
REMARK    2  A    between atoms: C4_4  and  C5_5 
REMARK    3  A    between atoms: C5_5  and  N7_7 
ROOT
HETATM    1  C1  UNL     1     -33.573  17.045  -1.777  1.00 20.00     0.060 C 
HETATM    2  C4  UNL     1     -33.363  16.376  -3.069  1.00 20.00     0.143 C 
HETATM    3  N6  UNL     1     -33.737  17.571  -0.756  1.00 20.00    -0.197 NA
ENDROOT
BRANCH   2   4
HETATM    4  C5  UNL     1     -33.755  17.267  -4.243  1.00 20.00     0.138 C 
BRANCH   4   5
HETATM    5  N7  UNL     1     -35.014  16.815  -4.845  1.00 20.00    -0.366 N 
HETATM    6  C3  UNL     1     -36.148  17.733  -4.708  1.00 20.00     0.151 C 
BRANCH   5   7
HETATM    7  C2  UNL     1     -35.070  15.712  -5.659  1.00 20.00     0.167 C 
HETATM    8  S8  UNL     1     -35.940  14.290  -5.200  1.00 20.00    -0.048 SA
HETATM    9  S9  UNL     1     -34.280  15.681  -7.198  1.00 20.00    -0.048 SA
ENDBRANCH   5   7
ENDBRANCH   4   5
ENDBRANCH   2   4
TORSDOF 3
ENDMDL
MODEL 9
REMARK VINA RESULT:      -3.0     12.143     12.736
REMARK  3 active torsions:
REMARK  status: ('A' for Active; 'I' for Inactive)
REMARK    1  A    between atoms: C2_2  and  N7_7 
REMARK    2  A    between atoms: C4_4  and  C5_5 
REMARK    3  A    between atoms: C5_5  and  N7_7 
ROOT
HETATM    1  C1  UNL     1     -39.349  11.965   4.532  1.00 20.00     0.060 C 
HETATM    2  C4  UNL     1     -39.597  12.179   5.965  1.00 20.00     0.143 C 
HETATM    3  N6  UNL     1     -39.151  11.797   3.401  1.00 20.00    -0.197 NA
ENDROOT
BRANCH   2   4
HETATM    4  C5  UNL     1     -41.065  12.475   6.251  1.00 20.00     0.138 C 
BRANCH   4   5
HETATM    5  N7  UNL     1     -41.231  13.836   6.771  1.00 20.00    -0.366 N 
HETATM    6  C3  UNL     1     -40.488  14.143   7.997  1.00 20.00     0.151 C 
BRANCH   5   7
HETATM    7  C2  UNL     1     -41.866  14.814   6.046  1.00 20.00     0.167 C 
HETATM    8  S8  UNL     1     -42.132  16.394   6.696  1.00 20.00    -0.048 SA
HETATM    9  S9  UNL     1     -42.431  14.527   4.437  1.00 20.00    -0.048 SA
ENDBRANCH   5   7
ENDBRANCH   4   5
ENDBRANCH   2   4
TORSDOF 3
ENDMDL
