MODEL 1
REMARK VINA RESULT:      -3.5      0.000      0.000
REMARK  3 active torsions:
REMARK  status: ('A' for Active; 'I' for Inactive)
REMARK    1  A    between atoms: C2_2  and  N9_9 
REMARK    2  A    between atoms: C6_6  and  N9_9 
REMARK    3  A    between atoms: C7_7  and  N9_9 
ROOT
HETATM    1  C1  UNL     1     -33.342  16.438  -2.793  1.00 20.00     0.036 C 
HETATM    2  C2  UNL     1     -33.157  17.235  -1.914  1.00 20.00     0.024 C 
HETATM    3  C3  UNL     1     -33.552  15.527  -3.797  1.00 20.00     0.154 C 
HETATM    4  N8  UNL     1     -33.729  14.757  -4.646  1.00 20.00    -0.182 NA
ENDROOT
BRANCH   2   5
HETATM    5  N9  UNL     1     -32.934  18.201  -0.850  1.00 20.00    -0.342 N 
BRANCH   5   6
HETATM    6  C6  UNL     1     -31.593  18.727  -0.698  1.00 20.00     0.128 C 
HETATM    7  C4  UNL     1     -31.071  18.481   0.677  1.00 20.00     0.027 C 
ENDBRANCH   5   6
BRANCH   5   8
HETATM    8  C7  UNL     1     -33.780  18.110   0.321  1.00 20.00     0.128 C 
HETATM    9  C5  UNL     1     -34.723  19.262   0.393  1.00 20.00     0.027 C 
ENDBRANCH   5   8
ENDBRANCH   2   5
TORSDOF 3
ENDMDL
MODEL 2
REMARK VINA RESULT:      -3.4      0.572      2.128
REMARK  3 active torsions:
REMARK  status: ('A' for Active; 'I' for Inactive)
REMARK    1  A    between atoms: C2_2  and  N9_9 
REMARK    2  A    between atoms: C6_6  and  N9_9 
REMARK    3  A    between atoms: C7_7  and  N9_9 
ROOT
HETATM    1  C1  UNL     1     -33.360  16.471  -2.730  1.00 20.00     0.036 C 
HETATM    2  C2  UNL     1     -33.276  17.317  -1.882  1.00 20.00     0.024 C 
HETATM    3  C3  UNL     1     -33.454  15.505  -3.701  1.00 20.00     0.154 C 
HETATM    4  N8  UNL     1     -33.534  14.689  -4.520  1.00 20.00    -0.182 NA
ENDROOT
BRANCH   2   5
HETATM    5  N9  UNL     1     -33.176  18.341  -0.855  1.00 20.00    -0.342 N 
BRANCH   5   6
HETATM    6  C6  UNL     1     -34.403  18.985  -0.433  1.00 20.00     0.128 C 
HETATM    7  C4  UNL     1     -34.564  18.918   1.047  1.00 20.00     0.027 C 
ENDBRANCH   5   6
BRANCH   5   8
HETATM    8  C7  UNL     1     -31.939  19.088  -0.776  1.00 20.00     0.128 C 
HETATM    9  C5  UNL     1     -31.007  18.484   0.218  1.00 20.00     0.027 C 
ENDBRANCH   5   8
ENDBRANCH   2   5
TORSDOF 3
ENDMDL
MODEL 3
REMARK VINA RESULT:      -3.3      2.307      5.305
REMARK  3 active torsions:
REMARK  status: ('A' for Active; 'I' for Inactive)
REMARK    1  A    between atoms: C2_2  and  N9_9 
REMARK    2  A    between atoms: C6_6  and  N9_9 
REMARK    3  A    between atoms: C7_7  and  N9_9 
ROOT
HETATM    1  C1  UNL     1     -30.765  18.575   1.774  1.00 20.00     0.036 C 
HETATM    2  C2  UNL     1     -31.655  18.541   0.969  1.00 20.00     0.024 C 
HETATM    3  C3  UNL     1     -29.749  18.614   2.695  1.00 20.00     0.154 C 
HETATM    4  N8  UNL     1     -28.891  18.647   3.473  1.00 20.00    -0.182 NA
ENDROOT
BRANCH   2   5
HETATM    5  N9  UNL     1     -32.733  18.499  -0.007  1.00 20.00    -0.342 N 
BRANCH   5   6
HETATM    6  C6  UNL     1     -34.062  18.192   0.480  1.00 20.00     0.128 C 
HETATM    7  C4  UNL     1     -34.538  19.232   1.436  1.00 20.00     0.027 C 
ENDBRANCH   5   6
BRANCH   5   8
HETATM    8  C7  UNL     1     -32.390  18.132  -1.364  1.00 20.00     0.128 C 
HETATM    9  C5  UNL     1     -33.338  17.117  -1.904  1.00 20.00     0.027 C 
ENDBRANCH   5   8
ENDBRANCH   2   5
TORSDOF 3
ENDMDL
MODEL 4
REMARK VINA RESULT:      -3.2      2.228      4.943
REMARK  3 active torsions:
REMARK  status: ('A' for Active; 'I' for Inactive)
REMARK    1  A    between atoms: C2_2  and  N9_9 
REMARK    2  A    between atoms: C6_6  and  N9_9 
REMARK    3  A    between atoms: C7_7  and  N9_9 
ROOT
HETATM    1  C1  UNL     1     -31.050  18.537   1.563  1.00 20.00     0.036 C 
HETATM    2  C2  UNL     1     -31.933  18.474   0.752  1.00 20.00     0.024 C 
HETATM    3  C3  UNL     1     -30.042  18.611   2.491  1.00 20.00     0.154 C 
HETATM    4  N8  UNL     1     -29.190  18.673   3.274  1.00 20.00    -0.182 NA
ENDROOT
BRANCH   2   5
HETATM    5  N9  UNL     1     -33.002  18.397  -0.231  1.00 20.00    -0.342 N 
BRANCH   5   6
HETATM    6  C6  UNL     1     -32.641  18.008  -1.579  1.00 20.00     0.128 C 
HETATM    7  C4  UNL     1     -33.471  16.862  -2.048  1.00 20.00     0.027 C 
ENDBRANCH   5   6
BRANCH   5   8
HETATM    8  C7  UNL     1     -34.146  19.263  -0.041  1.00 20.00     0.128 C 
HETATM    9  C5  UNL     1     -34.755  19.064   1.304  1.00 20.00     0.027 C 
ENDBRANCH   5   8
ENDBRANCH   2   5
TORSDOF 3
ENDMDL
MODEL 5
REMARK VINA RESULT:      -3.1      1.927      4.843
REMARK  3 active torsions:
REMARK  status: ('A' for Active; 'I' for Inactive)
REMARK    1  A    between atoms: C2_2  and  N9_9 
REMARK    2  A    between atoms: C6_6  and  N9_9 
REMARK    3  A    between atoms: C7_7  and  N9_9 
ROOT
HETATM    1  C1  UNL     1     -31.510  18.646  -0.142  1.00 20.00     0.036 C 
HETATM    2  C2  UNL     1     -32.246  18.354  -1.044  1.00 20.00     0.024 C 
HETATM    3  C3  UNL     1     -30.669  18.980   0.890  1.00 20.00     0.154 C 
HETATM    4  N8  UNL     1     -29.959  19.262   1.762  1.00 20.00    -0.182 NA
ENDROOT
BRANCH   2   5
HETATM    5  N9  UNL     1     -33.137  17.999  -2.137  1.00 20.00    -0.342 N 
BRANCH   5   6
HETATM    6  C6  UNL     1     -33.948  19.057  -2.705  1.00 20.00     0.128 C 
HETATM    7  C4  UNL     1     -35.380  18.901  -2.320  1.00 20.00     0.027 C 
ENDBRANCH   5   6
BRANCH   5   8
HETATM    8  C7  UNL     1     -33.641  16.643  -2.174  1.00 20.00     0.128 C 
HETATM    9  C5  UNL     1     -33.292  15.974  -3.460  1.00 20.00     0.027 C 
ENDBRANCH   5   8
ENDBRANCH   2   5
TORSDOF 3
ENDMDL
MODEL 6
REMARK VINA RESULT:      -3.1      2.118      4.534
REMARK  3 active torsions:
REMARK  status: ('A' for Active; 'I' for Inactive)
REMARK    1  A    between atoms: C2_2  and  N9_9 
REMARK    2  A    between atoms: C6_6  and  N9_9 
REMARK    3  A    between atoms: C7_7  and  N9_9 
ROOT
HETATM    1  C1  UNL     1     -32.351  18.297  -1.211  1.00 20.00     0.036 C 
HETATM    2  C2  UNL     1     -33.217  18.022  -1.996  1.00 20.00     0.024 C 
HETATM    3  C3  UNL     1     -31.361  18.613  -0.315  1.00 20.00     0.154 C 
HETATM    4  N8  UNL     1     -30.524  18.880   0.442  1.00 20.00    -0.182 NA
ENDROOT
BRANCH   2   5
HETATM    5  N9  UNL     1     -34.267  17.687  -2.945  1.00 20.00    -0.342 N 
BRANCH   5   6
HETATM    6  C6  UNL     1     -33.883  16.945  -4.129  1.00 20.00     0.128 C 
HETATM    7  C4  UNL     1     -33.300  15.622  -3.767  1.00 20.00     0.027 C 
ENDBRANCH   5   6
BRANCH   5   8
HETATM    8  C7  UNL     1     -35.403  18.580  -3.025  1.00 20.00     0.128 C 
HETATM    9  C5  UNL     1     -36.294  18.217  -4.164  1.00 20.00     0.027 C 
ENDBRANCH   5   8
ENDBRANCH   2   5
TORSDOF 3
ENDMDL
MODEL 7
REMARK VINA RESULT:      -3.1     11.451     13.941
REMARK  3 active torsions:
REMARK  status: ('A' for Active; 'I' for Inactive)
REMARK    1  A    between atoms: C2_2  and  N9_9 
REMARK    2  A    between atoms: C6_6  and  N9_9 
REMARK    3  A    between atoms: C7_7  and  N9_9 
ROOT
HETATM    1  C1  UNL     1     -25.400  19.242   7.823  1.00 20.00     0.036 C 
HETATM    2  C2  UNL     1     -24.524  19.231   8.644  1.00 20.00     0.024 C 
HETATM    3  C3  UNL     1     -26.400  19.253   6.884  1.00 20.00     0.154 C 
HETATM    4  N8  UNL     1     -27.246  19.263   6.091  1.00 20.00    -0.182 NA
ENDROOT
BRANCH   2   5
HETATM    5  N9  UNL     1     -23.463  19.218   9.639  1.00 20.00    -0.342 N 
BRANCH   5   6
HETATM    6  C6  UNL     1     -22.097  19.224   9.157  1.00 20.00     0.128 C 
HETATM    7  C4  UNL     1     -21.899  18.199   8.093  1.00 20.00     0.027 C 
ENDBRANCH   5   6
BRANCH   5   8
HETATM    8  C7  UNL     1     -23.748  18.586  10.909  1.00 20.00     0.128 C 
HETATM    9  C5  UNL     1     -22.512  18.451  11.732  1.00 20.00     0.027 C 
ENDBRANCH   5   8
ENDBRANCH   2   5
TORSDOF 3
ENDMDL
MODEL 8
REMARK VINA RESULT:      -3.1      2.430      3.479
REMARK  3 active torsions:
REMARK  status: ('A' for Active; 'I' for Inactive)
REMARK    1  A    between atoms: C2_2  and  N9_9 
REMARK    2  A    between atoms: C6_6  and  N9_9 
REMARK    3  A    between atoms: C7_7  and  N9_9 
ROOT
HETATM    1  C1  UNL     1     -34.746  15.738  -5.440  1.00 20.00     0.036 C 
HETATM    2  C2  UNL     1     -34.146  16.381  -4.623  1.00 20.00     0.024 C 
HETATM    3  C3  UNL     1     -35.433  15.003  -6.373  1.00 20.00     0.154 C 
HETATM    4  N8  UNL     1     -36.013  14.383  -7.162  1.00 20.00    -0.182 NA
ENDROOT
BRANCH   2   5
HETATM    5  N9  UNL     1     -33.419  17.160  -3.633  1.00 20.00    -0.342 N 
BRANCH   5   6
HETATM    6  C6  UNL     1     -33.478  16.711  -2.257  1.00 20.00     0.128 C 
HETATM    7  C4  UNL     1     -32.996  17.770  -1.325  1.00 20.00     0.027 C 
ENDBRANCH   5   6
BRANCH   5   8
HETATM    8  C7  UNL     1     -33.241  18.572  -3.895  1.00 20.00     0.128 C 
HETATM    9  C5  UNL     1     -34.510  19.197  -4.363  1.00 20.00     0.027 C 
ENDBRANCH   5   8
ENDBRANCH   2   5
TORSDOF 3
ENDMDL
MODEL 9
REMARK VINA RESULT:      -3.1      1.706      5.019
REMARK  3 active torsions:
REMARK  status: ('A' for Active; 'I' for Inactive)
REMARK    1  A    between atoms: C2_2  and  N9_9 
REMARK    2  A    between atoms: C6_6  and  N9_9 
REMARK    3  A    between atoms: C7_7  and  N9_9 
ROOT
HETATM    1  C1  UNL     1     -33.365  17.561  -1.417  1.00 20.00     0.036 C 
HETATM    2  C2  UNL     1     -33.444  17.111  -2.527  1.00 20.00     0.024 C 
HETATM    3  C3  UNL     1     -33.277  18.076  -0.148  1.00 20.00     0.154 C 
HETATM    4  N8  UNL     1     -33.203  18.511   0.924  1.00 20.00    -0.182 NA
ENDROOT
BRANCH   2   5
HETATM    5  N9  UNL     1     -33.538  16.565  -3.872  1.00 20.00    -0.342 N 
BRANCH   5   6
HETATM    6  C6  UNL     1     -34.538  17.133  -4.753  1.00 20.00     0.128 C 
HETATM    7  C4  UNL     1     -34.217  18.550  -5.087  1.00 20.00     0.027 C 
ENDBRANCH   5   6
BRANCH   5   8
HETATM    8  C7  UNL     1     -33.153  15.183  -4.059  1.00 20.00     0.128 C 
HETATM    9  C5  UNL     1     -34.344  14.322  -4.310  1.00 20.00     0.027 C 
ENDBRANCH   5   8
ENDBRANCH   2   5
TORSDOF 3
ENDMDL
