MODEL 1
REMARK VINA RESULT:      -4.7      0.000      0.000
REMARK  5 active torsions:
REMARK  status: ('A' for Active; 'I' for Inactive)
REMARK    1  A    between atoms: C1_1  and  C5_5 
REMARK    2  A    between atoms: C2_2  and  C7_7 
REMARK    3  A    between atoms: C5_5  and  O10_10 
REMARK    4  A    between atoms: C7_7  and  C9_9 
REMARK    5  A    between atoms: C8_8  and  C9_9 
ROOT
HETATM    1  C1  UNL     1     -33.349  16.143  -3.083  1.00 20.00    -0.068 C 
HETATM    2  C2  UNL     1     -33.355  16.903  -2.153  1.00 20.00    -0.103 C 
ENDROOT
BRANCH   1   3
HETATM    3  C5  UNL     1     -33.342  15.218  -4.215  1.00 20.00     0.121 A 
HETATM    4  C3  UNL     1     -34.500  14.303  -4.396  1.00 20.00     0.055 A 
HETATM    5  C4  UNL     1     -34.290  15.456  -5.336  1.00 20.00     0.055 A 
BRANCH   3   6
HETATM    6  O10 UNL     1     -32.034  14.740  -4.510  1.00 20.00    -0.378 OA
HETATM    7  H24 UNL     1     -31.767  14.183  -3.761  1.00 20.00     0.211 HD
ENDBRANCH   3   6
ENDBRANCH   1   3
BRANCH   2   8
HETATM    8  C7  UNL     1     -33.363  17.831  -1.013  1.00 20.00     0.094 C 
BRANCH   8   9
HETATM    9  C9  UNL     1     -32.209  18.830  -1.110  1.00 20.00     0.012 C 
BRANCH   9  10
HETATM   10  C8  UNL     1     -31.113  18.513  -0.092  1.00 20.00    -0.004 C 
HETATM   11  C6  UNL     1     -31.653  18.518   1.329  1.00 20.00     0.005 C 
ENDBRANCH   9  10
ENDBRANCH   8   9
ENDBRANCH   2   8
TORSDOF 5
ENDMDL
MODEL 2
REMARK VINA RESULT:      -4.6      0.973      1.285
REMARK  5 active torsions:
REMARK  status: ('A' for Active; 'I' for Inactive)
REMARK    1  A    between atoms: C1_1  and  C5_5 
REMARK    2  A    between atoms: C2_2  and  C7_7 
REMARK    3  A    between atoms: C5_5  and  O10_10 
REMARK    4  A    between atoms: C7_7  and  C9_9 
REMARK    5  A    between atoms: C8_8  and  C9_9 
ROOT
HETATM    1  C1  UNL     1     -33.504  15.843  -3.784  1.00 20.00    -0.068 C 
HETATM    2  C2  UNL     1     -33.248  16.725  -3.011  1.00 20.00    -0.103 C 
ENDROOT
BRANCH   1   3
HETATM    3  C5  UNL     1     -33.816  14.767  -4.724  1.00 20.00     0.121 A 
HETATM    4  C3  UNL     1     -35.230  14.569  -5.135  1.00 20.00     0.055 A 
HETATM    5  C4  UNL     1     -34.229  15.127  -6.106  1.00 20.00     0.055 A 
BRANCH   3   6
HETATM    6  O10 UNL     1     -32.989  13.626  -4.528  1.00 20.00    -0.378 OA
HETATM    7  H24 UNL     1     -33.459  12.872  -4.920  1.00 20.00     0.211 HD
ENDBRANCH   3   6
ENDBRANCH   1   3
BRANCH   2   8
HETATM    8  C7  UNL     1     -32.935  17.808  -2.067  1.00 20.00     0.094 C 
BRANCH   8   9
HETATM    9  C9  UNL     1     -33.710  17.640  -0.760  1.00 20.00     0.012 C 
BRANCH   9  10
HETATM   10  C8  UNL     1     -32.999  18.336   0.401  1.00 20.00    -0.004 C 
HETATM   11  C6  UNL     1     -31.524  18.549   0.104  1.00 20.00     0.005 C 
ENDBRANCH   9  10
ENDBRANCH   8   9
ENDBRANCH   2   8
TORSDOF 5
ENDMDL
MODEL 3
REMARK VINA RESULT:      -4.1     11.261     12.035
REMARK  5 active torsions:
REMARK  status: ('A' for Active; 'I' for Inactive)
REMARK    1  A    between atoms: C1_1  and  C5_5 
REMARK    2  A    between atoms: C2_2  and  C7_7 
REMARK    3  A    between atoms: C5_5  and  O10_10 
REMARK    4  A    between atoms: C7_7  and  C9_9 
REMARK    5  A    between atoms: C8_8  and  C9_9 
ROOT
HETATM    1  C1  UNL     1     -33.877   6.946   4.609  1.00 20.00    -0.068 C 
HETATM    2  C2  UNL     1     -33.164   7.835   4.231  1.00 20.00    -0.103 C 
ENDROOT
BRANCH   1   3
HETATM    3  C5  UNL     1     -34.746   5.864   5.069  1.00 20.00     0.121 A 
HETATM    4  C3  UNL     1     -34.130   4.560   5.428  1.00 20.00     0.055 A 
HETATM    5  C4  UNL     1     -34.681   5.458   6.498  1.00 20.00     0.055 A 
BRANCH   3   6
HETATM    6  O10 UNL     1     -36.008   5.872   4.413  1.00 20.00    -0.378 OA
HETATM    7  H24 UNL     1     -35.845   5.603   3.495  1.00 20.00     0.211 HD
ENDBRANCH   3   6
ENDBRANCH   1   3
BRANCH   2   8
HETATM    8  C7  UNL     1     -32.291   8.923   3.766  1.00 20.00     0.094 C 
BRANCH   8   9
HETATM    9  C9  UNL     1     -32.748   9.452   2.407  1.00 20.00     0.012 C 
BRANCH   9  10
HETATM   10  C8  UNL     1     -32.292   8.536   1.271  1.00 20.00    -0.004 C 
HETATM   11  C6  UNL     1     -32.783   9.034  -0.078  1.00 20.00     0.005 C 
ENDBRANCH   9  10
ENDBRANCH   8   9
ENDBRANCH   2   8
TORSDOF 5
ENDMDL
MODEL 4
REMARK VINA RESULT:      -3.9      2.069      5.526
REMARK  5 active torsions:
REMARK  status: ('A' for Active; 'I' for Inactive)
REMARK    1  A    between atoms: C1_1  and  C5_5 
REMARK    2  A    between atoms: C2_2  and  C7_7 
REMARK    3  A    between atoms: C5_5  and  O10_10 
REMARK    4  A    between atoms: C7_7  and  C9_9 
REMARK    5  A    between atoms: C8_8  and  C9_9 
ROOT
HETATM    1  C1  UNL     1     -33.220  16.932  -2.616  1.00 20.00    -0.068 C 
HETATM    2  C2  UNL     1     -33.244  15.991  -3.361  1.00 20.00    -0.103 C 
ENDROOT
BRANCH   1   3
HETATM    3  C5  UNL     1     -33.193  18.078  -1.709  1.00 20.00     0.121 A 
HETATM    4  C3  UNL     1     -34.483  18.702  -1.311  1.00 20.00     0.055 A 
HETATM    5  C4  UNL     1     -33.691  17.898  -0.319  1.00 20.00     0.055 A 
BRANCH   3   6
HETATM    6  O10 UNL     1     -32.064  18.914  -1.932  1.00 20.00    -0.378 OA
HETATM    7  H24 UNL     1     -31.670  19.087  -1.062  1.00 20.00     0.211 HD
ENDBRANCH   3   6
ENDBRANCH   1   3
BRANCH   2   8
HETATM    8  C7  UNL     1     -33.269  14.838  -4.274  1.00 20.00     0.094 C 
BRANCH   8   9
HETATM    9  C9  UNL     1     -34.704  14.402  -4.569  1.00 20.00     0.012 C 
BRANCH   9  10
HETATM   10  C8  UNL     1     -35.206  14.997  -5.885  1.00 20.00    -0.004 C 
HETATM   11  C6  UNL     1     -34.060  15.267  -6.847  1.00 20.00     0.005 C 
ENDBRANCH   9  10
ENDBRANCH   8   9
ENDBRANCH   2   8
TORSDOF 5
ENDMDL
MODEL 5
REMARK VINA RESULT:      -3.8     11.871     12.691
REMARK  5 active torsions:
REMARK  status: ('A' for Active; 'I' for Inactive)
REMARK    1  A    between atoms: C1_1  and  C5_5 
REMARK    2  A    between atoms: C2_2  and  C7_7 
REMARK    3  A    between atoms: C5_5  and  O10_10 
REMARK    4  A    between atoms: C7_7  and  C9_9 
REMARK    5  A    between atoms: C8_8  and  C9_9 
ROOT
HETATM    1  C1  UNL     1     -33.148   7.930   5.143  1.00 20.00    -0.068 C 
HETATM    2  C2  UNL     1     -33.810   7.268   5.894  1.00 20.00    -0.103 C 
ENDROOT
BRANCH   1   3
HETATM    3  C5  UNL     1     -32.343   8.738   4.228  1.00 20.00     0.121 A 
HETATM    4  C3  UNL     1     -31.587   8.050   3.148  1.00 20.00     0.055 A 
HETATM    5  C4  UNL     1     -32.795   8.880   2.818  1.00 20.00     0.055 A 
BRANCH   3   6
HETATM    6  O10 UNL     1     -31.750   9.856   4.877  1.00 20.00    -0.378 OA
HETATM    7  H24 UNL     1     -30.962  10.091   4.362  1.00 20.00     0.211 HD
ENDBRANCH   3   6
ENDBRANCH   1   3
BRANCH   2   8
HETATM    8  C7  UNL     1     -34.619   6.456   6.816  1.00 20.00     0.094 C 
BRANCH   8   9
HETATM    9  C9  UNL     1     -34.855   5.055   6.251  1.00 20.00     0.012 C 
BRANCH   9  10
HETATM   10  C8  UNL     1     -34.998   5.087   4.729  1.00 20.00    -0.004 C 
HETATM   11  C6  UNL     1     -33.862   4.343   4.047  1.00 20.00     0.005 C 
ENDBRANCH   9  10
ENDBRANCH   8   9
ENDBRANCH   2   8
TORSDOF 5
ENDMDL
MODEL 6
REMARK VINA RESULT:      -3.5     12.252     13.131
REMARK  5 active torsions:
REMARK  status: ('A' for Active; 'I' for Inactive)
REMARK    1  A    between atoms: C1_1  and  C5_5 
REMARK    2  A    between atoms: C2_2  and  C7_7 
REMARK    3  A    between atoms: C5_5  and  O10_10 
REMARK    4  A    between atoms: C7_7  and  C9_9 
REMARK    5  A    between atoms: C8_8  and  C9_9 
ROOT
HETATM    1  C1  UNL     1     -40.548  13.901   6.930  1.00 20.00    -0.068 C 
HETATM    2  C2  UNL     1     -40.534  14.983   7.449  1.00 20.00    -0.103 C 
ENDROOT
BRANCH   1   3
HETATM    3  C5  UNL     1     -40.565  12.583   6.297  1.00 20.00     0.121 A 
HETATM    4  C3  UNL     1     -40.048  12.452   4.909  1.00 20.00     0.055 A 
HETATM    5  C4  UNL     1     -39.272  11.888   6.064  1.00 20.00     0.055 A 
BRANCH   3   6
HETATM    6  O10 UNL     1     -41.699  11.815   6.684  1.00 20.00    -0.378 OA
HETATM    7  H24 UNL     1     -41.892  11.214   5.946  1.00 20.00     0.211 HD
ENDBRANCH   3   6
ENDBRANCH   1   3
BRANCH   2   8
HETATM    8  C7  UNL     1     -40.517  16.307   8.087  1.00 20.00     0.094 C 
BRANCH   8   9
HETATM    9  C9  UNL     1     -40.993  16.225   9.538  1.00 20.00     0.012 C 
BRANCH   9  10
HETATM   10  C8  UNL     1     -40.122  15.270  10.355  1.00 20.00    -0.004 C 
HETATM   11  C6  UNL     1     -40.962  14.236  11.085  1.00 20.00     0.005 C 
ENDBRANCH   9  10
ENDBRANCH   8   9
ENDBRANCH   2   8
TORSDOF 5
ENDMDL
MODEL 7
REMARK VINA RESULT:      -3.5     13.014     14.656
REMARK  5 active torsions:
REMARK  status: ('A' for Active; 'I' for Inactive)
REMARK    1  A    between atoms: C1_1  and  C5_5 
REMARK    2  A    between atoms: C2_2  and  C7_7 
REMARK    3  A    between atoms: C5_5  and  O10_10 
REMARK    4  A    between atoms: C7_7  and  C9_9 
REMARK    5  A    between atoms: C8_8  and  C9_9 
ROOT
HETATM    1  C1  UNL     1     -40.676  14.242   9.255  1.00 20.00    -0.068 C 
HETATM    2  C2  UNL     1     -40.576  14.136   8.063  1.00 20.00    -0.103 C 
ENDROOT
BRANCH   1   3
HETATM    3  C5  UNL     1     -40.799  14.371  10.706  1.00 20.00     0.121 A 
HETATM    4  C3  UNL     1     -39.895  15.315  11.416  1.00 20.00     0.055 A 
HETATM    5  C4  UNL     1     -41.356  15.632  11.264  1.00 20.00     0.055 A 
BRANCH   3   6
HETATM    6  O10 UNL     1     -41.132  13.137  11.330  1.00 20.00    -0.378 OA
HETATM    7  H24 UNL     1     -40.421  12.513  11.109  1.00 20.00     0.211 HD
ENDBRANCH   3   6
ENDBRANCH   1   3
BRANCH   2   8
HETATM    8  C7  UNL     1     -40.453  14.004   6.604  1.00 20.00     0.094 C 
BRANCH   8   9
HETATM    9  C9  UNL     1     -40.813  12.590   6.148  1.00 20.00     0.012 C 
BRANCH   9  10
HETATM   10  C8  UNL     1     -39.559  11.750   5.903  1.00 20.00    -0.004 C 
HETATM   11  C6  UNL     1     -39.167  11.749   4.434  1.00 20.00     0.005 C 
ENDBRANCH   9  10
ENDBRANCH   8   9
ENDBRANCH   2   8
TORSDOF 5
ENDMDL
MODEL 8
REMARK VINA RESULT:      -3.4     13.035     15.963
REMARK  5 active torsions:
REMARK  status: ('A' for Active; 'I' for Inactive)
REMARK    1  A    between atoms: C1_1  and  C5_5 
REMARK    2  A    between atoms: C2_2  and  C7_7 
REMARK    3  A    between atoms: C5_5  and  O10_10 
REMARK    4  A    between atoms: C7_7  and  C9_9 
REMARK    5  A    between atoms: C8_8  and  C9_9 
ROOT
HETATM    1  C1  UNL     1     -42.439   5.455  -0.786  1.00 20.00    -0.068 C 
HETATM    2  C2  UNL     1     -42.759   4.542  -1.496  1.00 20.00    -0.103 C 
ENDROOT
BRANCH   1   3
HETATM    3  C5  UNL     1     -42.048   6.568   0.079  1.00 20.00     0.121 A 
HETATM    4  C3  UNL     1     -41.014   7.519  -0.408  1.00 20.00     0.055 A 
HETATM    5  C4  UNL     1     -42.451   7.946  -0.308  1.00 20.00     0.055 A 
BRANCH   3   6
HETATM    6  O10 UNL     1     -42.059   6.208   1.455  1.00 20.00    -0.378 OA
HETATM    7  H24 UNL     1     -42.406   6.975   1.940  1.00 20.00     0.211 HD
ENDBRANCH   3   6
ENDBRANCH   1   3
BRANCH   2   8
HETATM    8  C7  UNL     1     -43.154   3.424  -2.366  1.00 20.00     0.094 C 
BRANCH   8   9
HETATM    9  C9  UNL     1     -42.437   3.497  -3.714  1.00 20.00     0.012 C 
BRANCH   9  10
HETATM   10  C8  UNL     1     -41.406   2.376  -3.856  1.00 20.00    -0.004 C 
HETATM   11  C6  UNL     1     -42.065   1.007  -3.831  1.00 20.00     0.005 C 
ENDBRANCH   9  10
ENDBRANCH   8   9
ENDBRANCH   2   8
TORSDOF 5
ENDMDL
MODEL 9
REMARK VINA RESULT:      -3.4     11.677     12.542
REMARK  5 active torsions:
REMARK  status: ('A' for Active; 'I' for Inactive)
REMARK    1  A    between atoms: C1_1  and  C5_5 
REMARK    2  A    between atoms: C2_2  and  C7_7 
REMARK    3  A    between atoms: C5_5  and  O10_10 
REMARK    4  A    between atoms: C7_7  and  C9_9 
REMARK    5  A    between atoms: C8_8  and  C9_9 
ROOT
HETATM    1  C1  UNL     1     -40.562  13.897   7.045  1.00 20.00    -0.068 C 
HETATM    2  C2  UNL     1     -40.515  14.956   7.608  1.00 20.00    -0.103 C 
ENDROOT
BRANCH   1   3
HETATM    3  C5  UNL     1     -40.621  12.607   6.359  1.00 20.00     0.121 A 
HETATM    4  C3  UNL     1     -40.126  12.522   4.960  1.00 20.00     0.055 A 
HETATM    5  C4  UNL     1     -39.349  11.891   6.079  1.00 20.00     0.055 A 
BRANCH   3   6
HETATM    6  O10 UNL     1     -41.768  11.852   6.731  1.00 20.00    -0.378 OA
HETATM    7  H24 UNL     1     -42.356  11.842   5.958  1.00 20.00     0.211 HD
ENDBRANCH   3   6
ENDBRANCH   1   3
BRANCH   2   8
HETATM    8  C7  UNL     1     -40.454  16.253   8.299  1.00 20.00     0.094 C 
BRANCH   8   9
HETATM    9  C9  UNL     1     -41.680  17.107   7.974  1.00 20.00     0.012 C 
BRANCH   9  10
HETATM   10  C8  UNL     1     -41.473  17.910   6.690  1.00 20.00    -0.004 C 
HETATM   11  C6  UNL     1     -40.211  18.755   6.758  1.00 20.00     0.005 C 
ENDBRANCH   9  10
ENDBRANCH   8   9
ENDBRANCH   2   8
TORSDOF 5
ENDMDL
