MODEL 1
REMARK VINA RESULT:      -4.7      0.000      0.000
REMARK  2 active torsions:
REMARK  status: ('A' for Active; 'I' for Inactive)
REMARK    1  A    between atoms: C1_1  and  C5_5 
REMARK    2  A    between atoms: C6_6  and  C9_9 
ROOT
HETATM    1  C2  UNL     1     -31.956   7.289   2.419  1.00 20.00     0.012 C 
HETATM    2  C3  UNL     1     -32.997   6.363   3.033  1.00 20.00     0.006 C 
HETATM    3  C4  UNL     1     -33.200   8.458   4.181  1.00 20.00     0.016 C 
HETATM    4  C5  UNL     1     -32.302   8.680   2.957  1.00 20.00     0.047 C 
HETATM    5  C6  UNL     1     -33.190   6.948   4.428  1.00 20.00    -0.010 C 
ENDROOT
BRANCH   5   6
HETATM    6  C9  UNL     1     -34.444   6.444   5.119  1.00 20.00    -0.019 C 
HETATM    7  C7  UNL     1     -34.686   4.967   4.802  1.00 20.00     0.010 C 
HETATM    8  C8  UNL     1     -34.353   6.652   6.633  1.00 20.00     0.010 C 
ENDBRANCH   5   6
BRANCH   4   9
HETATM    9  C1  UNL     1     -33.027   9.482   1.920  1.00 20.00     0.235 C 
HETATM   10  O10 UNL     1     -32.699   9.514   0.738  1.00 20.00    -0.306 OA
ENDBRANCH   4   9
TORSDOF 2
ENDMDL
MODEL 2
REMARK VINA RESULT:      -4.3      2.585      4.351
REMARK  2 active torsions:
REMARK  status: ('A' for Active; 'I' for Inactive)
REMARK    1  A    between atoms: C1_1  and  C5_5 
REMARK    2  A    between atoms: C6_6  and  C9_9 
ROOT
HETATM    1  C2  UNL     1     -34.314   4.537   4.058  1.00 20.00     0.012 C 
HETATM    2  C3  UNL     1     -33.016   5.148   3.544  1.00 20.00     0.006 C 
HETATM    3  C4  UNL     1     -34.240   6.935   4.570  1.00 20.00     0.016 C 
HETATM    4  C5  UNL     1     -34.929   5.618   4.951  1.00 20.00     0.047 C 
HETATM    5  C6  UNL     1     -33.388   6.612   3.341  1.00 20.00    -0.010 C 
ENDROOT
BRANCH   5   6
HETATM    6  C9  UNL     1     -32.180   7.520   3.191  1.00 20.00    -0.019 C 
HETATM    7  C7  UNL     1     -32.115   8.113   1.783  1.00 20.00     0.010 C 
HETATM    8  C8  UNL     1     -32.208   8.639   4.235  1.00 20.00     0.010 C 
ENDBRANCH   5   6
BRANCH   4   9
HETATM    9  C1  UNL     1     -34.691   5.307   6.397  1.00 20.00     0.235 C 
HETATM   10  O10 UNL     1     -33.582   5.338   6.922  1.00 20.00    -0.306 OA
ENDBRANCH   4   9
TORSDOF 2
ENDMDL
MODEL 3
REMARK VINA RESULT:      -4.0     10.968     12.072
REMARK  2 active torsions:
REMARK  status: ('A' for Active; 'I' for Inactive)
REMARK    1  A    between atoms: C1_1  and  C5_5 
REMARK    2  A    between atoms: C6_6  and  C9_9 
ROOT
HETATM    1  C2  UNL     1     -33.536  14.549  -4.621  1.00 20.00     0.012 C 
HETATM    2  C3  UNL     1     -33.389  15.554  -3.486  1.00 20.00     0.006 C 
HETATM    3  C4  UNL     1     -35.074  16.432  -4.948  1.00 20.00     0.016 C 
HETATM    4  C5  UNL     1     -34.801  14.981  -5.366  1.00 20.00     0.047 C 
HETATM    5  C6  UNL     1     -33.856  16.858  -4.125  1.00 20.00    -0.010 C 
ENDROOT
BRANCH   5   6
HETATM    6  C9  UNL     1     -34.167  17.943  -3.110  1.00 20.00    -0.019 C 
HETATM    7  C7  UNL     1     -33.776  17.498  -1.699  1.00 20.00     0.010 C 
HETATM    8  C8  UNL     1     -33.453  19.248  -3.471  1.00 20.00     0.010 C 
ENDBRANCH   5   6
BRANCH   4   9
HETATM    9  C1  UNL     1     -35.958  14.106  -4.993  1.00 20.00     0.235 C 
HETATM   10  O10 UNL     1     -35.840  13.061  -4.361  1.00 20.00    -0.306 OA
ENDBRANCH   4   9
TORSDOF 2
ENDMDL
MODEL 4
REMARK VINA RESULT:      -3.9      2.122      3.127
REMARK  2 active torsions:
REMARK  status: ('A' for Active; 'I' for Inactive)
REMARK    1  A    between atoms: C1_1  and  C5_5 
REMARK    2  A    between atoms: C6_6  and  C9_9 
ROOT
HETATM    1  C2  UNL     1     -34.103   7.410   6.564  1.00 20.00     0.012 C 
HETATM    2  C3  UNL     1     -33.914   5.973   6.094  1.00 20.00     0.006 C 
HETATM    3  C4  UNL     1     -34.063   7.316   4.113  1.00 20.00     0.016 C 
HETATM    4  C5  UNL     1     -33.901   8.263   5.310  1.00 20.00     0.047 C 
HETATM    5  C6  UNL     1     -34.541   5.987   4.704  1.00 20.00    -0.010 C 
ENDROOT
BRANCH   5   6
HETATM    6  C9  UNL     1     -34.155   4.783   3.862  1.00 20.00    -0.019 C 
HETATM    7  C7  UNL     1     -33.163   5.179   2.767  1.00 20.00     0.010 C 
HETATM    8  C8  UNL     1     -33.564   3.675   4.737  1.00 20.00     0.010 C 
ENDBRANCH   5   6
BRANCH   4   9
HETATM    9  C1  UNL     1     -32.536   8.879   5.304  1.00 20.00     0.235 C 
HETATM   10  O10 UNL     1     -31.646   8.544   4.528  1.00 20.00    -0.306 OA
ENDBRANCH   4   9
TORSDOF 2
ENDMDL
MODEL 5
REMARK VINA RESULT:      -3.9      1.344      1.992
REMARK  2 active torsions:
REMARK  status: ('A' for Active; 'I' for Inactive)
REMARK    1  A    between atoms: C1_1  and  C5_5 
REMARK    2  A    between atoms: C6_6  and  C9_9 
ROOT
HETATM    1  C2  UNL     1     -32.744   8.642   5.268  1.00 20.00     0.012 C 
HETATM    2  C3  UNL     1     -33.174   7.351   5.953  1.00 20.00     0.006 C 
HETATM    3  C4  UNL     1     -34.141   7.302   3.760  1.00 20.00     0.016 C 
HETATM    4  C5  UNL     1     -33.123   8.450   3.797  1.00 20.00     0.047 C 
HETATM    5  C6  UNL     1     -34.465   6.994   5.224  1.00 20.00    -0.010 C 
ENDROOT
BRANCH   5   6
HETATM    6  C9  UNL     1     -34.903   5.558   5.452  1.00 20.00    -0.019 C 
HETATM    7  C7  UNL     1     -34.335   4.637   4.371  1.00 20.00     0.010 C 
HETATM    8  C8  UNL     1     -34.476   5.073   6.840  1.00 20.00     0.010 C 
ENDBRANCH   5   6
BRANCH   4   9
HETATM    9  C1  UNL     1     -31.915   8.098   2.983  1.00 20.00     0.235 C 
HETATM   10  O10 UNL     1     -31.975   7.668   1.836  1.00 20.00    -0.306 OA
ENDBRANCH   4   9
TORSDOF 2
ENDMDL
MODEL 6
REMARK VINA RESULT:      -3.8     11.225     12.193
REMARK  2 active torsions:
REMARK  status: ('A' for Active; 'I' for Inactive)
REMARK    1  A    between atoms: C1_1  and  C5_5 
REMARK    2  A    between atoms: C6_6  and  C9_9 
ROOT
HETATM    1  C2  UNL     1     -32.153  19.064   0.093  1.00 20.00     0.012 C 
HETATM    2  C3  UNL     1     -32.201  19.017  -1.429  1.00 20.00     0.006 C 
HETATM    3  C4  UNL     1     -33.843  17.451  -0.655  1.00 20.00     0.016 C 
HETATM    4  C5  UNL     1     -33.391  18.288   0.549  1.00 20.00     0.047 C 
HETATM    5  C6  UNL     1     -32.745  17.621  -1.708  1.00 20.00    -0.010 C 
ENDROOT
BRANCH   5   6
HETATM    6  C9  UNL     1     -33.245  17.447  -3.131  1.00 20.00    -0.019 C 
HETATM    7  C7  UNL     1     -33.262  15.970  -3.526  1.00 20.00     0.010 C 
HETATM    8  C8  UNL     1     -34.640  18.055  -3.296  1.00 20.00     0.010 C 
ENDBRANCH   5   6
BRANCH   4   9
HETATM    9  C1  UNL     1     -34.480  19.229   0.965  1.00 20.00     0.235 C 
HETATM   10  O10 UNL     1     -35.400  18.911   1.712  1.00 20.00    -0.306 OA
ENDBRANCH   4   9
TORSDOF 2
ENDMDL
MODEL 7
REMARK VINA RESULT:      -3.8      9.662     10.606
REMARK  2 active torsions:
REMARK  status: ('A' for Active; 'I' for Inactive)
REMARK    1  A    between atoms: C1_1  and  C5_5 
REMARK    2  A    between atoms: C6_6  and  C9_9 
ROOT
HETATM    1  C2  UNL     1     -42.847  13.519   7.139  1.00 20.00     0.012 C 
HETATM    2  C3  UNL     1     -42.135  12.272   6.632  1.00 20.00     0.006 C 
HETATM    3  C4  UNL     1     -40.457  13.973   6.827  1.00 20.00     0.016 C 
HETATM    4  C5  UNL     1     -41.723  14.482   7.528  1.00 20.00     0.047 C 
HETATM    5  C6  UNL     1     -40.925  12.846   5.903  1.00 20.00    -0.010 C 
ENDROOT
BRANCH   5   6
HETATM    6  C9  UNL     1     -39.849  11.812   5.625  1.00 20.00    -0.019 C 
HETATM    7  C7  UNL     1     -39.384  11.887   4.169  1.00 20.00     0.010 C 
HETATM    8  C8  UNL     1     -38.659  11.995   6.570  1.00 20.00     0.010 C 
ENDBRANCH   5   6
BRANCH   4   9
HETATM    9  C1  UNL     1     -41.526  14.491   9.013  1.00 20.00     0.235 C 
HETATM   10  O10 UNL     1     -40.638  13.863   9.581  1.00 20.00    -0.306 OA
ENDBRANCH   4   9
TORSDOF 2
ENDMDL
MODEL 8
REMARK VINA RESULT:      -3.8     11.316     12.333
REMARK  2 active torsions:
REMARK  status: ('A' for Active; 'I' for Inactive)
REMARK    1  A    between atoms: C1_1  and  C5_5 
REMARK    2  A    between atoms: C6_6  and  C9_9 
ROOT
HETATM    1  C2  UNL     1     -33.530  16.704  -3.195  1.00 20.00     0.012 C 
HETATM    2  C3  UNL     1     -33.462  16.976  -1.698  1.00 20.00     0.006 C 
HETATM    3  C4  UNL     1     -32.802  19.010  -2.781  1.00 20.00     0.016 C 
HETATM    4  C5  UNL     1     -33.392  18.081  -3.850  1.00 20.00     0.047 C 
HETATM    5  C6  UNL     1     -32.439  18.102  -1.604  1.00 20.00    -0.010 C 
ENDROOT
BRANCH   5   6
HETATM    6  C9  UNL     1     -32.459  18.818  -0.265  1.00 20.00    -0.019 C 
HETATM    7  C7  UNL     1     -33.614  18.317   0.603  1.00 20.00     0.010 C 
HETATM    8  C8  UNL     1     -31.128  18.638   0.469  1.00 20.00     0.010 C 
ENDBRANCH   5   6
BRANCH   4   9
HETATM    9  C1  UNL     1     -34.728  18.588  -4.299  1.00 20.00     0.235 C 
HETATM   10  O10 UNL     1     -35.681  17.857  -4.545  1.00 20.00    -0.306 OA
ENDBRANCH   4   9
TORSDOF 2
ENDMDL
MODEL 9
REMARK VINA RESULT:      -3.6     10.926     12.241
REMARK  2 active torsions:
REMARK  status: ('A' for Active; 'I' for Inactive)
REMARK    1  A    between atoms: C1_1  and  C5_5 
REMARK    2  A    between atoms: C6_6  and  C9_9 
ROOT
HETATM    1  C2  UNL     1     -32.822  18.904  -2.735  1.00 20.00     0.012 C 
HETATM    2  C3  UNL     1     -33.651  18.309  -3.866  1.00 20.00     0.006 C 
HETATM    3  C4  UNL     1     -33.421  16.581  -2.219  1.00 20.00     0.016 C 
HETATM    4  C5  UNL     1     -32.940  17.896  -1.589  1.00 20.00     0.047 C 
HETATM    5  C6  UNL     1     -33.383  16.813  -3.731  1.00 20.00    -0.010 C 
ENDROOT
BRANCH   5   6
HETATM    6  C9  UNL     1     -34.378  15.957  -4.495  1.00 20.00    -0.019 C 
HETATM    7  C7  UNL     1     -34.354  16.295  -5.987  1.00 20.00     0.010 C 
HETATM    8  C8  UNL     1     -34.089  14.469  -4.285  1.00 20.00     0.010 C 
ENDBRANCH   5   6
BRANCH   4   9
HETATM    9  C1  UNL     1     -33.925  18.372  -0.566  1.00 20.00     0.235 C 
HETATM   10  O10 UNL     1     -33.873  18.060   0.619  1.00 20.00    -0.306 OA
ENDBRANCH   4   9
TORSDOF 2
ENDMDL
