MODEL 1
REMARK VINA RESULT:      -3.8      0.000      0.000
REMARK  1 active torsions:
REMARK  status: ('A' for Active; 'I' for Inactive)
REMARK    1  A    between atoms: C1_1  and  C3_3 
ROOT
HETATM    1  C2  UNL     1     -34.199   8.252   5.560  1.00 20.00     0.030 A 
HETATM    2  C3  UNL     1     -33.987   6.773   5.745  1.00 20.00     0.070 A 
HETATM    3  C4  UNL     1     -32.874   7.636   5.207  1.00 20.00     0.070 A 
HETATM    4 BR7  UNL     1     -32.383   7.564   3.364  1.00 20.00    -0.090 Br
ENDROOT
BRANCH   2   5
HETATM    5  C1  UNL     1     -34.715   5.828   4.891  1.00 20.00     0.128 C 
HETATM    6  C5  UNL     1     -34.084   4.478   4.683  1.00 20.00     0.091 C 
HETATM    7  O6  UNL     1     -35.789   6.126   4.369  1.00 20.00    -0.298 OA
ENDBRANCH   2   5
TORSDOF 1
ENDMDL
MODEL 2
REMARK VINA RESULT:      -3.6      1.782      2.947
REMARK  1 active torsions:
REMARK  status: ('A' for Active; 'I' for Inactive)
REMARK    1  A    between atoms: C1_1  and  C3_3 
ROOT
HETATM    1  C2  UNL     1     -34.647   4.880   5.353  1.00 20.00     0.030 A 
HETATM    2  C3  UNL     1     -34.787   6.365   5.149  1.00 20.00     0.070 A 
HETATM    3  C4  UNL     1     -34.605   5.451   3.964  1.00 20.00     0.070 A 
HETATM    4 BR7  UNL     1     -32.946   5.389   3.021  1.00 20.00    -0.090 Br
ENDROOT
BRANCH   2   5
HETATM    5  C1  UNL     1     -33.717   7.258   5.609  1.00 20.00     0.128 C 
HETATM    6  C5  UNL     1     -33.497   8.516   4.813  1.00 20.00     0.091 C 
HETATM    7  O6  UNL     1     -33.033   6.991   6.597  1.00 20.00    -0.298 OA
ENDBRANCH   2   5
TORSDOF 1
ENDMDL
MODEL 3
REMARK VINA RESULT:      -3.6      2.071      3.012
REMARK  1 active torsions:
REMARK  status: ('A' for Active; 'I' for Inactive)
REMARK    1  A    between atoms: C1_1  and  C3_3 
ROOT
HETATM    1  C2  UNL     1     -34.240   6.663   6.336  1.00 20.00     0.030 A 
HETATM    2  C3  UNL     1     -34.283   7.364   5.005  1.00 20.00     0.070 A 
HETATM    3  C4  UNL     1     -34.848   5.974   5.148  1.00 20.00     0.070 A 
HETATM    4 BR7  UNL     1     -33.933   4.464   4.422  1.00 20.00    -0.090 Br
ENDROOT
BRANCH   2   5
HETATM    5  C1  UNL     1     -33.030   7.618   4.284  1.00 20.00     0.128 C 
HETATM    6  C5  UNL     1     -32.164   8.734   4.805  1.00 20.00     0.091 C 
HETATM    7  O6  UNL     1     -32.703   6.952   3.302  1.00 20.00    -0.298 OA
ENDBRANCH   2   5
TORSDOF 1
ENDMDL
MODEL 4
REMARK VINA RESULT:      -3.5      1.321      1.373
REMARK  1 active torsions:
REMARK  status: ('A' for Active; 'I' for Inactive)
REMARK    1  A    between atoms: C1_1  and  C3_3 
ROOT
HETATM    1  C2  UNL     1     -33.795   8.176   4.024  1.00 20.00     0.030 A 
HETATM    2  C3  UNL     1     -33.656   7.162   5.128  1.00 20.00     0.070 A 
HETATM    3  C4  UNL     1     -32.713   7.136   3.952  1.00 20.00     0.070 A 
HETATM    4 BR7  UNL     1     -32.859   5.786   2.610  1.00 20.00    -0.090 Br
ENDROOT
BRANCH   2   5
HETATM    5  C1  UNL     1     -34.698   6.145   5.306  1.00 20.00     0.128 C 
HETATM    6  C5  UNL     1     -34.531   5.200   6.465  1.00 20.00     0.091 C 
HETATM    7  O6  UNL     1     -35.663   6.069   4.545  1.00 20.00    -0.298 OA
ENDBRANCH   2   5
TORSDOF 1
ENDMDL
MODEL 5
REMARK VINA RESULT:      -3.3      2.438      3.237
REMARK  1 active torsions:
REMARK  status: ('A' for Active; 'I' for Inactive)
REMARK    1  A    between atoms: C1_1  and  C3_3 
ROOT
HETATM    1  C2  UNL     1     -33.693   7.099   6.021  1.00 20.00     0.030 A 
HETATM    2  C3  UNL     1     -33.828   7.984   4.811  1.00 20.00     0.070 A 
HETATM    3  C4  UNL     1     -34.482   6.626   4.834  1.00 20.00     0.070 A 
HETATM    4 BR7  UNL     1     -33.774   5.180   3.807  1.00 20.00    -0.090 Br
ENDROOT
BRANCH   2   5
HETATM    5  C1  UNL     1     -32.647   8.260   3.985  1.00 20.00     0.128 C 
HETATM    6  C5  UNL     1     -32.897   8.829   2.614  1.00 20.00     0.091 C 
HETATM    7  O6  UNL     1     -31.507   8.036   4.393  1.00 20.00    -0.298 OA
ENDBRANCH   2   5
TORSDOF 1
ENDMDL
MODEL 6
REMARK VINA RESULT:      -3.2     12.654     13.128
REMARK  1 active torsions:
REMARK  status: ('A' for Active; 'I' for Inactive)
REMARK    1  A    between atoms: C1_1  and  C3_3 
ROOT
HETATM    1  C2  UNL     1     -34.005  18.349   0.673  1.00 20.00     0.030 A 
HETATM    2  C3  UNL     1     -32.885  19.210   0.155  1.00 20.00     0.070 A 
HETATM    3  C4  UNL     1     -33.870  18.590  -0.804  1.00 20.00     0.070 A 
HETATM    4 BR7  UNL     1     -33.367  17.118  -1.910  1.00 20.00    -0.090 Br
ENDROOT
BRANCH   2   5
HETATM    5  C1  UNL     1     -31.502  18.732   0.258  1.00 20.00     0.128 C 
HETATM    6  C5  UNL     1     -31.071  18.188   1.594  1.00 20.00     0.091 C 
HETATM    7  O6  UNL     1     -30.730  18.773  -0.700  1.00 20.00    -0.298 OA
ENDBRANCH   2   5
TORSDOF 1
ENDMDL
MODEL 7
REMARK VINA RESULT:      -3.1      9.325     10.059
REMARK  1 active torsions:
REMARK  status: ('A' for Active; 'I' for Inactive)
REMARK    1  A    between atoms: C1_1  and  C3_3 
ROOT
HETATM    1  C2  UNL     1     -42.774   5.350  -0.794  1.00 20.00     0.030 A 
HETATM    2  C3  UNL     1     -41.656   6.285  -0.414  1.00 20.00     0.070 A 
HETATM    3  C4  UNL     1     -42.264   5.370   0.619  1.00 20.00     0.070 A 
HETATM    4 BR7  UNL     1     -43.417   6.056   1.977  1.00 20.00    -0.090 Br
ENDROOT
BRANCH   2   5
HETATM    5  C1  UNL     1     -41.900   7.732  -0.404  1.00 20.00     0.128 C 
HETATM    6  C5  UNL     1     -40.784   8.603   0.108  1.00 20.00     0.091 C 
HETATM    7  O6  UNL     1     -42.964   8.210  -0.796  1.00 20.00    -0.298 OA
ENDBRANCH   2   5
TORSDOF 1
ENDMDL
MODEL 8
REMARK VINA RESULT:      -3.1      8.624      9.496
REMARK  1 active torsions:
REMARK  status: ('A' for Active; 'I' for Inactive)
REMARK    1  A    between atoms: C1_1  and  C3_3 
ROOT
HETATM    1  C2  UNL     1     -41.857  13.620   5.501  1.00 20.00     0.030 A 
HETATM    2  C3  UNL     1     -41.262  12.474   6.275  1.00 20.00     0.070 A 
HETATM    3  C4  UNL     1     -41.667  13.739   6.986  1.00 20.00     0.070 A 
HETATM    4 BR7  UNL     1     -40.353  14.968   7.625  1.00 20.00    -0.090 Br
ENDROOT
BRANCH   2   5
HETATM    5  C1  UNL     1     -39.853  12.120   6.068  1.00 20.00     0.128 C 
HETATM    6  C5  UNL     1     -39.382  12.019   4.643  1.00 20.00     0.091 C 
HETATM    7  O6  UNL     1     -39.093  11.916   7.015  1.00 20.00    -0.298 OA
ENDBRANCH   2   5
TORSDOF 1
ENDMDL
MODEL 9
REMARK VINA RESULT:      -3.0     12.507     13.013
REMARK  1 active torsions:
REMARK  status: ('A' for Active; 'I' for Inactive)
REMARK    1  A    between atoms: C1_1  and  C3_3 
ROOT
HETATM    1  C2  UNL     1     -33.512  16.370  -2.510  1.00 20.00     0.030 A 
HETATM    2  C3  UNL     1     -33.072  15.893  -3.868  1.00 20.00     0.070 A 
HETATM    3  C4  UNL     1     -33.566  17.305  -3.685  1.00 20.00     0.070 A 
HETATM    4 BR7  UNL     1     -35.282  17.835  -4.330  1.00 20.00    -0.090 Br
ENDROOT
BRANCH   2   5
HETATM    5  C1  UNL     1     -33.869  14.880  -4.570  1.00 20.00     0.128 C 
HETATM    6  C5  UNL     1     -33.953  15.002  -6.067  1.00 20.00     0.091 C 
HETATM    7  O6  UNL     1     -34.442  13.975  -3.962  1.00 20.00    -0.298 OA
ENDBRANCH   2   5
TORSDOF 1
ENDMDL
