MODEL 1
REMARK VINA RESULT:      -5.3      0.000      0.000
REMARK  1 active torsions:
REMARK  status: ('A' for Active; 'I' for Inactive)
REMARK    1  A    between atoms: C3_3  and  C4_4 
ROOT
HETATM    1  C1  UNL     1     -34.849   5.978   5.997  1.00 20.00    -0.018 A 
HETATM    2  C2  UNL     1     -34.027   6.850   6.607  1.00 20.00    -0.025 A 
HETATM    3  C4  UNL     1     -34.342   6.308   4.607  1.00 20.00     0.084 A 
HETATM    4  C5  UNL     1     -33.327   7.245   5.320  1.00 20.00     0.018 A 
HETATM    5  C7  UNL     1     -33.406   8.718   4.948  1.00 20.00     0.015 C 
ENDROOT
BRANCH   3   6
HETATM    6  C3  UNL     1     -33.817   5.052   3.903  1.00 20.00     0.131 C 
HETATM    7  C6  UNL     1     -32.987   5.267   2.666  1.00 20.00     0.091 C 
HETATM    8  O8  UNL     1     -34.060   3.925   4.329  1.00 20.00    -0.298 OA
ENDBRANCH   3   6
TORSDOF 1
ENDMDL
MODEL 2
REMARK VINA RESULT:      -5.0      1.762      2.640
REMARK  1 active torsions:
REMARK  status: ('A' for Active; 'I' for Inactive)
REMARK    1  A    between atoms: C3_3  and  C4_4 
ROOT
HETATM    1  C1  UNL     1     -33.534   8.643   5.255  1.00 20.00    -0.018 A 
HETATM    2  C2  UNL     1     -32.295   8.705   4.735  1.00 20.00    -0.025 A 
HETATM    3  C4  UNL     1     -33.910   7.393   4.485  1.00 20.00     0.084 A 
HETATM    4  C5  UNL     1     -32.447   7.410   3.958  1.00 20.00     0.018 A 
HETATM    5  C7  UNL     1     -32.284   7.520   2.450  1.00 20.00     0.015 C 
ENDROOT
BRANCH   3   6
HETATM    6  C3  UNL     1     -34.337   6.271   5.437  1.00 20.00     0.131 C 
HETATM    7  C6  UNL     1     -34.638   4.934   4.815  1.00 20.00     0.091 C 
HETATM    8  O8  UNL     1     -34.428   6.453   6.649  1.00 20.00    -0.298 OA
ENDBRANCH   3   6
TORSDOF 1
ENDMDL
MODEL 3
REMARK VINA RESULT:      -4.8      1.393      1.728
REMARK  1 active torsions:
REMARK  status: ('A' for Active; 'I' for Inactive)
REMARK    1  A    between atoms: C3_3  and  C4_4 
ROOT
HETATM    1  C1  UNL     1     -34.861   5.145   4.746  1.00 20.00    -0.018 A 
HETATM    2  C2  UNL     1     -34.546   5.213   6.051  1.00 20.00    -0.025 A 
HETATM    3  C4  UNL     1     -34.146   6.437   4.398  1.00 20.00     0.084 A 
HETATM    4  C5  UNL     1     -33.702   6.463   5.887  1.00 20.00     0.018 A 
HETATM    5  C7  UNL     1     -34.148   7.673   6.694  1.00 20.00     0.015 C 
ENDROOT
BRANCH   3   6
HETATM    6  C3  UNL     1     -33.086   6.202   3.317  1.00 20.00     0.131 C 
HETATM    7  C6  UNL     1     -32.153   7.346   3.024  1.00 20.00     0.091 C 
HETATM    8  O8  UNL     1     -33.000   5.130   2.719  1.00 20.00    -0.298 OA
ENDBRANCH   3   6
TORSDOF 1
ENDMDL
MODEL 4
REMARK VINA RESULT:      -4.6      2.032      3.122
REMARK  1 active torsions:
REMARK  status: ('A' for Active; 'I' for Inactive)
REMARK    1  A    between atoms: C3_3  and  C4_4 
ROOT
HETATM    1  C1  UNL     1     -34.065   6.584   6.596  1.00 20.00    -0.018 A 
HETATM    2  C2  UNL     1     -34.995   5.737   6.122  1.00 20.00    -0.025 A 
HETATM    3  C4  UNL     1     -33.345   6.706   5.267  1.00 20.00     0.084 A 
HETATM    4  C5  UNL     1     -34.476   5.804   4.698  1.00 20.00     0.018 A 
HETATM    5  C7  UNL     1     -34.030   4.481   4.093  1.00 20.00     0.015 C 
ENDROOT
BRANCH   3   6
HETATM    6  C3  UNL     1     -33.271   8.169   4.816  1.00 20.00     0.131 C 
HETATM    7  C6  UNL     1     -32.515   8.447   3.545  1.00 20.00     0.091 C 
HETATM    8  O8  UNL     1     -33.806   9.070   5.460  1.00 20.00    -0.298 OA
ENDBRANCH   3   6
TORSDOF 1
ENDMDL
MODEL 5
REMARK VINA RESULT:      -4.6      1.852      2.706
REMARK  1 active torsions:
REMARK  status: ('A' for Active; 'I' for Inactive)
REMARK    1  A    between atoms: C3_3  and  C4_4 
ROOT
HETATM    1  C1  UNL     1     -32.481   8.569   4.643  1.00 20.00    -0.018 A 
HETATM    2  C2  UNL     1     -33.658   8.687   5.283  1.00 20.00    -0.025 A 
HETATM    3  C4  UNL     1     -32.629   7.076   4.423  1.00 20.00     0.084 A 
HETATM    4  C5  UNL     1     -34.031   7.231   5.077  1.00 20.00     0.018 A 
HETATM    5  C7  UNL     1     -34.267   6.422   6.344  1.00 20.00     0.015 C 
ENDROOT
BRANCH   3   6
HETATM    6  C3  UNL     1     -32.546   6.731   2.933  1.00 20.00     0.131 C 
HETATM    7  C6  UNL     1     -32.906   5.323   2.543  1.00 20.00     0.091 C 
HETATM    8  O8  UNL     1     -32.203   7.564   2.096  1.00 20.00    -0.298 OA
ENDBRANCH   3   6
TORSDOF 1
ENDMDL
MODEL 6
REMARK VINA RESULT:      -4.5      1.857      3.264
REMARK  1 active torsions:
REMARK  status: ('A' for Active; 'I' for Inactive)
REMARK    1  A    between atoms: C3_3  and  C4_4 
ROOT
HETATM    1  C1  UNL     1     -33.284   8.179   4.217  1.00 20.00    -0.018 A 
HETATM    2  C2  UNL     1     -32.250   7.638   3.548  1.00 20.00    -0.025 A 
HETATM    3  C4  UNL     1     -33.997   6.853   4.400  1.00 20.00     0.084 A 
HETATM    4  C5  UNL     1     -32.755   6.217   3.712  1.00 20.00     0.018 A 
HETATM    5  C7  UNL     1     -33.026   5.457   2.422  1.00 20.00     0.015 C 
ENDROOT
BRANCH   3   6
HETATM    6  C3  UNL     1     -34.244   6.565   5.885  1.00 20.00     0.131 C 
HETATM    7  C6  UNL     1     -34.593   5.147   6.250  1.00 20.00     0.091 C 
HETATM    8  O8  UNL     1     -34.160   7.448   6.736  1.00 20.00    -0.298 OA
ENDBRANCH   3   6
TORSDOF 1
ENDMDL
MODEL 7
REMARK VINA RESULT:      -4.3      1.729      2.985
REMARK  1 active torsions:
REMARK  status: ('A' for Active; 'I' for Inactive)
REMARK    1  A    between atoms: C3_3  and  C4_4 
ROOT
HETATM    1  C1  UNL     1     -34.065   5.397   3.646  1.00 20.00    -0.018 A 
HETATM    2  C2  UNL     1     -34.070   4.637   4.756  1.00 20.00    -0.025 A 
HETATM    3  C4  UNL     1     -34.000   6.703   4.414  1.00 20.00     0.084 A 
HETATM    4  C5  UNL     1     -33.909   5.821   5.691  1.00 20.00     0.018 A 
HETATM    5  C7  UNL     1     -35.019   6.013   6.713  1.00 20.00     0.015 C 
ENDROOT
BRANCH   3   6
HETATM    6  C3  UNL     1     -32.775   7.523   3.996  1.00 20.00     0.131 C 
HETATM    7  C6  UNL     1     -32.430   8.710   4.855  1.00 20.00     0.091 C 
HETATM    8  O8  UNL     1     -32.104   7.225   3.009  1.00 20.00    -0.298 OA
ENDBRANCH   3   6
TORSDOF 1
ENDMDL
MODEL 8
REMARK VINA RESULT:      -4.3      1.473      2.731
REMARK  1 active torsions:
REMARK  status: ('A' for Active; 'I' for Inactive)
REMARK    1  A    between atoms: C3_3  and  C4_4 
ROOT
HETATM    1  C1  UNL     1     -32.738   6.248   3.264  1.00 20.00    -0.018 A 
HETATM    2  C2  UNL     1     -32.616   7.516   2.833  1.00 20.00    -0.025 A 
HETATM    3  C4  UNL     1     -33.190   6.651   4.654  1.00 20.00     0.084 A 
HETATM    4  C5  UNL     1     -33.141   8.112   4.126  1.00 20.00     0.018 A 
HETATM    5  C7  UNL     1     -32.192   9.052   4.855  1.00 20.00     0.015 C 
ENDROOT
BRANCH   3   6
HETATM    6  C3  UNL     1     -34.552   6.033   4.988  1.00 20.00     0.131 C 
HETATM    7  C6  UNL     1     -34.700   5.421   6.355  1.00 20.00     0.091 C 
HETATM    8  O8  UNL     1     -35.479   6.040   4.180  1.00 20.00    -0.298 OA
ENDBRANCH   3   6
TORSDOF 1
ENDMDL
MODEL 9
REMARK VINA RESULT:      -3.8     12.988     13.832
REMARK  1 active torsions:
REMARK  status: ('A' for Active; 'I' for Inactive)
REMARK    1  A    between atoms: C3_3  and  C4_4 
ROOT
HETATM    1  C1  UNL     1     -33.840  19.233  -0.704  1.00 20.00    -0.018 A 
HETATM    2  C2  UNL     1     -33.933  19.032  -2.031  1.00 20.00    -0.025 A 
HETATM    3  C4  UNL     1     -32.913  18.054  -0.483  1.00 20.00     0.084 A 
HETATM    4  C5  UNL     1     -32.945  17.881  -2.028  1.00 20.00     0.018 A 
HETATM    5  C7  UNL     1     -33.476  16.550  -2.537  1.00 20.00     0.015 C 
ENDROOT
BRANCH   3   6
HETATM    6  C3  UNL     1     -31.607  18.501   0.182  1.00 20.00     0.131 C 
HETATM    7  C6  UNL     1     -31.595  18.549   1.686  1.00 20.00     0.091 C 
HETATM    8  O8  UNL     1     -30.617  18.804  -0.481  1.00 20.00    -0.298 OA
ENDBRANCH   3   6
TORSDOF 1
ENDMDL
