MODEL 1
REMARK VINA RESULT:      -4.0      0.000      0.000
REMARK  3 active torsions:
REMARK  status: ('A' for Active; 'I' for Inactive)
REMARK    1  A    between atoms: C1_1  and  C3_3 
REMARK    2  A    between atoms: C2_2  and  C7_7 
REMARK    3  A    between atoms: C7_7  and  C8_8 
ROOT
HETATM    1  C1  UNL     1     -33.630  15.748  -3.487  1.00 20.00    -0.029 C 
HETATM    2  C2  UNL     1     -33.263  16.587  -2.711  1.00 20.00    -0.098 C 
ENDROOT
BRANCH   2   3
HETATM    3  C7  UNL     1     -32.812  17.614  -1.760  1.00 20.00     0.098 C 
BRANCH   3   4
HETATM    4  C8  UNL     1     -33.867  17.987  -0.704  1.00 20.00    -0.012 C 
HETATM    5  C5  UNL     1     -33.236  18.413   0.623  1.00 20.00     0.010 C 
HETATM    6  C6  UNL     1     -34.839  19.057  -1.207  1.00 20.00     0.010 C 
ENDBRANCH   3   4
ENDBRANCH   2   3
BRANCH   1   7
HETATM    7  C3  UNL     1     -34.066  14.735  -4.418  1.00 20.00     0.198 C 
HETATM    8  C4  UNL     1     -33.969  15.086  -5.873  1.00 20.00     0.106 C 
HETATM    9  O9  UNL     1     -34.486  13.664  -4.001  1.00 20.00    -0.284 OA
ENDBRANCH   1   7
TORSDOF 3
ENDMDL
MODEL 2
REMARK VINA RESULT:      -4.0      4.241      6.630
REMARK  3 active torsions:
REMARK  status: ('A' for Active; 'I' for Inactive)
REMARK    1  A    between atoms: C1_1  and  C3_3 
REMARK    2  A    between atoms: C2_2  and  C7_7 
REMARK    3  A    between atoms: C7_7  and  C8_8 
ROOT
HETATM    1  C1  UNL     1     -30.771  18.623   1.785  1.00 20.00    -0.029 C 
HETATM    2  C2  UNL     1     -31.133  18.513   0.646  1.00 20.00    -0.098 C 
ENDROOT
BRANCH   2   3
HETATM    3  C7  UNL     1     -31.574  18.379  -0.750  1.00 20.00     0.098 C 
BRANCH   3   4
HETATM    4  C8  UNL     1     -33.097  18.225  -0.906  1.00 20.00    -0.012 C 
HETATM    5  C5  UNL     1     -33.473  17.053  -1.815  1.00 20.00     0.010 C 
HETATM    6  C6  UNL     1     -33.812  18.113   0.443  1.00 20.00     0.010 C 
ENDBRANCH   3   4
ENDBRANCH   2   3
BRANCH   1   7
HETATM    7  C3  UNL     1     -30.329  18.754   3.153  1.00 20.00     0.198 C 
HETATM    8  C4  UNL     1     -28.845  18.742   3.375  1.00 20.00     0.106 C 
HETATM    9  O9  UNL     1     -31.153  18.867   4.051  1.00 20.00    -0.284 OA
ENDBRANCH   1   7
TORSDOF 3
ENDMDL
MODEL 3
REMARK VINA RESULT:      -4.0      2.199      5.238
REMARK  3 active torsions:
REMARK  status: ('A' for Active; 'I' for Inactive)
REMARK    1  A    between atoms: C1_1  and  C3_3 
REMARK    2  A    between atoms: C2_2  and  C7_7 
REMARK    3  A    between atoms: C7_7  and  C8_8 
ROOT
HETATM    1  C1  UNL     1     -33.185  16.875  -2.515  1.00 20.00    -0.029 C 
HETATM    2  C2  UNL     1     -33.417  15.975  -3.273  1.00 20.00    -0.098 C 
ENDROOT
BRANCH   2   3
HETATM    3  C7  UNL     1     -33.702  14.869  -4.201  1.00 20.00     0.098 C 
BRANCH   3   4
HETATM    4  C8  UNL     1     -34.715  15.230  -5.301  1.00 20.00    -0.012 C 
HETATM    5  C5  UNL     1     -34.075  15.271  -6.690  1.00 20.00     0.010 C 
HETATM    6  C6  UNL     1     -35.934  14.304  -5.296  1.00 20.00     0.010 C 
ENDBRANCH   3   4
ENDBRANCH   2   3
BRANCH   1   7
HETATM    7  C3  UNL     1     -32.904  17.954  -1.598  1.00 20.00     0.198 C 
HETATM    8  C4  UNL     1     -33.697  17.965  -0.324  1.00 20.00     0.106 C 
HETATM    9  O9  UNL     1     -32.059  18.792  -1.883  1.00 20.00    -0.284 OA
ENDBRANCH   1   7
TORSDOF 3
ENDMDL
MODEL 4
REMARK VINA RESULT:      -3.9     10.973     11.497
REMARK  3 active torsions:
REMARK  status: ('A' for Active; 'I' for Inactive)
REMARK    1  A    between atoms: C1_1  and  C3_3 
REMARK    2  A    between atoms: C2_2  and  C7_7 
REMARK    3  A    between atoms: C7_7  and  C8_8 
ROOT
HETATM    1  C1  UNL     1     -32.885   8.473   3.028  1.00 20.00    -0.029 C 
HETATM    2  C2  UNL     1     -33.120   7.993   4.103  1.00 20.00    -0.098 C 
ENDROOT
BRANCH   2   3
HETATM    3  C7  UNL     1     -33.410   7.404   5.419  1.00 20.00     0.098 C 
BRANCH   3   4
HETATM    4  C8  UNL     1     -34.473   6.293   5.380  1.00 20.00    -0.012 C 
HETATM    5  C5  UNL     1     -34.325   5.390   4.153  1.00 20.00     0.010 C 
HETATM    6  C6  UNL     1     -34.492   5.460   6.664  1.00 20.00     0.010 C 
ENDBRANCH   3   4
ENDBRANCH   2   3
BRANCH   1   7
HETATM    7  C3  UNL     1     -32.610   9.049   1.734  1.00 20.00     0.198 C 
HETATM    8  C4  UNL     1     -31.909   8.161   0.748  1.00 20.00     0.106 C 
HETATM    9  O9  UNL     1     -32.945  10.201   1.496  1.00 20.00    -0.284 OA
ENDBRANCH   1   7
TORSDOF 3
ENDMDL
MODEL 5
REMARK VINA RESULT:      -3.9     11.288     11.781
REMARK  3 active torsions:
REMARK  status: ('A' for Active; 'I' for Inactive)
REMARK    1  A    between atoms: C1_1  and  C3_3 
REMARK    2  A    between atoms: C2_2  and  C7_7 
REMARK    3  A    between atoms: C7_7  and  C8_8 
ROOT
HETATM    1  C1  UNL     1     -32.919   8.154   3.421  1.00 20.00    -0.029 C 
HETATM    2  C2  UNL     1     -33.253   7.848   4.533  1.00 20.00    -0.098 C 
ENDROOT
BRANCH   2   3
HETATM    3  C7  UNL     1     -33.665   7.471   5.893  1.00 20.00     0.098 C 
BRANCH   3   4
HETATM    4  C8  UNL     1     -34.648   6.289   5.938  1.00 20.00    -0.012 C 
HETATM    5  C5  UNL     1     -35.226   5.962   4.559  1.00 20.00     0.010 C 
HETATM    6  C6  UNL     1     -34.029   5.041   6.573  1.00 20.00     0.010 C 
ENDBRANCH   3   4
ENDBRANCH   2   3
BRANCH   1   7
HETATM    7  C3  UNL     1     -32.522   8.520   2.083  1.00 20.00     0.198 C 
HETATM    8  C4  UNL     1     -32.945   9.881   1.614  1.00 20.00     0.106 C 
HETATM    9  O9  UNL     1     -31.877   7.734   1.402  1.00 20.00    -0.284 OA
ENDBRANCH   1   7
TORSDOF 3
ENDMDL
MODEL 6
REMARK VINA RESULT:      -3.8      1.721      2.415
REMARK  3 active torsions:
REMARK  status: ('A' for Active; 'I' for Inactive)
REMARK    1  A    between atoms: C1_1  and  C3_3 
REMARK    2  A    between atoms: C2_2  and  C7_7 
REMARK    3  A    between atoms: C7_7  and  C8_8 
ROOT
HETATM    1  C1  UNL     1     -33.671  17.012  -2.450  1.00 20.00    -0.029 C 
HETATM    2  C2  UNL     1     -33.662  17.395  -1.313  1.00 20.00    -0.098 C 
ENDROOT
BRANCH   2   3
HETATM    3  C7  UNL     1     -33.650  17.866   0.080  1.00 20.00     0.098 C 
BRANCH   3   4
HETATM    4  C8  UNL     1     -32.563  18.915   0.370  1.00 20.00    -0.012 C 
HETATM    5  C5  UNL     1     -32.446  19.234   1.862  1.00 20.00     0.010 C 
HETATM    6  C6  UNL     1     -31.202  18.516  -0.205  1.00 20.00     0.010 C 
ENDBRANCH   3   4
ENDBRANCH   2   3
BRANCH   1   7
HETATM    7  C3  UNL     1     -33.678  16.558  -3.820  1.00 20.00     0.198 C 
HETATM    8  C4  UNL     1     -33.271  15.132  -4.048  1.00 20.00     0.106 C 
HETATM    9  O9  UNL     1     -34.005  17.326  -4.715  1.00 20.00    -0.284 OA
ENDBRANCH   1   7
TORSDOF 3
ENDMDL
MODEL 7
REMARK VINA RESULT:      -3.7      2.653      5.297
REMARK  3 active torsions:
REMARK  status: ('A' for Active; 'I' for Inactive)
REMARK    1  A    between atoms: C1_1  and  C3_3 
REMARK    2  A    between atoms: C2_2  and  C7_7 
REMARK    3  A    between atoms: C7_7  and  C8_8 
ROOT
HETATM    1  C1  UNL     1     -32.650  17.833  -1.634  1.00 20.00    -0.029 C 
HETATM    2  C2  UNL     1     -33.230  17.381  -2.582  1.00 20.00    -0.098 C 
ENDROOT
BRANCH   2   3
HETATM    3  C7  UNL     1     -33.939  16.829  -3.746  1.00 20.00     0.098 C 
BRANCH   3   4
HETATM    4  C8  UNL     1     -33.839  15.298  -3.863  1.00 20.00    -0.012 C 
HETATM    5  C5  UNL     1     -34.847  14.724  -4.860  1.00 20.00     0.010 C 
HETATM    6  C6  UNL     1     -32.421  14.832  -4.201  1.00 20.00     0.010 C 
ENDBRANCH   3   4
ENDBRANCH   2   3
BRANCH   1   7
HETATM    7  C3  UNL     1     -31.947  18.378  -0.497  1.00 20.00     0.198 C 
HETATM    8  C4  UNL     1     -32.751  18.554   0.757  1.00 20.00     0.106 C 
HETATM    9  O9  UNL     1     -30.762  18.669  -0.595  1.00 20.00    -0.284 OA
ENDBRANCH   1   7
TORSDOF 3
ENDMDL
MODEL 8
REMARK VINA RESULT:      -3.6     12.088     12.849
REMARK  3 active torsions:
REMARK  status: ('A' for Active; 'I' for Inactive)
REMARK    1  A    between atoms: C1_1  and  C3_3 
REMARK    2  A    between atoms: C2_2  and  C7_7 
REMARK    3  A    between atoms: C7_7  and  C8_8 
ROOT
HETATM    1  C1  UNL     1     -33.047   8.044   5.234  1.00 20.00    -0.029 C 
HETATM    2  C2  UNL     1     -33.643   7.138   5.749  1.00 20.00    -0.098 C 
ENDROOT
BRANCH   2   3
HETATM    3  C7  UNL     1     -34.371   6.027   6.379  1.00 20.00     0.098 C 
BRANCH   3   4
HETATM    4  C8  UNL     1     -34.989   5.041   5.371  1.00 20.00    -0.012 C 
HETATM    5  C5  UNL     1     -35.857   5.746   4.327  1.00 20.00     0.010 C 
HETATM    6  C6  UNL     1     -33.933   4.165   4.693  1.00 20.00     0.010 C 
ENDBRANCH   3   4
ENDBRANCH   2   3
BRANCH   1   7
HETATM    7  C3  UNL     1     -32.330   9.129   4.609  1.00 20.00     0.198 C 
HETATM    8  C4  UNL     1     -32.429   9.216   3.115  1.00 20.00     0.106 C 
HETATM    9  O9  UNL     1     -31.689   9.912   5.298  1.00 20.00    -0.284 OA
ENDBRANCH   1   7
TORSDOF 3
ENDMDL
MODEL 9
REMARK VINA RESULT:      -3.6     11.498     12.245
REMARK  3 active torsions:
REMARK  status: ('A' for Active; 'I' for Inactive)
REMARK    1  A    between atoms: C1_1  and  C3_3 
REMARK    2  A    between atoms: C2_2  and  C7_7 
REMARK    3  A    between atoms: C7_7  and  C8_8 
ROOT
HETATM    1  C1  UNL     1     -33.669   7.313   5.265  1.00 20.00    -0.029 C 
HETATM    2  C2  UNL     1     -33.118   7.966   4.421  1.00 20.00    -0.098 C 
ENDROOT
BRANCH   2   3
HETATM    3  C7  UNL     1     -32.445   8.766   3.387  1.00 20.00     0.098 C 
BRANCH   3   4
HETATM    4  C8  UNL     1     -31.984   7.944   2.171  1.00 20.00    -0.012 C 
HETATM    5  C5  UNL     1     -32.465   6.493   2.233  1.00 20.00     0.010 C 
HETATM    6  C6  UNL     1     -32.390   8.591   0.844  1.00 20.00     0.010 C 
ENDBRANCH   3   4
ENDBRANCH   2   3
BRANCH   1   7
HETATM    7  C3  UNL     1     -34.337   6.530   6.276  1.00 20.00     0.198 C 
HETATM    8  C4  UNL     1     -34.590   5.090   5.940  1.00 20.00     0.106 C 
HETATM    9  O9  UNL     1     -34.663   7.051   7.334  1.00 20.00    -0.284 OA
ENDBRANCH   1   7
TORSDOF 3
ENDMDL
