MODEL 1
REMARK VINA RESULT:      -4.7      0.000      0.000
REMARK  1 active torsions:
REMARK  status: ('A' for Active; 'I' for Inactive)
REMARK    1  A    between atoms: C2_2  and  C4_4 
ROOT
HETATM    1  C1  UNL     1     -33.273   7.757   5.266  1.00 20.00     0.131 C 
HETATM    2  C3  UNL     1     -34.461   6.183   6.173  1.00 20.00     0.191 C 
HETATM    3  C4  UNL     1     -34.630   6.146   4.668  1.00 20.00     0.219 C 
HETATM    4  C5  UNL     1     -32.360   8.893   4.981  1.00 20.00     0.099 C 
HETATM    5  N7  UNL     1     -33.422   7.193   6.421  1.00 20.00    -0.268 NA
HETATM    6  O9  UNL     1     -33.970   7.307   4.199  1.00 20.00    -0.323 OA
ENDROOT
BRANCH   3   7
HETATM    7  C2  UNL     1     -33.949   4.973   4.039  1.00 20.00     0.153 C 
HETATM    8  C6  UNL     1     -33.137   5.245   2.803  1.00 20.00     0.093 C 
HETATM    9  O8  UNL     1     -34.046   3.841   4.511  1.00 20.00    -0.295 OA
ENDBRANCH   3   7
TORSDOF 1
ENDMDL
MODEL 2
REMARK VINA RESULT:      -3.8      9.287      9.871
REMARK  1 active torsions:
REMARK  status: ('A' for Active; 'I' for Inactive)
REMARK    1  A    between atoms: C2_2  and  C4_4 
ROOT
HETATM    1  C1  UNL     1     -40.884  14.178   7.833  1.00 20.00     0.131 C 
HETATM    2  C3  UNL     1     -41.917  12.642   6.698  1.00 20.00     0.191 C 
HETATM    3  C4  UNL     1     -40.748  13.171   5.893  1.00 20.00     0.219 C 
HETATM    4  C5  UNL     1     -40.416  15.146   8.858  1.00 20.00     0.099 C 
HETATM    5  N7  UNL     1     -41.800  13.283   8.017  1.00 20.00    -0.268 NA
HETATM    6  O9  UNL     1     -40.264  14.274   6.636  1.00 20.00    -0.323 OA
ENDROOT
BRANCH   3   7
HETATM    7  C2  UNL     1     -39.626  12.187   5.791  1.00 20.00     0.153 C 
HETATM    8  C6  UNL     1     -39.252  11.730   4.408  1.00 20.00     0.093 C 
HETATM    9  O8  UNL     1     -39.039  11.773   6.789  1.00 20.00    -0.295 OA
ENDBRANCH   3   7
TORSDOF 1
ENDMDL
MODEL 3
REMARK VINA RESULT:      -3.8      1.729      3.268
REMARK  1 active torsions:
REMARK  status: ('A' for Active; 'I' for Inactive)
REMARK    1  A    between atoms: C2_2  and  C4_4 
ROOT
HETATM    1  C1  UNL     1     -33.048   6.019   3.139  1.00 20.00     0.131 C 
HETATM    2  C3  UNL     1     -32.999   7.951   4.129  1.00 20.00     0.191 C 
HETATM    3  C4  UNL     1     -34.156   7.134   4.665  1.00 20.00     0.219 C 
HETATM    4  C5  UNL     1     -32.788   4.819   2.304  1.00 20.00     0.099 C 
HETATM    5  N7  UNL     1     -32.261   7.041   3.241  1.00 20.00    -0.268 NA
HETATM    6  O9  UNL     1     -34.205   5.986   3.838  1.00 20.00    -0.323 OA
ENDROOT
BRANCH   3   7
HETATM    7  C2  UNL     1     -33.924   6.654   6.063  1.00 20.00     0.153 C 
HETATM    8  C6  UNL     1     -34.657   5.408   6.480  1.00 20.00     0.093 C 
HETATM    9  O8  UNL     1     -33.171   7.248   6.833  1.00 20.00    -0.295 OA
ENDBRANCH   3   7
TORSDOF 1
ENDMDL
MODEL 4
REMARK VINA RESULT:      -3.8      9.577     10.505
REMARK  1 active torsions:
REMARK  status: ('A' for Active; 'I' for Inactive)
REMARK    1  A    between atoms: C2_2  and  C4_4 
ROOT
HETATM    1  C1  UNL     1     -40.293  12.471   5.144  1.00 20.00     0.131 C 
HETATM    2  C3  UNL     1     -41.933  13.820   5.598  1.00 20.00     0.191 C 
HETATM    3  C4  UNL     1     -41.446  13.162   6.873  1.00 20.00     0.219 C 
HETATM    4  C5  UNL     1     -39.217  11.672   4.504  1.00 20.00     0.099 C 
HETATM    5  N7  UNL     1     -40.987  13.392   4.557  1.00 20.00    -0.268 NA
HETATM    6  O9  UNL     1     -40.516  12.184   6.446  1.00 20.00    -0.323 OA
ENDROOT
BRANCH   3   7
HETATM    7  C2  UNL     1     -40.707  14.108   7.764  1.00 20.00     0.153 C 
HETATM    8  C6  UNL     1     -40.788  15.569   7.416  1.00 20.00     0.093 C 
HETATM    9  O8  UNL     1     -40.064  13.711   8.735  1.00 20.00    -0.295 OA
ENDBRANCH   3   7
TORSDOF 1
ENDMDL
MODEL 5
REMARK VINA RESULT:      -3.6     15.583     16.518
REMARK  1 active torsions:
REMARK  status: ('A' for Active; 'I' for Inactive)
REMARK    1  A    between atoms: C2_2  and  C4_4 
ROOT
HETATM    1  C1  UNL     1     -23.543  18.820   9.825  1.00 20.00     0.131 C 
HETATM    2  C3  UNL     1     -22.826  18.294  11.806  1.00 20.00     0.191 C 
HETATM    3  C4  UNL     1     -24.315  18.568  11.859  1.00 20.00     0.219 C 
HETATM    4  C5  UNL     1     -23.697  19.117   8.378  1.00 20.00     0.099 C 
HETATM    5  N7  UNL     1     -22.474  18.347  10.379  1.00 20.00    -0.268 NA
HETATM    6  O9  UNL     1     -24.639  19.070  10.576  1.00 20.00    -0.323 OA
ENDROOT
BRANCH   3   7
HETATM    7  C2  UNL     1     -25.123  17.325  12.058  1.00 20.00     0.153 C 
HETATM    8  C6  UNL     1     -24.381  16.018  11.988  1.00 20.00     0.093 C 
HETATM    9  O8  UNL     1     -26.334  17.369  12.268  1.00 20.00    -0.295 OA
ENDBRANCH   3   7
TORSDOF 1
ENDMDL
MODEL 6
REMARK VINA RESULT:      -3.6     12.829     13.919
REMARK  1 active torsions:
REMARK  status: ('A' for Active; 'I' for Inactive)
REMARK    1  A    between atoms: C2_2  and  C4_4 
ROOT
HETATM    1  C1  UNL     1     -36.611  15.904  -5.610  1.00 20.00     0.131 C 
HETATM    2  C3  UNL     1     -34.839  15.045  -6.524  1.00 20.00     0.191 C 
HETATM    3  C4  UNL     1     -34.431  16.009  -5.428  1.00 20.00     0.219 C 
HETATM    4  C5  UNL     1     -37.992  16.275  -5.208  1.00 20.00     0.099 C 
HETATM    5  N7  UNL     1     -36.304  14.956  -6.434  1.00 20.00    -0.268 NA
HETATM    6  O9  UNL     1     -35.635  16.638  -5.030  1.00 20.00    -0.323 OA
ENDROOT
BRANCH   3   7
HETATM    7  C2  UNL     1     -33.882  15.313  -4.223  1.00 20.00     0.153 C 
HETATM    8  C6  UNL     1     -33.370  16.187  -3.112  1.00 20.00     0.093 C 
HETATM    9  O8  UNL     1     -33.853  14.085  -4.145  1.00 20.00    -0.295 OA
ENDBRANCH   3   7
TORSDOF 1
ENDMDL
MODEL 7
REMARK VINA RESULT:      -3.6      1.420      1.959
REMARK  1 active torsions:
REMARK  status: ('A' for Active; 'I' for Inactive)
REMARK    1  A    between atoms: C2_2  and  C4_4 
ROOT
HETATM    1  C1  UNL     1     -32.779   7.507   3.936  1.00 20.00     0.131 C 
HETATM    2  C3  UNL     1     -33.992   7.666   5.730  1.00 20.00     0.191 C 
HETATM    3  C4  UNL     1     -34.609   6.655   4.785  1.00 20.00     0.219 C 
HETATM    4  C5  UNL     1     -31.742   7.629   2.880  1.00 20.00     0.099 C 
HETATM    5  N7  UNL     1     -32.709   8.038   5.114  1.00 20.00    -0.268 NA
HETATM    6  O9  UNL     1     -33.854   6.763   3.593  1.00 20.00    -0.323 OA
ENDROOT
BRANCH   3   7
HETATM    7  C2  UNL     1     -34.462   5.248   5.270  1.00 20.00     0.153 C 
HETATM    8  C6  UNL     1     -34.443   5.044   6.760  1.00 20.00     0.093 C 
HETATM    9  O8  UNL     1     -34.363   4.304   4.488  1.00 20.00    -0.295 OA
ENDBRANCH   3   7
TORSDOF 1
ENDMDL
MODEL 8
REMARK VINA RESULT:      -3.5     12.484     13.123
REMARK  1 active torsions:
REMARK  status: ('A' for Active; 'I' for Inactive)
REMARK    1  A    between atoms: C2_2  and  C4_4 
ROOT
HETATM    1  C1  UNL     1     -33.772  16.995  -3.004  1.00 20.00     0.131 C 
HETATM    2  C3  UNL     1     -34.484  17.059  -5.054  1.00 20.00     0.191 C 
HETATM    3  C4  UNL     1     -33.760  15.752  -4.807  1.00 20.00     0.219 C 
HETATM    4  C5  UNL     1     -33.450  17.264  -1.579  1.00 20.00     0.099 C 
HETATM    5  N7  UNL     1     -34.551  17.718  -3.741  1.00 20.00    -0.268 NA
HETATM    6  O9  UNL     1     -33.189  15.890  -3.519  1.00 20.00    -0.323 OA
ENDROOT
BRANCH   3   7
HETATM    7  C2  UNL     1     -34.689  14.581  -4.749  1.00 20.00     0.153 C 
HETATM    8  C6  UNL     1     -35.849  14.590  -5.706  1.00 20.00     0.093 C 
HETATM    9  O8  UNL     1     -34.512  13.655  -3.957  1.00 20.00    -0.295 OA
ENDBRANCH   3   7
TORSDOF 1
ENDMDL
MODEL 9
REMARK VINA RESULT:      -3.5     12.751     13.662
REMARK  1 active torsions:
REMARK  status: ('A' for Active; 'I' for Inactive)
REMARK    1  A    between atoms: C2_2  and  C4_4 
ROOT
HETATM    1  C1  UNL     1     -33.374  17.169  -2.669  1.00 20.00     0.131 C 
HETATM    2  C3  UNL     1     -33.475  19.259  -2.091  1.00 20.00     0.191 C 
HETATM    3  C4  UNL     1     -33.319  18.396  -0.855  1.00 20.00     0.219 C 
HETATM    4  C5  UNL     1     -33.324  15.873  -3.392  1.00 20.00     0.099 C 
HETATM    5  N7  UNL     1     -33.343  18.335  -3.227  1.00 20.00    -0.268 NA
HETATM    6  O9  UNL     1     -33.446  17.066  -1.323  1.00 20.00    -0.323 OA
ENDROOT
BRANCH   3   7
HETATM    7  C2  UNL     1     -31.963  18.514  -0.237  1.00 20.00     0.153 C 
HETATM    8  C6  UNL     1     -31.904  18.528   1.266  1.00 20.00     0.093 C 
HETATM    9  O8  UNL     1     -30.945  18.594  -0.923  1.00 20.00    -0.295 OA
ENDBRANCH   3   7
TORSDOF 1
ENDMDL
