MODEL 1
REMARK VINA RESULT:      -4.6      0.000      0.000
REMARK  2 active torsions:
REMARK  status: ('A' for Active; 'I' for Inactive)
REMARK    1  A    between atoms: C1_1  and  C5_5 
REMARK    2  A    between atoms: C5_5  and  C6_6 
ROOT
HETATM    1  C2  UNL     1     -35.176   5.325   6.070  1.00 20.00     0.003 C 
HETATM    2  C3  UNL     1     -35.334   5.832   4.627  1.00 20.00     0.026 C 
HETATM    3  C4  UNL     1     -33.665   5.205   5.811  1.00 20.00     0.026 C 
HETATM    4  C5  UNL     1     -33.821   6.221   4.636  1.00 20.00     0.110 C 
ENDROOT
BRANCH   4   5
HETATM    5  C1  UNL     1     -33.037   5.864   3.342  1.00 20.00     0.249 C 
HETATM    6  O7  UNL     1     -32.465   6.697   2.647  1.00 20.00    -0.306 OA
ENDBRANCH   4   5
BRANCH   4   7
HETATM    7  C6  UNL     1     -33.567   7.673   5.047  1.00 20.00     0.401 C 
HETATM    8  F8  UNL     1     -34.063   7.894   6.272  1.00 20.00    -0.170 F 
HETATM    9  F9  UNL     1     -32.249   7.919   5.057  1.00 20.00    -0.170 F 
HETATM   10  F10 UNL     1     -34.160   8.503   4.178  1.00 20.00    -0.170 F 
ENDBRANCH   4   7
TORSDOF 2
ENDMDL
MODEL 2
REMARK VINA RESULT:      -4.5      1.977      2.811
REMARK  2 active torsions:
REMARK  status: ('A' for Active; 'I' for Inactive)
REMARK    1  A    between atoms: C1_1  and  C5_5 
REMARK    2  A    between atoms: C5_5  and  C6_6 
ROOT
HETATM    1  C2  UNL     1     -34.017   8.376   5.757  1.00 20.00     0.003 C 
HETATM    2  C3  UNL     1     -33.056   7.176   5.809  1.00 20.00     0.026 C 
HETATM    3  C4  UNL     1     -34.266   8.051   4.275  1.00 20.00     0.026 C 
HETATM    4  C5  UNL     1     -33.771   6.596   4.547  1.00 20.00     0.110 C 
ENDROOT
BRANCH   4   5
HETATM    5  C1  UNL     1     -32.826   6.003   3.464  1.00 20.00     0.249 C 
HETATM    6  O7  UNL     1     -33.226   5.380   2.486  1.00 20.00    -0.306 OA
ENDBRANCH   4   5
BRANCH   4   7
HETATM    7  C6  UNL     1     -34.900   5.619   4.881  1.00 20.00     0.401 C 
HETATM    8  F8  UNL     1     -34.553   4.378   4.514  1.00 20.00    -0.170 F 
HETATM    9  F9  UNL     1     -35.140   5.635   6.200  1.00 20.00    -0.170 F 
HETATM   10  F10 UNL     1     -36.016   5.972   4.229  1.00 20.00    -0.170 F 
ENDBRANCH   4   7
TORSDOF 2
ENDMDL
MODEL 3
REMARK VINA RESULT:      -4.5      1.992      2.824
REMARK  2 active torsions:
REMARK  status: ('A' for Active; 'I' for Inactive)
REMARK    1  A    between atoms: C1_1  and  C5_5 
REMARK    2  A    between atoms: C5_5  and  C6_6 
ROOT
HETATM    1  C2  UNL     1     -33.123   8.620   4.542  1.00 20.00     0.003 C 
HETATM    2  C3  UNL     1     -32.563   7.187   4.498  1.00 20.00     0.026 C 
HETATM    3  C4  UNL     1     -34.529   8.024   4.359  1.00 20.00     0.026 C 
HETATM    4  C5  UNL     1     -33.981   6.660   4.886  1.00 20.00     0.110 C 
ENDROOT
BRANCH   4   5
HETATM    5  C1  UNL     1     -34.459   5.406   4.102  1.00 20.00     0.249 C 
HETATM    6  O7  UNL     1     -34.190   4.257   4.436  1.00 20.00    -0.306 OA
ENDBRANCH   4   5
BRANCH   4   7
HETATM    7  C6  UNL     1     -34.170   6.468   6.392  1.00 20.00     0.401 C 
HETATM    8  F8  UNL     1     -35.210   5.653   6.621  1.00 20.00    -0.170 F 
HETATM    9  F9  UNL     1     -33.064   5.929   6.925  1.00 20.00    -0.170 F 
HETATM   10  F10 UNL     1     -34.405   7.651   6.977  1.00 20.00    -0.170 F 
ENDBRANCH   4   7
TORSDOF 2
ENDMDL
MODEL 4
REMARK VINA RESULT:      -4.5      1.996      2.982
REMARK  2 active torsions:
REMARK  status: ('A' for Active; 'I' for Inactive)
REMARK    1  A    between atoms: C1_1  and  C5_5 
REMARK    2  A    between atoms: C5_5  and  C6_6 
ROOT
HETATM    1  C2  UNL     1     -33.130   8.596   4.570  1.00 20.00     0.003 C 
HETATM    2  C3  UNL     1     -32.581   7.159   4.514  1.00 20.00     0.026 C 
HETATM    3  C4  UNL     1     -34.541   8.012   4.385  1.00 20.00     0.026 C 
HETATM    4  C5  UNL     1     -34.003   6.640   4.899  1.00 20.00     0.110 C 
ENDROOT
BRANCH   4   5
HETATM    5  C1  UNL     1     -34.492   5.396   4.106  1.00 20.00     0.249 C 
HETATM    6  O7  UNL     1     -34.166   4.247   4.383  1.00 20.00    -0.306 OA
ENDBRANCH   4   5
BRANCH   4   7
HETATM    7  C6  UNL     1     -34.190   6.438   6.405  1.00 20.00     0.401 C 
HETATM    8  F8  UNL     1     -34.431   7.616   6.997  1.00 20.00    -0.170 F 
HETATM    9  F9  UNL     1     -35.226   5.615   6.628  1.00 20.00    -0.170 F 
HETATM   10  F10 UNL     1     -33.083   5.900   6.934  1.00 20.00    -0.170 F 
ENDBRANCH   4   7
TORSDOF 2
ENDMDL
MODEL 5
REMARK VINA RESULT:      -4.4      1.778      2.216
REMARK  2 active torsions:
REMARK  status: ('A' for Active; 'I' for Inactive)
REMARK    1  A    between atoms: C1_1  and  C5_5 
REMARK    2  A    between atoms: C5_5  and  C6_6 
ROOT
HETATM    1  C2  UNL     1     -34.690   4.803   4.096  1.00 20.00     0.003 C 
HETATM    2  C3  UNL     1     -35.423   6.114   4.430  1.00 20.00     0.026 C 
HETATM    3  C4  UNL     1     -33.372   5.596   4.102  1.00 20.00     0.026 C 
HETATM    4  C5  UNL     1     -34.074   6.689   4.967  1.00 20.00     0.110 C 
ENDROOT
BRANCH   4   5
HETATM    5  C1  UNL     1     -33.769   8.157   4.555  1.00 20.00     0.249 C 
HETATM    6  O7  UNL     1     -32.639   8.635   4.546  1.00 20.00    -0.306 OA
ENDBRANCH   4   5
BRANCH   4   7
HETATM    7  C6  UNL     1     -33.883   6.492   6.472  1.00 20.00     0.401 C 
HETATM    8  F8  UNL     1     -34.003   5.193   6.781  1.00 20.00    -0.170 F 
HETATM    9  F9  UNL     1     -32.665   6.918   6.836  1.00 20.00    -0.170 F 
HETATM   10  F10 UNL     1     -34.809   7.188   7.145  1.00 20.00    -0.170 F 
ENDBRANCH   4   7
TORSDOF 2
ENDMDL
MODEL 6
REMARK VINA RESULT:      -4.1      2.595      3.438
REMARK  2 active torsions:
REMARK  status: ('A' for Active; 'I' for Inactive)
REMARK    1  A    between atoms: C1_1  and  C5_5 
REMARK    2  A    between atoms: C5_5  and  C6_6 
ROOT
HETATM    1  C2  UNL     1     -32.902   8.366   3.212  1.00 20.00     0.003 C 
HETATM    2  C3  UNL     1     -34.086   8.365   4.194  1.00 20.00     0.026 C 
HETATM    3  C4  UNL     1     -32.165   7.421   4.176  1.00 20.00     0.026 C 
HETATM    4  C5  UNL     1     -33.545   7.026   4.788  1.00 20.00     0.110 C 
ENDROOT
BRANCH   4   5
HETATM    5  C1  UNL     1     -33.578   6.928   6.339  1.00 20.00     0.249 C 
HETATM    6  O7  UNL     1     -34.616   6.896   6.993  1.00 20.00    -0.306 OA
ENDBRANCH   4   5
BRANCH   4   7
HETATM    7  C6  UNL     1     -34.163   5.781   4.148  1.00 20.00     0.401 C 
HETATM    8  F8  UNL     1     -33.557   5.520   2.981  1.00 20.00    -0.170 F 
HETATM    9  F9  UNL     1     -34.015   4.728   4.965  1.00 20.00    -0.170 F 
HETATM   10  F10 UNL     1     -35.469   5.982   3.927  1.00 20.00    -0.170 F 
ENDBRANCH   4   7
TORSDOF 2
ENDMDL
MODEL 7
REMARK VINA RESULT:      -4.1      8.945      9.915
REMARK  2 active torsions:
REMARK  status: ('A' for Active; 'I' for Inactive)
REMARK    1  A    between atoms: C1_1  and  C5_5 
REMARK    2  A    between atoms: C5_5  and  C6_6 
ROOT
HETATM    1  C2  UNL     1     -40.868   8.339  -0.236  1.00 20.00     0.003 C 
HETATM    2  C3  UNL     1     -42.362   8.008  -0.400  1.00 20.00     0.026 C 
HETATM    3  C4  UNL     1     -40.918   7.657   1.142  1.00 20.00     0.026 C 
HETATM    4  C5  UNL     1     -42.194   6.888   0.676  1.00 20.00     0.110 C 
ENDROOT
BRANCH   4   5
HETATM    5  C1  UNL     1     -43.336   6.801   1.727  1.00 20.00     0.249 C 
HETATM    6  O7  UNL     1     -43.417   5.909   2.565  1.00 20.00    -0.306 OA
ENDBRANCH   4   5
BRANCH   4   7
HETATM    7  C6  UNL     1     -41.892   5.511   0.081  1.00 20.00     0.401 C 
HETATM    8  F8  UNL     1     -41.576   4.651   1.059  1.00 20.00    -0.170 F 
HETATM    9  F9  UNL     1     -42.969   5.053  -0.575  1.00 20.00    -0.170 F 
HETATM   10  F10 UNL     1     -40.864   5.598  -0.774  1.00 20.00    -0.170 F 
ENDBRANCH   4   7
TORSDOF 2
ENDMDL
MODEL 8
REMARK VINA RESULT:      -4.0      8.993     10.030
REMARK  2 active torsions:
REMARK  status: ('A' for Active; 'I' for Inactive)
REMARK    1  A    between atoms: C1_1  and  C5_5 
REMARK    2  A    between atoms: C5_5  and  C6_6 
ROOT
HETATM    1  C2  UNL     1     -40.966   7.392   0.806  1.00 20.00     0.003 C 
HETATM    2  C3  UNL     1     -40.898   6.128  -0.069  1.00 20.00     0.026 C 
HETATM    3  C4  UNL     1     -42.496   7.357   0.652  1.00 20.00     0.026 C 
HETATM    4  C5  UNL     1     -42.390   5.842   0.294  1.00 20.00     0.110 C 
ENDROOT
BRANCH   4   5
HETATM    5  C1  UNL     1     -43.283   5.377  -0.891  1.00 20.00     0.249 C 
HETATM    6  O7  UNL     1     -42.893   4.620  -1.775  1.00 20.00    -0.306 OA
ENDBRANCH   4   5
BRANCH   4   7
HETATM    7  C6  UNL     1     -42.558   4.916   1.501  1.00 20.00     0.401 C 
HETATM    8  F8  UNL     1     -41.371   4.399   1.847  1.00 20.00    -0.170 F 
HETATM    9  F9  UNL     1     -43.055   5.606   2.538  1.00 20.00    -0.170 F 
HETATM   10  F10 UNL     1     -43.399   3.918   1.197  1.00 20.00    -0.170 F 
ENDBRANCH   4   7
TORSDOF 2
ENDMDL
MODEL 9
REMARK VINA RESULT:      -3.9      2.156      2.773
REMARK  2 active torsions:
REMARK  status: ('A' for Active; 'I' for Inactive)
REMARK    1  A    between atoms: C1_1  and  C5_5 
REMARK    2  A    between atoms: C5_5  and  C6_6 
ROOT
HETATM    1  C2  UNL     1     -34.963   5.291   5.945  1.00 20.00     0.003 C 
HETATM    2  C3  UNL     1     -33.576   5.957   5.948  1.00 20.00     0.026 C 
HETATM    3  C4  UNL     1     -35.369   6.253   4.815  1.00 20.00     0.026 C 
HETATM    4  C5  UNL     1     -33.855   6.460   4.496  1.00 20.00     0.110 C 
ENDROOT
BRANCH   4   5
HETATM    5  C1  UNL     1     -33.433   7.929   4.210  1.00 20.00     0.249 C 
HETATM    6  O7  UNL     1     -32.363   8.407   4.573  1.00 20.00    -0.306 OA
ENDBRANCH   4   5
BRANCH   4   7
HETATM    7  C6  UNL     1     -33.325   5.518   3.412  1.00 20.00     0.401 C 
HETATM    8  F8  UNL     1     -34.027   5.684   2.282  1.00 20.00    -0.170 F 
HETATM    9  F9  UNL     1     -32.034   5.784   3.169  1.00 20.00    -0.170 F 
HETATM   10  F10 UNL     1     -33.442   4.247   3.816  1.00 20.00    -0.170 F 
ENDBRANCH   4   7
TORSDOF 2
ENDMDL
