MODEL 1
REMARK VINA RESULT:      -4.0      0.000      0.000
REMARK  1 active torsions:
REMARK  status: ('A' for Active; 'I' for Inactive)
REMARK    1  A    between atoms: C3_3  and  C7_7 
ROOT
HETATM    1  C1  UNL     1     -42.664  13.082   7.967  1.00 20.00    -0.025 C 
HETATM    2  C2  UNL     1     -42.617  12.822   6.652  1.00 20.00    -0.020 C 
HETATM    3  C4  UNL     1     -40.425  14.128   7.965  1.00 20.00     0.021 C 
HETATM    4  C5  UNL     1     -42.317  15.103   6.896  1.00 20.00     0.022 C 
HETATM    5  C6  UNL     1     -41.932  14.383   8.193  1.00 20.00     0.010 C 
HETATM    6  C7  UNL     1     -40.347  13.865   6.433  1.00 20.00     0.067 C 
HETATM    7  C8  UNL     1     -41.838  13.948   5.999  1.00 20.00    -0.016 C 
HETATM    8  C10 UNL     1     -42.094  14.157   4.523  1.00 20.00     0.020 C 
ENDROOT
BRANCH   6   9
HETATM    9  C3  UNL     1     -39.697  12.552   6.116  1.00 20.00     0.128 C 
HETATM   10  C9  UNL     1     -39.645  12.156   4.665  1.00 20.00     0.091 C 
HETATM   11  O11 UNL     1     -39.227  11.835   6.997  1.00 20.00    -0.298 OA
ENDBRANCH   6   9
TORSDOF 1
ENDMDL
MODEL 2
REMARK VINA RESULT:      -3.9      1.260      2.860
REMARK  1 active torsions:
REMARK  status: ('A' for Active; 'I' for Inactive)
REMARK    1  A    between atoms: C3_3  and  C7_7 
ROOT
HETATM    1  C1  UNL     1     -43.313  13.378   6.320  1.00 20.00    -0.025 C 
HETATM    2  C2  UNL     1     -42.321  12.586   6.753  1.00 20.00    -0.020 C 
HETATM    3  C4  UNL     1     -41.927  15.416   6.495  1.00 20.00     0.021 C 
HETATM    4  C5  UNL     1     -41.523  13.703   4.891  1.00 20.00     0.022 C 
HETATM    5  C6  UNL     1     -42.681  14.489   5.516  1.00 20.00     0.010 C 
HETATM    6  C7  UNL     1     -40.746  14.524   6.976  1.00 20.00     0.067 C 
HETATM    7  C8  UNL     1     -41.019  13.178   6.247  1.00 20.00    -0.016 C 
HETATM    8  C10 UNL     1     -39.852  12.221   6.151  1.00 20.00     0.020 C 
ENDROOT
BRANCH   6   9
HETATM    9  C3  UNL     1     -40.698  14.405   8.469  1.00 20.00     0.128 C 
HETATM   10  C9  UNL     1     -41.657  15.264   9.248  1.00 20.00     0.091 C 
HETATM   11  O11 UNL     1     -39.915  13.641   9.031  1.00 20.00    -0.298 OA
ENDBRANCH   6   9
TORSDOF 1
ENDMDL
MODEL 3
REMARK VINA RESULT:      -3.8      9.515     10.784
REMARK  1 active torsions:
REMARK  status: ('A' for Active; 'I' for Inactive)
REMARK    1  A    between atoms: C3_3  and  C7_7 
ROOT
HETATM    1  C1  UNL     1     -35.819   5.810   4.516  1.00 20.00    -0.025 C 
HETATM    2  C2  UNL     1     -35.220   6.978   4.243  1.00 20.00    -0.020 C 
HETATM    3  C4  UNL     1     -33.669   4.601   4.658  1.00 20.00     0.021 C 
HETATM    4  C5  UNL     1     -34.350   6.233   6.253  1.00 20.00     0.022 C 
HETATM    5  C6  UNL     1     -34.913   5.051   5.456  1.00 20.00     0.010 C 
HETATM    6  C7  UNL     1     -32.939   5.944   4.367  1.00 20.00     0.067 C 
HETATM    7  C8  UNL     1     -33.901   6.994   4.992  1.00 20.00    -0.016 C 
HETATM    8  C10 UNL     1     -33.314   8.361   5.265  1.00 20.00     0.020 C 
ENDROOT
BRANCH   6   9
HETATM    9  C3  UNL     1     -32.689   6.148   2.904  1.00 20.00     0.128 C 
HETATM   10  C9  UNL     1     -33.001   4.989   1.996  1.00 20.00     0.091 C 
HETATM   11  O11 UNL     1     -32.252   7.211   2.465  1.00 20.00    -0.298 OA
ENDBRANCH   6   9
TORSDOF 1
ENDMDL
MODEL 4
REMARK VINA RESULT:      -3.6     20.500     21.825
REMARK  1 active torsions:
REMARK  status: ('A' for Active; 'I' for Inactive)
REMARK    1  A    between atoms: C3_3  and  C7_7 
ROOT
HETATM    1  C1  UNL     1     -27.963  -2.332   9.718  1.00 20.00    -0.025 C 
HETATM    2  C2  UNL     1     -27.396  -1.185  10.118  1.00 20.00    -0.020 C 
HETATM    3  C4  UNL     1     -26.905  -3.632  11.534  1.00 20.00     0.021 C 
HETATM    4  C5  UNL     1     -28.598  -2.002  11.918  1.00 20.00     0.022 C 
HETATM    5  C6  UNL     1     -28.253  -3.145  10.957  1.00 20.00     0.010 C 
HETATM    6  C7  UNL     1     -26.250  -2.315  12.041  1.00 20.00     0.067 C 
HETATM    7  C8  UNL     1     -27.293  -1.237  11.631  1.00 20.00    -0.016 C 
HETATM    8  C10 UNL     1     -27.187   0.099  12.332  1.00 20.00     0.020 C 
ENDROOT
BRANCH   6   9
HETATM    9  C3  UNL     1     -24.889  -2.094  11.452  1.00 20.00     0.128 C 
HETATM   10  C9  UNL     1     -24.420  -3.102  10.438  1.00 20.00     0.091 C 
HETATM   11  O11 UNL     1     -24.191  -1.136  11.780  1.00 20.00    -0.298 OA
ENDBRANCH   6   9
TORSDOF 1
ENDMDL
MODEL 5
REMARK VINA RESULT:      -3.6      9.194     10.612
REMARK  1 active torsions:
REMARK  status: ('A' for Active; 'I' for Inactive)
REMARK    1  A    between atoms: C3_3  and  C7_7 
ROOT
HETATM    1  C1  UNL     1     -35.622   5.941   4.060  1.00 20.00    -0.025 C 
HETATM    2  C2  UNL     1     -35.291   7.058   4.723  1.00 20.00    -0.020 C 
HETATM    3  C4  UNL     1     -33.263   5.253   3.795  1.00 20.00     0.021 C 
HETATM    4  C5  UNL     1     -34.379   5.286   5.898  1.00 20.00     0.022 C 
HETATM    5  C6  UNL     1     -34.616   4.880   4.440  1.00 20.00     0.010 C 
HETATM    6  C7  UNL     1     -32.844   6.528   4.583  1.00 20.00     0.067 C 
HETATM    7  C8  UNL     1     -34.050   6.747   5.539  1.00 20.00    -0.016 C 
HETATM    8  C10 UNL     1     -33.805   7.642   6.733  1.00 20.00     0.020 C 
ENDROOT
BRANCH   6   9
HETATM    9  C3  UNL     1     -32.572   7.691   3.677  1.00 20.00     0.128 C 
HETATM   10  C9  UNL     1     -32.389   7.381   2.216  1.00 20.00     0.091 C 
HETATM   11  O11 UNL     1     -32.503   8.841   4.106  1.00 20.00    -0.298 OA
ENDBRANCH   6   9
TORSDOF 1
ENDMDL
MODEL 6
REMARK VINA RESULT:      -3.5     12.775     13.800
REMARK  1 active torsions:
REMARK  status: ('A' for Active; 'I' for Inactive)
REMARK    1  A    between atoms: C3_3  and  C7_7 
ROOT
HETATM    1  C1  UNL     1     -34.596  15.533  -7.067  1.00 20.00    -0.025 C 
HETATM    2  C2  UNL     1     -34.395  16.673  -6.390  1.00 20.00    -0.020 C 
HETATM    3  C4  UNL     1     -35.090  14.255  -5.010  1.00 20.00     0.021 C 
HETATM    4  C5  UNL     1     -36.529  15.949  -5.866  1.00 20.00     0.022 C 
HETATM    5  C6  UNL     1     -35.678  14.767  -6.344  1.00 20.00     0.010 C 
HETATM    6  C7  UNL     1     -34.890  15.566  -4.195  1.00 20.00     0.067 C 
HETATM    7  C8  UNL     1     -35.339  16.663  -5.201  1.00 20.00    -0.016 C 
HETATM    8  C10 UNL     1     -35.672  18.015  -4.612  1.00 20.00     0.020 C 
ENDROOT
BRANCH   6   9
HETATM    9  C3  UNL     1     -33.479  15.725  -3.716  1.00 20.00     0.128 C 
HETATM   10  C9  UNL     1     -33.247  16.723  -2.613  1.00 20.00     0.091 C 
HETATM   11  O11 UNL     1     -32.556  15.071  -4.197  1.00 20.00    -0.298 OA
ENDBRANCH   6   9
TORSDOF 1
ENDMDL
MODEL 7
REMARK VINA RESULT:      -3.5     19.823     21.077
REMARK  1 active torsions:
REMARK  status: ('A' for Active; 'I' for Inactive)
REMARK    1  A    between atoms: C3_3  and  C7_7 
ROOT
HETATM    1  C1  UNL     1     -27.669  -0.516  10.061  1.00 20.00    -0.025 C 
HETATM    2  C2  UNL     1     -27.580  -1.825   9.782  1.00 20.00    -0.020 C 
HETATM    3  C4  UNL     1     -28.556  -0.937  12.330  1.00 20.00     0.021 C 
HETATM    4  C5  UNL     1     -26.322  -1.459  11.689  1.00 20.00     0.022 C 
HETATM    5  C6  UNL     1     -27.369  -0.351  11.532  1.00 20.00     0.010 C 
HETATM    6  C7  UNL     1     -28.441  -2.463  12.049  1.00 20.00     0.067 C 
HETATM    7  C8  UNL     1     -27.231  -2.538  11.075  1.00 20.00    -0.016 C 
HETATM    8  C10 UNL     1     -26.577  -3.894  10.925  1.00 20.00     0.020 C 
ENDROOT
BRANCH   6   9
HETATM    9  C3  UNL     1     -29.708  -3.032  11.486  1.00 20.00     0.128 C 
HETATM   10  C9  UNL     1     -29.809  -4.533  11.429  1.00 20.00     0.091 C 
HETATM   11  O11 UNL     1     -30.621  -2.309  11.091  1.00 20.00    -0.298 OA
ENDBRANCH   6   9
TORSDOF 1
ENDMDL
MODEL 8
REMARK VINA RESULT:      -3.5     12.828     13.957
REMARK  1 active torsions:
REMARK  status: ('A' for Active; 'I' for Inactive)
REMARK    1  A    between atoms: C3_3  and  C7_7 
ROOT
HETATM    1  C1  UNL     1     -34.533  17.617  -5.523  1.00 20.00    -0.025 C 
HETATM    2  C2  UNL     1     -35.642  17.207  -4.890  1.00 20.00    -0.020 C 
HETATM    3  C4  UNL     1     -34.380  15.541  -6.856  1.00 20.00     0.021 C 
HETATM    4  C5  UNL     1     -36.106  17.154  -7.155  1.00 20.00     0.022 C 
HETATM    5  C6  UNL     1     -34.593  17.070  -6.930  1.00 20.00     0.010 C 
HETATM    6  C7  UNL     1     -35.679  15.044  -6.158  1.00 20.00     0.067 C 
HETATM    7  C8  UNL     1     -36.439  16.370  -5.873  1.00 20.00    -0.016 C 
HETATM    8  C10 UNL     1     -37.918  16.245  -5.584  1.00 20.00     0.020 C 
ENDROOT
BRANCH   6   9
HETATM    9  C3  UNL     1     -35.389  14.237  -4.929  1.00 20.00     0.128 C 
HETATM   10  C9  UNL     1     -34.023  14.399  -4.320  1.00 20.00     0.091 C 
HETATM   11  O11 UNL     1     -36.226  13.480  -4.442  1.00 20.00    -0.298 OA
ENDBRANCH   6   9
TORSDOF 1
ENDMDL
MODEL 9
REMARK VINA RESULT:      -3.4     12.564     13.850
REMARK  1 active torsions:
REMARK  status: ('A' for Active; 'I' for Inactive)
REMARK    1  A    between atoms: C3_3  and  C7_7 
ROOT
HETATM    1  C1  UNL     1     -36.782  15.467  -5.276  1.00 20.00    -0.025 C 
HETATM    2  C2  UNL     1     -35.708  14.803  -5.728  1.00 20.00    -0.020 C 
HETATM    3  C4  UNL     1     -35.437  17.427  -4.601  1.00 20.00     0.021 C 
HETATM    4  C5  UNL     1     -35.786  16.811  -6.874  1.00 20.00     0.022 C 
HETATM    5  C6  UNL     1     -36.550  16.933  -5.552  1.00 20.00     0.010 C 
HETATM    6  C7  UNL     1     -34.173  16.696  -5.138  1.00 20.00     0.067 C 
HETATM    7  C8  UNL     1     -34.748  15.832  -6.295  1.00 20.00    -0.016 C 
HETATM    8  C10 UNL     1     -33.748  15.314  -7.305  1.00 20.00     0.020 C 
ENDROOT
BRANCH   6   9
HETATM    9  C3  UNL     1     -33.484  15.899  -4.072  1.00 20.00     0.128 C 
HETATM   10  C9  UNL     1     -33.607  16.407  -2.661  1.00 20.00     0.091 C 
HETATM   11  O11 UNL     1     -32.850  14.879  -4.337  1.00 20.00    -0.298 OA
ENDBRANCH   6   9
TORSDOF 1
ENDMDL
