MODEL 1
REMARK VINA RESULT:      -3.8      0.000      0.000
REMARK  1 active torsions:
REMARK  status: ('A' for Active; 'I' for Inactive)
REMARK    1  A    between atoms: C6_6  and  N7_7 
ROOT
HETATM    1  C1  UNL     1     -33.773   7.299   5.807  1.00 20.00     0.284 C 
HETATM    2  C2  UNL     1     -34.288   5.982   6.367  1.00 20.00     0.106 C 
HETATM    3  C3  UNL     1     -33.864   6.107   3.764  1.00 20.00     0.280 C 
HETATM    4  C4  UNL     1     -33.029   5.198   2.869  1.00 20.00     0.055 C 
HETATM    5  N7  UNL     1     -33.014   6.977   4.592  1.00 20.00     0.102 N 
HETATM    6  S8  UNL     1     -34.861   5.086   4.907  1.00 20.00    -0.132 SA
ENDROOT
BRANCH   5   7
HETATM    7  C6  UNL     1     -32.601   8.189   3.890  1.00 20.00     0.269 C 
HETATM    8  C5  UNL     1     -32.184   9.250   4.851  1.00 20.00     0.037 C 
ENDBRANCH   5   7
TORSDOF 1
ENDMDL
MODEL 2
REMARK VINA RESULT:      -3.5      1.579      3.431
REMARK  1 active torsions:
REMARK  status: ('A' for Active; 'I' for Inactive)
REMARK    1  A    between atoms: C6_6  and  N7_7 
ROOT
HETATM    1  C1  UNL     1     -33.765   5.649   3.850  1.00 20.00     0.284 C 
HETATM    2  C2  UNL     1     -32.737   5.714   2.729  1.00 20.00     0.106 C 
HETATM    3  C3  UNL     1     -33.153   7.920   4.121  1.00 20.00     0.280 C 
HETATM    4  C4  UNL     1     -32.156   8.813   4.850  1.00 20.00     0.055 C 
HETATM    5  N7  UNL     1     -33.375   6.657   4.844  1.00 20.00     0.102 N 
HETATM    6  S8  UNL     1     -32.489   7.485   2.474  1.00 20.00    -0.132 SA
ENDROOT
BRANCH   5   7
HETATM    7  C6  UNL     1     -34.382   6.782   5.893  1.00 20.00     0.269 C 
HETATM    8  C5  UNL     1     -34.715   5.452   6.478  1.00 20.00     0.037 C 
ENDBRANCH   5   7
TORSDOF 1
ENDMDL
MODEL 3
REMARK VINA RESULT:      -3.4      1.743      2.972
REMARK  1 active torsions:
REMARK  status: ('A' for Active; 'I' for Inactive)
REMARK    1  A    between atoms: C6_6  and  N7_7 
ROOT
HETATM    1  C1  UNL     1     -33.913   7.394   5.136  1.00 20.00     0.284 C 
HETATM    2  C2  UNL     1     -33.294   8.471   4.258  1.00 20.00     0.106 C 
HETATM    3  C3  UNL     1     -32.848   5.957   3.586  1.00 20.00     0.280 C 
HETATM    4  C4  UNL     1     -33.075   5.250   2.255  1.00 20.00     0.055 C 
HETATM    5  N7  UNL     1     -34.117   6.215   4.283  1.00 20.00     0.102 N 
HETATM    6  S8  UNL     1     -32.060   7.579   3.286  1.00 20.00    -0.132 SA
ENDROOT
BRANCH   5   7
HETATM    7  C6  UNL     1     -34.570   5.069   5.066  1.00 20.00     0.269 C 
HETATM    8  C5  UNL     1     -34.605   5.393   6.521  1.00 20.00     0.037 C 
ENDBRANCH   5   7
TORSDOF 1
ENDMDL
MODEL 4
REMARK VINA RESULT:      -3.3      1.367      2.495
REMARK  1 active torsions:
REMARK  status: ('A' for Active; 'I' for Inactive)
REMARK    1  A    between atoms: C6_6  and  N7_7 
ROOT
HETATM    1  C1  UNL     1     -33.678   5.462   3.799  1.00 20.00     0.284 C 
HETATM    2  C2  UNL     1     -34.854   5.229   4.737  1.00 20.00     0.106 C 
HETATM    3  C3  UNL     1     -33.234   7.236   5.302  1.00 20.00     0.280 C 
HETATM    4  C4  UNL     1     -33.555   8.705   5.550  1.00 20.00     0.055 C 
HETATM    5  N7  UNL     1     -33.349   6.892   3.877  1.00 20.00     0.102 N 
HETATM    6  S8  UNL     1     -34.432   6.191   6.206  1.00 20.00    -0.132 SA
ENDROOT
BRANCH   5   7
HETATM    7  C6  UNL     1     -32.134   7.195   3.127  1.00 20.00     0.269 C 
HETATM    8  C5  UNL     1     -32.421   8.117   1.991  1.00 20.00     0.037 C 
ENDBRANCH   5   7
TORSDOF 1
ENDMDL
MODEL 5
REMARK VINA RESULT:      -3.3     16.176     16.861
REMARK  1 active torsions:
REMARK  status: ('A' for Active; 'I' for Inactive)
REMARK    1  A    between atoms: C6_6  and  N7_7 
ROOT
HETATM    1  C1  UNL     1     -23.705  19.017   8.982  1.00 20.00     0.284 C 
HETATM    2  C2  UNL     1     -24.979  19.243   9.783  1.00 20.00     0.106 C 
HETATM    3  C3  UNL     1     -22.964  18.065  11.018  1.00 20.00     0.280 C 
HETATM    4  C4  UNL     1     -22.283  18.427  12.332  1.00 20.00     0.055 C 
HETATM    5  N7  UNL     1     -22.596  18.999   9.943  1.00 20.00     0.102 N 
HETATM    6  S8  UNL     1     -24.778  18.173  11.224  1.00 20.00    -0.132 SA
ENDROOT
BRANCH   5   7
HETATM    7  C6  UNL     1     -21.339  18.638   9.293  1.00 20.00     0.269 C 
HETATM    8  C5  UNL     1     -21.586  17.904   8.019  1.00 20.00     0.037 C 
ENDBRANCH   5   7
TORSDOF 1
ENDMDL
MODEL 6
REMARK VINA RESULT:      -3.3      1.511      3.342
REMARK  1 active torsions:
REMARK  status: ('A' for Active; 'I' for Inactive)
REMARK    1  A    between atoms: C6_6  and  N7_7 
ROOT
HETATM    1  C1  UNL     1     -32.587   7.318   3.491  1.00 20.00     0.284 C 
HETATM    2  C2  UNL     1     -32.206   8.432   4.455  1.00 20.00     0.106 C 
HETATM    3  C3  UNL     1     -34.226   6.875   5.140  1.00 20.00     0.280 C 
HETATM    4  C4  UNL     1     -34.452   6.082   6.422  1.00 20.00     0.055 C 
HETATM    5  N7  UNL     1     -33.197   6.250   4.294  1.00 20.00     0.102 N 
HETATM    6  S8  UNL     1     -33.629   8.552   5.560  1.00 20.00    -0.132 SA
ENDROOT
BRANCH   5   7
HETATM    7  C6  UNL     1     -33.737   5.193   3.444  1.00 20.00     0.269 C 
HETATM    8  C5  UNL     1     -32.891   4.994   2.233  1.00 20.00     0.037 C 
ENDBRANCH   5   7
TORSDOF 1
ENDMDL
MODEL 7
REMARK VINA RESULT:      -3.0     15.755     16.361
REMARK  1 active torsions:
REMARK  status: ('A' for Active; 'I' for Inactive)
REMARK    1  A    between atoms: C6_6  and  N7_7 
ROOT
HETATM    1  C1  UNL     1     -24.985  18.862  10.520  1.00 20.00     0.284 C 
HETATM    2  C2  UNL     1     -25.284  19.157   9.058  1.00 20.00     0.106 C 
HETATM    3  C3  UNL     1     -22.869  18.264   9.643  1.00 20.00     0.280 C 
HETATM    4  C4  UNL     1     -22.103  17.080   9.065  1.00 20.00     0.055 C 
HETATM    5  N7  UNL     1     -23.948  17.822  10.541  1.00 20.00     0.102 N 
HETATM    6  S8  UNL     1     -23.653  19.203   8.284  1.00 20.00    -0.132 SA
ENDROOT
BRANCH   5   7
HETATM    7  C6  UNL     1     -23.478  17.571  11.900  1.00 20.00     0.269 C 
HETATM    8  C5  UNL     1     -22.471  18.589  12.317  1.00 20.00     0.037 C 
ENDBRANCH   5   7
TORSDOF 1
ENDMDL
MODEL 8
REMARK VINA RESULT:      -3.0      1.512      2.723
REMARK  1 active torsions:
REMARK  status: ('A' for Active; 'I' for Inactive)
REMARK    1  A    between atoms: C6_6  and  N7_7 
ROOT
HETATM    1  C1  UNL     1     -32.285   7.787   3.763  1.00 20.00     0.284 C 
HETATM    2  C2  UNL     1     -32.236   7.002   2.461  1.00 20.00     0.106 C 
HETATM    3  C3  UNL     1     -33.843   6.106   4.356  1.00 20.00     0.280 C 
HETATM    4  C4  UNL     1     -35.329   5.775   4.295  1.00 20.00     0.055 C 
HETATM    5  N7  UNL     1     -33.613   7.559   4.347  1.00 20.00     0.102 N 
HETATM    6  S8  UNL     1     -33.006   5.423   2.880  1.00 20.00    -0.132 SA
ENDROOT
BRANCH   5   7
HETATM    7  C6  UNL     1     -33.713   8.150   5.679  1.00 20.00     0.269 C 
HETATM    8  C5  UNL     1     -34.004   7.110   6.707  1.00 20.00     0.037 C 
ENDBRANCH   5   7
TORSDOF 1
ENDMDL
MODEL 9
REMARK VINA RESULT:      -2.8     12.551     13.533
REMARK  1 active torsions:
REMARK  status: ('A' for Active; 'I' for Inactive)
REMARK    1  A    between atoms: C6_6  and  N7_7 
ROOT
HETATM    1  C1  UNL     1     -34.938  17.829  -5.011  1.00 20.00     0.284 C 
HETATM    2  C2  UNL     1     -35.989  17.162  -5.887  1.00 20.00     0.106 C 
HETATM    3  C3  UNL     1     -34.032  15.642  -4.972  1.00 20.00     0.280 C 
HETATM    4  C4  UNL     1     -34.099  14.331  -4.198  1.00 20.00     0.055 C 
HETATM    5  N7  UNL     1     -34.399  16.788  -4.126  1.00 20.00     0.102 N 
HETATM    6  S8  UNL     1     -35.226  15.593  -6.356  1.00 20.00    -0.132 SA
ENDROOT
BRANCH   5   7
HETATM    7  C6  UNL     1     -33.274  17.291  -3.344  1.00 20.00     0.269 C 
HETATM    8  C5  UNL     1     -33.510  17.108  -1.883  1.00 20.00     0.037 C 
ENDBRANCH   5   7
TORSDOF 1
ENDMDL
