MODEL 1
REMARK VINA RESULT:      -5.3      0.000      0.000
REMARK  2 active torsions:
REMARK  status: ('A' for Active; 'I' for Inactive)
REMARK    1  A    between atoms: C2_2  and  C5_5 
REMARK    2  A    between atoms: C4_4  and  C8_8 
ROOT
HETATM    1  C1  UNL     1     -33.211   7.893   5.624  1.00 20.00    -0.015 C 
HETATM    2  C2  UNL     1     -33.804   7.081   4.744  1.00 20.00    -0.009 C 
HETATM    3  C6  UNL     1     -32.250   8.809   4.941  1.00 20.00     0.028 C 
HETATM    4  C7  UNL     1     -32.630   8.661   3.463  1.00 20.00     0.017 C 
HETATM    5  C8  UNL     1     -33.357   7.310   3.337  1.00 20.00     0.044 C 
ENDROOT
BRANCH   2   6
HETATM    6  C5  UNL     1     -34.795   6.092   5.135  1.00 20.00     0.152 C 
HETATM    7  C9  UNL     1     -34.614   5.374   6.454  1.00 20.00     0.096 C 
HETATM    8  O10 UNL     1     -35.763   5.834   4.407  1.00 20.00    -0.293 OA
ENDBRANCH   2   6
BRANCH   5   9
HETATM    9  C4  UNL     1     -32.454   6.228   2.835  1.00 20.00    -0.027 C 
HETATM   10  C3  UNL     1     -32.866   4.996   2.521  1.00 20.00     0.007 C 
ENDBRANCH   5   9
TORSDOF 2
ENDMDL
MODEL 2
REMARK VINA RESULT:      -4.6      1.740      3.880
REMARK  2 active torsions:
REMARK  status: ('A' for Active; 'I' for Inactive)
REMARK    1  A    between atoms: C2_2  and  C5_5 
REMARK    2  A    between atoms: C4_4  and  C8_8 
ROOT
HETATM    1  C1  UNL     1     -32.577   6.305   3.090  1.00 20.00    -0.015 C 
HETATM    2  C2  UNL     1     -33.142   7.234   3.866  1.00 20.00    -0.009 C 
HETATM    3  C6  UNL     1     -33.302   5.004   3.202  1.00 20.00     0.028 C 
HETATM    4  C7  UNL     1     -34.609   5.402   3.896  1.00 20.00     0.017 C 
HETATM    5  C8  UNL     1     -34.329   6.730   4.621  1.00 20.00     0.044 C 
ENDROOT
BRANCH   2   6
HETATM    6  C5  UNL     1     -32.645   8.598   3.943  1.00 20.00     0.152 C 
HETATM    7  C9  UNL     1     -32.691   9.453   2.697  1.00 20.00     0.096 C 
HETATM    8  O10 UNL     1     -32.187   9.053   5.001  1.00 20.00    -0.293 OA
ENDBRANCH   2   6
BRANCH   5   9
HETATM    9  C4  UNL     1     -34.046   6.529   6.076  1.00 20.00    -0.027 C 
HETATM   10  C3  UNL     1     -34.350   5.415   6.750  1.00 20.00     0.007 C 
ENDBRANCH   5   9
TORSDOF 2
ENDMDL
MODEL 3
REMARK VINA RESULT:      -4.5      1.720      3.144
REMARK  2 active torsions:
REMARK  status: ('A' for Active; 'I' for Inactive)
REMARK    1  A    between atoms: C2_2  and  C5_5 
REMARK    2  A    between atoms: C4_4  and  C8_8 
ROOT
HETATM    1  C1  UNL     1     -33.263   8.262   4.600  1.00 20.00    -0.015 C 
HETATM    2  C2  UNL     1     -33.248   6.983   4.212  1.00 20.00    -0.009 C 
HETATM    3  C6  UNL     1     -33.878   8.401   5.953  1.00 20.00     0.028 C 
HETATM    4  C7  UNL     1     -33.902   6.956   6.466  1.00 20.00     0.017 C 
HETATM    5  C8  UNL     1     -33.837   6.053   5.222  1.00 20.00     0.044 C 
ENDROOT
BRANCH   2   6
HETATM    6  C5  UNL     1     -32.694   6.559   2.936  1.00 20.00     0.152 C 
HETATM    7  C9  UNL     1     -32.818   5.103   2.546  1.00 20.00     0.096 C 
HETATM    8  O10 UNL     1     -32.127   7.365   2.185  1.00 20.00    -0.293 OA
ENDBRANCH   2   6
BRANCH   5   9
HETATM    9  C4  UNL     1     -35.186   5.546   4.822  1.00 20.00    -0.027 C 
HETATM   10  C3  UNL     1     -36.038   6.220   4.044  1.00 20.00     0.007 C 
ENDBRANCH   5   9
TORSDOF 2
ENDMDL
MODEL 4
REMARK VINA RESULT:      -4.4      1.514      3.673
REMARK  2 active torsions:
REMARK  status: ('A' for Active; 'I' for Inactive)
REMARK    1  A    between atoms: C2_2  and  C5_5 
REMARK    2  A    between atoms: C4_4  and  C8_8 
ROOT
HETATM    1  C1  UNL     1     -33.937   4.659   4.727  1.00 20.00    -0.015 C 
HETATM    2  C2  UNL     1     -33.611   5.772   4.065  1.00 20.00    -0.009 C 
HETATM    3  C6  UNL     1     -34.618   4.984   6.015  1.00 20.00     0.028 C 
HETATM    4  C7  UNL     1     -34.971   6.467   5.848  1.00 20.00     0.017 C 
HETATM    5  C8  UNL     1     -34.015   7.022   4.777  1.00 20.00     0.044 C 
ENDROOT
BRANCH   2   6
HETATM    6  C5  UNL     1     -32.945   5.748   2.772  1.00 20.00     0.152 C 
HETATM    7  C9  UNL     1     -32.346   7.034   2.248  1.00 20.00     0.096 C 
HETATM    8  O10 UNL     1     -32.873   4.704   2.109  1.00 20.00    -0.293 OA
ENDBRANCH   2   6
BRANCH   5   9
HETATM    9  C4  UNL     1     -32.852   7.745   5.380  1.00 20.00    -0.027 C 
HETATM   10  C3  UNL     1     -32.487   8.985   5.042  1.00 20.00     0.007 C 
ENDBRANCH   5   9
TORSDOF 2
ENDMDL
MODEL 5
REMARK VINA RESULT:      -4.4      1.319      2.867
REMARK  2 active torsions:
REMARK  status: ('A' for Active; 'I' for Inactive)
REMARK    1  A    between atoms: C2_2  and  C5_5 
REMARK    2  A    between atoms: C4_4  and  C8_8 
ROOT
HETATM    1  C1  UNL     1     -34.157   5.886   6.109  1.00 20.00    -0.015 C 
HETATM    2  C2  UNL     1     -33.874   6.072   4.817  1.00 20.00    -0.009 C 
HETATM    3  C6  UNL     1     -34.298   7.193   6.818  1.00 20.00     0.028 C 
HETATM    4  C7  UNL     1     -34.411   8.195   5.663  1.00 20.00     0.017 C 
HETATM    5  C8  UNL     1     -33.783   7.514   4.435  1.00 20.00     0.044 C 
ENDROOT
BRANCH   2   6
HETATM    6  C5  UNL     1     -33.694   4.969   3.887  1.00 20.00     0.152 C 
HETATM    7  C9  UNL     1     -33.021   5.246   2.562  1.00 20.00     0.096 C 
HETATM    8  O10 UNL     1     -34.086   3.827   4.167  1.00 20.00    -0.293 OA
ENDBRANCH   2   6
BRANCH   5   9
HETATM    9  C4  UNL     1     -32.375   7.961   4.200  1.00 20.00    -0.027 C 
HETATM   10  C3  UNL     1     -31.863   9.101   4.676  1.00 20.00     0.007 C 
ENDBRANCH   5   9
TORSDOF 2
ENDMDL
MODEL 6
REMARK VINA RESULT:      -4.0      1.418      2.688
REMARK  2 active torsions:
REMARK  status: ('A' for Active; 'I' for Inactive)
REMARK    1  A    between atoms: C2_2  and  C5_5 
REMARK    2  A    between atoms: C4_4  and  C8_8 
ROOT
HETATM    1  C1  UNL     1     -33.793   5.597   3.694  1.00 20.00    -0.015 C 
HETATM    2  C2  UNL     1     -33.480   6.646   4.459  1.00 20.00    -0.009 C 
HETATM    3  C6  UNL     1     -33.037   5.632   2.407  1.00 20.00     0.028 C 
HETATM    4  C7  UNL     1     -31.951   6.679   2.677  1.00 20.00     0.017 C 
HETATM    5  C8  UNL     1     -32.471   7.553   3.833  1.00 20.00     0.044 C 
ENDROOT
BRANCH   2   6
HETATM    6  C5  UNL     1     -34.062   6.857   5.775  1.00 20.00     0.152 C 
HETATM    7  C9  UNL     1     -34.700   5.680   6.478  1.00 20.00     0.096 C 
HETATM    8  O10 UNL     1     -34.044   7.975   6.310  1.00 20.00    -0.293 OA
ENDBRANCH   2   6
BRANCH   5   9
HETATM    9  C4  UNL     1     -33.070   8.834   3.346  1.00 20.00    -0.027 C 
HETATM   10  C3  UNL     1     -32.849   9.349   2.132  1.00 20.00     0.007 C 
ENDBRANCH   5   9
TORSDOF 2
ENDMDL
MODEL 7
REMARK VINA RESULT:      -3.9      1.580      2.866
REMARK  2 active torsions:
REMARK  status: ('A' for Active; 'I' for Inactive)
REMARK    1  A    between atoms: C2_2  and  C5_5 
REMARK    2  A    between atoms: C4_4  and  C8_8 
ROOT
HETATM    1  C1  UNL     1     -32.775   7.740   2.578  1.00 20.00    -0.015 C 
HETATM    2  C2  UNL     1     -32.938   6.833   3.547  1.00 20.00    -0.009 C 
HETATM    3  C6  UNL     1     -32.499   9.090   3.153  1.00 20.00     0.028 C 
HETATM    4  C7  UNL     1     -32.165   8.776   4.616  1.00 20.00     0.017 C 
HETATM    5  C8  UNL     1     -32.797   7.406   4.919  1.00 20.00     0.044 C 
ENDROOT
BRANCH   2   6
HETATM    6  C5  UNL     1     -33.208   5.432   3.270  1.00 20.00     0.152 C 
HETATM    7  C9  UNL     1     -34.103   4.670   4.222  1.00 20.00     0.096 C 
HETATM    8  O10 UNL     1     -32.716   4.868   2.283  1.00 20.00    -0.293 OA
ENDBRANCH   2   6
BRANCH   5   9
HETATM    9  C4  UNL     1     -34.107   7.534   5.629  1.00 20.00    -0.027 C 
HETATM   10  C3  UNL     1     -34.437   6.839   6.723  1.00 20.00     0.007 C 
ENDBRANCH   5   9
TORSDOF 2
ENDMDL
MODEL 8
REMARK VINA RESULT:      -3.9     11.830     13.034
REMARK  2 active torsions:
REMARK  status: ('A' for Active; 'I' for Inactive)
REMARK    1  A    between atoms: C2_2  and  C5_5 
REMARK    2  A    between atoms: C4_4  and  C8_8 
ROOT
HETATM    1  C1  UNL     1     -34.997  17.194  -4.987  1.00 20.00    -0.015 C 
HETATM    2  C2  UNL     1     -34.217  16.290  -4.388  1.00 20.00    -0.009 C 
HETATM    3  C6  UNL     1     -34.639  18.577  -4.555  1.00 20.00     0.028 C 
HETATM    4  C7  UNL     1     -33.279  18.380  -3.876  1.00 20.00     0.017 C 
HETATM    5  C8  UNL     1     -33.210  16.898  -3.467  1.00 20.00     0.044 C 
ENDROOT
BRANCH   2   6
HETATM    6  C5  UNL     1     -34.341  14.862  -4.634  1.00 20.00     0.152 C 
HETATM    7  C9  UNL     1     -35.608  14.350  -5.280  1.00 20.00     0.096 C 
HETATM    8  O10 UNL     1     -33.436  14.078  -4.317  1.00 20.00    -0.293 OA
ENDBRANCH   2   6
BRANCH   5   9
HETATM    9  C4  UNL     1     -33.549  16.694  -2.024  1.00 20.00    -0.027 C 
HETATM   10  C3  UNL     1     -33.541  17.669  -1.109  1.00 20.00     0.007 C 
ENDBRANCH   5   9
TORSDOF 2
ENDMDL
MODEL 9
REMARK VINA RESULT:      -3.9     15.263     16.577
REMARK  2 active torsions:
REMARK  status: ('A' for Active; 'I' for Inactive)
REMARK    1  A    between atoms: C2_2  and  C5_5 
REMARK    2  A    between atoms: C4_4  and  C8_8 
ROOT
HETATM    1  C1  UNL     1     -25.267  19.262   9.997  1.00 20.00    -0.015 C 
HETATM    2  C2  UNL     1     -24.006  18.840  10.130  1.00 20.00    -0.009 C 
HETATM    3  C6  UNL     1     -25.998  19.175  11.296  1.00 20.00     0.028 C 
HETATM    4  C7  UNL     1     -24.867  18.970  12.310  1.00 20.00     0.017 C 
HETATM    5  C8  UNL     1     -23.673  18.405  11.520  1.00 20.00     0.044 C 
ENDROOT
BRANCH   2   6
HETATM    6  C5  UNL     1     -23.064  18.826   9.023  1.00 20.00     0.152 C 
HETATM    7  C9  UNL     1     -21.585  18.888   9.335  1.00 20.00     0.096 C 
HETATM    8  O10 UNL     1     -23.457  18.773   7.849  1.00 20.00    -0.293 OA
ENDBRANCH   2   6
BRANCH   5   9
HETATM    9  C4  UNL     1     -23.564  16.919  11.651  1.00 20.00    -0.027 C 
HETATM   10  C3  UNL     1     -24.595  16.114  11.925  1.00 20.00     0.007 C 
ENDBRANCH   5   9
TORSDOF 2
ENDMDL
