MODEL 1
REMARK VINA RESULT:      -5.2      0.000      0.000
REMARK  0 active torsions:
REMARK  status: ('A' for Active; 'I' for Inactive)
ROOT
HETATM    1  C1  UNL     1     -33.732   7.799   6.251  1.00 20.00     0.041 A 
HETATM    2  C2  UNL     1     -34.133   6.524   5.751  1.00 20.00    -0.008 A 
HETATM    3  C3  UNL     1     -33.058   8.314   5.193  1.00 20.00     0.041 A 
HETATM    4  C4  UNL     1     -33.685   6.362   4.458  1.00 20.00     0.064 A 
HETATM    5  C5  UNL     1     -32.301   9.247   4.415  1.00 20.00     0.047 A 
HETATM    6  C6  UNL     1     -34.082   5.104   3.968  1.00 20.00     0.141 A 
HETATM    7  C7  UNL     1     -32.320   8.337   3.399  1.00 20.00     0.100 A 
HETATM    8  C8  UNL     1     -34.863   5.301   6.122  1.00 20.00     0.189 A 
HETATM    9  N9  UNL     1     -34.763   4.431   4.860  1.00 20.00    -0.295 NA
HETATM   10  N10 UNL     1     -33.038   7.476   4.165  1.00 20.00    -0.320 N 
ENDROOT
TORSDOF 0
ENDMDL
MODEL 2
REMARK VINA RESULT:      -5.0      0.981      3.457
REMARK  0 active torsions:
REMARK  status: ('A' for Active; 'I' for Inactive)
ROOT
HETATM    1  C1  UNL     1     -33.859   7.533   6.392  1.00 20.00     0.041 A 
HETATM    2  C2  UNL     1     -33.132   7.965   5.243  1.00 20.00    -0.008 A 
HETATM    3  C3  UNL     1     -34.323   6.323   5.990  1.00 20.00     0.041 A 
HETATM    4  C4  UNL     1     -33.204   7.010   4.251  1.00 20.00     0.064 A 
HETATM    5  C5  UNL     1     -35.008   5.068   6.045  1.00 20.00     0.047 A 
HETATM    6  C6  UNL     1     -32.487   7.439   3.120  1.00 20.00     0.141 A 
HETATM    7  C7  UNL     1     -34.578   4.835   4.772  1.00 20.00     0.100 A 
HETATM    8  C8  UNL     1     -32.320   9.078   4.725  1.00 20.00     0.189 A 
HETATM    9  N9  UNL     1     -31.948   8.617   3.307  1.00 20.00    -0.295 NA
HETATM   10  N10 UNL     1     -33.938   6.033   4.754  1.00 20.00    -0.320 N 
ENDROOT
TORSDOF 0
ENDMDL
MODEL 3
REMARK VINA RESULT:      -4.7      1.136      2.154
REMARK  0 active torsions:
REMARK  status: ('A' for Active; 'I' for Inactive)
ROOT
HETATM    1  C1  UNL     1     -33.285   5.561   3.075  1.00 20.00     0.041 A 
HETATM    2  C2  UNL     1     -33.865   5.637   4.376  1.00 20.00    -0.008 A 
HETATM    3  C3  UNL     1     -32.745   6.797   2.937  1.00 20.00     0.041 A 
HETATM    4  C4  UNL     1     -33.641   6.883   4.921  1.00 20.00     0.064 A 
HETATM    5  C5  UNL     1     -32.043   7.891   2.337  1.00 20.00     0.047 A 
HETATM    6  C6  UNL     1     -34.214   6.956   6.203  1.00 20.00     0.141 A 
HETATM    7  C7  UNL     1     -32.297   8.609   3.469  1.00 20.00     0.100 A 
HETATM    8  C8  UNL     1     -34.628   4.856   5.363  1.00 20.00     0.189 A 
HETATM    9  N9  UNL     1     -34.801   5.834   6.535  1.00 20.00    -0.295 NA
HETATM   10  N10 UNL     1     -32.957   7.550   4.008  1.00 20.00    -0.320 N 
ENDROOT
TORSDOF 0
ENDMDL
MODEL 4
REMARK VINA RESULT:      -4.5      1.292      3.861
REMARK  0 active torsions:
REMARK  status: ('A' for Active; 'I' for Inactive)
ROOT
HETATM    1  C1  UNL     1     -33.665   5.523   3.553  1.00 20.00     0.041 A 
HETATM    2  C2  UNL     1     -33.041   6.805   3.492  1.00 20.00    -0.008 A 
HETATM    3  C3  UNL     1     -34.203   5.534   4.798  1.00 20.00     0.041 A 
HETATM    4  C4  UNL     1     -33.241   7.485   4.674  1.00 20.00     0.064 A 
HETATM    5  C5  UNL     1     -34.921   5.076   5.949  1.00 20.00     0.047 A 
HETATM    6  C6  UNL     1     -32.625   8.747   4.610  1.00 20.00     0.141 A 
HETATM    7  C7  UNL     1     -34.626   6.269   6.544  1.00 20.00     0.100 A 
HETATM    8  C8  UNL     1     -32.248   7.677   2.611  1.00 20.00     0.189 A 
HETATM    9  N9  UNL     1     -32.032   8.939   3.460  1.00 20.00    -0.295 NA
HETATM   10  N10 UNL     1     -33.953   6.671   5.434  1.00 20.00    -0.320 N 
ENDROOT
TORSDOF 0
ENDMDL
MODEL 5
REMARK VINA RESULT:      -4.3     15.156     15.857
REMARK  0 active torsions:
REMARK  status: ('A' for Active; 'I' for Inactive)
ROOT
HETATM    1  C1  UNL     1     -25.042  18.959  10.366  1.00 20.00     0.041 A 
HETATM    2  C2  UNL     1     -23.997  18.660   9.442  1.00 20.00    -0.008 A 
HETATM    3  C3  UNL     1     -24.969  17.908  11.219  1.00 20.00     0.041 A 
HETATM    4  C4  UNL     1     -23.380  17.479   9.793  1.00 20.00     0.064 A 
HETATM    5  C5  UNL     1     -25.285  17.063  12.332  1.00 20.00     0.047 A 
HETATM    6  C6  UNL     1     -22.350  17.187   8.881  1.00 20.00     0.141 A 
HETATM    7  C7  UNL     1     -24.279  16.237  11.924  1.00 20.00     0.100 A 
HETATM    8  C8  UNL     1     -23.328  19.164   8.232  1.00 20.00     0.189 A 
HETATM    9  N9  UNL     1     -22.252  18.103   7.952  1.00 20.00    -0.295 NA
HETATM   10  N10 UNL     1     -24.007  17.061  10.879  1.00 20.00    -0.320 N 
ENDROOT
TORSDOF 0
ENDMDL
MODEL 6
REMARK VINA RESULT:      -4.3     15.663     15.963
REMARK  0 active torsions:
REMARK  status: ('A' for Active; 'I' for Inactive)
ROOT
HETATM    1  C1  UNL     1     -23.817  16.960  11.415  1.00 20.00     0.041 A 
HETATM    2  C2  UNL     1     -23.341  17.435  10.156  1.00 20.00    -0.008 A 
HETATM    3  C3  UNL     1     -24.856  17.799  11.654  1.00 20.00     0.041 A 
HETATM    4  C4  UNL     1     -24.107  18.500   9.732  1.00 20.00     0.064 A 
HETATM    5  C5  UNL     1     -25.973  18.385  12.330  1.00 20.00     0.047 A 
HETATM    6  C6  UNL     1     -23.635  18.965   8.492  1.00 20.00     0.141 A 
HETATM    7  C7  UNL     1     -26.077  19.263  11.290  1.00 20.00     0.100 A 
HETATM    8  C8  UNL     1     -22.313  17.196   9.130  1.00 20.00     0.189 A 
HETATM    9  N9  UNL     1     -22.607  18.272   8.074  1.00 20.00    -0.295 NA
HETATM   10  N10 UNL     1     -25.013  18.681  10.677  1.00 20.00    -0.320 N 
ENDROOT
TORSDOF 0
ENDMDL
MODEL 7
REMARK VINA RESULT:      -3.9     12.479     13.652
REMARK  0 active torsions:
REMARK  status: ('A' for Active; 'I' for Inactive)
ROOT
HETATM    1  C1  UNL     1     -33.294  15.138  -3.955  1.00 20.00     0.041 A 
HETATM    2  C2  UNL     1     -34.019  15.564  -5.108  1.00 20.00    -0.008 A 
HETATM    3  C3  UNL     1     -33.432  16.204  -3.129  1.00 20.00     0.041 A 
HETATM    4  C4  UNL     1     -34.533  16.827  -4.902  1.00 20.00     0.064 A 
HETATM    5  C5  UNL     1     -33.292  17.016  -1.957  1.00 20.00     0.047 A 
HETATM    6  C6  UNL     1     -35.247  17.244  -6.040  1.00 20.00     0.141 A 
HETATM    7  C7  UNL     1     -34.037  17.968  -2.591  1.00 20.00     0.100 A 
HETATM    8  C8  UNL     1     -34.424  15.138  -6.457  1.00 20.00     0.189 A 
HETATM    9  N9  UNL     1     -35.235  16.334  -6.980  1.00 20.00    -0.295 NA
HETATM   10  N10 UNL     1     -34.149  17.171  -3.686  1.00 20.00    -0.320 N 
ENDROOT
TORSDOF 0
ENDMDL
MODEL 8
REMARK VINA RESULT:      -3.9     12.471     13.617
REMARK  0 active torsions:
REMARK  status: ('A' for Active; 'I' for Inactive)
ROOT
HETATM    1  C1  UNL     1     -33.234  15.093  -4.073  1.00 20.00     0.041 A 
HETATM    2  C2  UNL     1     -33.586  16.249  -3.314  1.00 20.00    -0.008 A 
HETATM    3  C3  UNL     1     -33.829  15.350  -5.264  1.00 20.00     0.041 A 
HETATM    4  C4  UNL     1     -34.350  17.103  -4.081  1.00 20.00     0.064 A 
HETATM    5  C5  UNL     1     -34.240  15.160  -6.622  1.00 20.00     0.047 A 
HETATM    6  C6  UNL     1     -34.696  18.241  -3.330  1.00 20.00     0.141 A 
HETATM    7  C7  UNL     1     -34.877  16.364  -6.544  1.00 20.00     0.100 A 
HETATM    8  C8  UNL     1     -33.427  16.870  -1.989  1.00 20.00     0.189 A 
HETATM    9  N9  UNL     1     -34.207  18.188  -2.118  1.00 20.00    -0.295 NA
HETATM   10  N10 UNL     1     -34.469  16.511  -5.256  1.00 20.00    -0.320 N 
ENDROOT
TORSDOF 0
ENDMDL
MODEL 9
REMARK VINA RESULT:      -3.8     12.536     12.923
REMARK  0 active torsions:
REMARK  status: ('A' for Active; 'I' for Inactive)
ROOT
HETATM    1  C1  UNL     1     -31.051  18.469  -0.047  1.00 20.00     0.041 A 
HETATM    2  C2  UNL     1     -32.457  18.700  -0.113  1.00 20.00    -0.008 A 
HETATM    3  C3  UNL     1     -30.808  18.605   1.280  1.00 20.00     0.041 A 
HETATM    4  C4  UNL     1     -32.954  18.952   1.148  1.00 20.00     0.064 A 
HETATM    5  C5  UNL     1     -30.073  18.642   2.508  1.00 20.00     0.047 A 
HETATM    6  C6  UNL     1     -34.340  19.180   1.080  1.00 20.00     0.141 A 
HETATM    7  C7  UNL     1     -31.247  18.926   3.142  1.00 20.00     0.100 A 
HETATM    8  C8  UNL     1     -33.587  18.768  -1.053  1.00 20.00     0.189 A 
HETATM    9  N9  UNL     1     -34.785  19.093  -0.147  1.00 20.00    -0.295 NA
HETATM   10  N10 UNL     1     -31.912  18.882   1.959  1.00 20.00    -0.320 N 
ENDROOT
TORSDOF 0
ENDMDL
