MODEL 1
REMARK VINA RESULT:      -5.7      0.000      0.000
REMARK  1 active torsions:
REMARK  status: ('A' for Active; 'I' for Inactive)
REMARK    1  A    between atoms: C1_1  and  C7_7 
ROOT
HETATM    1  C1  UNL     1     -32.774   7.269   2.900  1.00 20.00    -0.057 C 
HETATM    2  C2  UNL     1     -32.249   7.709   1.914  1.00 20.00     0.276 C 
HETATM    3  O10 UNL     1     -31.736   8.140   0.948  1.00 20.00    -0.274 OA
ENDROOT
BRANCH   1   4
HETATM    4  C7  UNL     1     -33.343   6.791   3.971  1.00 20.00     0.023 A 
HETATM    5  C5  UNL     1     -33.959   5.467   3.907  1.00 20.00     0.021 A 
HETATM    6  C3  UNL     1     -34.553   4.949   4.996  1.00 20.00     0.002 A 
HETATM    7  C4  UNL     1     -34.603   5.676   6.253  1.00 20.00     0.001 A 
HETATM    8  C6  UNL     1     -34.059   6.898   6.386  1.00 20.00     0.012 A 
HETATM    9  C8  UNL     1     -33.389   7.539   5.248  1.00 20.00    -0.027 A 
HETATM   10  C9  UNL     1     -32.855   8.764   5.409  1.00 20.00     0.025 C 
ENDBRANCH   1   4
TORSDOF 1
ENDMDL
MODEL 2
REMARK VINA RESULT:      -5.2      0.466      2.191
REMARK  1 active torsions:
REMARK  status: ('A' for Active; 'I' for Inactive)
REMARK    1  A    between atoms: C1_1  and  C7_7 
ROOT
HETATM    1  C1  UNL     1     -32.753   7.402   3.043  1.00 20.00    -0.057 C 
HETATM    2  C2  UNL     1     -32.225   7.847   2.062  1.00 20.00     0.276 C 
HETATM    3  O10 UNL     1     -31.706   8.284   1.101  1.00 20.00    -0.274 OA
ENDROOT
BRANCH   1   4
HETATM    4  C7  UNL     1     -33.328   6.917   4.109  1.00 20.00     0.023 A 
HETATM    5  C5  UNL     1     -33.461   7.775   5.285  1.00 20.00     0.021 A 
HETATM    6  C3  UNL     1     -34.049   7.303   6.398  1.00 20.00     0.002 A 
HETATM    7  C4  UNL     1     -34.563   5.946   6.469  1.00 20.00     0.001 A 
HETATM    8  C6  UNL     1     -34.475   5.100   5.427  1.00 20.00     0.012 A 
HETATM    9  C8  UNL     1     -33.848   5.533   4.172  1.00 20.00    -0.027 A 
HETATM   10  C9  UNL     1     -33.772   4.665   3.146  1.00 20.00     0.025 C 
ENDBRANCH   1   4
TORSDOF 1
ENDMDL
MODEL 3
REMARK VINA RESULT:      -4.5      1.790      2.718
REMARK  1 active torsions:
REMARK  status: ('A' for Active; 'I' for Inactive)
REMARK    1  A    between atoms: C1_1  and  C7_7 
ROOT
HETATM    1  C1  UNL     1     -32.610   8.127   4.668  1.00 20.00    -0.057 C 
HETATM    2  C2  UNL     1     -32.177   9.211   4.945  1.00 20.00     0.276 C 
HETATM    3  O10 UNL     1     -31.752  10.273   5.215  1.00 20.00    -0.274 OA
ENDROOT
BRANCH   1   4
HETATM    4  C7  UNL     1     -33.081   6.948   4.367  1.00 20.00     0.023 A 
HETATM    5  C5  UNL     1     -32.687   6.339   3.098  1.00 20.00     0.021 A 
HETATM    6  C3  UNL     1     -33.157   5.124   2.762  1.00 20.00     0.002 A 
HETATM    7  C4  UNL     1     -34.058   4.390   3.633  1.00 20.00     0.001 A 
HETATM    8  C6  UNL     1     -34.463   4.888   4.815  1.00 20.00     0.012 A 
HETATM    9  C8  UNL     1     -33.998   6.207   5.262  1.00 20.00    -0.027 A 
HETATM   10  C9  UNL     1     -34.421   6.681   6.448  1.00 20.00     0.025 C 
ENDBRANCH   1   4
TORSDOF 1
ENDMDL
MODEL 4
REMARK VINA RESULT:      -4.5      1.753      2.951
REMARK  1 active torsions:
REMARK  status: ('A' for Active; 'I' for Inactive)
REMARK    1  A    between atoms: C1_1  and  C7_7 
ROOT
HETATM    1  C1  UNL     1     -33.042   5.595   3.022  1.00 20.00    -0.057 C 
HETATM    2  C2  UNL     1     -32.916   4.725   2.206  1.00 20.00     0.276 C 
HETATM    3  O10 UNL     1     -32.793   3.871   1.406  1.00 20.00    -0.274 OA
ENDROOT
BRANCH   1   4
HETATM    4  C7  UNL     1     -33.179   6.542   3.909  1.00 20.00     0.023 A 
HETATM    5  C5  UNL     1     -32.411   7.774   3.743  1.00 20.00     0.021 A 
HETATM    6  C3  UNL     1     -32.531   8.767   4.642  1.00 20.00     0.002 A 
HETATM    7  C4  UNL     1     -33.414   8.650   5.789  1.00 20.00     0.001 A 
HETATM    8  C6  UNL     1     -34.151   7.547   6.006  1.00 20.00     0.012 A 
HETATM    9  C8  UNL     1     -34.082   6.414   5.075  1.00 20.00    -0.027 A 
HETATM   10  C9  UNL     1     -34.829   5.321   5.318  1.00 20.00     0.025 C 
ENDBRANCH   1   4
TORSDOF 1
ENDMDL
MODEL 5
REMARK VINA RESULT:      -4.4      1.651      2.225
REMARK  1 active torsions:
REMARK  status: ('A' for Active; 'I' for Inactive)
REMARK    1  A    between atoms: C1_1  and  C7_7 
ROOT
HETATM    1  C1  UNL     1     -33.280   5.208   3.171  1.00 20.00    -0.057 C 
HETATM    2  C2  UNL     1     -32.995   4.574   2.192  1.00 20.00     0.276 C 
HETATM    3  O10 UNL     1     -32.717   3.953   1.234  1.00 20.00    -0.274 OA
ENDROOT
BRANCH   1   4
HETATM    4  C7  UNL     1     -33.589   5.897   4.234  1.00 20.00     0.023 A 
HETATM    5  C5  UNL     1     -34.405   5.263   5.268  1.00 20.00     0.021 A 
HETATM    6  C3  UNL     1     -34.739   5.949   6.375  1.00 20.00     0.002 A 
HETATM    7  C4  UNL     1     -34.308   7.321   6.578  1.00 20.00     0.001 A 
HETATM    8  C6  UNL     1     -33.557   7.969   5.670  1.00 20.00     0.012 A 
HETATM    9  C8  UNL     1     -33.145   7.295   4.432  1.00 20.00    -0.027 A 
HETATM   10  C9  UNL     1     -32.394   7.968   3.540  1.00 20.00     0.025 C 
ENDBRANCH   1   4
TORSDOF 1
ENDMDL
MODEL 6
REMARK VINA RESULT:      -4.1      2.606      4.506
REMARK  1 active torsions:
REMARK  status: ('A' for Active; 'I' for Inactive)
REMARK    1  A    between atoms: C1_1  and  C7_7 
ROOT
HETATM    1  C1  UNL     1     -34.040   6.252   5.363  1.00 20.00    -0.057 C 
HETATM    2  C2  UNL     1     -34.614   5.581   6.176  1.00 20.00     0.276 C 
HETATM    3  O10 UNL     1     -35.177   4.924   6.973  1.00 20.00    -0.274 OA
ENDROOT
BRANCH   1   4
HETATM    4  C7  UNL     1     -33.416   6.981   4.480  1.00 20.00     0.023 A 
HETATM    5  C5  UNL     1     -33.181   8.392   4.776  1.00 20.00     0.021 A 
HETATM    6  C3  UNL     1     -32.540   9.168   3.883  1.00 20.00     0.002 A 
HETATM    7  C4  UNL     1     -32.068   8.638   2.616  1.00 20.00     0.001 A 
HETATM    8  C6  UNL     1     -32.250   7.350   2.276  1.00 20.00     0.012 A 
HETATM    9  C8  UNL     1     -32.939   6.431   3.191  1.00 20.00    -0.027 A 
HETATM   10  C9  UNL     1     -33.107   5.148   2.824  1.00 20.00     0.025 C 
ENDBRANCH   1   4
TORSDOF 1
ENDMDL
MODEL 7
REMARK VINA RESULT:      -4.1     15.617     16.393
REMARK  1 active torsions:
REMARK  status: ('A' for Active; 'I' for Inactive)
REMARK    1  A    between atoms: C1_1  and  C7_7 
ROOT
HETATM    1  C1  UNL     1     -22.581  18.327   8.821  1.00 20.00    -0.057 C 
HETATM    2  C2  UNL     1     -21.932  18.178   7.822  1.00 20.00     0.276 C 
HETATM    3  O10 UNL     1     -21.297  18.032   6.844  1.00 20.00    -0.274 OA
ENDROOT
BRANCH   1   4
HETATM    4  C7  UNL     1     -23.285  18.489   9.907  1.00 20.00     0.023 A 
HETATM    5  C5  UNL     1     -22.665  18.191  11.196  1.00 20.00     0.021 A 
HETATM    6  C3  UNL     1     -23.367  18.349  12.332  1.00 20.00     0.002 A 
HETATM    7  C4  UNL     1     -24.744  18.813  12.316  1.00 20.00     0.001 A 
HETATM    8  C6  UNL     1     -25.379  19.106  11.168  1.00 20.00     0.012 A 
HETATM    9  C8  UNL     1     -24.688  18.963   9.881  1.00 20.00    -0.027 A 
HETATM   10  C9  UNL     1     -25.349  19.261   8.747  1.00 20.00     0.025 C 
ENDBRANCH   1   4
TORSDOF 1
ENDMDL
MODEL 8
REMARK VINA RESULT:      -4.0     11.876     13.241
REMARK  1 active torsions:
REMARK  status: ('A' for Active; 'I' for Inactive)
REMARK    1  A    between atoms: C1_1  and  C7_7 
ROOT
HETATM    1  C1  UNL     1     -35.301  15.645  -5.909  1.00 20.00    -0.057 C 
HETATM    2  C2  UNL     1     -35.729  15.071  -6.872  1.00 20.00     0.276 C 
HETATM    3  O10 UNL     1     -36.148  14.508  -7.815  1.00 20.00    -0.274 OA
ENDROOT
BRANCH   1   4
HETATM    4  C7  UNL     1     -34.836  16.270  -4.863  1.00 20.00     0.023 A 
HETATM    5  C5  UNL     1     -35.401  17.571  -4.515  1.00 20.00     0.021 A 
HETATM    6  C3  UNL     1     -34.942  18.238  -3.441  1.00 20.00     0.002 A 
HETATM    7  C4  UNL     1     -33.884  17.697  -2.606  1.00 20.00     0.001 A 
HETATM    8  C6  UNL     1     -33.316  16.506  -2.866  1.00 20.00     0.012 A 
HETATM    9  C8  UNL     1     -33.757  15.710  -4.017  1.00 20.00    -0.027 A 
HETATM   10  C9  UNL     1     -33.170  14.522  -4.254  1.00 20.00     0.025 C 
ENDBRANCH   1   4
TORSDOF 1
ENDMDL
MODEL 9
REMARK VINA RESULT:      -3.8     12.088     13.294
REMARK  1 active torsions:
REMARK  status: ('A' for Active; 'I' for Inactive)
REMARK    1  A    between atoms: C1_1  and  C7_7 
ROOT
HETATM    1  C1  UNL     1     -34.293  16.110  -5.295  1.00 20.00    -0.057 C 
HETATM    2  C2  UNL     1     -34.300  15.516  -6.338  1.00 20.00     0.276 C 
HETATM    3  O10 UNL     1     -34.307  14.934  -7.359  1.00 20.00    -0.274 OA
ENDROOT
BRANCH   1   4
HETATM    4  C7  UNL     1     -34.285  16.756  -4.162  1.00 20.00     0.023 A 
HETATM    5  C5  UNL     1     -33.399  16.291  -3.097  1.00 20.00     0.021 A 
HETATM    6  C3  UNL     1     -33.369  16.938  -1.918  1.00 20.00     0.002 A 
HETATM    7  C4  UNL     1     -34.205  18.099  -1.667  1.00 20.00     0.001 A 
HETATM    8  C6  UNL     1     -35.045  18.581  -2.599  1.00 20.00     0.012 A 
HETATM    9  C8  UNL     1     -35.141  17.938  -3.915  1.00 20.00    -0.027 A 
HETATM   10  C9  UNL     1     -35.991  18.442  -4.829  1.00 20.00     0.025 C 
ENDBRANCH   1   4
TORSDOF 1
ENDMDL
