MODEL 1
REMARK VINA RESULT:      -5.0      0.000      0.000
REMARK  1 active torsions:
REMARK  status: ('A' for Active; 'I' for Inactive)
REMARK    1  A    between atoms: C1_1  and  C9_9 
ROOT
HETATM    1  C2  UNL     1     -34.272   4.657   5.972  1.00 20.00     0.010 C 
HETATM    2  C3  UNL     1     -33.210   5.780   3.877  1.00 20.00     0.025 C 
HETATM    3  C4  UNL     1     -33.344   7.089   5.997  1.00 20.00     0.025 C 
HETATM    4  C5  UNL     1     -34.875   7.433   4.223  1.00 20.00     0.026 C 
HETATM    5  C6  UNL     1     -34.419   5.037   4.476  1.00 20.00    -0.008 C 
HETATM    6  C7  UNL     1     -34.531   6.152   6.285  1.00 20.00    -0.008 C 
HETATM    7  C8  UNL     1     -35.356   6.192   4.958  1.00 20.00    -0.005 C 
HETATM    8  C9  UNL     1     -33.386   7.188   4.465  1.00 20.00     0.049 C 
ENDROOT
BRANCH   8   9
HETATM    9  C1  UNL     1     -32.517   8.268   3.874  1.00 20.00     0.181 C 
HETATM   10  O10 UNL     1     -32.193   8.100   2.666  1.00 20.00    -0.647 OA
HETATM   11  O11 UNL     1     -32.224   9.206   4.669  1.00 20.00    -0.647 OA
ENDBRANCH   8   9
TORSDOF 1
ENDMDL
MODEL 2
REMARK VINA RESULT:      -4.8     15.224     16.115
REMARK  1 active torsions:
REMARK  status: ('A' for Active; 'I' for Inactive)
REMARK    1  A    between atoms: C1_1  and  C9_9 
ROOT
HETATM    1  C2  UNL     1     -25.774  17.661  12.132  1.00 20.00     0.010 C 
HETATM    2  C3  UNL     1     -24.663  18.819  10.080  1.00 20.00     0.025 C 
HETATM    3  C4  UNL     1     -23.945  16.506  10.684  1.00 20.00     0.025 C 
HETATM    4  C5  UNL     1     -22.643  18.402  11.250  1.00 20.00     0.026 C 
HETATM    5  C6  UNL     1     -25.022  18.898  11.576  1.00 20.00    -0.008 C 
HETATM    6  C7  UNL     1     -24.411  16.925  12.090  1.00 20.00    -0.008 C 
HETATM    7  C8  UNL     1     -23.752  18.329  12.288  1.00 20.00    -0.005 C 
HETATM    8  C9  UNL     1     -23.475  17.846  10.095  1.00 20.00     0.049 C 
ENDROOT
BRANCH   8   9
HETATM    9  C1  UNL     1     -22.690  17.736   8.814  1.00 20.00     0.181 C 
HETATM   10  O10 UNL     1     -21.764  16.879   8.821  1.00 20.00    -0.647 OA
HETATM   11  O11 UNL     1     -23.063  18.521   7.896  1.00 20.00    -0.647 OA
ENDBRANCH   8   9
TORSDOF 1
ENDMDL
MODEL 3
REMARK VINA RESULT:      -4.1      2.346      3.581
REMARK  1 active torsions:
REMARK  status: ('A' for Active; 'I' for Inactive)
REMARK    1  A    between atoms: C1_1  and  C9_9 
ROOT
HETATM    1  C2  UNL     1     -32.099   8.774   4.784  1.00 20.00     0.010 C 
HETATM    2  C3  UNL     1     -33.494   7.063   6.167  1.00 20.00     0.025 C 
HETATM    3  C4  UNL     1     -32.860   6.476   3.826  1.00 20.00     0.025 C 
HETATM    4  C5  UNL     1     -35.034   7.242   4.372  1.00 20.00     0.026 C 
HETATM    5  C6  UNL     1     -33.361   8.507   5.644  1.00 20.00    -0.008 C 
HETATM    6  C7  UNL     1     -32.819   8.005   3.648  1.00 20.00    -0.008 C 
HETATM    7  C8  UNL     1     -34.158   8.482   4.299  1.00 20.00    -0.005 C 
HETATM    8  C9  UNL     1     -33.943   6.313   4.904  1.00 20.00     0.049 C 
ENDROOT
BRANCH   8   9
HETATM    9  C1  UNL     1     -34.430   4.902   5.107  1.00 20.00     0.181 C 
HETATM   10  O10 UNL     1     -34.061   4.072   4.231  1.00 20.00    -0.647 OA
HETATM   11  O11 UNL     1     -35.148   4.733   6.134  1.00 20.00    -0.647 OA
ENDBRANCH   8   9
TORSDOF 1
ENDMDL
MODEL 4
REMARK VINA RESULT:      -4.0      9.394     10.623
REMARK  1 active torsions:
REMARK  status: ('A' for Active; 'I' for Inactive)
REMARK    1  A    between atoms: C1_1  and  C9_9 
ROOT
HETATM    1  C2  UNL     1     -42.523  15.752   6.179  1.00 20.00     0.010 C 
HETATM    2  C3  UNL     1     -40.592  14.262   7.094  1.00 20.00     0.025 C 
HETATM    3  C4  UNL     1     -41.515  13.768   4.829  1.00 20.00     0.025 C 
HETATM    4  C5  UNL     1     -42.120  12.486   6.727  1.00 20.00     0.026 C 
HETATM    5  C6  UNL     1     -41.993  14.860   7.331  1.00 20.00    -0.008 C 
HETATM    6  C7  UNL     1     -42.779  14.438   5.398  1.00 20.00    -0.008 C 
HETATM    7  C8  UNL     1     -42.957  13.753   6.792  1.00 20.00    -0.005 C 
HETATM    8  C9  UNL     1     -40.896  13.142   6.088  1.00 20.00     0.049 C 
ENDROOT
BRANCH   8   9
HETATM    9  C1  UNL     1     -39.782  12.162   5.829  1.00 20.00     0.181 C 
HETATM   10  O10 UNL     1     -39.682  11.761   4.636  1.00 20.00    -0.647 OA
HETATM   11  O11 UNL     1     -39.088  11.868   6.844  1.00 20.00    -0.647 OA
ENDBRANCH   8   9
TORSDOF 1
ENDMDL
MODEL 5
REMARK VINA RESULT:      -3.9      9.166     10.386
REMARK  1 active torsions:
REMARK  status: ('A' for Active; 'I' for Inactive)
REMARK    1  A    between atoms: C1_1  and  C9_9 
ROOT
HETATM    1  C2  UNL     1     -40.895   8.367  -0.051  1.00 20.00     0.010 C 
HETATM    2  C3  UNL     1     -40.925   5.766  -0.184  1.00 20.00     0.025 C 
HETATM    3  C4  UNL     1     -43.024   7.015  -0.696  1.00 20.00     0.025 C 
HETATM    4  C5  UNL     1     -42.686   5.952   1.394  1.00 20.00     0.026 C 
HETATM    5  C6  UNL     1     -40.604   7.018   0.656  1.00 20.00    -0.008 C 
HETATM    6  C7  UNL     1     -42.394   8.083   0.217  1.00 20.00    -0.008 C 
HETATM    7  C8  UNL     1     -41.921   7.264   1.462  1.00 20.00    -0.005 C 
HETATM    8  C9  UNL     1     -42.458   5.718  -0.099  1.00 20.00     0.049 C 
ENDROOT
BRANCH   8   9
HETATM    9  C1  UNL     1     -43.111   4.453  -0.594  1.00 20.00     0.181 C 
HETATM   10  O10 UNL     1     -43.417   3.618   0.301  1.00 20.00    -0.647 OA
HETATM   11  O11 UNL     1     -43.266   4.393  -1.847  1.00 20.00    -0.647 OA
ENDBRANCH   8   9
TORSDOF 1
ENDMDL
MODEL 6
REMARK VINA RESULT:      -3.9      2.236      3.733
REMARK  1 active torsions:
REMARK  status: ('A' for Active; 'I' for Inactive)
REMARK    1  A    between atoms: C1_1  and  C9_9 
ROOT
HETATM    1  C2  UNL     1     -32.850   8.802   2.831  1.00 20.00     0.010 C 
HETATM    2  C3  UNL     1     -32.884   6.316   3.605  1.00 20.00     0.025 C 
HETATM    3  C4  UNL     1     -34.721   7.828   4.357  1.00 20.00     0.025 C 
HETATM    4  C5  UNL     1     -32.920   7.251   5.783  1.00 20.00     0.026 C 
HETATM    5  C6  UNL     1     -32.090   7.633   3.508  1.00 20.00    -0.008 C 
HETATM    6  C7  UNL     1     -33.658   8.922   4.148  1.00 20.00    -0.008 C 
HETATM    7  C8  UNL     1     -32.396   8.344   4.866  1.00 20.00    -0.005 C 
HETATM    8  C9  UNL     1     -33.857   6.621   4.753  1.00 20.00     0.049 C 
ENDROOT
BRANCH   8   9
HETATM    9  C1  UNL     1     -34.621   5.446   5.306  1.00 20.00     0.181 C 
HETATM   10  O10 UNL     1     -35.150   5.630   6.436  1.00 20.00    -0.647 OA
HETATM   11  O11 UNL     1     -34.633   4.424   4.561  1.00 20.00    -0.647 OA
ENDBRANCH   8   9
TORSDOF 1
ENDMDL
MODEL 7
REMARK VINA RESULT:      -3.8      0.600      1.876
REMARK  1 active torsions:
REMARK  status: ('A' for Active; 'I' for Inactive)
REMARK    1  A    between atoms: C1_1  and  C9_9 
ROOT
HETATM    1  C2  UNL     1     -35.343   5.369   6.067  1.00 20.00     0.010 C 
HETATM    2  C3  UNL     1     -33.156   6.781   6.005  1.00 20.00     0.025 C 
HETATM    3  C4  UNL     1     -34.967   7.309   4.371  1.00 20.00     0.025 C 
HETATM    4  C5  UNL     1     -33.050   6.066   3.746  1.00 20.00     0.026 C 
HETATM    5  C6  UNL     1     -33.795   5.380   5.980  1.00 20.00    -0.008 C 
HETATM    6  C7  UNL     1     -35.341   5.831   4.587  1.00 20.00    -0.008 C 
HETATM    7  C8  UNL     1     -33.973   5.087   4.454  1.00 20.00    -0.005 C 
HETATM    8  C9  UNL     1     -33.446   7.283   4.582  1.00 20.00     0.049 C 
ENDROOT
BRANCH   8   9
HETATM    9  C1  UNL     1     -32.724   8.536   4.160  1.00 20.00     0.181 C 
HETATM   10  O10 UNL     1     -32.243   9.225   5.101  1.00 20.00    -0.647 OA
HETATM   11  O11 UNL     1     -32.694   8.735   2.912  1.00 20.00    -0.647 OA
ENDBRANCH   8   9
TORSDOF 1
ENDMDL
MODEL 8
REMARK VINA RESULT:      -3.8     12.514     13.784
REMARK  1 active torsions:
REMARK  status: ('A' for Active; 'I' for Inactive)
REMARK    1  A    between atoms: C1_1  and  C9_9 
ROOT
HETATM    1  C2  UNL     1     -32.196  18.318  -1.167  1.00 20.00     0.010 C 
HETATM    2  C3  UNL     1     -33.514  16.591  -2.604  1.00 20.00     0.025 C 
HETATM    3  C4  UNL     1     -32.917  18.789  -3.624  1.00 20.00     0.025 C 
HETATM    4  C5  UNL     1     -35.097  18.344  -2.813  1.00 20.00     0.026 C 
HETATM    5  C6  UNL     1     -33.431  17.389  -1.288  1.00 20.00    -0.008 C 
HETATM    6  C7  UNL     1     -32.921  19.263  -2.159  1.00 20.00    -0.008 C 
HETATM    7  C8  UNL     1     -34.257  18.682  -1.592  1.00 20.00    -0.005 C 
HETATM    8  C9  UNL     1     -33.970  17.671  -3.596  1.00 20.00     0.049 C 
ENDROOT
BRANCH   8   9
HETATM    9  C1  UNL     1     -34.416  17.183  -4.950  1.00 20.00     0.181 C 
HETATM   10  O10 UNL     1     -34.417  18.054  -5.863  1.00 20.00    -0.647 OA
HETATM   11  O11 UNL     1     -34.731  15.960  -4.995  1.00 20.00    -0.647 OA
ENDBRANCH   8   9
TORSDOF 1
ENDMDL
MODEL 9
REMARK VINA RESULT:      -3.7     12.369     13.675
REMARK  1 active torsions:
REMARK  status: ('A' for Active; 'I' for Inactive)
REMARK    1  A    between atoms: C1_1  and  C9_9 
ROOT
HETATM    1  C2  UNL     1     -34.947  19.263  -3.714  1.00 20.00     0.010 C 
HETATM    2  C3  UNL     1     -34.427  18.910  -1.187  1.00 20.00     0.025 C 
HETATM    3  C4  UNL     1     -32.520  19.136  -2.781  1.00 20.00     0.025 C 
HETATM    4  C5  UNL     1     -33.208  17.025  -1.954  1.00 20.00     0.026 C 
HETATM    5  C6  UNL     1     -35.173  18.411  -2.439  1.00 20.00    -0.008 C 
HETATM    6  C7  UNL     1     -33.547  18.605  -3.798  1.00 20.00    -0.008 C 
HETATM    7  C8  UNL     1     -34.181  17.378  -3.067  1.00 20.00    -0.005 C 
HETATM    8  C9  UNL     1     -32.987  18.462  -1.481  1.00 20.00     0.049 C 
ENDROOT
BRANCH   8   9
HETATM    9  C1  UNL     1     -32.015  18.552  -0.333  1.00 20.00     0.181 C 
HETATM   10  O10 UNL     1     -32.539  18.610   0.813  1.00 20.00    -0.647 OA
HETATM   11  O11 UNL     1     -30.797  18.558  -0.671  1.00 20.00    -0.647 OA
ENDBRANCH   8   9
TORSDOF 1
ENDMDL
