MODEL 1
REMARK VINA RESULT:      -4.3      0.000      0.000
REMARK  1 active torsions:
REMARK  status: ('A' for Active; 'I' for Inactive)
REMARK    1  A    between atoms: C3_3  and  C7_7 
ROOT
HETATM    1  C1  UNL     1     -34.687   5.022   5.848  1.00 20.00     0.006 C 
HETATM    2  C2  UNL     1     -34.043   5.986   6.520  1.00 20.00     0.007 C 
HETATM    3  C4  UNL     1     -33.662   5.681   3.688  1.00 20.00     0.054 C 
HETATM    4  C5  UNL     1     -34.981   5.577   4.478  1.00 20.00     0.244 C 
HETATM    5  C6  UNL     1     -33.917   7.155   5.575  1.00 20.00     0.255 C 
HETATM    6  C7  UNL     1     -32.895   6.775   4.483  1.00 20.00     0.094 C 
HETATM    7  N9  UNL     1     -35.163   7.020   4.772  1.00 20.00     0.100 N 
HETATM    8  H21 UNL     1     -35.124   7.577   3.919  1.00 20.00     0.317 HD
ENDROOT
BRANCH   6   9
HETATM    9  C3  UNL     1     -32.508   7.934   3.613  1.00 20.00     0.129 C 
HETATM   10  C8  UNL     1     -32.153   7.619   2.186  1.00 20.00     0.091 C 
HETATM   11  O10 UNL     1     -32.483   9.085   4.045  1.00 20.00    -0.298 OA
ENDBRANCH   6   9
TORSDOF 1
ENDMDL
MODEL 2
REMARK VINA RESULT:      -4.1      9.166     10.313
REMARK  1 active torsions:
REMARK  status: ('A' for Active; 'I' for Inactive)
REMARK    1  A    between atoms: C3_3  and  C7_7 
ROOT
HETATM    1  C1  UNL     1     -41.012   8.356  -0.052  1.00 20.00     0.006 C 
HETATM    2  C2  UNL     1     -42.310   8.391  -0.386  1.00 20.00     0.007 C 
HETATM    3  C4  UNL     1     -40.897   5.890  -0.296  1.00 20.00     0.054 C 
HETATM    4  C5  UNL     1     -40.797   7.065   0.697  1.00 20.00     0.244 C 
HETATM    5  C6  UNL     1     -42.922   7.118   0.142  1.00 20.00     0.255 C 
HETATM    6  C7  UNL     1     -42.395   5.947  -0.713  1.00 20.00     0.094 C 
HETATM    7  N9  UNL     1     -42.109   6.884   1.367  1.00 20.00     0.100 N 
HETATM    8  H21 UNL     1     -42.216   5.932   1.715  1.00 20.00     0.317 HD
ENDROOT
BRANCH   6   9
HETATM    9  C3  UNL     1     -43.104   4.654  -0.439  1.00 20.00     0.129 C 
HETATM   10  C8  UNL     1     -43.417   3.790  -1.630  1.00 20.00     0.091 C 
HETATM   11  O10 UNL     1     -43.411   4.316   0.702  1.00 20.00    -0.298 OA
ENDBRANCH   6   9
TORSDOF 1
ENDMDL
MODEL 3
REMARK VINA RESULT:      -4.1     12.260     13.166
REMARK  1 active torsions:
REMARK  status: ('A' for Active; 'I' for Inactive)
REMARK    1  A    between atoms: C3_3  and  C7_7 
ROOT
HETATM    1  C1  UNL     1     -33.584  17.383  -3.888  1.00 20.00     0.006 C 
HETATM    2  C2  UNL     1     -33.360  16.420  -2.983  1.00 20.00     0.007 C 
HETATM    3  C4  UNL     1     -32.698  19.154  -2.396  1.00 20.00     0.054 C 
HETATM    4  C5  UNL     1     -33.954  18.622  -3.113  1.00 20.00     0.244 C 
HETATM    5  C6  UNL     1     -33.577  17.047  -1.629  1.00 20.00     0.255 C 
HETATM    6  C7  UNL     1     -32.413  18.024  -1.366  1.00 20.00     0.094 C 
HETATM    7  N9  UNL     1     -34.640  18.044  -1.932  1.00 20.00     0.100 N 
HETATM    8  H21 UNL     1     -34.735  18.733  -1.187  1.00 20.00     0.317 HD
ENDROOT
BRANCH   6   9
HETATM    9  C3  UNL     1     -32.387  18.541   0.042  1.00 20.00     0.129 C 
HETATM   10  C8  UNL     1     -31.032  18.723   0.671  1.00 20.00     0.091 C 
HETATM   11  O10 UNL     1     -33.421  18.804   0.652  1.00 20.00    -0.298 OA
ENDBRANCH   6   9
TORSDOF 1
ENDMDL
MODEL 4
REMARK VINA RESULT:      -3.9      1.826      3.633
REMARK  1 active torsions:
REMARK  status: ('A' for Active; 'I' for Inactive)
REMARK    1  A    between atoms: C3_3  and  C7_7 
ROOT
HETATM    1  C1  UNL     1     -32.375   8.410   2.241  1.00 20.00     0.006 C 
HETATM    2  C2  UNL     1     -33.096   9.192   3.056  1.00 20.00     0.007 C 
HETATM    3  C4  UNL     1     -33.090   6.340   3.404  1.00 20.00     0.054 C 
HETATM    4  C5  UNL     1     -31.892   7.251   3.075  1.00 20.00     0.244 C 
HETATM    5  C6  UNL     1     -33.081   8.528   4.410  1.00 20.00     0.255 C 
HETATM    6  C7  UNL     1     -33.947   7.255   4.324  1.00 20.00     0.094 C 
HETATM    7  N9  UNL     1     -31.738   7.884   4.408  1.00 20.00     0.100 N 
HETATM    8  H21 UNL     1     -31.656   7.182   5.142  1.00 20.00     0.317 HD
ENDROOT
BRANCH   6   9
HETATM    9  C3  UNL     1     -34.202   6.626   5.662  1.00 20.00     0.129 C 
HETATM   10  C8  UNL     1     -34.674   5.198   5.659  1.00 20.00     0.091 C 
HETATM   11  O10 UNL     1     -34.031   7.247   6.710  1.00 20.00    -0.298 OA
ENDBRANCH   6   9
TORSDOF 1
ENDMDL
MODEL 5
REMARK VINA RESULT:      -3.9     12.190     13.365
REMARK  1 active torsions:
REMARK  status: ('A' for Active; 'I' for Inactive)
REMARK    1  A    between atoms: C3_3  and  C7_7 
ROOT
HETATM    1  C1  UNL     1     -33.197  18.854  -2.773  1.00 20.00     0.006 C 
HETATM    2  C2  UNL     1     -33.175  18.769  -4.111  1.00 20.00     0.007 C 
HETATM    3  C4  UNL     1     -33.403  16.398  -2.504  1.00 20.00     0.054 C 
HETATM    4  C5  UNL     1     -34.105  17.753  -2.288  1.00 20.00     0.244 C 
HETATM    5  C6  UNL     1     -34.062  17.606  -4.479  1.00 20.00     0.255 C 
HETATM    6  C7  UNL     1     -33.345  16.308  -4.055  1.00 20.00     0.094 C 
HETATM    7  N9  UNL     1     -35.084  17.660  -3.398  1.00 20.00     0.100 N 
HETATM    8  H21 UNL     1     -35.622  16.795  -3.344  1.00 20.00     0.317 HD
ENDROOT
BRANCH   6   9
HETATM    9  C3  UNL     1     -34.016  15.070  -4.572  1.00 20.00     0.129 C 
HETATM   10  C8  UNL     1     -34.473  15.098  -6.005  1.00 20.00     0.091 C 
HETATM   11  O10 UNL     1     -34.182  14.081  -3.860  1.00 20.00    -0.298 OA
ENDBRANCH   6   9
TORSDOF 1
ENDMDL
MODEL 6
REMARK VINA RESULT:      -3.8     12.724     13.604
REMARK  1 active torsions:
REMARK  status: ('A' for Active; 'I' for Inactive)
REMARK    1  A    between atoms: C3_3  and  C7_7 
ROOT
HETATM    1  C1  UNL     1     -35.520  14.776  -6.321  1.00 20.00     0.006 C 
HETATM    2  C2  UNL     1     -36.197  15.815  -5.812  1.00 20.00     0.007 C 
HETATM    3  C4  UNL     1     -33.653  15.056  -4.713  1.00 20.00     0.054 C 
HETATM    4  C5  UNL     1     -34.057  15.117  -6.200  1.00 20.00     0.244 C 
HETATM    5  C6  UNL     1     -35.165  16.816  -5.357  1.00 20.00     0.255 C 
HETATM    6  C7  UNL     1     -34.462  16.240  -4.111  1.00 20.00     0.094 C 
HETATM    7  N9  UNL     1     -34.079  16.592  -6.350  1.00 20.00     0.100 N 
HETATM    8  H21 UNL     1     -33.199  17.007  -6.045  1.00 20.00     0.317 HD
ENDROOT
BRANCH   6   9
HETATM    9  C3  UNL     1     -33.574  17.235  -3.425  1.00 20.00     0.129 C 
HETATM   10  C8  UNL     1     -33.316  17.013  -1.959  1.00 20.00     0.091 C 
HETATM   11  O10 UNL     1     -33.081  18.185  -4.030  1.00 20.00    -0.298 OA
ENDBRANCH   6   9
TORSDOF 1
ENDMDL
MODEL 7
REMARK VINA RESULT:      -3.8      9.559     10.207
REMARK  1 active torsions:
REMARK  status: ('A' for Active; 'I' for Inactive)
REMARK    1  A    between atoms: C3_3  and  C7_7 
ROOT
HETATM    1  C1  UNL     1     -43.380  14.073   6.252  1.00 20.00     0.006 C 
HETATM    2  C2  UNL     1     -43.148  13.024   7.054  1.00 20.00     0.007 C 
HETATM    3  C4  UNL     1     -41.339  13.647   4.910  1.00 20.00     0.054 C 
HETATM    4  C5  UNL     1     -42.031  14.630   5.874  1.00 20.00     0.244 C 
HETATM    5  C6  UNL     1     -41.650  12.905   7.179  1.00 20.00     0.255 C 
HETATM    6  C7  UNL     1     -41.097  12.414   5.826  1.00 20.00     0.094 C 
HETATM    7  N9  UNL     1     -41.232  14.331   7.088  1.00 20.00     0.100 N 
HETATM    8  H21 UNL     1     -40.233  14.419   6.902  1.00 20.00     0.317 HD
ENDROOT
BRANCH   6   9
HETATM    9  C3  UNL     1     -39.647  12.035   5.886  1.00 20.00     0.129 C 
HETATM   10  C8  UNL     1     -38.962  11.771   4.573  1.00 20.00     0.091 C 
HETATM   11  O10 UNL     1     -39.048  11.946   6.956  1.00 20.00    -0.298 OA
ENDBRANCH   6   9
TORSDOF 1
ENDMDL
MODEL 8
REMARK VINA RESULT:      -3.8     12.251     13.660
REMARK  1 active torsions:
REMARK  status: ('A' for Active; 'I' for Inactive)
REMARK    1  A    between atoms: C3_3  and  C7_7 
ROOT
HETATM    1  C1  UNL     1     -36.742  16.417  -7.068  1.00 20.00     0.006 C 
HETATM    2  C2  UNL     1     -35.976  15.355  -7.354  1.00 20.00     0.007 C 
HETATM    3  C4  UNL     1     -35.432  16.961  -5.034  1.00 20.00     0.054 C 
HETATM    4  C5  UNL     1     -36.806  16.507  -5.565  1.00 20.00     0.244 C 
HETATM    5  C6  UNL     1     -35.542  14.773  -6.033  1.00 20.00     0.255 C 
HETATM    6  C7  UNL     1     -34.531  15.746  -5.393  1.00 20.00     0.094 C 
HETATM    7  N9  UNL     1     -36.720  15.078  -5.175  1.00 20.00     0.100 N 
HETATM    8  H21 UNL     1     -36.500  14.980  -4.184  1.00 20.00     0.317 HD
ENDROOT
BRANCH   6   9
HETATM    9  C3  UNL     1     -33.850  15.175  -4.185  1.00 20.00     0.129 C 
HETATM   10  C8  UNL     1     -33.267  16.160  -3.208  1.00 20.00     0.091 C 
HETATM   11  O10 UNL     1     -33.773  13.961  -4.001  1.00 20.00    -0.298 OA
ENDBRANCH   6   9
TORSDOF 1
ENDMDL
MODEL 9
REMARK VINA RESULT:      -3.8      9.846     10.523
REMARK  1 active torsions:
REMARK  status: ('A' for Active; 'I' for Inactive)
REMARK    1  A    between atoms: C3_3  and  C7_7 
ROOT
HETATM    1  C1  UNL     1     -41.943  14.223   8.794  1.00 20.00     0.006 C 
HETATM    2  C2  UNL     1     -40.639  14.384   8.530  1.00 20.00     0.007 C 
HETATM    3  C4  UNL     1     -42.285  12.779   6.807  1.00 20.00     0.054 C 
HETATM    4  C5  UNL     1     -42.641  14.128   7.461  1.00 20.00     0.244 C 
HETATM    5  C6  UNL     1     -40.503  14.382   7.029  1.00 20.00     0.255 C 
HETATM    6  C7  UNL     1     -40.764  12.947   6.529  1.00 20.00     0.094 C 
HETATM    7  N9  UNL     1     -41.791  15.001   6.615  1.00 20.00     0.100 N 
HETATM    8  H21 UNL     1     -41.981  14.851   5.624  1.00 20.00     0.317 HD
ENDROOT
BRANCH   6   9
HETATM    9  C3  UNL     1     -40.434  12.760   5.078  1.00 20.00     0.129 C 
HETATM   10  C8  UNL     1     -39.377  11.742   4.750  1.00 20.00     0.091 C 
HETATM   11  O10 UNL     1     -41.001  13.407   4.199  1.00 20.00    -0.298 OA
ENDBRANCH   6   9
TORSDOF 1
ENDMDL
