MODEL 1
REMARK VINA RESULT:      -4.1      0.000      0.000
REMARK  1 active torsions:
REMARK  status: ('A' for Active; 'I' for Inactive)
REMARK    1  A    between atoms: C1_1  and  C5_5 
ROOT
HETATM    1  C1  UNL     1     -40.669  12.602   5.850  1.00 20.00    -0.068 C 
HETATM    2  C2  UNL     1     -39.894  12.158   5.047  1.00 20.00    -0.108 C 
HETATM    3  C6  UNL     1     -38.952  11.617   4.069  1.00 20.00     0.112 C 
ENDROOT
BRANCH   1   4
HETATM    4  C5  UNL     1     -41.605  13.138   6.820  1.00 20.00     0.126 C 
HETATM    5  C3  UNL     1     -41.835  14.673   6.711  1.00 20.00     0.057 C 
HETATM    6  C4  UNL     1     -41.428  14.685   8.199  1.00 20.00     0.127 C 
HETATM    7  C7  UNL     1     -43.215  15.214   6.385  1.00 20.00     0.016 C 
HETATM    8  C8  UNL     1     -40.326  15.643   8.600  1.00 20.00     0.040 C 
HETATM    9  O10 UNL     1     -40.925  13.324   8.097  1.00 20.00    -0.362 OA
HETATM   10  C9  UNL     1     -42.811  12.227   7.004  1.00 20.00     0.061 C 
ENDBRANCH   1   4
TORSDOF 1
ENDMDL
MODEL 2
REMARK VINA RESULT:      -3.8     10.780     12.606
REMARK  1 active torsions:
REMARK  status: ('A' for Active; 'I' for Inactive)
REMARK    1  A    between atoms: C1_1  and  C5_5 
ROOT
HETATM    1  C1  UNL     1     -33.335  16.943  -2.845  1.00 20.00    -0.068 C 
HETATM    2  C2  UNL     1     -33.510  15.886  -3.387  1.00 20.00    -0.108 C 
HETATM    3  C6  UNL     1     -33.723  14.600  -4.048  1.00 20.00     0.112 C 
ENDROOT
BRANCH   1   4
HETATM    4  C5  UNL     1     -33.124  18.219  -2.189  1.00 20.00     0.126 C 
HETATM    5  C3  UNL     1     -32.513  18.115  -0.761  1.00 20.00     0.057 C 
HETATM    6  C4  UNL     1     -33.747  18.940  -0.340  1.00 20.00     0.127 C 
HETATM    7  C7  UNL     1     -31.158  18.731  -0.467  1.00 20.00     0.016 C 
HETATM    8  C8  UNL     1     -34.582  18.391   0.798  1.00 20.00     0.040 C 
HETATM    9  O10 UNL     1     -34.384  18.686  -1.623  1.00 20.00    -0.362 OA
HETATM   10  C9  UNL     1     -32.569  19.263  -3.149  1.00 20.00     0.061 C 
ENDBRANCH   1   4
TORSDOF 1
ENDMDL
MODEL 3
REMARK VINA RESULT:      -3.5     20.902     22.652
REMARK  1 active torsions:
REMARK  status: ('A' for Active; 'I' for Inactive)
REMARK    1  A    between atoms: C1_1  and  C5_5 
ROOT
HETATM    1  C1  UNL     1     -24.782  -3.210   9.683  1.00 20.00    -0.068 C 
HETATM    2  C2  UNL     1     -23.874  -3.227   8.898  1.00 20.00    -0.108 C 
HETATM    3  C6  UNL     1     -22.768  -3.246   7.942  1.00 20.00     0.112 C 
ENDROOT
BRANCH   1   4
HETATM    4  C5  UNL     1     -25.881  -3.190  10.630  1.00 20.00     0.126 C 
HETATM    5  C3  UNL     1     -27.057  -2.253  10.229  1.00 20.00     0.057 C 
HETATM    6  C4  UNL     1     -26.823  -1.620  11.617  1.00 20.00     0.127 C 
HETATM    7  C7  UNL     1     -28.437  -2.831   9.976  1.00 20.00     0.016 C 
HETATM    8  C8  UNL     1     -26.639  -0.118  11.662  1.00 20.00     0.040 C 
HETATM    9  O10 UNL     1     -25.546  -2.306  11.740  1.00 20.00    -0.362 OA
HETATM   10  C9  UNL     1     -26.199  -4.583  11.155  1.00 20.00     0.061 C 
ENDBRANCH   1   4
TORSDOF 1
ENDMDL
MODEL 4
REMARK VINA RESULT:      -3.5     12.032     13.551
REMARK  1 active torsions:
REMARK  status: ('A' for Active; 'I' for Inactive)
REMARK    1  A    between atoms: C1_1  and  C5_5 
ROOT
HETATM    1  C1  UNL     1     -33.517  16.079  -3.045  1.00 20.00    -0.068 C 
HETATM    2  C2  UNL     1     -33.452  16.856  -2.131  1.00 20.00    -0.108 C 
HETATM    3  C6  UNL     1     -33.373  17.801  -1.018  1.00 20.00     0.112 C 
ENDROOT
BRANCH   1   4
HETATM    4  C5  UNL     1     -33.597  15.141  -4.148  1.00 20.00     0.126 C 
HETATM    5  C3  UNL     1     -34.569  15.570  -5.286  1.00 20.00     0.057 C 
HETATM    6  C4  UNL     1     -35.220  14.194  -5.038  1.00 20.00     0.127 C 
HETATM    7  C7  UNL     1     -34.037  15.822  -6.685  1.00 20.00     0.016 C 
HETATM    8  C8  UNL     1     -36.715  14.177  -4.798  1.00 20.00     0.040 C 
HETATM    9  O10 UNL     1     -34.490  14.046  -3.789  1.00 20.00    -0.362 OA
HETATM   10  C9  UNL     1     -32.227  14.591  -4.522  1.00 20.00     0.061 C 
ENDBRANCH   1   4
TORSDOF 1
ENDMDL
MODEL 5
REMARK VINA RESULT:      -3.4      2.044      3.328
REMARK  1 active torsions:
REMARK  status: ('A' for Active; 'I' for Inactive)
REMARK    1  A    between atoms: C1_1  and  C5_5 
ROOT
HETATM    1  C1  UNL     1     -41.964  14.027   4.843  1.00 20.00    -0.068 C 
HETATM    2  C2  UNL     1     -42.316  14.689   3.905  1.00 20.00    -0.108 C 
HETATM    3  C6  UNL     1     -42.745  15.493   2.762  1.00 20.00     0.112 C 
ENDROOT
BRANCH   1   4
HETATM    4  C5  UNL     1     -41.538  13.229   5.976  1.00 20.00     0.126 C 
HETATM    5  C3  UNL     1     -40.242  13.741   6.672  1.00 20.00     0.057 C 
HETATM    6  C4  UNL     1     -39.723  12.311   6.413  1.00 20.00     0.127 C 
HETATM    7  C7  UNL     1     -40.284  14.191   8.120  1.00 20.00     0.016 C 
HETATM    8  C8  UNL     1     -38.389  12.184   5.707  1.00 20.00     0.040 C 
HETATM    9  O10 UNL     1     -40.823  12.051   5.498  1.00 20.00    -0.362 OA
HETATM   10  C9  UNL     1     -42.715  12.803   6.843  1.00 20.00     0.061 C 
ENDBRANCH   1   4
TORSDOF 1
ENDMDL
MODEL 6
REMARK VINA RESULT:      -3.3      1.288      4.033
REMARK  1 active torsions:
REMARK  status: ('A' for Active; 'I' for Inactive)
REMARK    1  A    between atoms: C1_1  and  C5_5 
ROOT
HETATM    1  C1  UNL     1     -40.828  14.620   8.627  1.00 20.00    -0.068 C 
HETATM    2  C2  UNL     1     -40.442  14.827   9.745  1.00 20.00    -0.108 C 
HETATM    3  C6  UNL     1     -39.973  15.077  11.107  1.00 20.00     0.112 C 
ENDROOT
BRANCH   1   4
HETATM    4  C5  UNL     1     -41.296  14.372   7.277  1.00 20.00     0.126 C 
HETATM    5  C3  UNL     1     -41.852  12.936   7.043  1.00 20.00     0.057 C 
HETATM    6  C4  UNL     1     -40.815  12.887   5.902  1.00 20.00     0.127 C 
HETATM    7  C7  UNL     1     -43.303  12.738   6.646  1.00 20.00     0.016 C 
HETATM    8  C8  UNL     1     -39.868  11.705   5.888  1.00 20.00     0.040 C 
HETATM    9  O10 UNL     1     -40.156  14.077   6.417  1.00 20.00    -0.362 OA
HETATM   10  C9  UNL     1     -42.071  15.558   6.720  1.00 20.00     0.061 C 
ENDBRANCH   1   4
TORSDOF 1
ENDMDL
MODEL 7
REMARK VINA RESULT:      -3.2     11.119     13.306
REMARK  1 active torsions:
REMARK  status: ('A' for Active; 'I' for Inactive)
REMARK    1  A    between atoms: C1_1  and  C5_5 
ROOT
HETATM    1  C1  UNL     1     -33.756  17.780  -1.972  1.00 20.00    -0.068 C 
HETATM    2  C2  UNL     1     -33.828  17.939  -0.783  1.00 20.00    -0.108 C 
HETATM    3  C6  UNL     1     -33.917  18.131   0.663  1.00 20.00     0.112 C 
ENDROOT
BRANCH   1   4
HETATM    4  C5  UNL     1     -33.668  17.591  -3.407  1.00 20.00     0.126 C 
HETATM    5  C3  UNL     1     -34.929  16.938  -4.047  1.00 20.00     0.057 C 
HETATM    6  C4  UNL     1     -33.926  15.902  -4.593  1.00 20.00     0.127 C 
HETATM    7  C7  UNL     1     -35.739  17.701  -5.078  1.00 20.00     0.016 C 
HETATM    8  C8  UNL     1     -34.235  14.443  -4.329  1.00 20.00     0.040 C 
HETATM    9  O10 UNL     1     -32.894  16.388  -3.690  1.00 20.00    -0.362 OA
HETATM   10  C9  UNL     1     -33.033  18.790  -4.097  1.00 20.00     0.061 C 
ENDBRANCH   1   4
TORSDOF 1
ENDMDL
MODEL 8
REMARK VINA RESULT:      -3.2      1.657      2.922
REMARK  1 active torsions:
REMARK  status: ('A' for Active; 'I' for Inactive)
REMARK    1  A    between atoms: C1_1  and  C5_5 
ROOT
HETATM    1  C1  UNL     1     -40.445  13.632   7.013  1.00 20.00    -0.068 C 
HETATM    2  C2  UNL     1     -39.986  12.805   6.272  1.00 20.00    -0.108 C 
HETATM    3  C6  UNL     1     -39.427  11.800   5.370  1.00 20.00     0.112 C 
ENDROOT
BRANCH   1   4
HETATM    4  C5  UNL     1     -41.000  14.630   7.907  1.00 20.00     0.126 C 
HETATM    5  C3  UNL     1     -40.884  14.273   9.418  1.00 20.00     0.057 C 
HETATM    6  C4  UNL     1     -42.412  14.486   9.428  1.00 20.00     0.127 C 
HETATM    7  C7  UNL     1     -40.074  15.157  10.348  1.00 20.00     0.016 C 
HETATM    8  C8  UNL     1     -43.256  13.368  10.005  1.00 20.00     0.040 C 
HETATM    9  O10 UNL     1     -42.448  14.468   7.974  1.00 20.00    -0.362 OA
HETATM   10  C9  UNL     1     -40.657  16.044   7.460  1.00 20.00     0.061 C 
ENDBRANCH   1   4
TORSDOF 1
ENDMDL
MODEL 9
REMARK VINA RESULT:      -3.2      1.542      3.921
REMARK  1 active torsions:
REMARK  status: ('A' for Active; 'I' for Inactive)
REMARK    1  A    between atoms: C1_1  and  C5_5 
ROOT
HETATM    1  C1  UNL     1     -41.543  15.375   6.678  1.00 20.00    -0.068 C 
HETATM    2  C2  UNL     1     -41.209  16.385   7.235  1.00 20.00    -0.108 C 
HETATM    3  C6  UNL     1     -40.804  17.615   7.913  1.00 20.00     0.112 C 
ENDROOT
BRANCH   1   4
HETATM    4  C5  UNL     1     -41.945  14.155   6.004  1.00 20.00     0.126 C 
HETATM    5  C3  UNL     1     -41.831  12.871   6.877  1.00 20.00     0.057 C 
HETATM    6  C4  UNL     1     -40.958  12.347   5.719  1.00 20.00     0.127 C 
HETATM    7  C7  UNL     1     -43.072  12.063   7.206  1.00 20.00     0.016 C 
HETATM    8  C8  UNL     1     -39.593  11.802   6.082  1.00 20.00     0.040 C 
HETATM    9  O10 UNL     1     -40.853  13.686   5.160  1.00 20.00    -0.362 OA
HETATM   10  C9  UNL     1     -43.198  14.361   5.164  1.00 20.00     0.061 C 
ENDBRANCH   1   4
TORSDOF 1
ENDMDL
