MODEL 1
REMARK VINA RESULT:      -4.7      0.000      0.000
REMARK  4 active torsions:
REMARK  status: ('A' for Active; 'I' for Inactive)
REMARK    1  A    between atoms: C1_1  and  C3_3 
REMARK    2  A    between atoms: C1_1  and  O10_10 
REMARK    3  A    between atoms: C4_4  and  C7_7 
REMARK    4  A    between atoms: C7_7  and  C8_8 
ROOT
HETATM    1  C2  UNL     1     -32.926   5.100   2.442  1.00 20.00     0.020 A 
HETATM    2  C3  UNL     1     -32.537   6.260   3.320  1.00 20.00     0.090 A 
HETATM    3  C4  UNL     1     -33.879   5.581   3.503  1.00 20.00    -0.000 A 
ENDROOT
BRANCH   2   4
HETATM    4  C1  UNL     1     -32.495   7.611   2.749  1.00 20.00     0.263 C 
HETATM    5  O9  UNL     1     -32.073   7.870   1.630  1.00 20.00    -0.265 OA
BRANCH   4   6
HETATM    6  O10 UNL     1     -32.991   8.504   3.653  1.00 20.00    -0.326 OA
HETATM    7  C6  UNL     1     -32.149   8.769   4.780  1.00 20.00     0.213 C 
ENDBRANCH   4   6
ENDBRANCH   2   4
BRANCH   3   8
HETATM    8  C7  UNL     1     -34.137   4.749   4.712  1.00 20.00     0.005 C 
BRANCH   8   9
HETATM    9  C8  UNL     1     -35.033   5.462   5.740  1.00 20.00    -0.004 C 
HETATM   10  C5  UNL     1     -34.299   6.563   6.488  1.00 20.00     0.005 C 
ENDBRANCH   8   9
ENDBRANCH   3   8
TORSDOF 4
ENDMDL
MODEL 2
REMARK VINA RESULT:      -4.6      1.485      2.671
REMARK  4 active torsions:
REMARK  status: ('A' for Active; 'I' for Inactive)
REMARK    1  A    between atoms: C1_1  and  C3_3 
REMARK    2  A    between atoms: C1_1  and  O10_10 
REMARK    3  A    between atoms: C4_4  and  C7_7 
REMARK    4  A    between atoms: C7_7  and  C8_8 
ROOT
HETATM    1  C2  UNL     1     -32.530   8.865   5.300  1.00 20.00     0.020 A 
HETATM    2  C3  UNL     1     -33.332   8.335   4.141  1.00 20.00     0.090 A 
HETATM    3  C4  UNL     1     -33.080   7.465   5.356  1.00 20.00    -0.000 A 
ENDROOT
BRANCH   2   4
HETATM    4  C1  UNL     1     -32.650   8.015   2.882  1.00 20.00     0.263 C 
HETATM    5  O9  UNL     1     -32.223   6.904   2.597  1.00 20.00    -0.265 OA
BRANCH   4   6
HETATM    6  O10 UNL     1     -32.575   9.134   2.106  1.00 20.00    -0.326 OA
HETATM    7  C6  UNL     1     -32.514   8.902   0.696  1.00 20.00     0.213 C 
ENDBRANCH   4   6
ENDBRANCH   2   4
BRANCH   3   8
HETATM    8  C7  UNL     1     -34.198   7.135   6.284  1.00 20.00     0.005 C 
BRANCH   8   9
HETATM    9  C8  UNL     1     -34.509   5.628   6.322  1.00 20.00    -0.004 C 
HETATM   10  C5  UNL     1     -34.708   5.039   4.935  1.00 20.00     0.005 C 
ENDBRANCH   8   9
ENDBRANCH   3   8
TORSDOF 4
ENDMDL
MODEL 3
REMARK VINA RESULT:      -4.5      2.036      3.540
REMARK  4 active torsions:
REMARK  status: ('A' for Active; 'I' for Inactive)
REMARK    1  A    between atoms: C1_1  and  C3_3 
REMARK    2  A    between atoms: C1_1  and  O10_10 
REMARK    3  A    between atoms: C4_4  and  C7_7 
REMARK    4  A    between atoms: C7_7  and  C8_8 
ROOT
HETATM    1  C2  UNL     1     -32.858   5.137   2.464  1.00 20.00     0.020 A 
HETATM    2  C3  UNL     1     -33.940   5.783   3.288  1.00 20.00     0.090 A 
HETATM    3  C4  UNL     1     -32.553   6.392   3.237  1.00 20.00    -0.000 A 
ENDROOT
BRANCH   2   4
HETATM    4  C1  UNL     1     -34.387   5.132   4.525  1.00 20.00     0.263 C 
HETATM    5  O9  UNL     1     -34.143   3.969   4.814  1.00 20.00    -0.265 OA
BRANCH   4   6
HETATM    6  O10 UNL     1     -35.100   6.020   5.275  1.00 20.00    -0.326 OA
HETATM    7  C6  UNL     1     -34.493   6.407   6.511  1.00 20.00     0.213 C 
ENDBRANCH   4   6
ENDBRANCH   2   4
BRANCH   3   8
HETATM    8  C7  UNL     1     -32.326   7.678   2.521  1.00 20.00     0.005 C 
BRANCH   8   9
HETATM    9  C8  UNL     1     -32.648   8.905   3.393  1.00 20.00    -0.004 C 
HETATM   10  C5  UNL     1     -32.320   8.680   4.859  1.00 20.00     0.005 C 
ENDBRANCH   8   9
ENDBRANCH   3   8
TORSDOF 4
ENDMDL
MODEL 4
REMARK VINA RESULT:      -4.3     11.632     12.498
REMARK  4 active torsions:
REMARK  status: ('A' for Active; 'I' for Inactive)
REMARK    1  A    between atoms: C1_1  and  C3_3 
REMARK    2  A    between atoms: C1_1  and  O10_10 
REMARK    3  A    between atoms: C4_4  and  C7_7 
REMARK    4  A    between atoms: C7_7  and  C8_8 
ROOT
HETATM    1  C2  UNL     1     -34.137  18.015  -1.164  1.00 20.00     0.020 A 
HETATM    2  C3  UNL     1     -32.720  18.418  -1.475  1.00 20.00     0.090 A 
HETATM    3  C4  UNL     1     -33.253  17.080  -1.944  1.00 20.00    -0.000 A 
ENDROOT
BRANCH   2   4
HETATM    4  C1  UNL     1     -31.728  18.451  -0.394  1.00 20.00     0.263 C 
HETATM    5  O9  UNL     1     -30.521  18.545  -0.574  1.00 20.00    -0.265 OA
BRANCH   4   6
HETATM    6  O10 UNL     1     -32.362  18.362   0.810  1.00 20.00    -0.326 OA
HETATM    7  C6  UNL     1     -31.556  18.665   1.952  1.00 20.00     0.213 C 
ENDBRANCH   4   6
ENDBRANCH   2   4
BRANCH   3   8
HETATM    8  C7  UNL     1     -33.506  16.841  -3.393  1.00 20.00     0.005 C 
BRANCH   8   9
HETATM    9  C8  UNL     1     -32.994  15.469  -3.864  1.00 20.00    -0.004 C 
HETATM   10  C5  UNL     1     -34.123  14.511  -4.205  1.00 20.00     0.005 C 
ENDBRANCH   8   9
ENDBRANCH   3   8
TORSDOF 4
ENDMDL
MODEL 5
REMARK VINA RESULT:      -4.2      1.194      2.916
REMARK  4 active torsions:
REMARK  status: ('A' for Active; 'I' for Inactive)
REMARK    1  A    between atoms: C1_1  and  C3_3 
REMARK    2  A    between atoms: C1_1  and  O10_10 
REMARK    3  A    between atoms: C4_4  and  C7_7 
REMARK    4  A    between atoms: C7_7  and  C8_8 
ROOT
HETATM    1  C2  UNL     1     -34.108   7.565   6.456  1.00 20.00     0.020 A 
HETATM    2  C3  UNL     1     -33.745   7.835   5.020  1.00 20.00     0.090 A 
HETATM    3  C4  UNL     1     -33.707   6.421   5.563  1.00 20.00    -0.000 A 
ENDROOT
BRANCH   2   4
HETATM    4  C1  UNL     1     -32.482   8.515   4.713  1.00 20.00     0.263 C 
HETATM    5  O9  UNL     1     -32.070   9.499   5.313  1.00 20.00    -0.265 OA
BRANCH   4   6
HETATM    6  O10 UNL     1     -31.864   7.882   3.676  1.00 20.00    -0.326 OA
HETATM    7  C6  UNL     1     -32.314   8.258   2.371  1.00 20.00     0.213 C 
ENDBRANCH   4   6
ENDBRANCH   2   4
BRANCH   3   8
HETATM    8  C7  UNL     1     -34.720   5.422   5.123  1.00 20.00     0.005 C 
BRANCH   8   9
HETATM    9  C8  UNL     1     -34.116   4.321   4.233  1.00 20.00    -0.004 C 
HETATM   10  C5  UNL     1     -33.384   4.883   3.026  1.00 20.00     0.005 C 
ENDBRANCH   8   9
ENDBRANCH   3   8
TORSDOF 4
ENDMDL
MODEL 6
REMARK VINA RESULT:      -4.2      2.213      4.091
REMARK  4 active torsions:
REMARK  status: ('A' for Active; 'I' for Inactive)
REMARK    1  A    between atoms: C1_1  and  C3_3 
REMARK    2  A    between atoms: C1_1  and  O10_10 
REMARK    3  A    between atoms: C4_4  and  C7_7 
REMARK    4  A    between atoms: C7_7  and  C8_8 
ROOT
HETATM    1  C2  UNL     1     -32.885   5.519   2.501  1.00 20.00     0.020 A 
HETATM    2  C3  UNL     1     -33.963   6.000   3.435  1.00 20.00     0.090 A 
HETATM    3  C4  UNL     1     -32.593   6.649   3.452  1.00 20.00    -0.000 A 
ENDROOT
BRANCH   2   4
HETATM    4  C1  UNL     1     -34.364   5.155   4.566  1.00 20.00     0.263 C 
HETATM    5  O9  UNL     1     -34.079   3.970   4.671  1.00 20.00    -0.265 OA
BRANCH   4   6
HETATM    6  O10 UNL     1     -35.090   5.895   5.453  1.00 20.00    -0.326 OA
HETATM    7  C6  UNL     1     -34.329   6.557   6.467  1.00 20.00     0.213 C 
ENDBRANCH   4   6
ENDBRANCH   2   4
BRANCH   3   8
HETATM    8  C7  UNL     1     -32.416   8.035   2.937  1.00 20.00     0.005 C 
BRANCH   8   9
HETATM    9  C8  UNL     1     -32.085   8.070   1.434  1.00 20.00    -0.004 C 
HETATM   10  C5  UNL     1     -32.691   9.272   0.731  1.00 20.00     0.005 C 
ENDBRANCH   8   9
ENDBRANCH   3   8
TORSDOF 4
ENDMDL
MODEL 7
REMARK VINA RESULT:      -4.2     11.540     12.387
REMARK  4 active torsions:
REMARK  status: ('A' for Active; 'I' for Inactive)
REMARK    1  A    between atoms: C1_1  and  C3_3 
REMARK    2  A    between atoms: C1_1  and  O10_10 
REMARK    3  A    between atoms: C4_4  and  C7_7 
REMARK    4  A    between atoms: C7_7  and  C8_8 
ROOT
HETATM    1  C2  UNL     1     -33.169  14.436  -4.532  1.00 20.00     0.020 A 
HETATM    2  C3  UNL     1     -34.516  15.007  -4.887  1.00 20.00     0.090 A 
HETATM    3  C4  UNL     1     -33.889  15.313  -3.542  1.00 20.00    -0.000 A 
ENDROOT
BRANCH   2   4
HETATM    4  C1  UNL     1     -35.683  14.119  -4.944  1.00 20.00     0.263 C 
HETATM    5  O9  UNL     1     -35.766  13.058  -4.339  1.00 20.00    -0.265 OA
BRANCH   4   6
HETATM    6  O10 UNL     1     -36.630  14.661  -5.762  1.00 20.00    -0.326 OA
HETATM    7  C6  UNL     1     -36.868  16.060  -5.583  1.00 20.00     0.213 C 
ENDBRANCH   4   6
ENDBRANCH   2   4
BRANCH   3   8
HETATM    8  C7  UNL     1     -33.382  16.683  -3.247  1.00 20.00     0.005 C 
BRANCH   8   9
HETATM    9  C8  UNL     1     -33.526  17.059  -1.762  1.00 20.00    -0.004 C 
HETATM   10  C5  UNL     1     -32.483  18.068  -1.312  1.00 20.00     0.005 C 
ENDBRANCH   8   9
ENDBRANCH   3   8
TORSDOF 4
ENDMDL
MODEL 8
REMARK VINA RESULT:      -4.1      2.205      4.660
REMARK  4 active torsions:
REMARK  status: ('A' for Active; 'I' for Inactive)
REMARK    1  A    between atoms: C1_1  and  C3_3 
REMARK    2  A    between atoms: C1_1  and  O10_10 
REMARK    3  A    between atoms: C4_4  and  C7_7 
REMARK    4  A    between atoms: C7_7  and  C8_8 
ROOT
HETATM    1  C2  UNL     1     -32.392   8.695   5.034  1.00 20.00     0.020 A 
HETATM    2  C3  UNL     1     -32.973   7.328   4.789  1.00 20.00     0.090 A 
HETATM    3  C4  UNL     1     -33.151   8.427   3.762  1.00 20.00    -0.000 A 
ENDROOT
BRANCH   2   4
HETATM    4  C1  UNL     1     -34.134   6.889   5.572  1.00 20.00     0.263 C 
HETATM    5  O9  UNL     1     -34.347   7.225   6.729  1.00 20.00    -0.265 OA
BRANCH   4   6
HETATM    6  O10 UNL     1     -34.912   6.066   4.812  1.00 20.00    -0.326 OA
HETATM    7  C6  UNL     1     -34.360   4.774   4.544  1.00 20.00     0.213 C 
ENDBRANCH   4   6
ENDBRANCH   2   4
BRANCH   3   8
HETATM    8  C7  UNL     1     -32.431   8.358   2.459  1.00 20.00     0.005 C 
BRANCH   8   9
HETATM    9  C8  UNL     1     -32.818   9.504   1.509  1.00 20.00    -0.004 C 
HETATM   10  C5  UNL     1     -32.760   9.094   0.046  1.00 20.00     0.005 C 
ENDBRANCH   8   9
ENDBRANCH   3   8
TORSDOF 4
ENDMDL
MODEL 9
REMARK VINA RESULT:      -4.0      2.094      4.171
REMARK  4 active torsions:
REMARK  status: ('A' for Active; 'I' for Inactive)
REMARK    1  A    between atoms: C1_1  and  C3_3 
REMARK    2  A    between atoms: C1_1  and  O10_10 
REMARK    3  A    between atoms: C4_4  and  C7_7 
REMARK    4  A    between atoms: C7_7  and  C8_8 
ROOT
HETATM    1  C2  UNL     1     -34.172   7.082   6.448  1.00 20.00     0.020 A 
HETATM    2  C3  UNL     1     -33.691   6.300   5.254  1.00 20.00     0.090 A 
HETATM    3  C4  UNL     1     -33.811   7.809   5.180  1.00 20.00    -0.000 A 
ENDROOT
BRANCH   2   4
HETATM    4  C1  UNL     1     -34.644   5.472   4.505  1.00 20.00     0.263 C 
HETATM    5  O9  UNL     1     -35.858   5.609   4.557  1.00 20.00    -0.265 OA
BRANCH   4   6
HETATM    6  O10 UNL     1     -33.963   4.552   3.764  1.00 20.00    -0.326 OA
HETATM    7  C6  UNL     1     -33.075   5.090   2.780  1.00 20.00     0.213 C 
ENDBRANCH   4   6
ENDBRANCH   2   4
BRANCH   3   8
HETATM    8  C7  UNL     1     -32.586   8.655   5.124  1.00 20.00     0.005 C 
BRANCH   8   9
HETATM    9  C8  UNL     1     -31.785   8.448   3.826  1.00 20.00    -0.004 C 
HETATM   10  C5  UNL     1     -32.573   8.834   2.586  1.00 20.00     0.005 C 
ENDBRANCH   8   9
ENDBRANCH   3   8
TORSDOF 4
ENDMDL
