MODEL 1
REMARK VINA RESULT:      -3.8      0.000      0.000
REMARK  2 active torsions:
REMARK  status: ('A' for Active; 'I' for Inactive)
REMARK    1  A    between atoms: C3_3  and  C4_4 
REMARK    2  A    between atoms: C3_3  and  O10_10 
ROOT
HETATM    1  C1  UNL     1     -41.824  12.857   6.404  1.00 20.00    -0.066 A 
HETATM    2  C2  UNL     1     -42.662  12.112   7.094  1.00 20.00     0.016 C 
HETATM    3  C4  UNL     1     -40.749  12.869   5.489  1.00 20.00     0.126 A 
HETATM    4  C5  UNL     1     -41.419  14.178   6.089  1.00 20.00    -0.008 A 
HETATM    5  C6  UNL     1     -40.690  14.975   7.137  1.00 20.00     0.021 C 
HETATM    6  C7  UNL     1     -42.283  14.996   5.169  1.00 20.00     0.021 C 
ENDROOT
BRANCH   3   7
HETATM    7  C3  UNL     1     -39.466  12.388   6.003  1.00 20.00     0.267 C 
HETATM    8  O9  UNL     1     -39.267  12.083   7.171  1.00 20.00    -0.264 OA
BRANCH   7   9
HETATM    9  O10 UNL     1     -38.557  12.339   4.988  1.00 20.00    -0.326 OA
HETATM   10  C8  UNL     1     -38.990  11.658   3.807  1.00 20.00     0.213 C 
ENDBRANCH   7   9
ENDBRANCH   3   7
TORSDOF 2
ENDMDL
MODEL 2
REMARK VINA RESULT:      -3.8      8.800      9.984
REMARK  2 active torsions:
REMARK  status: ('A' for Active; 'I' for Inactive)
REMARK    1  A    between atoms: C3_3  and  C4_4 
REMARK    2  A    between atoms: C3_3  and  O10_10 
ROOT
HETATM    1  C1  UNL     1     -33.718   7.431   5.194  1.00 20.00    -0.066 A 
HETATM    2  C2  UNL     1     -33.740   8.709   5.508  1.00 20.00     0.016 C 
HETATM    3  C4  UNL     1     -32.963   6.376   4.637  1.00 20.00     0.126 A 
HETATM    4  C5  UNL     1     -34.439   6.211   5.201  1.00 20.00    -0.008 A 
HETATM    5  C6  UNL     1     -35.589   6.050   4.244  1.00 20.00     0.021 C 
HETATM    6  C7  UNL     1     -34.603   5.480   6.505  1.00 20.00     0.021 C 
ENDROOT
BRANCH   3   7
HETATM    7  C3  UNL     1     -32.721   6.452   3.196  1.00 20.00     0.267 C 
HETATM    8  O9  UNL     1     -32.931   5.531   2.417  1.00 20.00    -0.264 OA
BRANCH   7   9
HETATM    9  O10 UNL     1     -32.238   7.686   2.878  1.00 20.00    -0.326 OA
HETATM   10  C8  UNL     1     -32.236   8.006   1.484  1.00 20.00     0.213 C 
ENDBRANCH   7   9
ENDBRANCH   3   7
TORSDOF 2
ENDMDL
MODEL 3
REMARK VINA RESULT:      -3.7      1.022      1.992
REMARK  2 active torsions:
REMARK  status: ('A' for Active; 'I' for Inactive)
REMARK    1  A    between atoms: C3_3  and  C4_4 
REMARK    2  A    between atoms: C3_3  and  O10_10 
ROOT
HETATM    1  C1  UNL     1     -41.782  13.997   5.554  1.00 20.00    -0.066 A 
HETATM    2  C2  UNL     1     -42.203  14.382   4.368  1.00 20.00     0.016 C 
HETATM    3  C4  UNL     1     -40.659  13.717   6.363  1.00 20.00     0.126 A 
HETATM    4  C5  UNL     1     -42.163  13.598   6.859  1.00 20.00    -0.008 A 
HETATM    5  C6  UNL     1     -42.783  12.239   7.043  1.00 20.00     0.021 C 
HETATM    6  C7  UNL     1     -42.660  14.647   7.816  1.00 20.00     0.021 C 
ENDROOT
BRANCH   3   7
HETATM    7  C3  UNL     1     -39.897  12.519   6.008  1.00 20.00     0.267 C 
HETATM    8  O9  UNL     1     -39.239  11.864   6.805  1.00 20.00    -0.264 OA
BRANCH   7   9
HETATM    9  O10 UNL     1     -40.042  12.264   4.677  1.00 20.00    -0.326 OA
HETATM   10  C8  UNL     1     -38.904  11.681   4.035  1.00 20.00     0.213 C 
ENDBRANCH   7   9
ENDBRANCH   3   7
TORSDOF 2
ENDMDL
MODEL 4
REMARK VINA RESULT:      -3.7      1.921      3.470
REMARK  2 active torsions:
REMARK  status: ('A' for Active; 'I' for Inactive)
REMARK    1  A    between atoms: C3_3  and  C4_4 
REMARK    2  A    between atoms: C3_3  and  O10_10 
ROOT
HETATM    1  C1  UNL     1     -40.292  13.082   6.264  1.00 20.00    -0.066 A 
HETATM    2  C2  UNL     1     -39.452  12.083   6.096  1.00 20.00     0.016 C 
HETATM    3  C4  UNL     1     -40.484  14.372   6.806  1.00 20.00     0.126 A 
HETATM    4  C5  UNL     1     -41.600  13.567   6.013  1.00 20.00    -0.008 A 
HETATM    5  C6  UNL     1     -42.751  12.953   6.763  1.00 20.00     0.021 C 
HETATM    6  C7  UNL     1     -41.939  14.039   4.625  1.00 20.00     0.021 C 
ENDROOT
BRANCH   3   7
HETATM    7  C3  UNL     1     -40.523  14.454   8.266  1.00 20.00     0.267 C 
HETATM    8  O9  UNL     1     -40.129  13.568   9.013  1.00 20.00    -0.264 OA
BRANCH   7   9
HETATM    9  O10 UNL     1     -41.056  15.651   8.642  1.00 20.00    -0.326 OA
HETATM   10  C8  UNL     1     -40.737  16.760   7.797  1.00 20.00     0.213 C 
ENDBRANCH   7   9
ENDBRANCH   3   7
TORSDOF 2
ENDMDL
MODEL 5
REMARK VINA RESULT:      -3.6     17.634     18.612
REMARK  2 active torsions:
REMARK  status: ('A' for Active; 'I' for Inactive)
REMARK    1  A    between atoms: C3_3  and  C4_4 
REMARK    2  A    between atoms: C3_3  and  O10_10 
ROOT
HETATM    1  C1  UNL     1     -24.562  18.541  10.445  1.00 20.00    -0.066 A 
HETATM    2  C2  UNL     1     -24.894  18.883   9.218  1.00 20.00     0.016 C 
HETATM    3  C4  UNL     1     -23.743  18.826  11.559  1.00 20.00     0.126 A 
HETATM    4  C5  UNL     1     -24.802  17.643  11.515  1.00 20.00    -0.008 A 
HETATM    5  C6  UNL     1     -24.327  16.222  11.382  1.00 20.00     0.021 C 
HETATM    6  C7  UNL     1     -26.058  17.809  12.326  1.00 20.00     0.021 C 
ENDROOT
BRANCH   3   7
HETATM    7  C3  UNL     1     -22.315  18.553  11.392  1.00 20.00     0.267 C 
HETATM    8  O9  UNL     1     -21.585  18.153  12.289  1.00 20.00    -0.264 OA
BRANCH   7   9
HETATM    9  O10 UNL     1     -21.949  18.810  10.104  1.00 20.00    -0.326 OA
HETATM   10  C8  UNL     1     -21.293  17.736   9.425  1.00 20.00     0.213 C 
ENDBRANCH   7   9
ENDBRANCH   3   7
TORSDOF 2
ENDMDL
MODEL 6
REMARK VINA RESULT:      -3.6     11.801     12.975
REMARK  2 active torsions:
REMARK  status: ('A' for Active; 'I' for Inactive)
REMARK    1  A    between atoms: C3_3  and  C4_4 
REMARK    2  A    between atoms: C3_3  and  O10_10 
ROOT
HETATM    1  C1  UNL     1     -34.446  15.525  -6.119  1.00 20.00    -0.066 A 
HETATM    2  C2  UNL     1     -33.844  15.332  -7.273  1.00 20.00     0.016 C 
HETATM    3  C4  UNL     1     -34.373  16.138  -4.848  1.00 20.00     0.126 A 
HETATM    4  C5  UNL     1     -35.599  15.257  -5.340  1.00 20.00    -0.008 A 
HETATM    5  C6  UNL     1     -35.788  13.869  -4.790  1.00 20.00     0.021 C 
HETATM    6  C7  UNL     1     -36.877  15.976  -5.675  1.00 20.00     0.021 C 
ENDROOT
BRANCH   3   7
HETATM    7  C3  UNL     1     -33.381  15.583  -3.926  1.00 20.00     0.267 C 
HETATM    8  O9  UNL     1     -32.479  14.828  -4.263  1.00 20.00    -0.264 OA
BRANCH   7   9
HETATM    9  O10 UNL     1     -33.627  16.038  -2.664  1.00 20.00    -0.326 OA
HETATM   10  C8  UNL     1     -33.222  17.385  -2.406  1.00 20.00     0.213 C 
ENDBRANCH   7   9
ENDBRANCH   3   7
TORSDOF 2
ENDMDL
MODEL 7
REMARK VINA RESULT:      -3.5      8.828      9.774
REMARK  2 active torsions:
REMARK  status: ('A' for Active; 'I' for Inactive)
REMARK    1  A    between atoms: C3_3  and  C4_4 
REMARK    2  A    between atoms: C3_3  and  O10_10 
ROOT
HETATM    1  C1  UNL     1     -32.532   8.792   4.544  1.00 20.00    -0.066 A 
HETATM    2  C2  UNL     1     -31.693   9.468   5.300  1.00 20.00     0.016 C 
HETATM    3  C4  UNL     1     -33.813   8.204   4.452  1.00 20.00     0.126 A 
HETATM    4  C5  UNL     1     -32.740   8.183   3.281  1.00 20.00    -0.008 A 
HETATM    5  C6  UNL     1     -32.003   6.909   2.967  1.00 20.00     0.021 C 
HETATM    6  C7  UNL     1     -32.999   9.065   2.090  1.00 20.00     0.021 C 
ENDROOT
BRANCH   3   7
HETATM    7  C3  UNL     1     -34.033   7.017   5.279  1.00 20.00     0.267 C 
HETATM    8  O9  UNL     1     -33.517   6.841   6.375  1.00 20.00    -0.264 OA
BRANCH   7   9
HETATM    9  O10 UNL     1     -34.887   6.168   4.641  1.00 20.00    -0.326 OA
HETATM   10  C8  UNL     1     -34.548   4.780   4.720  1.00 20.00     0.213 C 
ENDBRANCH   7   9
ENDBRANCH   3   7
TORSDOF 2
ENDMDL
MODEL 8
REMARK VINA RESULT:      -3.5      8.850     10.090
REMARK  2 active torsions:
REMARK  status: ('A' for Active; 'I' for Inactive)
REMARK    1  A    between atoms: C3_3  and  C4_4 
REMARK    2  A    between atoms: C3_3  and  O10_10 
ROOT
HETATM    1  C1  UNL     1     -35.104   6.164   4.438  1.00 20.00    -0.066 A 
HETATM    2  C2  UNL     1     -36.262   6.283   3.824  1.00 20.00     0.016 C 
HETATM    3  C4  UNL     1     -33.837   6.742   4.669  1.00 20.00     0.126 A 
HETATM    4  C5  UNL     1     -34.316   5.369   5.308  1.00 20.00    -0.008 A 
HETATM    5  C6  UNL     1     -33.760   4.071   4.789  1.00 20.00     0.021 C 
HETATM    6  C7  UNL     1     -34.644   5.367   6.776  1.00 20.00     0.021 C 
ENDROOT
BRANCH   3   7
HETATM    7  C3  UNL     1     -32.920   6.751   3.528  1.00 20.00     0.267 C 
HETATM    8  O9  UNL     1     -32.952   5.935   2.617  1.00 20.00    -0.264 OA
BRANCH   7   9
HETATM    9  O10 UNL     1     -32.049   7.793   3.651  1.00 20.00    -0.326 OA
HETATM   10  C8  UNL     1     -32.325   8.702   4.720  1.00 20.00     0.213 C 
ENDBRANCH   7   9
ENDBRANCH   3   7
TORSDOF 2
ENDMDL
MODEL 9
REMARK VINA RESULT:      -3.4      8.965      9.821
REMARK  2 active torsions:
REMARK  status: ('A' for Active; 'I' for Inactive)
REMARK    1  A    between atoms: C3_3  and  C4_4 
REMARK    2  A    between atoms: C3_3  and  O10_10 
ROOT
HETATM    1  C1  UNL     1     -33.732   5.941   3.743  1.00 20.00    -0.066 A 
HETATM    2  C2  UNL     1     -32.991   5.264   2.891  1.00 20.00     0.016 C 
HETATM    3  C4  UNL     1     -33.983   7.200   4.332  1.00 20.00     0.126 A 
HETATM    4  C5  UNL     1     -34.807   5.882   4.664  1.00 20.00    -0.008 A 
HETATM    5  C6  UNL     1     -34.591   5.179   5.977  1.00 20.00     0.021 C 
HETATM    6  C7  UNL     1     -36.210   5.792   4.129  1.00 20.00     0.021 C 
ENDROOT
BRANCH   3   7
HETATM    7  C3  UNL     1     -32.960   7.689   5.257  1.00 20.00     0.267 C 
HETATM    8  O9  UNL     1     -32.996   7.522   6.469  1.00 20.00    -0.264 OA
BRANCH   7   9
HETATM    9  O10 UNL     1     -31.988   8.342   4.559  1.00 20.00    -0.326 OA
HETATM   10  C8  UNL     1     -32.429   9.017   3.377  1.00 20.00     0.213 C 
ENDBRANCH   7   9
ENDBRANCH   3   7
TORSDOF 2
ENDMDL
