MODEL 1
REMARK VINA RESULT:      -4.9      0.000      0.000
REMARK  1 active torsions:
REMARK  status: ('A' for Active; 'I' for Inactive)
REMARK    1  A    between atoms: C1_1  and  C3_3 
ROOT
HETATM    1  C1  UNL     1     -33.942   7.263   5.331  1.00 20.00     0.163 C 
HETATM    2  C2  UNL     1     -32.980   7.708   4.505  1.00 20.00    -0.045 C 
HETATM    3  C4  UNL     1     -32.181   8.969   4.689  1.00 20.00     0.046 C 
HETATM    4  C5  UNL     1     -32.601   6.921   3.278  1.00 20.00     0.046 C 
HETATM    5  F8  UNL     1     -34.266   7.977   6.433  1.00 20.00    -0.202 F 
ENDROOT
BRANCH   1   6
HETATM    6  C3  UNL     1     -34.750   6.022   5.180  1.00 20.00     0.183 C 
HETATM    7  C6  UNL     1     -34.388   4.869   6.079  1.00 20.00     0.099 C 
HETATM    8  O7  UNL     1     -35.638   5.915   4.339  1.00 20.00    -0.290 OA
ENDBRANCH   1   6
TORSDOF 1
ENDMDL
MODEL 2
REMARK VINA RESULT:      -4.7      1.751      1.996
REMARK  1 active torsions:
REMARK  status: ('A' for Active; 'I' for Inactive)
REMARK    1  A    between atoms: C1_1  and  C3_3 
ROOT
HETATM    1  C1  UNL     1     -33.652   6.271   4.054  1.00 20.00     0.163 C 
HETATM    2  C2  UNL     1     -33.012   7.442   4.203  1.00 20.00    -0.045 C 
HETATM    3  C4  UNL     1     -31.820   7.898   3.408  1.00 20.00     0.046 C 
HETATM    4  C5  UNL     1     -33.481   8.445   5.225  1.00 20.00     0.046 C 
HETATM    5  F8  UNL     1     -33.224   5.384   3.127  1.00 20.00    -0.202 F 
ENDROOT
BRANCH   1   6
HETATM    6  C3  UNL     1     -34.832   5.789   4.822  1.00 20.00     0.183 C 
HETATM    7  C6  UNL     1     -34.556   5.200   6.181  1.00 20.00     0.099 C 
HETATM    8  O7  UNL     1     -35.972   5.821   4.366  1.00 20.00    -0.290 OA
ENDBRANCH   1   6
TORSDOF 1
ENDMDL
MODEL 3
REMARK VINA RESULT:      -4.6      1.011      1.213
REMARK  1 active torsions:
REMARK  status: ('A' for Active; 'I' for Inactive)
REMARK    1  A    between atoms: C1_1  and  C3_3 
ROOT
HETATM    1  C1  UNL     1     -33.827   7.199   5.554  1.00 20.00     0.163 C 
HETATM    2  C2  UNL     1     -32.957   7.729   4.678  1.00 20.00    -0.045 C 
HETATM    3  C4  UNL     1     -32.285   9.067   4.811  1.00 20.00     0.046 C 
HETATM    4  C5  UNL     1     -32.559   6.968   3.440  1.00 20.00     0.046 C 
HETATM    5  F8  UNL     1     -34.170   7.890   6.665  1.00 20.00    -0.202 F 
ENDROOT
BRANCH   1   6
HETATM    6  C3  UNL     1     -34.510   5.880   5.454  1.00 20.00     0.183 C 
HETATM    7  C6  UNL     1     -35.589   5.757   4.410  1.00 20.00     0.099 C 
HETATM    8  O7  UNL     1     -34.248   4.946   6.207  1.00 20.00    -0.290 OA
ENDBRANCH   1   6
TORSDOF 1
ENDMDL
MODEL 4
REMARK VINA RESULT:      -4.2      1.933      2.331
REMARK  1 active torsions:
REMARK  status: ('A' for Active; 'I' for Inactive)
REMARK    1  A    between atoms: C1_1  and  C3_3 
ROOT
HETATM    1  C1  UNL     1     -33.427   6.506   4.096  1.00 20.00     0.163 C 
HETATM    2  C2  UNL     1     -33.164   7.524   4.932  1.00 20.00    -0.045 C 
HETATM    3  C4  UNL     1     -32.186   8.637   4.677  1.00 20.00     0.046 C 
HETATM    4  C5  UNL     1     -33.885   7.637   6.250  1.00 20.00     0.046 C 
HETATM    5  F8  UNL     1     -32.778   6.422   2.912  1.00 20.00    -0.202 F 
ENDROOT
BRANCH   1   6
HETATM    6  C3  UNL     1     -34.387   5.390   4.316  1.00 20.00     0.183 C 
HETATM    7  C6  UNL     1     -35.849   5.752   4.332  1.00 20.00     0.099 C 
HETATM    8  O7  UNL     1     -34.019   4.236   4.521  1.00 20.00    -0.290 OA
ENDBRANCH   1   6
TORSDOF 1
ENDMDL
MODEL 5
REMARK VINA RESULT:      -4.2      2.367      3.821
REMARK  1 active torsions:
REMARK  status: ('A' for Active; 'I' for Inactive)
REMARK    1  A    between atoms: C1_1  and  C3_3 
ROOT
HETATM    1  C1  UNL     1     -33.323   6.489   4.000  1.00 20.00     0.163 C 
HETATM    2  C2  UNL     1     -34.051   6.345   5.120  1.00 20.00    -0.045 C 
HETATM    3  C4  UNL     1     -34.913   5.161   5.460  1.00 20.00     0.046 C 
HETATM    4  C5  UNL     1     -34.039   7.414   6.182  1.00 20.00     0.046 C 
HETATM    5  F8  UNL     1     -33.339   5.517   3.059  1.00 20.00    -0.202 F 
ENDROOT
BRANCH   1   6
HETATM    6  C3  UNL     1     -32.461   7.644   3.632  1.00 20.00     0.183 C 
HETATM    7  C6  UNL     1     -32.228   7.871   2.162  1.00 20.00     0.099 C 
HETATM    8  O7  UNL     1     -31.923   8.357   4.475  1.00 20.00    -0.290 OA
ENDBRANCH   1   6
TORSDOF 1
ENDMDL
MODEL 6
REMARK VINA RESULT:      -4.1      1.736      3.242
REMARK  1 active torsions:
REMARK  status: ('A' for Active; 'I' for Inactive)
REMARK    1  A    between atoms: C1_1  and  C3_3 
ROOT
HETATM    1  C1  UNL     1     -33.620   7.150   4.737  1.00 20.00     0.163 C 
HETATM    2  C2  UNL     1     -33.975   5.904   4.381  1.00 20.00    -0.045 C 
HETATM    3  C4  UNL     1     -34.981   5.041   5.093  1.00 20.00     0.046 C 
HETATM    4  C5  UNL     1     -33.369   5.254   3.165  1.00 20.00     0.046 C 
HETATM    5  F8  UNL     1     -34.178   7.723   5.828  1.00 20.00    -0.202 F 
ENDROOT
BRANCH   1   6
HETATM    6  C3  UNL     1     -32.631   8.030   4.057  1.00 20.00     0.183 C 
HETATM    7  C6  UNL     1     -32.075   9.171   4.868  1.00 20.00     0.099 C 
HETATM    8  O7  UNL     1     -32.311   7.873   2.882  1.00 20.00    -0.290 OA
ENDBRANCH   1   6
TORSDOF 1
ENDMDL
MODEL 7
REMARK VINA RESULT:      -4.1      1.862      3.290
REMARK  1 active torsions:
REMARK  status: ('A' for Active; 'I' for Inactive)
REMARK    1  A    between atoms: C1_1  and  C3_3 
ROOT
HETATM    1  C1  UNL     1     -33.020   7.603   4.639  1.00 20.00     0.163 C 
HETATM    2  C2  UNL     1     -33.933   6.804   5.217  1.00 20.00    -0.045 C 
HETATM    3  C4  UNL     1     -34.355   6.855   6.659  1.00 20.00     0.046 C 
HETATM    4  C5  UNL     1     -34.649   5.753   4.410  1.00 20.00     0.046 C 
HETATM    5  F8  UNL     1     -32.390   8.547   5.375  1.00 20.00    -0.202 F 
ENDROOT
BRANCH   1   6
HETATM    6  C3  UNL     1     -32.579   7.580   3.218  1.00 20.00     0.183 C 
HETATM    7  C6  UNL     1     -32.619   8.892   2.479  1.00 20.00     0.099 C 
HETATM    8  O7  UNL     1     -32.242   6.544   2.651  1.00 20.00    -0.290 OA
ENDBRANCH   1   6
TORSDOF 1
ENDMDL
MODEL 8
REMARK VINA RESULT:      -3.9      2.118      2.690
REMARK  1 active torsions:
REMARK  status: ('A' for Active; 'I' for Inactive)
REMARK    1  A    between atoms: C1_1  and  C3_3 
ROOT
HETATM    1  C1  UNL     1     -33.866   6.002   4.263  1.00 20.00     0.163 C 
HETATM    2  C2  UNL     1     -33.038   6.034   3.205  1.00 20.00    -0.045 C 
HETATM    3  C4  UNL     1     -32.917   4.966   2.154  1.00 20.00     0.046 C 
HETATM    4  C5  UNL     1     -32.135   7.218   2.977  1.00 20.00     0.046 C 
HETATM    5  F8  UNL     1     -34.676   4.936   4.451  1.00 20.00    -0.202 F 
ENDROOT
BRANCH   1   6
HETATM    6  C3  UNL     1     -34.011   7.040   5.320  1.00 20.00     0.183 C 
HETATM    7  C6  UNL     1     -34.410   6.556   6.689  1.00 20.00     0.099 C 
HETATM    8  O7  UNL     1     -33.862   8.237   5.091  1.00 20.00    -0.290 OA
ENDBRANCH   1   6
TORSDOF 1
ENDMDL
MODEL 9
REMARK VINA RESULT:      -3.8      2.197      3.032
REMARK  1 active torsions:
REMARK  status: ('A' for Active; 'I' for Inactive)
REMARK    1  A    between atoms: C1_1  and  C3_3 
ROOT
HETATM    1  C1  UNL     1     -33.041   6.970   4.118  1.00 20.00     0.163 C 
HETATM    2  C2  UNL     1     -33.477   5.776   3.682  1.00 20.00    -0.045 C 
HETATM    3  C4  UNL     1     -32.958   5.039   2.478  1.00 20.00     0.046 C 
HETATM    4  C5  UNL     1     -34.566   5.043   4.422  1.00 20.00     0.046 C 
HETATM    5  F8  UNL     1     -32.058   7.612   3.447  1.00 20.00    -0.202 F 
ENDROOT
BRANCH   1   6
HETATM    6  C3  UNL     1     -33.530   7.726   5.302  1.00 20.00     0.183 C 
HETATM    7  C6  UNL     1     -33.906   6.912   6.513  1.00 20.00     0.099 C 
HETATM    8  O7  UNL     1     -33.670   8.946   5.292  1.00 20.00    -0.290 OA
ENDBRANCH   1   6
TORSDOF 1
ENDMDL
