MODEL 1
REMARK VINA RESULT:      -4.0      0.000      0.000
REMARK  0 active torsions:
REMARK  status: ('A' for Active; 'I' for Inactive)
ROOT
HETATM    1  C1  UNL     1     -33.381   6.664   4.002  1.00 20.00     0.169 C 
HETATM    2  C2  UNL     1     -34.268   7.701   5.643  1.00 20.00     0.062 C 
HETATM    3  C3  UNL     1     -33.377   8.136   4.451  1.00 20.00     0.058 C 
HETATM    4  C4  UNL     1     -34.477   6.280   5.040  1.00 20.00     0.174 C 
HETATM    5  C5  UNL     1     -32.021   8.710   4.807  1.00 20.00     0.018 C 
HETATM    6  O6  UNL     1     -32.768   6.049   3.155  1.00 20.00    -0.294 OA
HETATM    7 CL7  UNL     1     -36.054   5.980   4.236  1.00 20.00    -0.093 Cl
HETATM    8 CL8  UNL     1     -33.971   4.907   6.073  1.00 20.00    -0.093 Cl
ENDROOT
TORSDOF 0
ENDMDL
MODEL 2
REMARK VINA RESULT:      -4.0      1.536      2.495
REMARK  0 active torsions:
REMARK  status: ('A' for Active; 'I' for Inactive)
ROOT
HETATM    1  C1  UNL     1     -33.615   7.289   4.608  1.00 20.00     0.169 C 
HETATM    2  C2  UNL     1     -33.434   5.542   3.396  1.00 20.00     0.062 C 
HETATM    3  C3  UNL     1     -32.534   6.782   3.637  1.00 20.00     0.058 C 
HETATM    4  C4  UNL     1     -34.386   5.936   4.564  1.00 20.00     0.174 C 
HETATM    5  C5  UNL     1     -32.271   7.659   2.431  1.00 20.00     0.018 C 
HETATM    6  O6  UNL     1     -33.787   8.340   5.189  1.00 20.00    -0.294 OA
HETATM    7 CL7  UNL     1     -34.184   5.025   6.098  1.00 20.00    -0.093 Cl
HETATM    8 CL8  UNL     1     -36.110   6.160   4.131  1.00 20.00    -0.093 Cl
ENDROOT
TORSDOF 0
ENDMDL
MODEL 3
REMARK VINA RESULT:      -3.7      1.639      2.387
REMARK  0 active torsions:
REMARK  status: ('A' for Active; 'I' for Inactive)
ROOT
HETATM    1  C1  UNL     1     -33.903   6.925   5.667  1.00 20.00     0.169 C 
HETATM    2  C2  UNL     1     -33.300   6.757   3.626  1.00 20.00     0.062 C 
HETATM    3  C3  UNL     1     -32.724   7.498   4.861  1.00 20.00     0.058 C 
HETATM    4  C4  UNL     1     -34.328   5.981   4.503  1.00 20.00     0.174 C 
HETATM    5  C5  UNL     1     -32.667   9.009   4.765  1.00 20.00     0.018 C 
HETATM    6  O6  UNL     1     -34.326   7.129   6.786  1.00 20.00    -0.294 OA
HETATM    7 CL7  UNL     1     -33.929   4.271   4.875  1.00 20.00    -0.093 Cl
HETATM    8 CL8  UNL     1     -36.052   6.194   4.062  1.00 20.00    -0.093 Cl
ENDROOT
TORSDOF 0
ENDMDL
MODEL 4
REMARK VINA RESULT:      -3.7     12.226     12.966
REMARK  0 active torsions:
REMARK  status: ('A' for Active; 'I' for Inactive)
ROOT
HETATM    1  C1  UNL     1     -33.598  14.961  -4.457  1.00 20.00     0.169 C 
HETATM    2  C2  UNL     1     -34.636  16.804  -4.744  1.00 20.00     0.062 C 
HETATM    3  C3  UNL     1     -33.395  16.386  -3.912  1.00 20.00     0.058 C 
HETATM    4  C4  UNL     1     -34.671  15.432  -5.483  1.00 20.00     0.174 C 
HETATM    5  C5  UNL     1     -33.517  16.538  -2.410  1.00 20.00     0.018 C 
HETATM    6  O6  UNL     1     -33.099  13.887  -4.190  1.00 20.00    -0.294 OA
HETATM    7 CL7  UNL     1     -34.021  15.412  -7.156  1.00 20.00    -0.093 Cl
HETATM    8 CL8  UNL     1     -36.194  14.501  -5.336  1.00 20.00    -0.093 Cl
ENDROOT
TORSDOF 0
ENDMDL
MODEL 5
REMARK VINA RESULT:      -3.6      8.715      9.434
REMARK  0 active torsions:
REMARK  status: ('A' for Active; 'I' for Inactive)
ROOT
HETATM    1  C1  UNL     1     -40.720  13.187   4.986  1.00 20.00     0.169 C 
HETATM    2  C2  UNL     1     -39.669  12.031   6.441  1.00 20.00     0.062 C 
HETATM    3  C3  UNL     1     -39.354  12.478   4.989  1.00 20.00     0.058 C 
HETATM    4  C4  UNL     1     -40.917  12.961   6.515  1.00 20.00     0.174 C 
HETATM    5  C5  UNL     1     -39.188  11.368   3.972  1.00 20.00     0.018 C 
HETATM    6  O6  UNL     1     -41.379  13.722   4.120  1.00 20.00    -0.294 OA
HETATM    7 CL7  UNL     1     -40.716  14.494   7.428  1.00 20.00    -0.093 Cl
HETATM    8 CL8  UNL     1     -42.475  12.154   6.879  1.00 20.00    -0.093 Cl
ENDROOT
TORSDOF 0
ENDMDL
MODEL 6
REMARK VINA RESULT:      -3.5      8.774      9.486
REMARK  0 active torsions:
REMARK  status: ('A' for Active; 'I' for Inactive)
ROOT
HETATM    1  C1  UNL     1     -42.398   6.920   1.043  1.00 20.00     0.169 C 
HETATM    2  C2  UNL     1     -40.805   6.069  -0.095  1.00 20.00     0.062 C 
HETATM    3  C3  UNL     1     -40.957   7.369   0.738  1.00 20.00     0.058 C 
HETATM    4  C4  UNL     1     -42.160   5.508   0.430  1.00 20.00     0.174 C 
HETATM    5  C5  UNL     1     -40.821   8.669  -0.026  1.00 20.00     0.018 C 
HETATM    6  O6  UNL     1     -43.346   7.464   1.569  1.00 20.00    -0.294 OA
HETATM    7 CL7  UNL     1     -42.061   4.254   1.711  1.00 20.00    -0.093 Cl
HETATM    8 CL8  UNL     1     -43.380   5.106  -0.820  1.00 20.00    -0.093 Cl
ENDROOT
TORSDOF 0
ENDMDL
MODEL 7
REMARK VINA RESULT:      -3.4      8.795      9.460
REMARK  0 active torsions:
REMARK  status: ('A' for Active; 'I' for Inactive)
ROOT
HETATM    1  C1  UNL     1     -41.162   5.975  -0.502  1.00 20.00     0.169 C 
HETATM    2  C2  UNL     1     -42.918   6.988   0.168  1.00 20.00     0.062 C 
HETATM    3  C3  UNL     1     -41.670   7.421  -0.646  1.00 20.00     0.058 C 
HETATM    4  C4  UNL     1     -42.520   5.484   0.083  1.00 20.00     0.174 C 
HETATM    5  C5  UNL     1     -40.801   8.489  -0.016  1.00 20.00     0.018 C 
HETATM    6  O6  UNL     1     -40.107   5.433  -0.758  1.00 20.00    -0.294 OA
HETATM    7 CL7  UNL     1     -43.417   4.489  -1.112  1.00 20.00    -0.093 Cl
HETATM    8 CL8  UNL     1     -42.310   4.638   1.648  1.00 20.00    -0.093 Cl
ENDROOT
TORSDOF 0
ENDMDL
MODEL 8
REMARK VINA RESULT:      -3.4      8.619      9.341
REMARK  0 active torsions:
REMARK  status: ('A' for Active; 'I' for Inactive)
ROOT
HETATM    1  C1  UNL     1     -39.731  12.374   6.524  1.00 20.00     0.169 C 
HETATM    2  C2  UNL     1     -40.985  13.168   4.991  1.00 20.00     0.062 C 
HETATM    3  C3  UNL     1     -40.047  11.936   5.083  1.00 20.00     0.058 C 
HETATM    4  C4  UNL     1     -40.858  13.448   6.518  1.00 20.00     0.174 C 
HETATM    5  C5  UNL     1     -38.872  11.919   4.128  1.00 20.00     0.018 C 
HETATM    6  O6  UNL     1     -38.917  12.008   7.347  1.00 20.00    -0.294 OA
HETATM    7 CL7  UNL     1     -42.244  12.940   7.539  1.00 20.00    -0.093 Cl
HETATM    8 CL8  UNL     1     -40.243  15.070   6.969  1.00 20.00    -0.093 Cl
ENDROOT
TORSDOF 0
ENDMDL
MODEL 9
REMARK VINA RESULT:      -3.2      9.067      9.870
REMARK  0 active torsions:
REMARK  status: ('A' for Active; 'I' for Inactive)
ROOT
HETATM    1  C1  UNL     1     -41.770   5.766   0.209  1.00 20.00     0.169 C 
HETATM    2  C2  UNL     1     -43.022   6.376   1.828  1.00 20.00     0.062 C 
HETATM    3  C3  UNL     1     -42.421   5.016   1.385  1.00 20.00     0.058 C 
HETATM    4  C4  UNL     1     -42.154   7.157   0.796  1.00 20.00     0.174 C 
HETATM    5  C5  UNL     1     -43.417   3.939   1.007  1.00 20.00     0.018 C 
HETATM    6  O6  UNL     1     -41.178   5.403  -0.785  1.00 20.00    -0.294 OA
HETATM    7 CL7  UNL     1     -40.713   8.007   1.447  1.00 20.00    -0.093 Cl
HETATM    8 CL8  UNL     1     -43.054   8.159  -0.387  1.00 20.00    -0.093 Cl
ENDROOT
TORSDOF 0
ENDMDL
