MODEL 1
REMARK VINA RESULT:      -3.6      0.000      0.000
REMARK  0 active torsions:
REMARK  status: ('A' for Active; 'I' for Inactive)
ROOT
HETATM    1  C1  UNL     1     -39.920  12.787   6.295  1.00 20.00     0.459 C 
HETATM    2  C2  UNL     1     -41.059  14.127   7.737  1.00 20.00     0.090 C 
HETATM    3  C3  UNL     1     -41.989  13.686   6.587  1.00 20.00     0.090 C 
HETATM    4  C4  UNL     1     -41.687  14.079   9.129  1.00 20.00     0.049 C 
HETATM    5  C5  UNL     1     -40.413  15.507   7.527  1.00 20.00     0.049 C 
HETATM    6  C6  UNL     1     -42.862  12.463   6.917  1.00 20.00     0.049 C 
HETATM    7  C7  UNL     1     -42.878  14.789   6.015  1.00 20.00     0.049 C 
HETATM    8  O8  UNL     1     -40.001  13.153   7.673  1.00 20.00    -0.322 OA
HETATM    9  O9  UNL     1     -41.050  13.280   5.573  1.00 20.00    -0.322 OA
HETATM   10  F10 UNL     1     -39.936  11.431   6.223  1.00 20.00    -0.189 F 
ENDROOT
TORSDOF 0
ENDMDL
MODEL 2
REMARK VINA RESULT:      -3.5      1.933      2.989
REMARK  0 active torsions:
REMARK  status: ('A' for Active; 'I' for Inactive)
ROOT
HETATM    1  C1  UNL     1     -40.430  14.195   8.176  1.00 20.00     0.459 C 
HETATM    2  C2  UNL     1     -41.242  13.440   6.190  1.00 20.00     0.090 C 
HETATM    3  C3  UNL     1     -42.335  13.339   7.274  1.00 20.00     0.090 C 
HETATM    4  C4  UNL     1     -41.719  13.979   4.842  1.00 20.00     0.049 C 
HETATM    5  C5  UNL     1     -40.463  12.133   5.960  1.00 20.00     0.049 C 
HETATM    6  C6  UNL     1     -43.306  14.532   7.303  1.00 20.00     0.049 C 
HETATM    7  C7  UNL     1     -43.143  12.042   7.258  1.00 20.00     0.049 C 
HETATM    8  O8  UNL     1     -40.319  14.384   6.764  1.00 20.00    -0.322 OA
HETATM    9  O9  UNL     1     -41.565  13.386   8.490  1.00 20.00    -0.322 OA
HETATM   10  F10 UNL     1     -40.614  15.413   8.745  1.00 20.00    -0.189 F 
ENDROOT
TORSDOF 0
ENDMDL
MODEL 3
REMARK VINA RESULT:      -3.5     13.113     13.921
REMARK  0 active torsions:
REMARK  status: ('A' for Active; 'I' for Inactive)
ROOT
HETATM    1  C1  UNL     1     -33.488  16.667  -3.417  1.00 20.00     0.459 C 
HETATM    2  C2  UNL     1     -35.026  16.898  -5.077  1.00 20.00     0.090 C 
HETATM    3  C3  UNL     1     -34.318  15.533  -5.206  1.00 20.00     0.090 C 
HETATM    4  C4  UNL     1     -36.539  16.862  -5.281  1.00 20.00     0.049 C 
HETATM    5  C5  UNL     1     -34.427  18.002  -5.966  1.00 20.00     0.049 C 
HETATM    6  C6  UNL     1     -35.082  14.364  -4.560  1.00 20.00     0.049 C 
HETATM    7  C7  UNL     1     -33.924  15.141  -6.629  1.00 20.00     0.049 C 
HETATM    8  O8  UNL     1     -34.752  17.263  -3.712  1.00 20.00    -0.322 OA
HETATM    9  O9  UNL     1     -33.118  15.737  -4.436  1.00 20.00    -0.322 OA
HETATM   10  F10 UNL     1     -33.613  15.983  -2.251  1.00 20.00    -0.189 F 
ENDROOT
TORSDOF 0
ENDMDL
MODEL 4
REMARK VINA RESULT:      -3.3      1.618      2.483
REMARK  0 active torsions:
REMARK  status: ('A' for Active; 'I' for Inactive)
ROOT
HETATM    1  C1  UNL     1     -40.640  14.322   8.218  1.00 20.00     0.459 C 
HETATM    2  C2  UNL     1     -42.388  13.330   7.153  1.00 20.00     0.090 C 
HETATM    3  C3  UNL     1     -41.175  13.411   6.203  1.00 20.00     0.090 C 
HETATM    4  C4  UNL     1     -43.138  11.999   7.129  1.00 20.00     0.049 C 
HETATM    5  C5  UNL     1     -43.398  14.478   6.981  1.00 20.00     0.049 C 
HETATM    6  C6  UNL     1     -40.324  12.130   6.157  1.00 20.00     0.049 C 
HETATM    7  C7  UNL     1     -41.501  13.840   4.774  1.00 20.00     0.049 C 
HETATM    8  O8  UNL     1     -41.781  13.495   8.448  1.00 20.00    -0.322 OA
HETATM    9  O9  UNL     1     -40.372  14.436   6.819  1.00 20.00    -0.322 OA
HETATM   10  F10 UNL     1     -39.569  13.725   8.802  1.00 20.00    -0.189 F 
ENDROOT
TORSDOF 0
ENDMDL
MODEL 5
REMARK VINA RESULT:      -3.3      0.664      2.725
REMARK  0 active torsions:
REMARK  status: ('A' for Active; 'I' for Inactive)
ROOT
HETATM    1  C1  UNL     1     -40.027  12.445   6.300  1.00 20.00     0.459 C 
HETATM    2  C2  UNL     1     -42.062  13.425   6.569  1.00 20.00     0.090 C 
HETATM    3  C3  UNL     1     -41.072  13.979   7.615  1.00 20.00     0.090 C 
HETATM    4  C4  UNL     1     -42.951  14.475   5.904  1.00 20.00     0.049 C 
HETATM    5  C5  UNL     1     -42.945  12.277   7.088  1.00 20.00     0.049 C 
HETATM    6  C6  UNL     1     -40.404  15.305   7.210  1.00 20.00     0.049 C 
HETATM    7  C7  UNL     1     -41.636  14.120   9.028  1.00 20.00     0.049 C 
HETATM    8  O8  UNL     1     -41.184  12.865   5.575  1.00 20.00    -0.322 OA
HETATM    9  O9  UNL     1     -40.044  12.970   7.629  1.00 20.00    -0.322 OA
HETATM   10  F10 UNL     1     -38.936  12.945   5.666  1.00 20.00    -0.189 F 
ENDROOT
TORSDOF 0
ENDMDL
MODEL 6
REMARK VINA RESULT:      -3.2      8.805     10.064
REMARK  0 active torsions:
REMARK  status: ('A' for Active; 'I' for Inactive)
ROOT
HETATM    1  C1  UNL     1     -40.443   6.836   0.174  1.00 20.00     0.459 C 
HETATM    2  C2  UNL     1     -42.307   5.537   0.266  1.00 20.00     0.090 C 
HETATM    3  C3  UNL     1     -42.605   6.922   0.877  1.00 20.00     0.090 C 
HETATM    4  C4  UNL     1     -43.397   4.990  -0.655  1.00 20.00     0.049 C 
HETATM    5  C5  UNL     1     -41.941   4.460   1.301  1.00 20.00     0.049 C 
HETATM    6  C6  UNL     1     -43.255   7.915  -0.101  1.00 20.00     0.049 C 
HETATM    7  C7  UNL     1     -43.417   6.896   2.171  1.00 20.00     0.049 C 
HETATM    8  O8  UNL     1     -41.125   5.788  -0.516  1.00 20.00    -0.322 OA
HETATM    9  O9  UNL     1     -41.285   7.416   1.173  1.00 20.00    -0.322 OA
HETATM   10  F10 UNL     1     -40.141   7.802  -0.730  1.00 20.00    -0.189 F 
ENDROOT
TORSDOF 0
ENDMDL
MODEL 7
REMARK VINA RESULT:      -3.2     13.905     14.785
REMARK  0 active torsions:
REMARK  status: ('A' for Active; 'I' for Inactive)
ROOT
HETATM    1  C1  UNL     1     -34.507  15.735  -7.632  1.00 20.00     0.459 C 
HETATM    2  C2  UNL     1     -35.384  16.528  -5.689  1.00 20.00     0.090 C 
HETATM    3  C3  UNL     1     -35.136  15.010  -5.569  1.00 20.00     0.090 C 
HETATM    4  C4  UNL     1     -34.969  17.348  -4.468  1.00 20.00     0.049 C 
HETATM    5  C5  UNL     1     -36.827  16.900  -6.074  1.00 20.00     0.049 C 
HETATM    6  C6  UNL     1     -33.800  14.641  -4.902  1.00 20.00     0.049 C 
HETATM    7  C7  UNL     1     -36.259  14.222  -4.897  1.00 20.00     0.049 C 
HETATM    8  O8  UNL     1     -34.545  16.895  -6.799  1.00 20.00    -0.322 OA
HETATM    9  O9  UNL     1     -35.051  14.604  -6.948  1.00 20.00    -0.322 OA
HETATM   10  F10 UNL     1     -33.207  15.468  -7.914  1.00 20.00    -0.189 F 
ENDROOT
TORSDOF 0
ENDMDL
MODEL 8
REMARK VINA RESULT:      -3.2      1.783      3.069
REMARK  0 active torsions:
REMARK  status: ('A' for Active; 'I' for Inactive)
ROOT
HETATM    1  C1  UNL     1     -43.200  12.560   7.315  1.00 20.00     0.459 C 
HETATM    2  C2  UNL     1     -42.356  14.155   5.931  1.00 20.00     0.090 C 
HETATM    3  C3  UNL     1     -41.211  13.494   6.726  1.00 20.00     0.090 C 
HETATM    4  C4  UNL     1     -42.065  14.381   4.448  1.00 20.00     0.049 C 
HETATM    5  C5  UNL     1     -42.870  15.469   6.546  1.00 20.00     0.049 C 
HETATM    6  C6  UNL     1     -40.496  12.358   5.974  1.00 20.00     0.049 C 
HETATM    7  C7  UNL     1     -40.163  14.461   7.276  1.00 20.00     0.049 C 
HETATM    8  O8  UNL     1     -43.417  13.191   6.052  1.00 20.00    -0.322 OA
HETATM    9  O9  UNL     1     -41.913  12.898   7.834  1.00 20.00    -0.322 OA
HETATM   10  F10 UNL     1     -43.233  11.217   7.120  1.00 20.00    -0.189 F 
ENDROOT
TORSDOF 0
ENDMDL
MODEL 9
REMARK VINA RESULT:      -3.1      1.909      3.001
REMARK  0 active torsions:
REMARK  status: ('A' for Active; 'I' for Inactive)
ROOT
HETATM    1  C1  UNL     1     -42.983  12.935   7.669  1.00 20.00     0.459 C 
HETATM    2  C2  UNL     1     -41.070  13.300   6.494  1.00 20.00     0.090 C 
HETATM    3  C3  UNL     1     -41.226  14.377   7.587  1.00 20.00     0.090 C 
HETATM    4  C4  UNL     1     -39.661  12.728   6.348  1.00 20.00     0.049 C 
HETATM    5  C5  UNL     1     -41.580  13.733   5.108  1.00 20.00     0.049 C 
HETATM    6  C6  UNL     1     -40.458  14.073   8.885  1.00 20.00     0.049 C 
HETATM    7  C7  UNL     1     -40.900  15.802   7.141  1.00 20.00     0.049 C 
HETATM    8  O8  UNL     1     -41.947  12.257   6.957  1.00 20.00    -0.322 OA
HETATM    9  O9  UNL     1     -42.631  14.301   7.894  1.00 20.00    -0.322 OA
HETATM   10  F10 UNL     1     -43.119  12.333   8.878  1.00 20.00    -0.189 F 
ENDROOT
TORSDOF 0
ENDMDL
