MODEL 1
REMARK VINA RESULT:      -4.5      0.000      0.000
REMARK  2 active torsions:
REMARK  status: ('A' for Active; 'I' for Inactive)
REMARK    1  A    between atoms: C3_3  and  C8_8 
REMARK    2  A    between atoms: C8_8  and  C10_10 
ROOT
HETATM    1  C1  UNL     1     -23.555  16.715  12.332  1.00 20.00    -0.026 C 
HETATM    2  C2  UNL     1     -24.242  16.353  11.240  1.00 20.00    -0.024 C 
HETATM    3  C4  UNL     1     -24.686  18.583  11.587  1.00 20.00     0.018 C 
HETATM    4  C5  UNL     1     -22.348  18.519  11.132  1.00 20.00     0.025 C 
HETATM    5  C6  UNL     1     -23.362  18.210  12.260  1.00 20.00     0.010 C 
HETATM    6  C7  UNL     1     -24.481  17.607  10.420  1.00 20.00     0.024 C 
HETATM    7  C8  UNL     1     -23.120  18.095   9.838  1.00 20.00     0.020 C 
ENDROOT
BRANCH   7   8
HETATM    8  C3  UNL     1     -22.398  17.002   9.094  1.00 20.00     0.241 C 
HETATM    9  O11 UNL     1     -22.035  17.105   7.927  1.00 20.00    -0.306 OA
ENDBRANCH   7   8
BRANCH   7  10
HETATM   10  C10 UNL     1     -23.285  19.263   8.862  1.00 20.00     0.013 C 
HETATM   11  C9  UNL     1     -24.632  19.252   8.218  1.00 20.00     0.006 C 
ENDBRANCH   7  10
TORSDOF 2
ENDMDL
MODEL 2
REMARK VINA RESULT:      -3.9     18.013     20.176
REMARK  2 active torsions:
REMARK  status: ('A' for Active; 'I' for Inactive)
REMARK    1  A    between atoms: C3_3  and  C8_8 
REMARK    2  A    between atoms: C8_8  and  C10_10 
ROOT
HETATM    1  C1  UNL     1     -36.447  16.491  -7.314  1.00 20.00    -0.026 C 
HETATM    2  C2  UNL     1     -35.959  15.270  -7.574  1.00 20.00    -0.024 C 
HETATM    3  C4  UNL     1     -34.168  16.580  -6.969  1.00 20.00     0.018 C 
HETATM    4  C5  UNL     1     -35.525  16.511  -5.012  1.00 20.00     0.025 C 
HETATM    5  C6  UNL     1     -35.459  17.181  -6.406  1.00 20.00     0.010 C 
HETATM    6  C7  UNL     1     -34.655  15.134  -6.811  1.00 20.00     0.024 C 
HETATM    7  C8  UNL     1     -34.968  15.073  -5.285  1.00 20.00     0.020 C 
ENDROOT
BRANCH   7   8
HETATM    8  C3  UNL     1     -35.987  14.013  -4.957  1.00 20.00     0.241 C 
HETATM    9  O11 UNL     1     -35.741  13.031  -4.265  1.00 20.00    -0.306 OA
ENDBRANCH   7   8
BRANCH   7  10
HETATM   10  C10 UNL     1     -33.726  14.772  -4.442  1.00 20.00     0.013 C 
HETATM   11  C9  UNL     1     -33.461  15.856  -3.451  1.00 20.00     0.006 C 
ENDBRANCH   7  10
TORSDOF 2
ENDMDL
MODEL 3
REMARK VINA RESULT:      -3.7     23.548     24.532
REMARK  2 active torsions:
REMARK  status: ('A' for Active; 'I' for Inactive)
REMARK    1  A    between atoms: C3_3  and  C8_8 
REMARK    2  A    between atoms: C8_8  and  C10_10 
ROOT
HETATM    1  C1  UNL     1     -40.793   7.727   1.055  1.00 20.00    -0.026 C 
HETATM    2  C2  UNL     1     -42.055   7.634   1.497  1.00 20.00    -0.024 C 
HETATM    3  C4  UNL     1     -42.169   7.822  -0.793  1.00 20.00     0.018 C 
HETATM    4  C5  UNL     1     -41.032   5.759  -0.435  1.00 20.00     0.025 C 
HETATM    5  C6  UNL     1     -40.792   7.288  -0.388  1.00 20.00     0.010 C 
HETATM    6  C7  UNL     1     -42.894   7.101   0.352  1.00 20.00     0.024 C 
HETATM    7  C8  UNL     1     -42.501   5.616   0.086  1.00 20.00     0.020 C 
ENDROOT
BRANCH   7   8
HETATM    8  C3  UNL     1     -42.567   4.781   1.338  1.00 20.00     0.241 C 
HETATM    9  O11 UNL     1     -43.289   3.797   1.457  1.00 20.00    -0.306 OA
ENDBRANCH   7   8
BRANCH   7  10
HETATM   10  C10 UNL     1     -43.411   4.944  -0.945  1.00 20.00     0.013 C 
HETATM   11  C9  UNL     1     -42.619   4.263  -2.012  1.00 20.00     0.006 C 
ENDBRANCH   7  10
TORSDOF 2
ENDMDL
MODEL 4
REMARK VINA RESULT:      -3.6     23.106     24.150
REMARK  2 active torsions:
REMARK  status: ('A' for Active; 'I' for Inactive)
REMARK    1  A    between atoms: C3_3  and  C8_8 
REMARK    2  A    between atoms: C8_8  and  C10_10 
ROOT
HETATM    1  C1  UNL     1     -41.179   8.376  -0.345  1.00 20.00    -0.026 C 
HETATM    2  C2  UNL     1     -40.837   7.218  -0.927  1.00 20.00    -0.024 C 
HETATM    3  C4  UNL     1     -40.412   6.977   1.321  1.00 20.00     0.018 C 
HETATM    4  C5  UNL     1     -42.773   7.277   1.204  1.00 20.00     0.025 C 
HETATM    5  C6  UNL     1     -41.453   8.080   1.109  1.00 20.00     0.010 C 
HETATM    6  C7  UNL     1     -40.914   6.139   0.137  1.00 20.00     0.024 C 
HETATM    7  C8  UNL     1     -42.408   5.916   0.521  1.00 20.00     0.020 C 
ENDROOT
BRANCH   7   8
HETATM    8  C3  UNL     1     -43.270   5.653  -0.686  1.00 20.00     0.241 C 
HETATM    9  O11 UNL     1     -43.134   4.675  -1.414  1.00 20.00    -0.306 OA
ENDBRANCH   7   8
BRANCH   7  10
HETATM   10  C10 UNL     1     -42.599   4.731   1.471  1.00 20.00     0.013 C 
HETATM   11  C9  UNL     1     -43.417   5.108   2.660  1.00 20.00     0.006 C 
ENDBRANCH   7  10
TORSDOF 2
ENDMDL
MODEL 5
REMARK VINA RESULT:      -3.5     17.717     18.690
REMARK  2 active torsions:
REMARK  status: ('A' for Active; 'I' for Inactive)
REMARK    1  A    between atoms: C3_3  and  C8_8 
REMARK    2  A    between atoms: C8_8  and  C10_10 
ROOT
HETATM    1  C1  UNL     1     -42.074  15.672   8.144  1.00 20.00    -0.026 C 
HETATM    2  C2  UNL     1     -41.164  15.853   7.177  1.00 20.00    -0.024 C 
HETATM    3  C4  UNL     1     -40.401  14.121   8.483  1.00 20.00     0.018 C 
HETATM    4  C5  UNL     1     -42.428  13.292   7.544  1.00 20.00     0.025 C 
HETATM    5  C6  UNL     1     -41.918  14.257   8.642  1.00 20.00     0.010 C 
HETATM    6  C7  UNL     1     -40.419  14.543   7.007  1.00 20.00     0.024 C 
HETATM    7  C8  UNL     1     -41.387  13.488   6.391  1.00 20.00     0.020 C 
ENDROOT
BRANCH   7   8
HETATM    8  C3  UNL     1     -42.043  13.990   5.131  1.00 20.00     0.241 C 
HETATM    9  O11 UNL     1     -41.534  13.894   4.019  1.00 20.00    -0.306 OA
ENDBRANCH   7   8
BRANCH   7  10
HETATM   10  C10 UNL     1     -40.678  12.180   6.032  1.00 20.00     0.013 C 
HETATM   11  C9  UNL     1     -39.219  12.394   5.801  1.00 20.00     0.006 C 
ENDBRANCH   7  10
TORSDOF 2
ENDMDL
MODEL 6
REMARK VINA RESULT:      -3.5     19.133     20.533
REMARK  2 active torsions:
REMARK  status: ('A' for Active; 'I' for Inactive)
REMARK    1  A    between atoms: C3_3  and  C8_8 
REMARK    2  A    between atoms: C8_8  and  C10_10 
ROOT
HETATM    1  C1  UNL     1     -27.988  -0.663  10.431  1.00 20.00    -0.026 C 
HETATM    2  C2  UNL     1     -27.873  -0.617  11.765  1.00 20.00    -0.024 C 
HETATM    3  C4  UNL     1     -28.342  -2.802  11.220  1.00 20.00     0.018 C 
HETATM    4  C5  UNL     1     -26.223  -2.392  10.209  1.00 20.00     0.025 C 
HETATM    5  C6  UNL     1     -27.729  -2.089  10.011  1.00 20.00     0.010 C 
HETATM    6  C7  UNL     1     -27.504  -2.011  12.235  1.00 20.00     0.024 C 
HETATM    7  C8  UNL     1     -26.054  -2.335  11.765  1.00 20.00     0.020 C 
ENDROOT
BRANCH   7   8
HETATM    8  C3  UNL     1     -25.074  -1.268  12.177  1.00 20.00     0.241 C 
HETATM    9  O11 UNL     1     -23.915  -1.224  11.778  1.00 20.00    -0.306 OA
ENDBRANCH   7   8
BRANCH   7  10
HETATM   10  C10 UNL     1     -25.535  -3.659  12.332  1.00 20.00     0.013 C 
HETATM   11  C9  UNL     1     -25.050  -4.566  11.249  1.00 20.00     0.006 C 
ENDBRANCH   7  10
TORSDOF 2
ENDMDL
MODEL 7
REMARK VINA RESULT:      -3.4     17.717     18.639
REMARK  2 active torsions:
REMARK  status: ('A' for Active; 'I' for Inactive)
REMARK    1  A    between atoms: C3_3  and  C8_8 
REMARK    2  A    between atoms: C8_8  and  C10_10 
ROOT
HETATM    1  C1  UNL     1     -41.805  15.570   9.074  1.00 20.00    -0.026 C 
HETATM    2  C2  UNL     1     -42.583  15.628   7.984  1.00 20.00    -0.024 C 
HETATM    3  C4  UNL     1     -40.419  15.936   7.267  1.00 20.00     0.018 C 
HETATM    4  C5  UNL     1     -40.428  13.724   8.152  1.00 20.00     0.025 C 
HETATM    5  C6  UNL     1     -40.417  15.203   8.611  1.00 20.00     0.010 C 
HETATM    6  C7  UNL     1     -41.717  15.267   6.793  1.00 20.00     0.024 C 
HETATM    7  C8  UNL     1     -41.341  13.757   6.881  1.00 20.00     0.020 C 
ENDROOT
BRANCH   7   8
HETATM    8  C3  UNL     1     -42.555  12.880   7.047  1.00 20.00     0.241 C 
HETATM    9  O11 UNL     1     -42.727  12.138   8.008  1.00 20.00    -0.306 OA
ENDBRANCH   7   8
BRANCH   7  10
HETATM   10  C10 UNL     1     -40.603  13.262   5.634  1.00 20.00     0.013 C 
HETATM   11  C9  UNL     1     -39.673  12.140   5.958  1.00 20.00     0.006 C 
ENDBRANCH   7  10
TORSDOF 2
ENDMDL
MODEL 8
REMARK VINA RESULT:      -3.4     14.825     16.029
REMARK  2 active torsions:
REMARK  status: ('A' for Active; 'I' for Inactive)
REMARK    1  A    between atoms: C3_3  and  C8_8 
REMARK    2  A    between atoms: C8_8  and  C10_10 
ROOT
HETATM    1  C1  UNL     1     -32.754   8.558   2.588  1.00 20.00    -0.026 C 
HETATM    2  C2  UNL     1     -32.157   7.398   2.895  1.00 20.00    -0.024 C 
HETATM    3  C4  UNL     1     -32.033   8.720   4.773  1.00 20.00     0.018 C 
HETATM    4  C5  UNL     1     -34.370   8.372   4.461  1.00 20.00     0.025 C 
HETATM    5  C6  UNL     1     -33.188   9.192   3.887  1.00 20.00     0.010 C 
HETATM    6  C7  UNL     1     -32.223   7.242   4.403  1.00 20.00     0.024 C 
HETATM    7  C8  UNL     1     -33.704   7.001   4.821  1.00 20.00     0.020 C 
ENDROOT
BRANCH   7   8
HETATM    8  C3  UNL     1     -34.330   5.863   4.058  1.00 20.00     0.241 C 
HETATM    9  O11 UNL     1     -33.696   4.902   3.636  1.00 20.00    -0.306 OA
ENDBRANCH   7   8
BRANCH   7  10
HETATM   10  C10 UNL     1     -33.847   6.670   6.309  1.00 20.00     0.013 C 
HETATM   11  C9  UNL     1     -34.712   5.473   6.523  1.00 20.00     0.006 C 
ENDBRANCH   7  10
TORSDOF 2
ENDMDL
MODEL 9
REMARK VINA RESULT:      -3.4     15.353     16.460
REMARK  2 active torsions:
REMARK  status: ('A' for Active; 'I' for Inactive)
REMARK    1  A    between atoms: C3_3  and  C8_8 
REMARK    2  A    between atoms: C8_8  and  C10_10 
ROOT
HETATM    1  C1  UNL     1     -35.107   5.950   6.318  1.00 20.00    -0.026 C 
HETATM    2  C2  UNL     1     -33.786   5.788   6.477  1.00 20.00    -0.024 C 
HETATM    3  C4  UNL     1     -34.371   4.614   4.588  1.00 20.00     0.018 C 
HETATM    4  C5  UNL     1     -34.849   6.882   4.034  1.00 20.00     0.025 C 
HETATM    5  C6  UNL     1     -35.414   5.701   4.862  1.00 20.00     0.010 C 
HETATM    6  C7  UNL     1     -33.205   5.462   5.115  1.00 20.00     0.024 C 
HETATM    7  C8  UNL     1     -33.301   6.726   4.209  1.00 20.00     0.020 C 
ENDROOT
BRANCH   7   8
HETATM    8  C3  UNL     1     -32.692   7.939   4.862  1.00 20.00     0.241 C 
HETATM    9  O11 UNL     1     -33.351   8.886   5.278  1.00 20.00    -0.306 OA
ENDBRANCH   7   8
BRANCH   7  10
HETATM   10  C10 UNL     1     -32.591   6.541   2.866  1.00 20.00     0.013 C 
HETATM   11  C9  UNL     1     -32.246   7.853   2.243  1.00 20.00     0.006 C 
ENDBRANCH   7  10
TORSDOF 2
ENDMDL
