MODEL 1
REMARK VINA RESULT:      -5.0      0.000      0.000
REMARK  1 active torsions:
REMARK  status: ('A' for Active; 'I' for Inactive)
REMARK    1  A    between atoms: C1_1  and  C7_7 
ROOT
HETATM    1  C2  UNL     1     -33.576   8.441   5.671  1.00 20.00     0.004 C 
HETATM    2  C3  UNL     1     -32.475   8.508   4.619  1.00 20.00     0.037 C 
HETATM    3  C4  UNL     1     -33.928   6.997   6.027  1.00 20.00     0.016 C 
HETATM    4  C5  UNL     1     -33.173   6.251   3.729  1.00 20.00     0.053 C 
HETATM    5  C6  UNL     1     -32.831   7.696   3.382  1.00 20.00     0.171 C 
HETATM    6  C7  UNL     1     -34.273   6.131   4.798  1.00 20.00     0.012 C 
HETATM    7  C8  UNL     1     -35.650   6.495   4.227  1.00 20.00     0.023 C 
HETATM    8  F10 UNL     1     -31.760   7.698   2.542  1.00 20.00    -0.249 F 
ENDROOT
BRANCH   6   9
HETATM    9  C1  UNL     1     -34.352   4.691   5.238  1.00 20.00     0.240 C 
HETATM   10  O9  UNL     1     -33.985   3.751   4.541  1.00 20.00    -0.306 OA
ENDBRANCH   6   9
TORSDOF 1
ENDMDL
MODEL 2
REMARK VINA RESULT:      -4.7      1.552      1.878
REMARK  1 active torsions:
REMARK  status: ('A' for Active; 'I' for Inactive)
REMARK    1  A    between atoms: C1_1  and  C7_7 
ROOT
HETATM    1  C2  UNL     1     -33.123   7.959   3.753  1.00 20.00     0.004 C 
HETATM    2  C3  UNL     1     -32.321   6.912   2.989  1.00 20.00     0.037 C 
HETATM    3  C4  UNL     1     -33.695   7.393   5.052  1.00 20.00     0.016 C 
HETATM    4  C5  UNL     1     -33.701   5.076   4.034  1.00 20.00     0.053 C 
HETATM    5  C6  UNL     1     -33.137   5.652   2.740  1.00 20.00     0.171 C 
HETATM    6  C7  UNL     1     -34.510   6.100   4.849  1.00 20.00     0.012 C 
HETATM    7  C8  UNL     1     -35.866   6.392   4.192  1.00 20.00     0.023 C 
HETATM    8  F10 UNL     1     -32.326   4.719   2.168  1.00 20.00    -0.249 F 
ENDROOT
BRANCH   6   9
HETATM    9  C1  UNL     1     -34.803   5.505   6.203  1.00 20.00     0.240 C 
HETATM   10  O9  UNL     1     -33.950   4.974   6.907  1.00 20.00    -0.306 OA
ENDBRANCH   6   9
TORSDOF 1
ENDMDL
MODEL 3
REMARK VINA RESULT:      -4.4      1.514      2.007
REMARK  1 active torsions:
REMARK  status: ('A' for Active; 'I' for Inactive)
REMARK    1  A    between atoms: C1_1  and  C7_7 
ROOT
HETATM    1  C2  UNL     1     -34.560   6.408   6.818  1.00 20.00     0.004 C 
HETATM    2  C3  UNL     1     -33.612   7.586   6.633  1.00 20.00     0.037 C 
HETATM    3  C4  UNL     1     -34.297   5.306   5.792  1.00 20.00     0.016 C 
HETATM    4  C5  UNL     1     -33.383   7.032   4.181  1.00 20.00     0.053 C 
HETATM    5  C6  UNL     1     -33.656   8.124   5.210  1.00 20.00     0.171 C 
HETATM    6  C7  UNL     1     -34.309   5.812   4.335  1.00 20.00     0.012 C 
HETATM    7  C8  UNL     1     -35.735   6.130   3.866  1.00 20.00     0.023 C 
HETATM    8  F10 UNL     1     -32.702   9.087   5.083  1.00 20.00    -0.249 F 
ENDROOT
BRANCH   6   9
HETATM    9  C1  UNL     1     -33.794   4.711   3.445  1.00 20.00     0.240 C 
HETATM   10  O9  UNL     1     -32.918   4.877   2.601  1.00 20.00    -0.306 OA
ENDBRANCH   6   9
TORSDOF 1
ENDMDL
MODEL 4
REMARK VINA RESULT:      -4.2      2.869      3.993
REMARK  1 active torsions:
REMARK  status: ('A' for Active; 'I' for Inactive)
REMARK    1  A    between atoms: C1_1  and  C7_7 
ROOT
HETATM    1  C2  UNL     1     -33.953   5.288   3.442  1.00 20.00     0.004 C 
HETATM    2  C3  UNL     1     -34.368   4.758   4.810  1.00 20.00     0.037 C 
HETATM    3  C4  UNL     1     -32.872   6.361   3.558  1.00 20.00     0.016 C 
HETATM    4  C5  UNL     1     -33.713   6.953   5.871  1.00 20.00     0.053 C 
HETATM    5  C6  UNL     1     -34.793   5.884   5.742  1.00 20.00     0.171 C 
HETATM    6  C7  UNL     1     -33.251   7.511   4.513  1.00 20.00     0.012 C 
HETATM    7  C8  UNL     1     -34.316   8.424   3.892  1.00 20.00     0.023 C 
HETATM    8  F10 UNL     1     -35.028   5.357   6.975  1.00 20.00    -0.249 F 
ENDROOT
BRANCH   6   9
HETATM    9  C1  UNL     1     -32.028   8.362   4.741  1.00 20.00     0.240 C 
HETATM   10  O9  UNL     1     -32.078   9.543   5.072  1.00 20.00    -0.306 OA
ENDBRANCH   6   9
TORSDOF 1
ENDMDL
MODEL 5
REMARK VINA RESULT:      -4.0     11.967     12.973
REMARK  1 active torsions:
REMARK  status: ('A' for Active; 'I' for Inactive)
REMARK    1  A    between atoms: C1_1  and  C7_7 
ROOT
HETATM    1  C2  UNL     1     -35.012  17.760  -4.998  1.00 20.00     0.004 C 
HETATM    2  C3  UNL     1     -34.242  17.703  -3.684  1.00 20.00     0.037 C 
HETATM    3  C4  UNL     1     -35.795  16.471  -5.249  1.00 20.00     0.016 C 
HETATM    4  C5  UNL     1     -34.120  15.188  -3.850  1.00 20.00     0.053 C 
HETATM    5  C6  UNL     1     -33.343  16.478  -3.613  1.00 20.00     0.171 C 
HETATM    6  C7  UNL     1     -34.925  15.201  -5.162  1.00 20.00     0.012 C 
HETATM    7  C8  UNL     1     -34.006  15.069  -6.383  1.00 20.00     0.023 C 
HETATM    8  F10 UNL     1     -32.785  16.425  -2.372  1.00 20.00    -0.249 F 
ENDROOT
BRANCH   6   9
HETATM    9  C1  UNL     1     -35.836  14.000  -5.171  1.00 20.00     0.240 C 
HETATM   10  O9  UNL     1     -35.774  13.098  -4.342  1.00 20.00    -0.306 OA
ENDBRANCH   6   9
TORSDOF 1
ENDMDL
MODEL 6
REMARK VINA RESULT:      -3.7      9.092     10.245
REMARK  1 active torsions:
REMARK  status: ('A' for Active; 'I' for Inactive)
REMARK    1  A    between atoms: C1_1  and  C7_7 
ROOT
HETATM    1  C2  UNL     1     -40.495   6.975   0.183  1.00 20.00     0.004 C 
HETATM    2  C3  UNL     1     -41.286   8.206  -0.241  1.00 20.00     0.037 C 
HETATM    3  C4  UNL     1     -41.141   5.687  -0.326  1.00 20.00     0.016 C 
HETATM    4  C5  UNL     1     -43.399   6.829  -0.336  1.00 20.00     0.053 C 
HETATM    5  C6  UNL     1     -42.746   8.107   0.179  1.00 20.00     0.171 C 
HETATM    6  C7  UNL     1     -42.628   5.556   0.057  1.00 20.00     0.012 C 
HETATM    7  C8  UNL     1     -42.795   5.239   1.549  1.00 20.00     0.023 C 
HETATM    8  F10 UNL     1     -43.417   9.174  -0.337  1.00 20.00    -0.249 F 
ENDROOT
BRANCH   6   9
HETATM    9  C1  UNL     1     -43.215   4.393  -0.703  1.00 20.00     0.240 C 
HETATM   10  O9  UNL     1     -43.416   4.409  -1.913  1.00 20.00    -0.306 OA
ENDBRANCH   6   9
TORSDOF 1
ENDMDL
MODEL 7
REMARK VINA RESULT:      -3.7     12.420     13.353
REMARK  1 active torsions:
REMARK  status: ('A' for Active; 'I' for Inactive)
REMARK    1  A    between atoms: C1_1  and  C7_7 
ROOT
HETATM    1  C2  UNL     1     -34.994  18.329  -3.245  1.00 20.00     0.004 C 
HETATM    2  C3  UNL     1     -34.308  17.155  -3.933  1.00 20.00     0.037 C 
HETATM    3  C4  UNL     1     -33.998  19.185  -2.463  1.00 20.00     0.016 C 
HETATM    4  C5  UNL     1     -32.501  17.165  -2.171  1.00 20.00     0.053 C 
HETATM    5  C6  UNL     1     -33.505  16.319  -2.947  1.00 20.00     0.171 C 
HETATM    6  C7  UNL     1     -33.145  18.373  -1.467  1.00 20.00     0.012 C 
HETATM    7  C8  UNL     1     -33.971  17.936  -0.250  1.00 20.00     0.023 C 
HETATM    8  F10 UNL     1     -32.823  15.368  -3.643  1.00 20.00    -0.249 F 
ENDROOT
BRANCH   6   9
HETATM    9  C1  UNL     1     -32.044  19.262  -0.949  1.00 20.00     0.240 C 
HETATM   10  O9  UNL     1     -30.928  18.851  -0.647  1.00 20.00    -0.306 OA
ENDBRANCH   6   9
TORSDOF 1
ENDMDL
MODEL 8
REMARK VINA RESULT:      -3.6     12.662     13.805
REMARK  1 active torsions:
REMARK  status: ('A' for Active; 'I' for Inactive)
REMARK    1  A    between atoms: C1_1  and  C7_7 
ROOT
HETATM    1  C2  UNL     1     -33.687  14.952  -3.704  1.00 20.00     0.004 C 
HETATM    2  C3  UNL     1     -33.402  16.405  -3.345  1.00 20.00     0.037 C 
HETATM    3  C4  UNL     1     -33.770  14.750  -5.216  1.00 20.00     0.016 C 
HETATM    4  C5  UNL     1     -34.491  17.161  -5.493  1.00 20.00     0.053 C 
HETATM    5  C6  UNL     1     -34.412  17.349  -3.982  1.00 20.00     0.171 C 
HETATM    6  C7  UNL     1     -34.766  15.704  -5.907  1.00 20.00     0.012 C 
HETATM    7  C8  UNL     1     -36.218  15.304  -5.613  1.00 20.00     0.023 C 
HETATM    8  F10 UNL     1     -34.027  18.629  -3.725  1.00 20.00    -0.249 F 
ENDROOT
BRANCH   6   9
HETATM    9  C1  UNL     1     -34.577  15.590  -7.398  1.00 20.00     0.240 C 
HETATM   10  O9  UNL     1     -33.608  15.048  -7.917  1.00 20.00    -0.306 OA
ENDBRANCH   6   9
TORSDOF 1
ENDMDL
MODEL 9
REMARK VINA RESULT:      -3.6      1.674      2.556
REMARK  1 active torsions:
REMARK  status: ('A' for Active; 'I' for Inactive)
REMARK    1  A    between atoms: C1_1  and  C7_7 
ROOT
HETATM    1  C2  UNL     1     -32.328   6.196   2.969  1.00 20.00     0.004 C 
HETATM    2  C3  UNL     1     -32.132   7.666   3.320  1.00 20.00     0.037 C 
HETATM    3  C4  UNL     1     -33.768   5.745   3.216  1.00 20.00     0.016 C 
HETATM    4  C5  UNL     1     -34.017   7.531   4.992  1.00 20.00     0.053 C 
HETATM    5  C6  UNL     1     -32.577   7.968   4.743  1.00 20.00     0.171 C 
HETATM    6  C7  UNL     1     -34.269   6.054   4.641  1.00 20.00     0.012 C 
HETATM    7  C8  UNL     1     -33.629   5.116   5.674  1.00 20.00     0.023 C 
HETATM    8  F10 UNL     1     -32.492   9.311   4.946  1.00 20.00    -0.249 F 
ENDROOT
BRANCH   6   9
HETATM    9  C1  UNL     1     -35.755   5.802   4.688  1.00 20.00     0.240 C 
HETATM   10  O9  UNL     1     -36.533   6.189   3.822  1.00 20.00    -0.306 OA
ENDBRANCH   6   9
TORSDOF 1
ENDMDL
