MODEL 1
REMARK VINA RESULT:      -4.5      0.000      0.000
REMARK  0 active torsions:
REMARK  status: ('A' for Active; 'I' for Inactive)
ROOT
HETATM    1  C1  UNL     1     -31.989   8.390   0.895  1.00 20.00     0.017 C 
HETATM    2  C2  UNL     1     -32.225   7.795   1.910  1.00 20.00    -0.057 C 
HETATM    3  C3  UNL     1     -33.637   7.241   5.215  1.00 20.00     0.182 C 
HETATM    4  C4  UNL     1     -33.454   5.075   3.986  1.00 20.00     0.182 C 
HETATM    5  C5  UNL     1     -32.513   7.068   3.150  1.00 20.00     0.341 C 
HETATM    6  C6  UNL     1     -34.326   5.889   4.959  1.00 20.00    -0.004 C 
HETATM    7  C7  UNL     1     -35.713   6.128   4.332  1.00 20.00     0.019 C 
HETATM    8  C8  UNL     1     -34.495   5.126   6.279  1.00 20.00     0.019 C 
HETATM    9  O9  UNL     1     -33.331   7.895   3.982  1.00 20.00    -0.350 OA
HETATM   10  O10 UNL     1     -33.158   5.836   2.814  1.00 20.00    -0.350 OA
ENDROOT
TORSDOF 0
ENDMDL
MODEL 2
REMARK VINA RESULT:      -4.1     11.988     13.083
REMARK  0 active torsions:
REMARK  status: ('A' for Active; 'I' for Inactive)
ROOT
HETATM    1  C1  UNL     1     -30.293  18.613   1.964  1.00 20.00     0.017 C 
HETATM    2  C2  UNL     1     -31.139  18.800   1.134  1.00 20.00    -0.057 C 
HETATM    3  C3  UNL     1     -32.542  19.097  -2.207  1.00 20.00     0.182 C 
HETATM    4  C4  UNL     1     -34.285  18.286  -0.613  1.00 20.00     0.182 C 
HETATM    5  C5  UNL     1     -32.172  19.029   0.120  1.00 20.00     0.341 C 
HETATM    6  C6  UNL     1     -33.746  18.149  -2.049  1.00 20.00    -0.004 C 
HETATM    7  C7  UNL     1     -33.293  16.697  -2.294  1.00 20.00     0.019 C 
HETATM    8  C8  UNL     1     -34.840  18.514  -3.060  1.00 20.00     0.019 C 
HETATM    9  O9  UNL     1     -31.582  18.874  -1.173  1.00 20.00    -0.350 OA
HETATM   10  O10 UNL     1     -33.238  18.102   0.341  1.00 20.00    -0.350 OA
ENDROOT
TORSDOF 0
ENDMDL
MODEL 3
REMARK VINA RESULT:      -3.9     11.838     13.106
REMARK  0 active torsions:
REMARK  status: ('A' for Active; 'I' for Inactive)
ROOT
HETATM    1  C1  UNL     1     -33.688  17.457  -0.871  1.00 20.00     0.017 C 
HETATM    2  C2  UNL     1     -33.606  17.163  -2.032  1.00 20.00    -0.057 C 
HETATM    3  C3  UNL     1     -33.575  14.978  -4.937  1.00 20.00     0.182 C 
HETATM    4  C4  UNL     1     -34.441  17.233  -5.569  1.00 20.00     0.182 C 
HETATM    5  C5  UNL     1     -33.505  16.805  -3.449  1.00 20.00     0.341 C 
HETATM    6  C6  UNL     1     -34.603  15.721  -5.809  1.00 20.00    -0.004 C 
HETATM    7  C7  UNL     1     -36.026  15.285  -5.412  1.00 20.00     0.019 C 
HETATM    8  C8  UNL     1     -34.371  15.395  -7.290  1.00 20.00     0.019 C 
HETATM    9  O9  UNL     1     -33.675  15.391  -3.573  1.00 20.00    -0.350 OA
HETATM   10  O10 UNL     1     -34.499  17.533  -4.173  1.00 20.00    -0.350 OA
ENDROOT
TORSDOF 0
ENDMDL
MODEL 4
REMARK VINA RESULT:      -3.6     10.227     11.397
REMARK  0 active torsions:
REMARK  status: ('A' for Active; 'I' for Inactive)
ROOT
HETATM    1  C1  UNL     1     -39.237  11.748   4.683  1.00 20.00     0.017 C 
HETATM    2  C2  UNL     1     -40.014  12.319   5.398  1.00 20.00    -0.057 C 
HETATM    3  C3  UNL     1     -41.186  13.999   8.402  1.00 20.00     0.182 C 
HETATM    4  C4  UNL     1     -42.366  14.905   6.396  1.00 20.00     0.182 C 
HETATM    5  C5  UNL     1     -40.963  13.015   6.271  1.00 20.00     0.341 C 
HETATM    6  C6  UNL     1     -41.752  15.278   7.758  1.00 20.00    -0.004 C 
HETATM    7  C7  UNL     1     -40.614  16.296   7.549  1.00 20.00     0.019 C 
HETATM    8  C8  UNL     1     -42.821  15.896   8.666  1.00 20.00     0.019 C 
HETATM    9  O9  UNL     1     -40.304  13.326   7.501  1.00 20.00    -0.350 OA
HETATM   10  O10 UNL     1     -41.424  14.188   5.596  1.00 20.00    -0.350 OA
ENDROOT
TORSDOF 0
ENDMDL
MODEL 5
REMARK VINA RESULT:      -3.6      9.890     11.035
REMARK  0 active torsions:
REMARK  status: ('A' for Active; 'I' for Inactive)
ROOT
HETATM    1  C1  UNL     1     -39.250  11.421   4.529  1.00 20.00     0.017 C 
HETATM    2  C2  UNL     1     -39.709  12.314   5.187  1.00 20.00    -0.057 C 
HETATM    3  C3  UNL     1     -42.239  14.641   6.370  1.00 20.00     0.182 C 
HETATM    4  C4  UNL     1     -40.636  14.109   8.210  1.00 20.00     0.182 C 
HETATM    5  C5  UNL     1     -40.269  13.404   5.991  1.00 20.00     0.341 C 
HETATM    6  C6  UNL     1     -42.116  14.384   7.883  1.00 20.00    -0.004 C 
HETATM    7  C7  UNL     1     -42.966  13.158   8.268  1.00 20.00     0.019 C 
HETATM    8  C8  UNL     1     -42.609  15.606   8.667  1.00 20.00     0.019 C 
HETATM    9  O9  UNL     1     -41.640  13.580   5.625  1.00 20.00    -0.350 OA
HETATM   10  O10 UNL     1     -40.118  13.073   7.373  1.00 20.00    -0.350 OA
ENDROOT
TORSDOF 0
ENDMDL
MODEL 6
REMARK VINA RESULT:      -3.6     10.275     11.467
REMARK  0 active torsions:
REMARK  status: ('A' for Active; 'I' for Inactive)
ROOT
HETATM    1  C1  UNL     1     -39.409  11.753   5.017  1.00 20.00     0.017 C 
HETATM    2  C2  UNL     1     -40.134  12.496   5.619  1.00 20.00    -0.057 C 
HETATM    3  C3  UNL     1     -42.478  13.521   8.202  1.00 20.00     0.182 C 
HETATM    4  C4  UNL     1     -41.072  15.462   7.501  1.00 20.00     0.182 C 
HETATM    5  C5  UNL     1     -41.020  13.403   6.354  1.00 20.00     0.341 C 
HETATM    6  C6  UNL     1     -41.749  14.781   8.704  1.00 20.00    -0.004 C 
HETATM    7  C7  UNL     1     -40.680  14.379   9.738  1.00 20.00     0.019 C 
HETATM    8  C8  UNL     1     -42.748  15.742   9.360  1.00 20.00     0.019 C 
HETATM    9  O9  UNL     1     -41.593  12.688   7.452  1.00 20.00    -0.350 OA
HETATM   10  O10 UNL     1     -40.256  14.532   6.786  1.00 20.00    -0.350 OA
ENDROOT
TORSDOF 0
ENDMDL
MODEL 7
REMARK VINA RESULT:      -3.4     12.203     13.280
REMARK  0 active torsions:
REMARK  status: ('A' for Active; 'I' for Inactive)
ROOT
HETATM    1  C1  UNL     1     -32.275  18.647   1.112  1.00 20.00     0.017 C 
HETATM    2  C2  UNL     1     -32.910  18.257   0.171  1.00 20.00    -0.057 C 
HETATM    3  C3  UNL     1     -35.199  18.479  -2.646  1.00 20.00     0.182 C 
HETATM    4  C4  UNL     1     -33.488  16.710  -3.068  1.00 20.00     0.182 C 
HETATM    5  C5  UNL     1     -33.686  17.781  -0.978  1.00 20.00     0.341 C 
HETATM    6  C6  UNL     1     -34.316  17.829  -3.726  1.00 20.00    -0.004 C 
HETATM    7  C7  UNL     1     -33.369  18.887  -4.324  1.00 20.00     0.019 C 
HETATM    8  C8  UNL     1     -35.192  17.248  -4.843  1.00 20.00     0.019 C 
HETATM    9  O9  UNL     1     -34.411  18.885  -1.525  1.00 20.00    -0.350 OA
HETATM   10  O10 UNL     1     -32.785  17.205  -1.927  1.00 20.00    -0.350 OA
ENDROOT
TORSDOF 0
ENDMDL
MODEL 8
REMARK VINA RESULT:      -3.3     12.020     13.767
REMARK  0 active torsions:
REMARK  status: ('A' for Active; 'I' for Inactive)
ROOT
HETATM    1  C1  UNL     1     -39.276  17.151  -6.693  1.00 20.00     0.017 C 
HETATM    2  C2  UNL     1     -38.329  16.711  -6.102  1.00 20.00    -0.057 C 
HETATM    3  C3  UNL     1     -35.764  14.290  -5.220  1.00 20.00     0.182 C 
HETATM    4  C4  UNL     1     -34.918  16.610  -4.847  1.00 20.00     0.182 C 
HETATM    5  C5  UNL     1     -37.172  16.173  -5.380  1.00 20.00     0.341 C 
HETATM    6  C6  UNL     1     -34.526  15.200  -5.325  1.00 20.00    -0.004 C 
HETATM    7  C7  UNL     1     -34.058  15.265  -6.792  1.00 20.00     0.019 C 
HETATM    8  C8  UNL     1     -33.390  14.647  -4.457  1.00 20.00     0.019 C 
HETATM    9  O9  UNL     1     -36.880  14.873  -5.895  1.00 20.00    -0.350 OA
HETATM   10  O10 UNL     1     -36.076  17.077  -5.543  1.00 20.00    -0.350 OA
ENDROOT
TORSDOF 0
ENDMDL
MODEL 9
REMARK VINA RESULT:      -3.3     10.616     12.111
REMARK  0 active torsions:
REMARK  status: ('A' for Active; 'I' for Inactive)
ROOT
HETATM    1  C1  UNL     1     -40.254  14.783  11.426  1.00 20.00     0.017 C 
HETATM    2  C2  UNL     1     -40.381  14.788  10.232  1.00 20.00    -0.057 C 
HETATM    3  C3  UNL     1     -40.235  13.474   6.845  1.00 20.00     0.182 C 
HETATM    4  C4  UNL     1     -42.113  15.107   7.052  1.00 20.00     0.182 C 
HETATM    5  C5  UNL     1     -40.535  14.794   8.775  1.00 20.00     0.341 C 
HETATM    6  C6  UNL     1     -41.678  13.779   6.406  1.00 20.00    -0.004 C 
HETATM    7  C7  UNL     1     -42.610  12.646   6.878  1.00 20.00     0.019 C 
HETATM    8  C8  UNL     1     -41.752  13.888   4.878  1.00 20.00     0.019 C 
HETATM    9  O9  UNL     1     -40.117  13.525   8.268  1.00 20.00    -0.350 OA
HETATM   10  O10 UNL     1     -41.902  15.075   8.465  1.00 20.00    -0.350 OA
ENDROOT
TORSDOF 0
ENDMDL
