MODEL 1
REMARK VINA RESULT:      -3.7      0.000      0.000
REMARK  1 active torsions:
REMARK  status: ('A' for Active; 'I' for Inactive)
REMARK    1  A    between atoms: C5_5  and  C9_9 
ROOT
HETATM    1  C1  UNL     1     -34.992  16.864  -4.695  1.00 20.00    -0.029 C 
HETATM    2  C2  UNL     1     -34.023  15.974  -4.985  1.00 20.00    -0.021 C 
HETATM    3  C3  UNL     1     -34.149  15.712  -7.433  1.00 20.00    -0.021 C 
HETATM    4  C4  UNL     1     -35.356  16.232  -7.718  1.00 20.00    -0.024 C 
HETATM    5  C6  UNL     1     -36.293  16.908  -5.480  1.00 20.00     0.036 C 
HETATM    6  C7  UNL     1     -34.221  14.980  -6.112  1.00 20.00     0.045 C 
HETATM    7  C8  UNL     1     -36.342  15.864  -6.628  1.00 20.00     0.026 C 
HETATM    8  C9  UNL     1     -35.696  14.547  -6.174  1.00 20.00     0.106 C 
ENDROOT
BRANCH   8   9
HETATM    9  C5  UNL     1     -36.266  13.933  -4.908  1.00 20.00     0.178 C 
HETATM   10  O10 UNL     1     -37.465  14.234  -4.655  1.00 20.00    -0.648 OA
HETATM   11  O11 UNL     1     -35.463  13.198  -4.267  1.00 20.00    -0.648 OA
ENDBRANCH   8   9
TORSDOF 1
ENDMDL
MODEL 2
REMARK VINA RESULT:      -3.5      1.434      2.486
REMARK  1 active torsions:
REMARK  status: ('A' for Active; 'I' for Inactive)
REMARK    1  A    between atoms: C5_5  and  C9_9 
ROOT
HETATM    1  C1  UNL     1     -36.611  15.782  -5.460  1.00 20.00    -0.029 C 
HETATM    2  C2  UNL     1     -36.018  16.946  -5.130  1.00 20.00    -0.021 C 
HETATM    3  C3  UNL     1     -34.446  17.375  -6.979  1.00 20.00    -0.021 C 
HETATM    4  C4  UNL     1     -34.367  16.174  -7.578  1.00 20.00    -0.024 C 
HETATM    5  C6  UNL     1     -35.858  14.686  -6.196  1.00 20.00     0.036 C 
HETATM    6  C7  UNL     1     -34.563  17.182  -5.484  1.00 20.00     0.045 C 
HETATM    7  C8  UNL     1     -34.394  15.079  -6.531  1.00 20.00     0.026 C 
HETATM    8  C9  UNL     1     -33.776  15.864  -5.365  1.00 20.00     0.106 C 
ENDROOT
BRANCH   8   9
HETATM    9  C5  UNL     1     -33.819  15.180  -4.010  1.00 20.00     0.178 C 
HETATM   10  O10 UNL     1     -34.018  13.935  -4.041  1.00 20.00    -0.648 OA
HETATM   11  O11 UNL     1     -33.651  15.950  -3.023  1.00 20.00    -0.648 OA
ENDBRANCH   8   9
TORSDOF 1
ENDMDL
MODEL 3
REMARK VINA RESULT:      -3.5     11.171     12.970
REMARK  1 active torsions:
REMARK  status: ('A' for Active; 'I' for Inactive)
REMARK    1  A    between atoms: C5_5  and  C9_9 
ROOT
HETATM    1  C1  UNL     1     -41.968   5.319  -1.241  1.00 20.00    -0.029 C 
HETATM    2  C2  UNL     1     -40.903   5.482  -0.432  1.00 20.00    -0.021 C 
HETATM    3  C3  UNL     1     -41.784   5.048   1.829  1.00 20.00    -0.021 C 
HETATM    4  C4  UNL     1     -43.113   5.138   1.645  1.00 20.00    -0.024 C 
HETATM    5  C6  UNL     1     -43.371   5.700  -0.797  1.00 20.00     0.036 C 
HETATM    6  C7  UNL     1     -41.089   6.067   0.954  1.00 20.00     0.045 C 
HETATM    7  C8  UNL     1     -43.417   6.245   0.656  1.00 20.00     0.026 C 
HETATM    8  C9  UNL     1     -42.196   7.135   0.927  1.00 20.00     0.106 C 
ENDROOT
BRANCH   8   9
HETATM    9  C5  UNL     1     -41.989   8.287  -0.039  1.00 20.00     0.178 C 
HETATM   10  O10 UNL     1     -43.010   8.630  -0.695  1.00 20.00    -0.648 OA
HETATM   11  O11 UNL     1     -40.816   8.755  -0.062  1.00 20.00    -0.648 OA
ENDBRANCH   8   9
TORSDOF 1
ENDMDL
MODEL 4
REMARK VINA RESULT:      -3.4     11.204     12.699
REMARK  1 active torsions:
REMARK  status: ('A' for Active; 'I' for Inactive)
REMARK    1  A    between atoms: C5_5  and  C9_9 
ROOT
HETATM    1  C1  UNL     1     -43.415   7.426   1.334  1.00 20.00    -0.029 C 
HETATM    2  C2  UNL     1     -42.475   6.637   1.890  1.00 20.00    -0.021 C 
HETATM    3  C3  UNL     1     -40.359   7.411   0.887  1.00 20.00    -0.021 C 
HETATM    4  C4  UNL     1     -40.783   8.123  -0.171  1.00 20.00    -0.024 C 
HETATM    5  C6  UNL     1     -43.294   7.921  -0.099  1.00 20.00     0.036 C 
HETATM    6  C7  UNL     1     -41.264   6.215   1.079  1.00 20.00     0.045 C 
HETATM    7  C8  UNL     1     -41.988   7.446  -0.793  1.00 20.00     0.026 C 
HETATM    8  C9  UNL     1     -41.669   6.000  -0.390  1.00 20.00     0.106 C 
ENDROOT
BRANCH   8   9
HETATM    9  C5  UNL     1     -42.771   4.985  -0.638  1.00 20.00     0.178 C 
HETATM   10  O10 UNL     1     -43.219   4.954  -1.816  1.00 20.00    -0.648 OA
HETATM   11  O11 UNL     1     -43.099   4.302   0.373  1.00 20.00    -0.648 OA
ENDBRANCH   8   9
TORSDOF 1
ENDMDL
MODEL 5
REMARK VINA RESULT:      -3.2     13.438     14.559
REMARK  1 active torsions:
REMARK  status: ('A' for Active; 'I' for Inactive)
REMARK    1  A    between atoms: C5_5  and  C9_9 
ROOT
HETATM    1  C1  UNL     1     -40.277  13.409   6.532  1.00 20.00    -0.029 C 
HETATM    2  C2  UNL     1     -41.216  13.226   5.583  1.00 20.00    -0.021 C 
HETATM    3  C3  UNL     1     -42.404  15.383   5.476  1.00 20.00    -0.021 C 
HETATM    4  C4  UNL     1     -42.028  15.978   6.622  1.00 20.00    -0.024 C 
HETATM    5  C6  UNL     1     -40.533  14.290   7.745  1.00 20.00     0.036 C 
HETATM    6  C7  UNL     1     -42.568  13.899   5.715  1.00 20.00     0.045 C 
HETATM    7  C8  UNL     1     -41.939  14.947   7.728  1.00 20.00     0.026 C 
HETATM    8  C9  UNL     1     -42.982  13.954   7.196  1.00 20.00     0.106 C 
ENDROOT
BRANCH   8   9
HETATM    9  C5  UNL     1     -43.055  12.620   7.919  1.00 20.00     0.178 C 
HETATM   10  O10 UNL     1     -43.357  11.632   7.197  1.00 20.00    -0.648 OA
HETATM   11  O11 UNL     1     -42.802  12.674   9.156  1.00 20.00    -0.648 OA
ENDBRANCH   8   9
TORSDOF 1
ENDMDL
MODEL 6
REMARK VINA RESULT:      -3.2     12.662     14.070
REMARK  1 active torsions:
REMARK  status: ('A' for Active; 'I' for Inactive)
REMARK    1  A    between atoms: C5_5  and  C9_9 
ROOT
HETATM    1  C1  UNL     1     -43.417  12.976   6.690  1.00 20.00    -0.029 C 
HETATM    2  C2  UNL     1     -42.593  12.968   7.756  1.00 20.00    -0.021 C 
HETATM    3  C3  UNL     1     -41.901  15.320   8.010  1.00 20.00    -0.021 C 
HETATM    4  C4  UNL     1     -42.241  15.852   6.822  1.00 20.00    -0.024 C 
HETATM    5  C6  UNL     1     -43.195  13.919   5.518  1.00 20.00     0.036 C 
HETATM    6  C7  UNL     1     -41.404  13.908   7.801  1.00 20.00     0.045 C 
HETATM    7  C8  UNL     1     -41.969  14.851   5.718  1.00 20.00     0.026 C 
HETATM    8  C9  UNL     1     -40.821  14.081   6.387  1.00 20.00     0.106 C 
ENDROOT
BRANCH   8   9
HETATM    9  C5  UNL     1     -40.381  12.808   5.685  1.00 20.00     0.178 C 
HETATM   10  O10 UNL     1     -39.984  11.884   6.446  1.00 20.00    -0.648 OA
HETATM   11  O11 UNL     1     -40.468  12.841   4.426  1.00 20.00    -0.648 OA
ENDBRANCH   8   9
TORSDOF 1
ENDMDL
MODEL 7
REMARK VINA RESULT:      -3.2     13.864     14.803
REMARK  1 active torsions:
REMARK  status: ('A' for Active; 'I' for Inactive)
REMARK    1  A    between atoms: C5_5  and  C9_9 
ROOT
HETATM    1  C1  UNL     1     -41.415  14.397   9.592  1.00 20.00    -0.029 C 
HETATM    2  C2  UNL     1     -40.278  14.829   9.011  1.00 20.00    -0.021 C 
HETATM    3  C3  UNL     1     -41.024  16.568   7.431  1.00 20.00    -0.021 C 
HETATM    4  C4  UNL     1     -42.344  16.329   7.338  1.00 20.00    -0.024 C 
HETATM    5  C6  UNL     1     -42.725  14.330   8.824  1.00 20.00     0.036 C 
HETATM    6  C7  UNL     1     -40.286  15.255   7.556  1.00 20.00     0.045 C 
HETATM    7  C8  UNL     1     -42.594  14.834   7.361  1.00 20.00     0.026 C 
HETATM    8  C9  UNL     1     -41.260  14.371   6.758  1.00 20.00     0.106 C 
ENDROOT
BRANCH   8   9
HETATM    9  C5  UNL     1     -40.998  12.876   6.804  1.00 20.00     0.178 C 
HETATM   10  O10 UNL     1     -39.781  12.544   6.829  1.00 20.00    -0.648 OA
HETATM   11  O11 UNL     1     -42.035  12.156   6.810  1.00 20.00    -0.648 OA
ENDBRANCH   8   9
TORSDOF 1
ENDMDL
MODEL 8
REMARK VINA RESULT:      -3.2     24.343     25.794
REMARK  1 active torsions:
REMARK  status: ('A' for Active; 'I' for Inactive)
REMARK    1  A    between atoms: C5_5  and  C9_9 
ROOT
HETATM    1  C1  UNL     1     -27.384  -0.260  10.942  1.00 20.00    -0.029 C 
HETATM    2  C2  UNL     1     -27.687  -0.998   9.856  1.00 20.00    -0.021 C 
HETATM    3  C3  UNL     1     -29.272  -2.691  10.693  1.00 20.00    -0.021 C 
HETATM    4  C4  UNL     1     -29.093  -2.622  12.024  1.00 20.00    -0.024 C 
HETATM    5  C6  UNL     1     -27.300  -0.879  12.328  1.00 20.00     0.036 C 
HETATM    6  C7  UNL     1     -27.944  -2.486  10.000  1.00 20.00     0.045 C 
HETATM    7  C8  UNL     1     -27.627  -2.397  12.332  1.00 20.00     0.026 C 
HETATM    8  C9  UNL     1     -27.028  -3.071  11.089  1.00 20.00     0.106 C 
ENDROOT
BRANCH   8   9
HETATM    9  C5  UNL     1     -25.537  -2.875  10.884  1.00 20.00     0.178 C 
HETATM   10  O10 UNL     1     -24.865  -2.711  11.939  1.00 20.00    -0.648 OA
HETATM   11  O11 UNL     1     -25.160  -2.901   9.679  1.00 20.00    -0.648 OA
ENDBRANCH   8   9
TORSDOF 1
ENDMDL
MODEL 9
REMARK VINA RESULT:      -3.2     13.421     14.673
REMARK  1 active torsions:
REMARK  status: ('A' for Active; 'I' for Inactive)
REMARK    1  A    between atoms: C5_5  and  C9_9 
ROOT
HETATM    1  C1  UNL     1     -43.105  14.521   8.292  1.00 20.00    -0.029 C 
HETATM    2  C2  UNL     1     -42.084  13.924   8.937  1.00 20.00    -0.021 C 
HETATM    3  C3  UNL     1     -40.333  15.656   9.043  1.00 20.00    -0.021 C 
HETATM    4  C4  UNL     1     -40.750  16.546   8.126  1.00 20.00    -0.024 C 
HETATM    5  C6  UNL     1     -42.863  15.541   7.191  1.00 20.00     0.036 C 
HETATM    6  C7  UNL     1     -40.653  14.258   8.564  1.00 20.00     0.045 C 
HETATM    7  C8  UNL     1     -41.355  15.816   6.944  1.00 20.00     0.026 C 
HETATM    8  C9  UNL     1     -40.553  14.511   7.049  1.00 20.00     0.106 C 
ENDROOT
BRANCH   8   9
HETATM    9  C5  UNL     1     -41.015  13.377   6.151  1.00 20.00     0.178 C 
HETATM   10  O10 UNL     1     -41.424  13.726   5.010  1.00 20.00    -0.648 OA
HETATM   11  O11 UNL     1     -40.930  12.226   6.665  1.00 20.00    -0.648 OA
ENDBRANCH   8   9
TORSDOF 1
ENDMDL
