MODEL 1
REMARK VINA RESULT:      -3.8      0.000      0.000
REMARK  3 active torsions:
REMARK  status: ('A' for Active; 'I' for Inactive)
REMARK    1  A    between atoms: C1_1  and  C4_4 
REMARK    2  A    between atoms: C3_3  and  C7_7 
REMARK    3  A    between atoms: C7_7  and  O9_9 
ROOT
HETATM    1  C1  UNL     1     -34.176  16.276  -4.537  1.00 20.00    -0.066 C 
HETATM    2  C2  UNL     1     -33.739  16.589  -3.462  1.00 20.00    -0.108 C 
HETATM    3  C5  UNL     1     -33.209  16.972  -2.154  1.00 20.00     0.112 C 
ENDROOT
BRANCH   1   4
HETATM    4  C4  UNL     1     -34.696  15.901  -5.818  1.00 20.00     0.148 A 
HETATM    5  C3  UNL     1     -35.756  14.825  -5.931  1.00 20.00     0.194 A 
HETATM    6  O8  UNL     1     -34.373  14.548  -6.182  1.00 20.00    -0.354 OA
HETATM    7  C6  UNL     1     -34.525  16.876  -6.939  1.00 20.00     0.063 C 
BRANCH   5   8
HETATM    8  C7  UNL     1     -36.325  14.107  -4.758  1.00 20.00     0.200 C 
BRANCH   8   9
HETATM    9  O9  UNL     1     -35.601  12.898  -4.527  1.00 20.00    -0.398 OA
HETATM   10  H19 UNL     1     -34.850  13.132  -3.960  1.00 20.00     0.209 HD
ENDBRANCH   8   9
ENDBRANCH   5   8
ENDBRANCH   1   4
TORSDOF 3
ENDMDL
MODEL 2
REMARK VINA RESULT:      -3.7      4.275      6.203
REMARK  3 active torsions:
REMARK  status: ('A' for Active; 'I' for Inactive)
REMARK    1  A    between atoms: C1_1  and  C4_4 
REMARK    2  A    between atoms: C3_3  and  C7_7 
REMARK    3  A    between atoms: C7_7  and  O9_9 
ROOT
HETATM    1  C1  UNL     1     -33.628  17.297  -2.037  1.00 20.00    -0.066 C 
HETATM    2  C2  UNL     1     -33.420  16.449  -2.862  1.00 20.00    -0.108 C 
HETATM    3  C5  UNL     1     -33.165  15.417  -3.867  1.00 20.00     0.112 C 
ENDROOT
BRANCH   1   4
HETATM    4  C4  UNL     1     -33.877  18.308  -1.053  1.00 20.00     0.148 A 
HETATM    5  C3  UNL     1     -32.742  18.858  -0.214  1.00 20.00     0.194 A 
HETATM    6  O8  UNL     1     -33.633  17.856   0.290  1.00 20.00    -0.354 OA
HETATM    7  C6  UNL     1     -35.133  19.107  -1.194  1.00 20.00     0.063 C 
BRANCH   5   8
HETATM    8  C7  UNL     1     -31.329  18.411  -0.352  1.00 20.00     0.200 C 
BRANCH   8   9
HETATM    9  O9  UNL     1     -30.481  19.213   0.471  1.00 20.00    -0.398 OA
HETATM   10  H19 UNL     1     -29.732  19.479  -0.084  1.00 20.00     0.209 HD
ENDBRANCH   8   9
ENDBRANCH   5   8
ENDBRANCH   1   4
TORSDOF 3
ENDMDL
MODEL 3
REMARK VINA RESULT:      -3.6     12.686     14.091
REMARK  3 active torsions:
REMARK  status: ('A' for Active; 'I' for Inactive)
REMARK    1  A    between atoms: C1_1  and  C4_4 
REMARK    2  A    between atoms: C3_3  and  C7_7 
REMARK    3  A    between atoms: C7_7  and  O9_9 
ROOT
HETATM    1  C1  UNL     1     -40.964  12.652   6.119  1.00 20.00    -0.066 C 
HETATM    2  C2  UNL     1     -40.125  12.235   5.367  1.00 20.00    -0.108 C 
HETATM    3  C5  UNL     1     -39.103  11.726   4.453  1.00 20.00     0.112 C 
ENDROOT
BRANCH   1   4
HETATM    4  C4  UNL     1     -41.964  13.151   7.016  1.00 20.00     0.148 A 
HETATM    5  C3  UNL     1     -41.754  14.459   7.749  1.00 20.00     0.194 A 
HETATM    6  O8  UNL     1     -41.521  13.196   8.383  1.00 20.00    -0.354 OA
HETATM    7  C6  UNL     1     -43.353  12.619   6.857  1.00 20.00     0.063 C 
BRANCH   5   8
HETATM    8  C7  UNL     1     -40.537  15.302   7.591  1.00 20.00     0.200 C 
BRANCH   8   9
HETATM    9  O9  UNL     1     -39.733  15.223   8.768  1.00 20.00    -0.398 OA
HETATM   10  H19 UNL     1     -40.247  14.722   9.418  1.00 20.00     0.209 HD
ENDBRANCH   8   9
ENDBRANCH   5   8
ENDBRANCH   1   4
TORSDOF 3
ENDMDL
MODEL 4
REMARK VINA RESULT:      -3.5     12.219     13.422
REMARK  3 active torsions:
REMARK  status: ('A' for Active; 'I' for Inactive)
REMARK    1  A    between atoms: C1_1  and  C4_4 
REMARK    2  A    between atoms: C3_3  and  C7_7 
REMARK    3  A    between atoms: C7_7  and  O9_9 
ROOT
HETATM    1  C1  UNL     1     -33.049   6.446   3.692  1.00 20.00    -0.066 C 
HETATM    2  C2  UNL     1     -32.941   5.602   2.844  1.00 20.00    -0.108 C 
HETATM    3  C5  UNL     1     -32.811   4.572   1.814  1.00 20.00     0.112 C 
ENDROOT
BRANCH   1   4
HETATM    4  C4  UNL     1     -33.177   7.454   4.701  1.00 20.00     0.148 A 
HETATM    5  C3  UNL     1     -33.788   7.119   6.047  1.00 20.00     0.194 A 
HETATM    6  O8  UNL     1     -34.545   7.764   5.016  1.00 20.00    -0.354 OA
HETATM    7  C6  UNL     1     -32.306   8.663   4.578  1.00 20.00     0.063 C 
BRANCH   5   8
HETATM    8  C7  UNL     1     -34.276   5.761   6.411  1.00 20.00     0.200 C 
BRANCH   8   9
HETATM    9  O9  UNL     1     -35.416   5.423   5.620  1.00 20.00    -0.398 OA
HETATM   10  H19 UNL     1     -35.175   4.631   5.117  1.00 20.00     0.209 HD
ENDBRANCH   8   9
ENDBRANCH   5   8
ENDBRANCH   1   4
TORSDOF 3
ENDMDL
MODEL 5
REMARK VINA RESULT:      -3.5      1.127      1.186
REMARK  3 active torsions:
REMARK  status: ('A' for Active; 'I' for Inactive)
REMARK    1  A    between atoms: C1_1  and  C4_4 
REMARK    2  A    between atoms: C3_3  and  C7_7 
REMARK    3  A    between atoms: C7_7  and  O9_9 
ROOT
HETATM    1  C1  UNL     1     -34.118  16.931  -3.788  1.00 20.00    -0.066 C 
HETATM    2  C2  UNL     1     -33.524  17.247  -2.793  1.00 20.00    -0.108 C 
HETATM    3  C5  UNL     1     -32.802  17.632  -1.581  1.00 20.00     0.112 C 
ENDROOT
BRANCH   1   4
HETATM    4  C4  UNL     1     -34.826  16.554  -4.975  1.00 20.00     0.148 A 
HETATM    5  C3  UNL     1     -35.138  15.098  -5.253  1.00 20.00     0.194 A 
HETATM    6  O8  UNL     1     -34.032  15.763  -5.875  1.00 20.00    -0.354 OA
HETATM    7  C6  UNL     1     -35.625  17.615  -5.662  1.00 20.00     0.063 C 
BRANCH   5   8
HETATM    8  C7  UNL     1     -34.754  13.988  -4.339  1.00 20.00     0.200 C 
BRANCH   8   9
HETATM    9  O9  UNL     1     -35.707  12.929  -4.431  1.00 20.00    -0.398 OA
HETATM   10  H19 UNL     1     -35.859  12.778  -5.376  1.00 20.00     0.209 HD
ENDBRANCH   8   9
ENDBRANCH   5   8
ENDBRANCH   1   4
TORSDOF 3
ENDMDL
MODEL 6
REMARK VINA RESULT:      -3.5     12.795     14.076
REMARK  3 active torsions:
REMARK  status: ('A' for Active; 'I' for Inactive)
REMARK    1  A    between atoms: C1_1  and  C4_4 
REMARK    2  A    between atoms: C3_3  and  C7_7 
REMARK    3  A    between atoms: C7_7  and  O9_9 
ROOT
HETATM    1  C1  UNL     1     -40.432  12.988   6.375  1.00 20.00    -0.066 C 
HETATM    2  C2  UNL     1     -39.848  12.404   5.502  1.00 20.00    -0.108 C 
HETATM    3  C5  UNL     1     -39.136  11.694   4.440  1.00 20.00     0.112 C 
ENDROOT
BRANCH   1   4
HETATM    4  C4  UNL     1     -41.128  13.684   7.415  1.00 20.00     0.148 A 
HETATM    5  C3  UNL     1     -42.566  13.338   7.742  1.00 20.00     0.194 A 
HETATM    6  O8  UNL     1     -42.231  14.467   6.928  1.00 20.00    -0.354 OA
HETATM    7  C6  UNL     1     -40.300  14.394   8.438  1.00 20.00     0.063 C 
BRANCH   5   8
HETATM    8  C7  UNL     1     -43.335  12.276   7.035  1.00 20.00     0.200 C 
BRANCH   8   9
HETATM    9  O9  UNL     1     -43.304  11.066   7.792  1.00 20.00    -0.398 OA
HETATM   10  H19 UNL     1     -42.408  10.992   8.154  1.00 20.00     0.209 HD
ENDBRANCH   8   9
ENDBRANCH   5   8
ENDBRANCH   1   4
TORSDOF 3
ENDMDL
MODEL 7
REMARK VINA RESULT:      -3.5      1.645      2.246
REMARK  3 active torsions:
REMARK  status: ('A' for Active; 'I' for Inactive)
REMARK    1  A    between atoms: C1_1  and  C4_4 
REMARK    2  A    between atoms: C3_3  and  C7_7 
REMARK    3  A    between atoms: C7_7  and  O9_9 
ROOT
HETATM    1  C1  UNL     1     -33.539  15.996  -3.115  1.00 20.00    -0.066 C 
HETATM    2  C2  UNL     1     -33.627  16.821  -2.247  1.00 20.00    -0.108 C 
HETATM    3  C5  UNL     1     -33.732  17.828  -1.190  1.00 20.00     0.112 C 
ENDROOT
BRANCH   1   4
HETATM    4  C4  UNL     1     -33.436  15.012  -4.151  1.00 20.00     0.148 A 
HETATM    5  C3  UNL     1     -34.526  14.876  -5.193  1.00 20.00     0.194 A 
HETATM    6  O8  UNL     1     -34.450  13.997  -4.065  1.00 20.00    -0.354 OA
HETATM    7  C6  UNL     1     -32.074  14.469  -4.446  1.00 20.00     0.063 C 
BRANCH   5   8
HETATM    8  C7  UNL     1     -35.743  15.734  -5.224  1.00 20.00     0.200 C 
BRANCH   8   9
HETATM    9  O9  UNL     1     -36.914  14.924  -5.123  1.00 20.00    -0.398 OA
HETATM   10  H19 UNL     1     -37.121  14.857  -4.179  1.00 20.00     0.209 HD
ENDBRANCH   8   9
ENDBRANCH   5   8
ENDBRANCH   1   4
TORSDOF 3
ENDMDL
MODEL 8
REMARK VINA RESULT:      -3.4     12.210     13.416
REMARK  3 active torsions:
REMARK  status: ('A' for Active; 'I' for Inactive)
REMARK    1  A    between atoms: C1_1  and  C4_4 
REMARK    2  A    between atoms: C3_3  and  C7_7 
REMARK    3  A    between atoms: C7_7  and  O9_9 
ROOT
HETATM    1  C1  UNL     1     -33.548   7.210   5.152  1.00 20.00    -0.066 C 
HETATM    2  C2  UNL     1     -32.918   8.229   5.063  1.00 20.00    -0.108 C 
HETATM    3  C5  UNL     1     -32.149   9.468   4.955  1.00 20.00     0.112 C 
ENDROOT
BRANCH   1   4
HETATM    4  C4  UNL     1     -34.301   5.996   5.258  1.00 20.00     0.148 A 
HETATM    5  C3  UNL     1     -34.390   5.044   4.083  1.00 20.00     0.194 A 
HETATM    6  O8  UNL     1     -35.444   5.965   4.386  1.00 20.00    -0.354 OA
HETATM    7  C6  UNL     1     -34.587   5.485   6.633  1.00 20.00     0.063 C 
BRANCH   5   8
HETATM    8  C7  UNL     1     -33.717   5.286   2.777  1.00 20.00     0.200 C 
BRANCH   8   9
HETATM    9  O9  UNL     1     -32.472   4.590   2.734  1.00 20.00    -0.398 OA
HETATM   10  H19 UNL     1     -32.376   4.256   1.829  1.00 20.00     0.209 HD
ENDBRANCH   8   9
ENDBRANCH   5   8
ENDBRANCH   1   4
TORSDOF 3
ENDMDL
MODEL 9
REMARK VINA RESULT:      -3.4     11.327     12.644
REMARK  3 active torsions:
REMARK  status: ('A' for Active; 'I' for Inactive)
REMARK    1  A    between atoms: C1_1  and  C4_4 
REMARK    2  A    between atoms: C3_3  and  C7_7 
REMARK    3  A    between atoms: C7_7  and  O9_9 
ROOT
HETATM    1  C1  UNL     1     -41.575  13.987   5.302  1.00 20.00    -0.066 C 
HETATM    2  C2  UNL     1     -42.302  14.411   4.445  1.00 20.00    -0.108 C 
HETATM    3  C5  UNL     1     -43.189  14.928   3.403  1.00 20.00     0.112 C 
ENDROOT
BRANCH   1   4
HETATM    4  C4  UNL     1     -40.707  13.482   6.324  1.00 20.00     0.148 A 
HETATM    5  C3  UNL     1     -39.688  12.408   6.004  1.00 20.00     0.194 A 
HETATM    6  O8  UNL     1     -40.941  12.095   6.624  1.00 20.00    -0.354 OA
HETATM    7  C6  UNL     1     -40.514  14.330   7.540  1.00 20.00     0.063 C 
BRANCH   5   8
HETATM    8  C7  UNL     1     -39.512  11.824   4.646  1.00 20.00     0.200 C 
BRANCH   8   9
HETATM    9  O9  UNL     1     -38.137  11.882   4.264  1.00 20.00    -0.398 OA
HETATM   10  H19 UNL     1     -38.113  11.750   3.305  1.00 20.00     0.209 HD
ENDBRANCH   8   9
ENDBRANCH   5   8
ENDBRANCH   1   4
TORSDOF 3
ENDMDL
