MODEL 1
REMARK VINA RESULT:      -4.3      0.000      0.000
REMARK  1 active torsions:
REMARK  status: ('A' for Active; 'I' for Inactive)
REMARK    1  A    between atoms: C2_2  and  C9_9 
ROOT
HETATM    1  C1  UNL     1     -42.098  12.899   7.013  1.00 20.00     0.144 C 
HETATM    2  C3  UNL     1     -42.683  14.066   7.783  1.00 20.00     0.084 C 
HETATM    3  C4  UNL     1     -42.570  14.732   4.817  1.00 20.00     0.002 C 
HETATM    4  C5  UNL     1     -42.425  15.796   5.914  1.00 20.00     0.005 C 
HETATM    5  C6  UNL     1     -41.400  13.739   4.774  1.00 20.00     0.027 C 
HETATM    6  C7  UNL     1     -40.499  14.594   6.954  1.00 20.00     0.031 C 
HETATM    7  C8  UNL     1     -41.855  15.240   7.234  1.00 20.00    -0.006 C 
HETATM    8  C9  UNL     1     -40.909  13.342   6.174  1.00 20.00     0.097 C 
HETATM    9  O10 UNL     1     -42.538  11.759   7.058  1.00 20.00    -0.297 OA
ENDROOT
BRANCH   8  10
HETATM   10  C2  UNL     1     -39.785  12.358   6.117  1.00 20.00     0.234 C 
HETATM   11  O11 UNL     1     -39.175  12.017   7.127  1.00 20.00    -0.279 OA
HETATM   12 CL12 UNL     1     -39.487  11.797   4.500  1.00 20.00    -0.043 Cl
ENDBRANCH   8  10
TORSDOF 1
ENDMDL
MODEL 2
REMARK VINA RESULT:      -4.1     12.689     13.566
REMARK  1 active torsions:
REMARK  status: ('A' for Active; 'I' for Inactive)
REMARK    1  A    between atoms: C2_2  and  C9_9 
ROOT
HETATM    1  C1  UNL     1     -35.999  14.819  -5.156  1.00 20.00     0.144 C 
HETATM    2  C3  UNL     1     -37.065  15.834  -5.516  1.00 20.00     0.084 C 
HETATM    3  C4  UNL     1     -35.032  15.621  -7.770  1.00 20.00     0.002 C 
HETATM    4  C5  UNL     1     -35.781  16.921  -7.446  1.00 20.00     0.005 C 
HETATM    5  C6  UNL     1     -34.054  15.190  -6.667  1.00 20.00     0.027 C 
HETATM    6  C7  UNL     1     -34.969  16.908  -5.084  1.00 20.00     0.031 C 
HETATM    7  C8  UNL     1     -36.209  17.029  -5.969  1.00 20.00    -0.006 C 
HETATM    8  C9  UNL     1     -34.610  15.430  -5.256  1.00 20.00     0.097 C 
HETATM    9  O10 UNL     1     -36.235  13.661  -4.841  1.00 20.00    -0.297 OA
ENDROOT
BRANCH   8  10
HETATM   10  C2  UNL     1     -33.656  14.986  -4.193  1.00 20.00     0.234 C 
HETATM   11  O11 UNL     1     -33.083  13.902  -4.254  1.00 20.00    -0.279 OA
HETATM   12 CL12 UNL     1     -33.488  16.168  -2.931  1.00 20.00    -0.043 Cl
ENDBRANCH   8  10
TORSDOF 1
ENDMDL
MODEL 3
REMARK VINA RESULT:      -3.9     12.783     13.825
REMARK  1 active torsions:
REMARK  status: ('A' for Active; 'I' for Inactive)
REMARK    1  A    between atoms: C2_2  and  C9_9 
ROOT
HETATM    1  C1  UNL     1     -35.785  14.537  -5.002  1.00 20.00     0.144 C 
HETATM    2  C3  UNL     1     -34.659  13.955  -4.172  1.00 20.00     0.084 C 
HETATM    3  C4  UNL     1     -34.678  16.986  -3.915  1.00 20.00     0.002 C 
HETATM    4  C5  UNL     1     -33.391  16.153  -3.834  1.00 20.00     0.005 C 
HETATM    5  C6  UNL     1     -35.329  16.966  -5.306  1.00 20.00     0.027 C 
HETATM    6  C7  UNL     1     -33.803  15.130  -6.075  1.00 20.00     0.031 C 
HETATM    7  C8  UNL     1     -33.471  14.826  -4.614  1.00 20.00    -0.006 C 
HETATM    8  C9  UNL     1     -35.261  15.584  -5.971  1.00 20.00     0.097 C 
HETATM    9  O10 UNL     1     -36.958  14.209  -4.890  1.00 20.00    -0.297 OA
ENDROOT
BRANCH   8  10
HETATM   10  C2  UNL     1     -35.918  15.575  -7.314  1.00 20.00     0.234 C 
HETATM   11  O11 UNL     1     -36.208  14.526  -7.883  1.00 20.00    -0.279 OA
HETATM   12 CL12 UNL     1     -36.197  17.180  -7.918  1.00 20.00    -0.043 Cl
ENDBRANCH   8  10
TORSDOF 1
ENDMDL
MODEL 4
REMARK VINA RESULT:      -3.9     12.921     14.128
REMARK  1 active torsions:
REMARK  status: ('A' for Active; 'I' for Inactive)
REMARK    1  A    between atoms: C2_2  and  C9_9 
ROOT
HETATM    1  C1  UNL     1     -34.656  15.381  -6.999  1.00 20.00     0.144 C 
HETATM    2  C3  UNL     1     -35.868  15.691  -7.854  1.00 20.00     0.084 C 
HETATM    3  C4  UNL     1     -35.149  18.111  -6.157  1.00 20.00     0.002 C 
HETATM    4  C5  UNL     1     -36.590  17.785  -6.573  1.00 20.00     0.005 C 
HETATM    5  C6  UNL     1     -34.548  17.085  -5.186  1.00 20.00     0.027 C 
HETATM    6  C7  UNL     1     -36.471  15.513  -5.544  1.00 20.00     0.031 C 
HETATM    7  C8  UNL     1     -36.833  16.282  -6.814  1.00 20.00    -0.006 C 
HETATM    8  C9  UNL     1     -34.945  15.642  -5.530  1.00 20.00     0.097 C 
HETATM    9  O10 UNL     1     -33.587  14.986  -7.444  1.00 20.00    -0.297 OA
ENDROOT
BRANCH   8  10
HETATM   10  C2  UNL     1     -34.336  14.652  -4.589  1.00 20.00     0.234 C 
HETATM   11  O11 UNL     1     -34.939  13.642  -4.236  1.00 20.00    -0.279 OA
HETATM   12 CL12 UNL     1     -32.736  15.117  -4.097  1.00 20.00    -0.043 Cl
ENDBRANCH   8  10
TORSDOF 1
ENDMDL
MODEL 5
REMARK VINA RESULT:      -3.7      2.327      2.872
REMARK  1 active torsions:
REMARK  status: ('A' for Active; 'I' for Inactive)
REMARK    1  A    between atoms: C2_2  and  C9_9 
ROOT
HETATM    1  C1  UNL     1     -42.472  13.219   7.544  1.00 20.00     0.144 C 
HETATM    2  C3  UNL     1     -43.359  13.552   6.362  1.00 20.00     0.084 C 
HETATM    3  C4  UNL     1     -40.597  12.731   5.387  1.00 20.00     0.002 C 
HETATM    4  C5  UNL     1     -41.477  13.742   4.639  1.00 20.00     0.005 C 
HETATM    5  C6  UNL     1     -40.111  13.239   6.752  1.00 20.00     0.027 C 
HETATM    6  C7  UNL     1     -41.657  15.212   6.651  1.00 20.00     0.031 C 
HETATM    7  C8  UNL     1     -42.455  14.500   5.558  1.00 20.00    -0.006 C 
HETATM    8  C9  UNL     1     -41.188  14.032   7.506  1.00 20.00     0.097 C 
HETATM    9  O10 UNL     1     -42.755  12.396   8.403  1.00 20.00    -0.297 OA
ENDROOT
BRANCH   8  10
HETATM   10  C2  UNL     1     -40.707  14.502   8.842  1.00 20.00     0.234 C 
HETATM   11  O11 UNL     1     -40.397  13.712   9.729  1.00 20.00    -0.279 OA
HETATM   12 CL12 UNL     1     -40.653  16.235   8.946  1.00 20.00    -0.043 Cl
ENDBRANCH   8  10
TORSDOF 1
ENDMDL
MODEL 6
REMARK VINA RESULT:      -3.6     12.944     13.964
REMARK  1 active torsions:
REMARK  status: ('A' for Active; 'I' for Inactive)
REMARK    1  A    between atoms: C2_2  and  C9_9 
ROOT
HETATM    1  C1  UNL     1     -34.680  17.009  -5.070  1.00 20.00     0.144 C 
HETATM    2  C3  UNL     1     -34.472  17.860  -6.306  1.00 20.00     0.084 C 
HETATM    3  C4  UNL     1     -37.062  16.283  -6.557  1.00 20.00     0.002 C 
HETATM    4  C5  UNL     1     -36.199  16.663  -7.768  1.00 20.00     0.005 C 
HETATM    5  C6  UNL     1     -36.382  15.275  -5.618  1.00 20.00     0.027 C 
HETATM    6  C7  UNL     1     -34.188  15.535  -6.807  1.00 20.00     0.031 C 
HETATM    7  C8  UNL     1     -34.705  16.833  -7.427  1.00 20.00    -0.006 C 
HETATM    8  C9  UNL     1     -34.881  15.549  -5.442  1.00 20.00     0.097 C 
HETATM    9  O10 UNL     1     -34.695  17.450  -3.929  1.00 20.00    -0.297 OA
ENDROOT
BRANCH   8  10
HETATM   10  C2  UNL     1     -34.238  14.573  -4.509  1.00 20.00     0.234 C 
HETATM   11  O11 UNL     1     -34.856  13.616  -4.051  1.00 20.00    -0.279 OA
HETATM   12 CL12 UNL     1     -32.579  14.973  -4.186  1.00 20.00    -0.043 Cl
ENDBRANCH   8  10
TORSDOF 1
ENDMDL
MODEL 7
REMARK VINA RESULT:      -3.5      1.779      2.515
REMARK  1 active torsions:
REMARK  status: ('A' for Active; 'I' for Inactive)
REMARK    1  A    between atoms: C2_2  and  C9_9 
ROOT
HETATM    1  C1  UNL     1     -41.999  13.939   4.851  1.00 20.00     0.144 C 
HETATM    2  C3  UNL     1     -43.417  13.962   5.384  1.00 20.00     0.084 C 
HETATM    3  C4  UNL     1     -41.551  15.355   7.342  1.00 20.00     0.002 C 
HETATM    4  C5  UNL     1     -42.807  14.592   7.788  1.00 20.00     0.005 C 
HETATM    5  C6  UNL     1     -40.466  14.445   6.748  1.00 20.00     0.027 C 
HETATM    6  C7  UNL     1     -42.039  12.492   6.677  1.00 20.00     0.031 C 
HETATM    7  C8  UNL     1     -43.211  13.461   6.823  1.00 20.00    -0.006 C 
HETATM    8  C9  UNL     1     -41.046  13.329   5.866  1.00 20.00     0.097 C 
HETATM    9  O10 UNL     1     -41.672  14.368   3.753  1.00 20.00    -0.297 OA
ENDROOT
BRANCH   8  10
HETATM   10  C2  UNL     1     -39.977  12.465   5.278  1.00 20.00     0.234 C 
HETATM   11  O11 UNL     1     -39.937  12.217   4.076  1.00 20.00    -0.279 OA
HETATM   12 CL12 UNL     1     -38.859  11.896   6.480  1.00 20.00    -0.043 Cl
ENDBRANCH   8  10
TORSDOF 1
ENDMDL
MODEL 8
REMARK VINA RESULT:      -3.5     13.203     14.026
REMARK  1 active torsions:
REMARK  status: ('A' for Active; 'I' for Inactive)
REMARK    1  A    between atoms: C2_2  and  C9_9 
ROOT
HETATM    1  C1  UNL     1     -34.336  16.418  -6.652  1.00 20.00     0.144 C 
HETATM    2  C3  UNL     1     -34.500  17.924  -6.632  1.00 20.00     0.084 C 
HETATM    3  C4  UNL     1     -33.460  16.960  -3.941  1.00 20.00     0.002 C 
HETATM    4  C5  UNL     1     -34.364  18.192  -4.091  1.00 20.00     0.005 C 
HETATM    5  C6  UNL     1     -34.166  15.641  -4.292  1.00 20.00     0.027 C 
HETATM    6  C7  UNL     1     -36.139  16.865  -5.244  1.00 20.00     0.031 C 
HETATM    7  C8  UNL     1     -35.284  18.130  -5.326  1.00 20.00    -0.006 C 
HETATM    8  C9  UNL     1     -35.098  15.773  -5.505  1.00 20.00     0.097 C 
HETATM    9  O10 UNL     1     -33.667  15.813  -7.478  1.00 20.00    -0.297 OA
ENDROOT
BRANCH   8  10
HETATM   10  C2  UNL     1     -35.760  14.477  -5.848  1.00 20.00     0.234 C 
HETATM   11  O11 UNL     1     -36.153  14.235  -6.985  1.00 20.00    -0.279 OA
HETATM   12 CL12 UNL     1     -35.885  13.423  -4.473  1.00 20.00    -0.043 Cl
ENDBRANCH   8  10
TORSDOF 1
ENDMDL
MODEL 9
REMARK VINA RESULT:      -3.5      1.496      2.752
REMARK  1 active torsions:
REMARK  status: ('A' for Active; 'I' for Inactive)
REMARK    1  A    between atoms: C2_2  and  C9_9 
ROOT
HETATM    1  C1  UNL     1     -40.731  14.459   8.114  1.00 20.00     0.144 C 
HETATM    2  C3  UNL     1     -40.402  15.918   7.871  1.00 20.00     0.084 C 
HETATM    3  C4  UNL     1     -43.294  15.643   8.776  1.00 20.00     0.002 C 
HETATM    4  C5  UNL     1     -42.823  16.749   7.822  1.00 20.00     0.005 C 
HETATM    5  C6  UNL     1     -43.211  14.236   8.164  1.00 20.00     0.027 C 
HETATM    6  C7  UNL     1     -41.903  15.088   6.200  1.00 20.00     0.031 C 
HETATM    7  C8  UNL     1     -41.585  16.356   6.991  1.00 20.00    -0.006 C 
HETATM    8  C9  UNL     1     -41.950  14.035   7.311  1.00 20.00     0.097 C 
HETATM    9  O10 UNL     1     -40.099  13.731   8.867  1.00 20.00    -0.297 OA
ENDROOT
BRANCH   8  10
HETATM   10  C2  UNL     1     -41.872  12.655   6.740  1.00 20.00     0.234 C 
HETATM   11  O11 UNL     1     -42.655  11.772   7.080  1.00 20.00    -0.279 OA
HETATM   12 CL12 UNL     1     -40.582  12.495   5.588  1.00 20.00    -0.043 Cl
ENDBRANCH   8  10
TORSDOF 1
ENDMDL
