MODEL 1
REMARK VINA RESULT:      -3.6      0.000      0.000
REMARK  1 active torsions:
REMARK  status: ('A' for Active; 'I' for Inactive)
REMARK    1  A    between atoms: C1_1  and  C4_4 
ROOT
HETATM    1  C2  UNL     1     -22.087  18.537   9.815  1.00 20.00     0.180 C 
HETATM    2  C3  UNL     1     -21.353  18.479  11.142  1.00 20.00     0.103 C 
HETATM    3  C4  UNL     1     -23.851  17.778  11.138  1.00 20.00     0.165 C 
HETATM    4  C6  UNL     1     -24.328  16.406  11.591  1.00 20.00     0.067 C 
HETATM    5  O8  UNL     1     -23.206  17.642   9.869  1.00 20.00    -0.362 OA
HETATM    6  S9  UNL     1     -22.700  18.501  12.332  1.00 20.00    -0.122 SA
ENDROOT
BRANCH   3   7
HETATM    7  C1  UNL     1     -25.013  18.709  10.975  1.00 20.00     0.167 C 
HETATM    8  C5  UNL     1     -25.872  18.937  12.189  1.00 20.00     0.095 C 
HETATM    9  O7  UNL     1     -25.252  19.263   9.903  1.00 20.00    -0.294 OA
ENDBRANCH   3   7
TORSDOF 1
ENDMDL
MODEL 2
REMARK VINA RESULT:      -3.4     17.823     18.807
REMARK  1 active torsions:
REMARK  status: ('A' for Active; 'I' for Inactive)
REMARK    1  A    between atoms: C1_1  and  C4_4 
ROOT
HETATM    1  C2  UNL     1     -40.399  14.855   7.890  1.00 20.00     0.180 C 
HETATM    2  C3  UNL     1     -41.605  15.716   7.561  1.00 20.00     0.103 C 
HETATM    3  C4  UNL     1     -41.591  13.292   6.637  1.00 20.00     0.165 C 
HETATM    4  C6  UNL     1     -42.678  12.276   6.956  1.00 20.00     0.067 C 
HETATM    5  O8  UNL     1     -40.780  13.476   7.799  1.00 20.00    -0.362 OA
HETATM    6  S9  UNL     1     -42.302  14.877   6.132  1.00 20.00    -0.122 SA
ENDROOT
BRANCH   3   7
HETATM    7  C1  UNL     1     -40.715  12.791   5.529  1.00 20.00     0.167 C 
HETATM    8  C5  UNL     1     -39.711  11.729   5.888  1.00 20.00     0.095 C 
HETATM    9  O7  UNL     1     -40.814  13.224   4.382  1.00 20.00    -0.294 OA
ENDBRANCH   3   7
TORSDOF 1
ENDMDL
MODEL 3
REMARK VINA RESULT:      -3.4     19.878     20.494
REMARK  1 active torsions:
REMARK  status: ('A' for Active; 'I' for Inactive)
REMARK    1  A    between atoms: C1_1  and  C4_4 
ROOT
HETATM    1  C2  UNL     1     -33.790  14.615  -4.304  1.00 20.00     0.180 C 
HETATM    2  C3  UNL     1     -33.664  16.060  -3.857  1.00 20.00     0.103 C 
HETATM    3  C4  UNL     1     -35.525  15.510  -5.579  1.00 20.00     0.165 C 
HETATM    4  C6  UNL     1     -36.998  15.790  -5.325  1.00 20.00     0.067 C 
HETATM    5  O8  UNL     1     -35.125  14.396  -4.779  1.00 20.00    -0.362 OA
HETATM    6  S9  UNL     1     -34.504  16.949  -5.174  1.00 20.00    -0.122 SA
ENDROOT
BRANCH   3   7
HETATM    7  C1  UNL     1     -35.298  15.159  -7.018  1.00 20.00     0.167 C 
HETATM    8  C5  UNL     1     -34.147  15.840  -7.708  1.00 20.00     0.095 C 
HETATM    9  O7  UNL     1     -36.017  14.353  -7.607  1.00 20.00    -0.294 OA
ENDBRANCH   3   7
TORSDOF 1
ENDMDL
MODEL 4
REMARK VINA RESULT:      -3.4     19.316     19.931
REMARK  1 active torsions:
REMARK  status: ('A' for Active; 'I' for Inactive)
REMARK    1  A    between atoms: C1_1  and  C4_4 
ROOT
HETATM    1  C2  UNL     1     -34.541  17.278  -4.179  1.00 20.00     0.180 C 
HETATM    2  C3  UNL     1     -33.311  16.565  -3.648  1.00 20.00     0.103 C 
HETATM    3  C4  UNL     1     -34.493  15.516  -5.705  1.00 20.00     0.165 C 
HETATM    4  C6  UNL     1     -33.790  15.277  -7.033  1.00 20.00     0.067 C 
HETATM    5  O8  UNL     1     -34.722  16.919  -5.555  1.00 20.00    -0.362 OA
HETATM    6  S9  UNL     1     -33.503  14.909  -4.318  1.00 20.00    -0.122 SA
ENDROOT
BRANCH   3   7
HETATM    7  C1  UNL     1     -35.819  14.820  -5.682  1.00 20.00     0.167 C 
HETATM    8  C5  UNL     1     -35.971  13.686  -4.705  1.00 20.00     0.095 C 
HETATM    9  O7  UNL     1     -36.740  15.159  -6.424  1.00 20.00    -0.294 OA
ENDBRANCH   3   7
TORSDOF 1
ENDMDL
MODEL 5
REMARK VINA RESULT:      -3.3     19.570     20.286
REMARK  1 active torsions:
REMARK  status: ('A' for Active; 'I' for Inactive)
REMARK    1  A    between atoms: C1_1  and  C4_4 
ROOT
HETATM    1  C2  UNL     1     -37.189  15.726  -5.399  1.00 20.00     0.180 C 
HETATM    2  C3  UNL     1     -36.861  17.159  -5.774  1.00 20.00     0.103 C 
HETATM    3  C4  UNL     1     -34.888  15.478  -5.678  1.00 20.00     0.165 C 
HETATM    4  C6  UNL     1     -33.984  15.191  -6.868  1.00 20.00     0.067 C 
HETATM    5  O8  UNL     1     -36.160  14.870  -5.911  1.00 20.00    -0.362 OA
HETATM    6  S9  UNL     1     -35.100  17.258  -5.429  1.00 20.00    -0.122 SA
ENDROOT
BRANCH   3   7
HETATM    7  C1  UNL     1     -34.309  14.890  -4.427  1.00 20.00     0.167 C 
HETATM    8  C5  UNL     1     -33.424  15.787  -3.604  1.00 20.00     0.095 C 
HETATM    9  O7  UNL     1     -34.547  13.732  -4.088  1.00 20.00    -0.294 OA
ENDBRANCH   3   7
TORSDOF 1
ENDMDL
MODEL 6
REMARK VINA RESULT:      -3.3     24.018     24.857
REMARK  1 active torsions:
REMARK  status: ('A' for Active; 'I' for Inactive)
REMARK    1  A    between atoms: C1_1  and  C4_4 
ROOT
HETATM    1  C2  UNL     1     -43.332   4.811  -1.028  1.00 20.00     0.180 C 
HETATM    2  C3  UNL     1     -43.417   4.083   0.301  1.00 20.00     0.103 C 
HETATM    3  C4  UNL     1     -42.530   6.521   0.339  1.00 20.00     0.165 C 
HETATM    4  C6  UNL     1     -43.183   7.628   1.153  1.00 20.00     0.067 C 
HETATM    5  O8  UNL     1     -43.365   6.223  -0.782  1.00 20.00    -0.362 OA
HETATM    6  S9  UNL     1     -42.291   5.029   1.334  1.00 20.00    -0.122 SA
ENDROOT
BRANCH   3   7
HETATM    7  C1  UNL     1     -41.195   6.966  -0.175  1.00 20.00     0.167 C 
HETATM    8  C5  UNL     1     -40.867   8.427  -0.028  1.00 20.00     0.095 C 
HETATM    9  O7  UNL     1     -40.406   6.177  -0.691  1.00 20.00    -0.294 OA
ENDBRANCH   3   7
TORSDOF 1
ENDMDL
MODEL 7
REMARK VINA RESULT:      -3.3     23.870     24.703
REMARK  1 active torsions:
REMARK  status: ('A' for Active; 'I' for Inactive)
REMARK    1  A    between atoms: C1_1  and  C4_4 
ROOT
HETATM    1  C2  UNL     1     -43.008   5.212   1.866  1.00 20.00     0.180 C 
HETATM    2  C3  UNL     1     -43.417   4.185   0.826  1.00 20.00     0.103 C 
HETATM    3  C4  UNL     1     -41.797   6.061   0.063  1.00 20.00     0.165 C 
HETATM    4  C6  UNL     1     -40.420   5.781  -0.521  1.00 20.00     0.067 C 
HETATM    5  O8  UNL     1     -41.761   5.796   1.468  1.00 20.00    -0.362 OA
HETATM    6  S9  UNL     1     -43.064   5.033  -0.718  1.00 20.00    -0.122 SA
ENDROOT
BRANCH   3   7
HETATM    7  C1  UNL     1     -42.166   7.500  -0.133  1.00 20.00     0.167 C 
HETATM    8  C5  UNL     1     -41.062   8.509   0.024  1.00 20.00     0.095 C 
HETATM    9  O7  UNL     1     -43.316   7.839  -0.410  1.00 20.00    -0.294 OA
ENDBRANCH   3   7
TORSDOF 1
ENDMDL
MODEL 8
REMARK VINA RESULT:      -3.3     19.396     20.008
REMARK  1 active torsions:
REMARK  status: ('A' for Active; 'I' for Inactive)
REMARK    1  A    between atoms: C1_1  and  C4_4 
ROOT
HETATM    1  C2  UNL     1     -34.217  17.165  -3.979  1.00 20.00     0.180 C 
HETATM    2  C3  UNL     1     -33.277  16.061  -3.534  1.00 20.00     0.103 C 
HETATM    3  C4  UNL     1     -34.656  15.645  -5.691  1.00 20.00     0.165 C 
HETATM    4  C6  UNL     1     -34.017  15.345  -7.039  1.00 20.00     0.067 C 
HETATM    5  O8  UNL     1     -34.456  17.027  -5.386  1.00 20.00    -0.362 OA
HETATM    6  S9  UNL     1     -33.939  14.622  -4.383  1.00 20.00    -0.122 SA
ENDROOT
BRANCH   3   7
HETATM    7  C1  UNL     1     -36.131  15.385  -5.741  1.00 20.00     0.167 C 
HETATM    8  C5  UNL     1     -36.979  16.428  -6.416  1.00 20.00     0.095 C 
HETATM    9  O7  UNL     1     -36.624  14.367  -5.257  1.00 20.00    -0.294 OA
ENDBRANCH   3   7
TORSDOF 1
ENDMDL
MODEL 9
REMARK VINA RESULT:      -3.2     17.792     18.773
REMARK  1 active torsions:
REMARK  status: ('A' for Active; 'I' for Inactive)
REMARK    1  A    between atoms: C1_1  and  C4_4 
ROOT
HETATM    1  C2  UNL     1     -39.846  11.803   6.074  1.00 20.00     0.180 C 
HETATM    2  C3  UNL     1     -40.060  12.573   4.784  1.00 20.00     0.103 C 
HETATM    3  C4  UNL     1     -40.962  13.645   6.968  1.00 20.00     0.165 C 
HETATM    4  C6  UNL     1     -40.527  15.018   7.459  1.00 20.00     0.067 C 
HETATM    5  O8  UNL     1     -39.888  12.724   7.172  1.00 20.00    -0.362 OA
HETATM    6  S9  UNL     1     -41.405  13.685   5.214  1.00 20.00    -0.122 SA
ENDROOT
BRANCH   3   7
HETATM    7  C1  UNL     1     -42.148  13.162   7.746  1.00 20.00     0.167 C 
HETATM    8  C5  UNL     1     -43.271  12.549   6.955  1.00 20.00     0.095 C 
HETATM    9  O7  UNL     1     -42.200  13.260   8.971  1.00 20.00    -0.294 OA
ENDBRANCH   3   7
TORSDOF 1
ENDMDL
