MODEL 1
REMARK VINA RESULT:      -4.3      0.000      0.000
REMARK  1 active torsions:
REMARK  status: ('A' for Active; 'I' for Inactive)
REMARK    1  A    between atoms: C3_3  and  C9_9 
ROOT
HETATM    1  C1  UNL     1     -35.135  18.651  -1.833  1.00 20.00    -0.030 C 
HETATM    2  C2  UNL     1     -34.057  17.884  -1.606  1.00 20.00    -0.026 C 
HETATM    3  C4  UNL     1     -35.445  19.230  -3.187  1.00 20.00     0.031 C 
HETATM    4  C5  UNL     1     -33.246  16.142  -3.215  1.00 20.00     0.022 C 
HETATM    5  C6  UNL     1     -33.122  18.583  -3.823  1.00 20.00     0.013 C 
HETATM    6  C7  UNL     1     -35.082  17.193  -4.672  1.00 20.00     0.018 C 
HETATM    7  C8  UNL     1     -33.031  17.568  -2.675  1.00 20.00     0.009 C 
HETATM    8  C9  UNL     1     -34.015  16.100  -4.547  1.00 20.00     0.073 C 
HETATM    9  C10 UNL     1     -34.578  18.612  -4.307  1.00 20.00    -0.010 C 
ENDROOT
BRANCH   8  10
HETATM   10  C3  UNL     1     -34.659  14.758  -4.721  1.00 20.00     0.223 C 
HETATM   11  O11 UNL     1     -34.398  13.816  -3.979  1.00 20.00    -0.279 OA
HETATM   12 CL12 UNL     1     -35.770  14.735  -6.056  1.00 20.00    -0.043 Cl
ENDBRANCH   8  10
TORSDOF 1
ENDMDL
MODEL 2
REMARK VINA RESULT:      -4.0     12.366     13.486
REMARK  1 active torsions:
REMARK  status: ('A' for Active; 'I' for Inactive)
REMARK    1  A    between atoms: C3_3  and  C9_9 
ROOT
HETATM    1  C1  UNL     1     -42.464  13.728   9.372  1.00 20.00    -0.030 C 
HETATM    2  C2  UNL     1     -41.639  14.642   8.839  1.00 20.00    -0.026 C 
HETATM    3  C4  UNL     1     -43.417  12.915   8.538  1.00 20.00     0.031 C 
HETATM    4  C5  UNL     1     -40.417  14.298   6.679  1.00 20.00     0.022 C 
HETATM    5  C6  UNL     1     -42.926  14.520   6.694  1.00 20.00     0.013 C 
HETATM    6  C7  UNL     1     -41.889  12.193   6.634  1.00 20.00     0.018 C 
HETATM    7  C8  UNL     1     -41.621  14.974   7.361  1.00 20.00     0.009 C 
HETATM    8  C9  UNL     1     -40.782  12.996   5.943  1.00 20.00     0.073 C 
HETATM    9  C10 UNL     1     -43.130  13.035   7.024  1.00 20.00    -0.010 C 
ENDROOT
BRANCH   8  10
HETATM   10  C3  UNL     1     -39.563  12.136   5.799  1.00 20.00     0.223 C 
HETATM   11  O11 UNL     1     -38.917  11.763   6.774  1.00 20.00    -0.279 OA
HETATM   12 CL12 UNL     1     -39.219  11.763   4.138  1.00 20.00    -0.043 Cl
ENDBRANCH   8  10
TORSDOF 1
ENDMDL
MODEL 3
REMARK VINA RESULT:      -4.0      2.603      4.330
REMARK  1 active torsions:
REMARK  status: ('A' for Active; 'I' for Inactive)
REMARK    1  A    between atoms: C3_3  and  C9_9 
ROOT
HETATM    1  C1  UNL     1     -36.498  14.780  -5.055  1.00 20.00    -0.030 C 
HETATM    2  C2  UNL     1     -36.282  15.928  -5.716  1.00 20.00    -0.026 C 
HETATM    3  C4  UNL     1     -35.380  13.862  -4.643  1.00 20.00     0.031 C 
HETATM    4  C5  UNL     1     -34.381  17.476  -5.199  1.00 20.00     0.022 C 
HETATM    5  C6  UNL     1     -33.930  15.197  -6.171  1.00 20.00     0.013 C 
HETATM    6  C7  UNL     1     -33.731  15.531  -3.652  1.00 20.00     0.018 C 
HETATM    7  C8  UNL     1     -34.904  16.383  -6.149  1.00 20.00     0.009 C 
HETATM    8  C9  UNL     1     -33.402  16.947  -4.135  1.00 20.00     0.073 C 
HETATM    9  C10 UNL     1     -33.989  14.517  -4.796  1.00 20.00    -0.010 C 
ENDROOT
BRANCH   8  10
HETATM   10  C3  UNL     1     -33.377  17.877  -2.960  1.00 20.00     0.223 C 
HETATM   11  O11 UNL     1     -33.164  19.078  -3.091  1.00 20.00    -0.279 OA
HETATM   12 CL12 UNL     1     -33.679  17.047  -1.464  1.00 20.00    -0.043 Cl
ENDBRANCH   8  10
TORSDOF 1
ENDMDL
MODEL 4
REMARK VINA RESULT:      -4.0     12.347     13.564
REMARK  1 active torsions:
REMARK  status: ('A' for Active; 'I' for Inactive)
REMARK    1  A    between atoms: C3_3  and  C9_9 
ROOT
HETATM    1  C1  UNL     1     -33.776   5.110   6.508  1.00 20.00    -0.030 C 
HETATM    2  C2  UNL     1     -34.067   6.419   6.547  1.00 20.00    -0.026 C 
HETATM    3  C4  UNL     1     -34.076   4.251   5.309  1.00 20.00     0.031 C 
HETATM    4  C5  UNL     1     -33.741   7.959   4.597  1.00 20.00     0.022 C 
HETATM    5  C6  UNL     1     -35.484   6.144   4.501  1.00 20.00     0.013 C 
HETATM    6  C7  UNL     1     -33.208   5.734   3.430  1.00 20.00     0.018 C 
HETATM    7  C8  UNL     1     -34.761   7.144   5.413  1.00 20.00     0.009 C 
HETATM    8  C9  UNL     1     -33.292   7.259   3.302  1.00 20.00     0.073 C 
HETATM    9  C10 UNL     1     -34.463   5.084   4.066  1.00 20.00    -0.010 C 
ENDROOT
BRANCH   8  10
HETATM   10  C3  UNL     1     -31.959   7.793   2.872  1.00 20.00     0.223 C 
HETATM   11  O11 UNL     1     -31.026   7.913   3.660  1.00 20.00    -0.279 OA
HETATM   12 CL12 UNL     1     -31.931   8.194   1.182  1.00 20.00    -0.043 Cl
ENDBRANCH   8  10
TORSDOF 1
ENDMDL
MODEL 5
REMARK VINA RESULT:      -4.0     11.431     12.554
REMARK  1 active torsions:
REMARK  status: ('A' for Active; 'I' for Inactive)
REMARK    1  A    between atoms: C3_3  and  C9_9 
ROOT
HETATM    1  C1  UNL     1     -32.926   9.147   1.804  1.00 20.00    -0.030 C 
HETATM    2  C2  UNL     1     -33.052   9.581   3.067  1.00 20.00    -0.026 C 
HETATM    3  C4  UNL     1     -32.208   7.870   1.455  1.00 20.00     0.031 C 
HETATM    4  C5  UNL     1     -33.536   8.062   5.001  1.00 20.00     0.022 C 
HETATM    5  C6  UNL     1     -31.333   7.908   3.789  1.00 20.00     0.013 C 
HETATM    6  C7  UNL     1     -33.197   6.280   3.181  1.00 20.00     0.018 C 
HETATM    7  C8  UNL     1     -32.448   8.855   4.252  1.00 20.00     0.009 C 
HETATM    8  C9  UNL     1     -33.558   6.565   4.643  1.00 20.00     0.073 C 
HETATM    9  C10 UNL     1     -31.912   7.000   2.697  1.00 20.00    -0.010 C 
ENDROOT
BRANCH   8  10
HETATM   10  C3  UNL     1     -34.912   5.992   4.938  1.00 20.00     0.223 C 
HETATM   11  O11 UNL     1     -35.846   6.104   4.151  1.00 20.00    -0.279 OA
HETATM   12 CL12 UNL     1     -34.959   5.188   6.477  1.00 20.00    -0.043 Cl
ENDBRANCH   8  10
TORSDOF 1
ENDMDL
MODEL 6
REMARK VINA RESULT:      -3.9     24.581     25.822
REMARK  1 active torsions:
REMARK  status: ('A' for Active; 'I' for Inactive)
REMARK    1  A    between atoms: C3_3  and  C9_9 
ROOT
HETATM    1  C1  UNL     1     -27.598  -0.601  10.316  1.00 20.00    -0.030 C 
HETATM    2  C2  UNL     1     -27.746  -1.894   9.987  1.00 20.00    -0.026 C 
HETATM    3  C4  UNL     1     -26.938  -0.164  11.596  1.00 20.00     0.031 C 
HETATM    4  C5  UNL     1     -25.979  -3.626  10.384  1.00 20.00     0.022 C 
HETATM    5  C6  UNL     1     -27.147  -2.538  12.332  1.00 20.00     0.013 C 
HETATM    6  C7  UNL     1     -24.872  -1.653  11.601  1.00 20.00     0.018 C 
HETATM    7  C8  UNL     1     -27.307  -3.030  10.887  1.00 20.00     0.009 C 
HETATM    8  C9  UNL     1     -24.747  -3.113  11.151  1.00 20.00     0.073 C 
HETATM    9  C10 UNL     1     -26.209  -1.324  12.312  1.00 20.00    -0.010 C 
ENDROOT
BRANCH   8  10
HETATM   10  C3  UNL     1     -23.521  -3.266  10.303  1.00 20.00     0.223 C 
HETATM   11  O11 UNL     1     -22.407  -3.407  10.799  1.00 20.00    -0.279 OA
HETATM   12 CL12 UNL     1     -23.889  -3.217   8.606  1.00 20.00    -0.043 Cl
ENDBRANCH   8  10
TORSDOF 1
ENDMDL
MODEL 7
REMARK VINA RESULT:      -3.8      2.480      3.560
REMARK  1 active torsions:
REMARK  status: ('A' for Active; 'I' for Inactive)
REMARK    1  A    between atoms: C3_3  and  C9_9 
ROOT
HETATM    1  C1  UNL     1     -33.569  15.825  -3.511  1.00 20.00    -0.030 C 
HETATM    2  C2  UNL     1     -34.021  14.752  -4.179  1.00 20.00    -0.026 C 
HETATM    3  C4  UNL     1     -33.660  17.220  -4.068  1.00 20.00     0.031 C 
HETATM    4  C5  UNL     1     -36.155  14.747  -5.492  1.00 20.00     0.022 C 
HETATM    5  C6  UNL     1     -34.203  16.146  -6.252  1.00 20.00     0.013 C 
HETATM    6  C7  UNL     1     -36.065  17.246  -4.904  1.00 20.00     0.018 C 
HETATM    7  C8  UNL     1     -34.620  14.837  -5.568  1.00 20.00     0.009 C 
HETATM    8  C9  UNL     1     -36.854  16.116  -5.574  1.00 20.00     0.073 C 
HETATM    9  C10 UNL     1     -34.572  17.302  -5.313  1.00 20.00    -0.010 C 
ENDROOT
BRANCH   8  10
HETATM   10  C3  UNL     1     -38.216  16.029  -4.955  1.00 20.00     0.223 C 
HETATM   11  O11 UNL     1     -38.711  14.954  -4.631  1.00 20.00    -0.279 OA
HETATM   12 CL12 UNL     1     -38.952  17.592  -4.775  1.00 20.00    -0.043 Cl
ENDBRANCH   8  10
TORSDOF 1
ENDMDL
MODEL 8
REMARK VINA RESULT:      -3.8      1.545      1.810
REMARK  1 active torsions:
REMARK  status: ('A' for Active; 'I' for Inactive)
REMARK    1  A    between atoms: C3_3  and  C9_9 
ROOT
HETATM    1  C1  UNL     1     -34.067  17.526  -1.578  1.00 20.00    -0.030 C 
HETATM    2  C2  UNL     1     -33.361  16.663  -2.326  1.00 20.00    -0.026 C 
HETATM    3  C4  UNL     1     -34.739  18.740  -2.162  1.00 20.00     0.031 C 
HETATM    4  C5  UNL     1     -34.073  15.926  -4.613  1.00 20.00     0.022 C 
HETATM    5  C6  UNL     1     -33.381  18.314  -4.210  1.00 20.00     0.013 C 
HETATM    6  C7  UNL     1     -35.861  17.726  -4.211  1.00 20.00     0.018 C 
HETATM    7  C8  UNL     1     -33.138  16.851  -3.813  1.00 20.00     0.009 C 
HETATM    8  C9  UNL     1     -35.329  16.636  -5.148  1.00 20.00     0.073 C 
HETATM    9  C10 UNL     1     -34.775  18.710  -3.707  1.00 20.00    -0.010 C 
ENDROOT
BRANCH   8  10
HETATM   10  C3  UNL     1     -36.411  15.632  -5.404  1.00 20.00     0.223 C 
HETATM   11  O11 UNL     1     -37.488  15.954  -5.896  1.00 20.00    -0.279 OA
HETATM   12 CL12 UNL     1     -35.941  14.029  -4.927  1.00 20.00    -0.043 Cl
ENDBRANCH   8  10
TORSDOF 1
ENDMDL
MODEL 9
REMARK VINA RESULT:      -3.7     11.847     13.151
REMARK  1 active torsions:
REMARK  status: ('A' for Active; 'I' for Inactive)
REMARK    1  A    between atoms: C3_3  and  C9_9 
ROOT
HETATM    1  C1  UNL     1     -40.772  16.869   8.003  1.00 20.00    -0.030 C 
HETATM    2  C2  UNL     1     -41.776  16.711   7.127  1.00 20.00    -0.026 C 
HETATM    3  C4  UNL     1     -40.407  15.816   9.014  1.00 20.00     0.031 C 
HETATM    4  C5  UNL     1     -42.247  14.548   5.952  1.00 20.00     0.022 C 
HETATM    5  C6  UNL     1     -42.581  14.736   8.441  1.00 20.00     0.013 C 
HETATM    6  C7  UNL     1     -40.414  13.729   7.554  1.00 20.00     0.018 C 
HETATM    7  C8  UNL     1     -42.663  15.483   7.103  1.00 20.00     0.009 C 
HETATM    8  C9  UNL     1     -41.363  13.373   6.405  1.00 20.00     0.073 C 
HETATM    9  C10 UNL     1     -41.100  14.463   8.735  1.00 20.00    -0.010 C 
ENDROOT
BRANCH   8  10
HETATM   10  C3  UNL     1     -40.564  12.860   5.245  1.00 20.00     0.223 C 
HETATM   11  O11 UNL     1     -40.770  13.246   4.099  1.00 20.00    -0.279 OA
HETATM   12 CL12 UNL     1     -39.367  11.702   5.738  1.00 20.00    -0.043 Cl
ENDBRANCH   8  10
TORSDOF 1
ENDMDL
