MODEL 1
REMARK VINA RESULT:      -4.3      0.000      0.000
REMARK  1 active torsions:
REMARK  status: ('A' for Active; 'I' for Inactive)
REMARK    1  A    between atoms: C3_3  and  C4_4 
ROOT
HETATM    1  C1  UNL     1     -34.010   5.700   4.036  1.00 20.00     0.142 A 
HETATM    2  C2  UNL     1     -33.798   6.936   5.960  1.00 20.00     0.087 A 
HETATM    3  C3  UNL     1     -33.469   6.878   4.624  1.00 20.00     0.052 A 
HETATM    4  N5  UNL     1     -34.709   4.890   4.830  1.00 20.00    -0.223 NA
HETATM    5  S7  UNL     1     -34.729   5.553   6.353  1.00 20.00    -0.000 SA
ENDROOT
BRANCH   3   6
HETATM    6  C4  UNL     1     -32.690   7.885   3.957  1.00 20.00     0.254 C 
HETATM    7  O6  UNL     1     -32.345   8.921   4.580  1.00 20.00    -0.274 OA
HETATM    8 CL8  UNL     1     -32.191   7.711   2.254  1.00 20.00    -0.038 Cl
ENDBRANCH   3   6
TORSDOF 1
ENDMDL
MODEL 2
REMARK VINA RESULT:      -4.2      0.891      1.453
REMARK  1 active torsions:
REMARK  status: ('A' for Active; 'I' for Inactive)
REMARK    1  A    between atoms: C3_3  and  C4_4 
ROOT
HETATM    1  C1  UNL     1     -33.789   7.206   6.050  1.00 20.00     0.142 A 
HETATM    2  C2  UNL     1     -33.938   5.996   4.103  1.00 20.00     0.087 A 
HETATM    3  C3  UNL     1     -33.415   7.134   4.678  1.00 20.00     0.052 A 
HETATM    4  N5  UNL     1     -34.539   6.216   6.529  1.00 20.00    -0.223 NA
HETATM    5  S7  UNL     1     -34.821   5.140   5.294  1.00 20.00    -0.000 SA
ENDROOT
BRANCH   3   6
HETATM    6  C4  UNL     1     -32.614   8.087   3.960  1.00 20.00     0.254 C 
HETATM    7  O6  UNL     1     -32.223   9.134   4.537  1.00 20.00    -0.274 OA
HETATM    8 CL8  UNL     1     -32.152   7.831   2.258  1.00 20.00    -0.038 Cl
ENDBRANCH   3   6
TORSDOF 1
ENDMDL
MODEL 3
REMARK VINA RESULT:      -3.9      3.488      3.636
REMARK  1 active torsions:
REMARK  status: ('A' for Active; 'I' for Inactive)
REMARK    1  A    between atoms: C3_3  and  C4_4 
ROOT
HETATM    1  C1  UNL     1     -32.941   6.683   3.455  1.00 20.00     0.142 A 
HETATM    2  C2  UNL     1     -33.482   8.025   5.239  1.00 20.00     0.087 A 
HETATM    3  C3  UNL     1     -33.783   6.846   4.591  1.00 20.00     0.052 A 
HETATM    4  N5  UNL     1     -32.049   7.643   3.215  1.00 20.00    -0.223 NA
HETATM    5  S7  UNL     1     -32.211   8.802   4.395  1.00 20.00    -0.000 SA
ENDROOT
BRANCH   3   6
HETATM    6  C4  UNL     1     -34.806   5.939   5.033  1.00 20.00     0.254 C 
HETATM    7  O6  UNL     1     -35.837   5.772   4.332  1.00 20.00    -0.274 OA
HETATM    8 CL8  UNL     1     -34.662   5.034   6.562  1.00 20.00    -0.038 Cl
ENDBRANCH   3   6
TORSDOF 1
ENDMDL
MODEL 4
REMARK VINA RESULT:      -3.9      1.586      1.957
REMARK  1 active torsions:
REMARK  status: ('A' for Active; 'I' for Inactive)
REMARK    1  A    between atoms: C3_3  and  C4_4 
ROOT
HETATM    1  C1  UNL     1     -33.870   7.090   6.039  1.00 20.00     0.142 A 
HETATM    2  C2  UNL     1     -33.934   5.921   4.063  1.00 20.00     0.087 A 
HETATM    3  C3  UNL     1     -33.425   7.040   4.687  1.00 20.00     0.052 A 
HETATM    4  N5  UNL     1     -34.660   6.104   6.457  1.00 20.00    -0.223 NA
HETATM    5  S7  UNL     1     -34.893   5.057   5.188  1.00 20.00    -0.000 SA
ENDROOT
BRANCH   3   6
HETATM    6  C4  UNL     1     -32.573   7.993   4.032  1.00 20.00     0.254 C 
HETATM    7  O6  UNL     1     -32.220   7.798   2.840  1.00 20.00    -0.274 OA
HETATM    8 CL8  UNL     1     -31.988   9.457   4.863  1.00 20.00    -0.038 Cl
ENDBRANCH   3   6
TORSDOF 1
ENDMDL
MODEL 5
REMARK VINA RESULT:      -3.7      3.626      3.961
REMARK  1 active torsions:
REMARK  status: ('A' for Active; 'I' for Inactive)
REMARK    1  A    between atoms: C3_3  and  C4_4 
ROOT
HETATM    1  C1  UNL     1     -33.272   7.756   4.686  1.00 20.00     0.142 A 
HETATM    2  C2  UNL     1     -32.927   6.180   3.052  1.00 20.00     0.087 A 
HETATM    3  C3  UNL     1     -33.513   6.414   4.277  1.00 20.00     0.052 A 
HETATM    4  N5  UNL     1     -32.559   8.525   3.864  1.00 20.00    -0.223 NA
HETATM    5  S7  UNL     1     -32.151   7.615   2.535  1.00 20.00    -0.000 SA
ENDROOT
BRANCH   3   6
HETATM    6  C4  UNL     1     -34.253   5.420   5.004  1.00 20.00     0.254 C 
HETATM    7  O6  UNL     1     -34.445   4.287   4.491  1.00 20.00    -0.274 OA
HETATM    8 CL8  UNL     1     -34.919   5.743   6.625  1.00 20.00    -0.038 Cl
ENDBRANCH   3   6
TORSDOF 1
ENDMDL
MODEL 6
REMARK VINA RESULT:      -3.7      2.021      2.285
REMARK  1 active torsions:
REMARK  status: ('A' for Active; 'I' for Inactive)
REMARK    1  A    between atoms: C3_3  and  C4_4 
ROOT
HETATM    1  C1  UNL     1     -33.443   7.310   5.114  1.00 20.00     0.142 A 
HETATM    2  C2  UNL     1     -34.281   5.206   4.732  1.00 20.00     0.087 A 
HETATM    3  C3  UNL     1     -33.511   6.218   4.202  1.00 20.00     0.052 A 
HETATM    4  N5  UNL     1     -34.099   7.183   6.266  1.00 20.00    -0.223 NA
HETATM    5  S7  UNL     1     -34.836   5.693   6.277  1.00 20.00    -0.000 SA
ENDROOT
BRANCH   3   6
HETATM    6  C4  UNL     1     -32.882   6.142   2.913  1.00 20.00     0.254 C 
HETATM    7  O6  UNL     1     -32.802   5.034   2.322  1.00 20.00    -0.274 OA
HETATM    8 CL8  UNL     1     -32.202   7.582   2.113  1.00 20.00    -0.038 Cl
ENDBRANCH   3   6
TORSDOF 1
ENDMDL
MODEL 7
REMARK VINA RESULT:      -3.5      2.934      3.297
REMARK  1 active torsions:
REMARK  status: ('A' for Active; 'I' for Inactive)
REMARK    1  A    between atoms: C3_3  and  C4_4 
ROOT
HETATM    1  C1  UNL     1     -34.012   7.214   5.464  1.00 20.00     0.142 A 
HETATM    2  C2  UNL     1     -32.519   7.455   3.735  1.00 20.00     0.087 A 
HETATM    3  C3  UNL     1     -33.423   6.597   4.324  1.00 20.00     0.052 A 
HETATM    4  N5  UNL     1     -33.615   8.450   5.760  1.00 20.00    -0.223 NA
HETATM    5  S7  UNL     1     -32.486   8.913   4.632  1.00 20.00    -0.000 SA
ENDROOT
BRANCH   3   6
HETATM    6  C4  UNL     1     -33.704   5.279   3.826  1.00 20.00     0.254 C 
HETATM    7  O6  UNL     1     -34.458   4.513   4.479  1.00 20.00    -0.274 OA
HETATM    8 CL8  UNL     1     -33.008   4.685   2.296  1.00 20.00    -0.038 Cl
ENDBRANCH   3   6
TORSDOF 1
ENDMDL
MODEL 8
REMARK VINA RESULT:      -3.5     15.920     16.364
REMARK  1 active torsions:
REMARK  status: ('A' for Active; 'I' for Inactive)
REMARK    1  A    between atoms: C3_3  and  C4_4 
ROOT
HETATM    1  C1  UNL     1     -23.725  17.027  10.559  1.00 20.00     0.142 A 
HETATM    2  C2  UNL     1     -22.082  18.622  10.740  1.00 20.00     0.087 A 
HETATM    3  C3  UNL     1     -22.817  17.866   9.853  1.00 20.00     0.052 A 
HETATM    4  N5  UNL     1     -23.718  17.105  11.888  1.00 20.00    -0.223 NA
HETATM    5  S7  UNL     1     -22.578  18.229  12.332  1.00 20.00    -0.000 SA
ENDROOT
BRANCH   3   6
HETATM    6  C4  UNL     1     -22.659  17.944   8.427  1.00 20.00     0.254 C 
HETATM    7  O6  UNL     1     -21.962  17.085   7.828  1.00 20.00    -0.274 OA
HETATM    8 CL8  UNL     1     -23.425  19.235   7.466  1.00 20.00    -0.038 Cl
ENDBRANCH   3   6
TORSDOF 1
ENDMDL
MODEL 9
REMARK VINA RESULT:      -3.5     12.650     12.707
REMARK  1 active torsions:
REMARK  status: ('A' for Active; 'I' for Inactive)
REMARK    1  A    between atoms: C3_3  and  C4_4 
ROOT
HETATM    1  C1  UNL     1     -29.883  18.447   2.291  1.00 20.00     0.142 A 
HETATM    2  C2  UNL     1     -32.015  19.210   2.679  1.00 20.00     0.087 A 
HETATM    3  C3  UNL     1     -31.154  18.730   1.715  1.00 20.00     0.052 A 
HETATM    4  N5  UNL     1     -29.740  18.678   3.595  1.00 20.00    -0.223 NA
HETATM    5  S7  UNL     1     -31.184  19.262   4.175  1.00 20.00    -0.000 SA
ENDROOT
BRANCH   3   6
HETATM    6  C4  UNL     1     -31.526  18.555   0.339  1.00 20.00     0.254 C 
HETATM    7  O6  UNL     1     -30.661  18.697  -0.564  1.00 20.00    -0.274 OA
HETATM    8 CL8  UNL     1     -33.193  18.141  -0.139  1.00 20.00    -0.038 Cl
ENDBRANCH   3   6
TORSDOF 1
ENDMDL
