MODEL 1
REMARK VINA RESULT:      -3.5      0.000      0.000
REMARK  2 active torsions:
REMARK  status: ('A' for Active; 'I' for Inactive)
REMARK    1  A    between atoms: C2_2  and  C5_5 
REMARK    2  A    between atoms: C3_3  and  C6_6 
REMARK       I    between atoms: C3_3  and  N9_9 
ROOT
HETATM    1  C4  UNL     1     -35.003   5.112   5.830  1.00 20.00     0.024 A 
HETATM    2  C5  UNL     1     -34.716   5.298   4.365  1.00 20.00     0.021 A 
HETATM    3  C6  UNL     1     -34.839   6.476   5.268  1.00 20.00     0.086 A 
ENDROOT
BRANCH   3   4
HETATM    4  C3  UNL     1     -33.611   7.260   5.660  1.00 20.00     0.224 C 
HETATM    5  N9  UNL     1     -33.187   8.247   4.769  1.00 20.00    -0.360 N 
HETATM    6  C7  UNL     1     -32.017   9.076   5.023  1.00 20.00     0.152 C 
HETATM    7  C8  UNL     1     -33.888   8.521   3.516  1.00 20.00     0.152 C 
HETATM    8  O10 UNL     1     -33.046   7.000   6.725  1.00 20.00    -0.273 OA
ENDBRANCH   3   4
BRANCH   2   9
HETATM    9  C2  UNL     1     -33.432   4.859   3.840  1.00 20.00    -0.031 C 
HETATM   10  C1  UNL     1     -32.975   5.172   2.622  1.00 20.00     0.007 C 
ENDBRANCH   2   9
TORSDOF 2
ENDMDL
MODEL 2
REMARK VINA RESULT:      -3.5     12.915     14.092
REMARK  2 active torsions:
REMARK  status: ('A' for Active; 'I' for Inactive)
REMARK    1  A    between atoms: C2_2  and  C5_5 
REMARK    2  A    between atoms: C3_3  and  C6_6 
REMARK       I    between atoms: C3_3  and  N9_9 
ROOT
HETATM    1  C4  UNL     1     -32.880  17.481  -1.920  1.00 20.00     0.024 A 
HETATM    2  C5  UNL     1     -33.668  16.394  -2.597  1.00 20.00     0.021 A 
HETATM    3  C6  UNL     1     -34.079  17.819  -2.727  1.00 20.00     0.086 A 
ENDROOT
BRANCH   3   4
HETATM    4  C3  UNL     1     -33.870  18.550  -4.031  1.00 20.00     0.224 C 
HETATM    5  N9  UNL     1     -34.937  18.541  -4.930  1.00 20.00    -0.360 N 
HETATM    6  C7  UNL     1     -34.870  19.208  -6.224  1.00 20.00     0.152 C 
HETATM    7  C8  UNL     1     -36.199  17.866  -4.640  1.00 20.00     0.152 C 
HETATM    8  O10 UNL     1     -32.791  19.108  -4.242  1.00 20.00    -0.273 OA
ENDBRANCH   3   4
BRANCH   2   9
HETATM    9  C2  UNL     1     -33.055  15.663  -3.696  1.00 20.00    -0.031 C 
HETATM   10  C1  UNL     1     -33.676  14.711  -4.401  1.00 20.00     0.007 C 
ENDBRANCH   2   9
TORSDOF 2
ENDMDL
MODEL 3
REMARK VINA RESULT:      -3.4     12.402     13.477
REMARK  2 active torsions:
REMARK  status: ('A' for Active; 'I' for Inactive)
REMARK    1  A    between atoms: C2_2  and  C5_5 
REMARK    2  A    between atoms: C3_3  and  C6_6 
REMARK       I    between atoms: C3_3  and  N9_9 
ROOT
HETATM    1  C4  UNL     1     -32.955  14.410  -4.365  1.00 20.00     0.024 A 
HETATM    2  C5  UNL     1     -33.068  15.851  -3.952  1.00 20.00     0.021 A 
HETATM    3  C6  UNL     1     -33.781  15.353  -5.161  1.00 20.00     0.086 A 
ENDROOT
BRANCH   3   4
HETATM    4  C3  UNL     1     -35.279  15.175  -5.135  1.00 20.00     0.224 C 
HETATM    5  N9  UNL     1     -36.047  16.287  -5.482  1.00 20.00    -0.360 N 
HETATM    6  C7  UNL     1     -37.503  16.254  -5.499  1.00 20.00     0.152 C 
HETATM    7  C8  UNL     1     -35.447  17.566  -5.855  1.00 20.00     0.152 C 
HETATM    8  O10 UNL     1     -35.750  14.081  -4.815  1.00 20.00    -0.273 OA
ENDBRANCH   3   4
BRANCH   2   9
HETATM    9  C2  UNL     1     -33.772  16.175  -2.720  1.00 20.00    -0.031 C 
HETATM   10  C1  UNL     1     -33.395  17.141  -1.875  1.00 20.00     0.007 C 
ENDBRANCH   2   9
TORSDOF 2
ENDMDL
MODEL 4
REMARK VINA RESULT:      -3.4     10.004     10.698
REMARK  2 active torsions:
REMARK  status: ('A' for Active; 'I' for Inactive)
REMARK    1  A    between atoms: C2_2  and  C5_5 
REMARK    2  A    between atoms: C3_3  and  C6_6 
REMARK       I    between atoms: C3_3  and  N9_9 
ROOT
HETATM    1  C4  UNL     1     -42.698  12.521   6.708  1.00 20.00     0.024 A 
HETATM    2  C5  UNL     1     -41.430  13.016   6.070  1.00 20.00     0.021 A 
HETATM    3  C6  UNL     1     -42.150  13.853   7.070  1.00 20.00     0.086 A 
ENDROOT
BRANCH   3   4
HETATM    4  C3  UNL     1     -41.582  14.031   8.456  1.00 20.00     0.224 C 
HETATM    5  N9  UNL     1     -40.750  15.133   8.654  1.00 20.00    -0.360 N 
HETATM    6  C7  UNL     1     -40.135  15.424   9.943  1.00 20.00     0.152 C 
HETATM    7  C8  UNL     1     -40.436  16.077   7.585  1.00 20.00     0.152 C 
HETATM    8  O10 UNL     1     -41.870  13.214   9.334  1.00 20.00    -0.273 OA
ENDBRANCH   3   4
BRANCH   2   9
HETATM    9  C2  UNL     1     -40.177  12.346   6.384  1.00 20.00    -0.031 C 
HETATM   10  C1  UNL     1     -39.188  12.157   5.504  1.00 20.00     0.007 C 
ENDBRANCH   2   9
TORSDOF 2
ENDMDL
MODEL 5
REMARK VINA RESULT:      -3.3     12.620     13.906
REMARK  2 active torsions:
REMARK  status: ('A' for Active; 'I' for Inactive)
REMARK    1  A    between atoms: C2_2  and  C5_5 
REMARK    2  A    between atoms: C3_3  and  C6_6 
REMARK       I    between atoms: C3_3  and  N9_9 
ROOT
HETATM    1  C4  UNL     1     -33.572  14.436  -4.414  1.00 20.00     0.024 A 
HETATM    2  C5  UNL     1     -33.108  15.767  -3.890  1.00 20.00     0.021 A 
HETATM    3  C6  UNL     1     -33.832  15.676  -5.188  1.00 20.00     0.086 A 
ENDROOT
BRANCH   3   4
HETATM    4  C3  UNL     1     -35.258  16.158  -5.293  1.00 20.00     0.224 C 
HETATM    5  N9  UNL     1     -35.441  17.509  -5.594  1.00 20.00    -0.360 N 
HETATM    6  C7  UNL     1     -36.764  18.105  -5.725  1.00 20.00     0.152 C 
HETATM    7  C8  UNL     1     -34.320  18.422  -5.800  1.00 20.00     0.152 C 
HETATM    8  O10 UNL     1     -36.179  15.358  -5.113  1.00 20.00    -0.273 OA
ENDBRANCH   3   4
BRANCH   2   9
HETATM    9  C2  UNL     1     -33.734  16.309  -2.693  1.00 20.00    -0.031 C 
HETATM   10  C1  UNL     1     -33.176  17.240  -1.912  1.00 20.00     0.007 C 
ENDBRANCH   2   9
TORSDOF 2
ENDMDL
MODEL 6
REMARK VINA RESULT:      -3.2     13.621     14.364
REMARK  2 active torsions:
REMARK  status: ('A' for Active; 'I' for Inactive)
REMARK    1  A    between atoms: C2_2  and  C5_5 
REMARK    2  A    between atoms: C3_3  and  C6_6 
REMARK       I    between atoms: C3_3  and  N9_9 
ROOT
HETATM    1  C4  UNL     1     -22.935  -3.680  11.401  1.00 20.00     0.024 A 
HETATM    2  C5  UNL     1     -23.767  -3.791  10.154  1.00 20.00     0.021 A 
HETATM    3  C6  UNL     1     -24.383  -3.354  11.437  1.00 20.00     0.086 A 
ENDROOT
BRANCH   3   4
HETATM    4  C3  UNL     1     -24.778  -1.911  11.633  1.00 20.00     0.224 C 
HETATM    5  N9  UNL     1     -26.122  -1.597  11.427  1.00 20.00    -0.360 N 
HETATM    6  C7  UNL     1     -26.639  -0.244  11.581  1.00 20.00     0.152 C 
HETATM    7  C8  UNL     1     -27.110  -2.603  11.042  1.00 20.00     0.152 C 
HETATM    8  O10 UNL     1     -23.918  -1.089  11.957  1.00 20.00    -0.273 OA
ENDBRANCH   3   4
BRANCH   2   9
HETATM    9  C2  UNL     1     -23.521  -2.863   9.060  1.00 20.00    -0.031 C 
HETATM   10  C1  UNL     1     -23.167  -3.237   7.826  1.00 20.00     0.007 C 
ENDBRANCH   2   9
TORSDOF 2
ENDMDL
MODEL 7
REMARK VINA RESULT:      -3.1     12.546     13.730
REMARK  2 active torsions:
REMARK  status: ('A' for Active; 'I' for Inactive)
REMARK    1  A    between atoms: C2_2  and  C5_5 
REMARK    2  A    between atoms: C3_3  and  C6_6 
REMARK       I    between atoms: C3_3  and  N9_9 
ROOT
HETATM    1  C4  UNL     1     -33.772  14.714  -3.974  1.00 20.00     0.024 A 
HETATM    2  C5  UNL     1     -33.092  15.977  -3.523  1.00 20.00     0.021 A 
HETATM    3  C6  UNL     1     -33.856  15.945  -4.801  1.00 20.00     0.086 A 
ENDROOT
BRANCH   3   4
HETATM    4  C3  UNL     1     -35.192  16.640  -4.900  1.00 20.00     0.224 C 
HETATM    5  N9  UNL     1     -36.133  16.068  -5.757  1.00 20.00    -0.360 N 
HETATM    6  C7  UNL     1     -37.461  16.637  -5.946  1.00 20.00     0.152 C 
HETATM    7  C8  UNL     1     -35.856  14.857  -6.525  1.00 20.00     0.152 C 
HETATM    8  O10 UNL     1     -35.390  17.661  -4.236  1.00 20.00    -0.273 OA
ENDBRANCH   3   4
BRANCH   2   9
HETATM    9  C2  UNL     1     -33.593  16.661  -2.341  1.00 20.00    -0.031 C 
HETATM   10  C1  UNL     1     -32.914  17.605  -1.678  1.00 20.00     0.007 C 
ENDBRANCH   2   9
TORSDOF 2
ENDMDL
MODEL 8
REMARK VINA RESULT:      -3.0     12.884     14.134
REMARK  2 active torsions:
REMARK  status: ('A' for Active; 'I' for Inactive)
REMARK    1  A    between atoms: C2_2  and  C5_5 
REMARK    2  A    between atoms: C3_3  and  C6_6 
REMARK       I    between atoms: C3_3  and  N9_9 
ROOT
HETATM    1  C4  UNL     1     -34.132  15.173  -6.373  1.00 20.00     0.024 A 
HETATM    2  C5  UNL     1     -34.021  16.194  -5.274  1.00 20.00     0.021 A 
HETATM    3  C6  UNL     1     -35.240  16.131  -6.127  1.00 20.00     0.086 A 
ENDROOT
BRANCH   3   4
HETATM    4  C3  UNL     1     -36.530  15.589  -5.562  1.00 20.00     0.224 C 
HETATM    5  N9  UNL     1     -37.513  16.526  -5.240  1.00 20.00    -0.360 N 
HETATM    6  C7  UNL     1     -38.805  16.140  -4.687  1.00 20.00     0.152 C 
HETATM    7  C8  UNL     1     -37.320  17.961  -5.434  1.00 20.00     0.152 C 
HETATM    8  O10 UNL     1     -36.658  14.372  -5.413  1.00 20.00    -0.273 OA
ENDBRANCH   3   4
BRANCH   2   9
HETATM    9  C2  UNL     1     -34.022  15.742  -3.891  1.00 20.00    -0.031 C 
HETATM   10  C1  UNL     1     -33.359  16.352  -2.903  1.00 20.00     0.007 C 
ENDBRANCH   2   9
TORSDOF 2
ENDMDL
MODEL 9
REMARK VINA RESULT:      -2.9      2.278      3.285
REMARK  2 active torsions:
REMARK  status: ('A' for Active; 'I' for Inactive)
REMARK    1  A    between atoms: C2_2  and  C5_5 
REMARK    2  A    between atoms: C3_3  and  C6_6 
REMARK       I    between atoms: C3_3  and  N9_9 
ROOT
HETATM    1  C4  UNL     1     -32.646   8.057   5.419  1.00 20.00     0.024 A 
HETATM    2  C5  UNL     1     -34.028   7.671   4.970  1.00 20.00     0.021 A 
HETATM    3  C6  UNL     1     -33.136   8.460   4.077  1.00 20.00     0.086 A 
ENDROOT
BRANCH   3   4
HETATM    4  C3  UNL     1     -32.507   7.809   2.869  1.00 20.00     0.224 C 
HETATM    5  N9  UNL     1     -32.485   8.561   1.694  1.00 20.00    -0.360 N 
HETATM    6  C7  UNL     1     -31.909   8.054   0.456  1.00 20.00     0.152 C 
HETATM    7  C8  UNL     1     -33.036   9.912   1.620  1.00 20.00     0.152 C 
HETATM    8  O10 UNL     1     -32.053   6.668   2.970  1.00 20.00    -0.273 OA
ENDBRANCH   3   4
BRANCH   2   9
HETATM    9  C2  UNL     1     -34.320   6.267   4.724  1.00 20.00    -0.031 C 
HETATM   10  C1  UNL     1     -34.771   5.421   5.657  1.00 20.00     0.007 C 
ENDBRANCH   2   9
TORSDOF 2
ENDMDL
