MODEL 1
REMARK VINA RESULT:      -4.8      0.000      0.000
REMARK  1 active torsions:
REMARK  status: ('A' for Active; 'I' for Inactive)
REMARK    1  A    between atoms: C1_1  and  C4_4 
ROOT
HETATM    1  C2  UNL     1     -34.386   4.918   5.262  1.00 20.00     0.225 A 
HETATM    2  C3  UNL     1     -35.407   5.957   4.953  1.00 20.00     0.225 A 
HETATM    3  C4  UNL     1     -33.960   6.362   5.126  1.00 20.00     0.099 A 
HETATM    4  C5  UNL     1     -33.605   7.089   6.398  1.00 20.00     0.031 C 
HETATM    5  F7  UNL     1     -34.045   4.037   4.251  1.00 20.00    -0.245 F 
HETATM    6  F8  UNL     1     -35.942   5.967   3.677  1.00 20.00    -0.245 F 
ENDROOT
BRANCH   3   7
HETATM    7  C1  UNL     1     -33.209   6.738   3.905  1.00 20.00     0.233 C 
HETATM    8  O6  UNL     1     -32.929   5.913   3.040  1.00 20.00    -0.279 OA
HETATM    9 CL9  UNL     1     -32.805   8.428   3.879  1.00 20.00    -0.043 Cl
ENDBRANCH   3   7
TORSDOF 1
ENDMDL
MODEL 2
REMARK VINA RESULT:      -4.6      2.333      2.838
REMARK  1 active torsions:
REMARK  status: ('A' for Active; 'I' for Inactive)
REMARK    1  A    between atoms: C1_1  and  C4_4 
ROOT
HETATM    1  C2  UNL     1     -33.955   7.321   4.998  1.00 20.00     0.225 A 
HETATM    2  C3  UNL     1     -34.503   6.432   6.060  1.00 20.00     0.225 A 
HETATM    3  C4  UNL     1     -34.701   6.065   4.606  1.00 20.00     0.099 A 
HETATM    4  C5  UNL     1     -36.087   6.244   4.042  1.00 20.00     0.031 C 
HETATM    5  F7  UNL     1     -32.582   7.347   4.831  1.00 20.00    -0.245 F 
HETATM    6  F8  UNL     1     -33.599   5.696   6.805  1.00 20.00    -0.245 F 
ENDROOT
BRANCH   3   7
HETATM    7  C1  UNL     1     -33.899   4.936   4.075  1.00 20.00     0.233 C 
HETATM    8  O6  UNL     1     -33.944   3.819   4.581  1.00 20.00    -0.279 OA
HETATM    9 CL9  UNL     1     -32.940   5.403   2.704  1.00 20.00    -0.043 Cl
ENDBRANCH   3   7
TORSDOF 1
ENDMDL
MODEL 3
REMARK VINA RESULT:      -4.4      1.928      2.126
REMARK  1 active torsions:
REMARK  status: ('A' for Active; 'I' for Inactive)
REMARK    1  A    between atoms: C1_1  and  C4_4 
ROOT
HETATM    1  C2  UNL     1     -34.379   6.427   5.875  1.00 20.00     0.225 A 
HETATM    2  C3  UNL     1     -35.221   6.842   4.718  1.00 20.00     0.225 A 
HETATM    3  C4  UNL     1     -33.804   6.371   4.478  1.00 20.00     0.099 A 
HETATM    4  C5  UNL     1     -32.789   7.424   4.116  1.00 20.00     0.031 C 
HETATM    5  F7  UNL     1     -34.697   5.235   6.502  1.00 20.00    -0.245 F 
HETATM    6  F8  UNL     1     -36.261   6.005   4.354  1.00 20.00    -0.245 F 
ENDROOT
BRANCH   3   7
HETATM    7  C1  UNL     1     -33.628   5.030   3.869  1.00 20.00     0.233 C 
HETATM    8  O6  UNL     1     -34.039   4.013   4.418  1.00 20.00    -0.279 OA
HETATM    9 CL9  UNL     1     -32.801   5.108   2.343  1.00 20.00    -0.043 Cl
ENDBRANCH   3   7
TORSDOF 1
ENDMDL
MODEL 4
REMARK VINA RESULT:      -4.4      2.028      2.628
REMARK  1 active torsions:
REMARK  status: ('A' for Active; 'I' for Inactive)
REMARK    1  A    between atoms: C1_1  and  C4_4 
ROOT
HETATM    1  C2  UNL     1     -34.576   6.357   6.220  1.00 20.00     0.225 A 
HETATM    2  C3  UNL     1     -34.579   4.951   5.730  1.00 20.00     0.225 A 
HETATM    3  C4  UNL     1     -34.641   6.087   4.734  1.00 20.00     0.099 A 
HETATM    4  C5  UNL     1     -35.966   6.326   4.056  1.00 20.00     0.031 C 
HETATM    5  F7  UNL     1     -33.394   6.848   6.746  1.00 20.00    -0.245 F 
HETATM    6  F8  UNL     1     -33.400   4.235   5.836  1.00 20.00    -0.245 F 
ENDROOT
BRANCH   3   7
HETATM    7  C1  UNL     1     -33.420   6.360   3.939  1.00 20.00     0.233 C 
HETATM    8  O6  UNL     1     -32.744   7.369   4.120  1.00 20.00    -0.279 OA
HETATM    9 CL9  UNL     1     -33.102   5.109   2.777  1.00 20.00    -0.043 Cl
ENDBRANCH   3   7
TORSDOF 1
ENDMDL
MODEL 5
REMARK VINA RESULT:      -4.2      1.664      2.476
REMARK  1 active torsions:
REMARK  status: ('A' for Active; 'I' for Inactive)
REMARK    1  A    between atoms: C1_1  and  C4_4 
ROOT
HETATM    1  C2  UNL     1     -35.165   5.389   4.181  1.00 20.00     0.225 A 
HETATM    2  C3  UNL     1     -34.143   4.792   5.085  1.00 20.00     0.225 A 
HETATM    3  C4  UNL     1     -33.715   5.793   4.034  1.00 20.00     0.099 A 
HETATM    4  C5  UNL     1     -32.975   5.250   2.839  1.00 20.00     0.031 C 
HETATM    5  F7  UNL     1     -36.047   6.303   4.730  1.00 20.00    -0.245 F 
HETATM    6  F8  UNL     1     -34.149   5.192   6.409  1.00 20.00    -0.245 F 
ENDROOT
BRANCH   3   7
HETATM    7  C1  UNL     1     -33.336   7.148   4.502  1.00 20.00     0.233 C 
HETATM    8  O6  UNL     1     -33.925   7.700   5.427  1.00 20.00    -0.279 OA
HETATM    9 CL9  UNL     1     -32.005   7.803   3.598  1.00 20.00    -0.043 Cl
ENDBRANCH   3   7
TORSDOF 1
ENDMDL
MODEL 6
REMARK VINA RESULT:      -4.0     16.381     17.033
REMARK  1 active torsions:
REMARK  status: ('A' for Active; 'I' for Inactive)
REMARK    1  A    between atoms: C1_1  and  C4_4 
ROOT
HETATM    1  C2  UNL     1     -23.958  17.041  11.585  1.00 20.00     0.225 A 
HETATM    2  C3  UNL     1     -24.332  18.439  11.233  1.00 20.00     0.225 A 
HETATM    3  C4  UNL     1     -22.892  17.997  11.100  1.00 20.00     0.099 A 
HETATM    4  C5  UNL     1     -21.923  18.517  12.132  1.00 20.00     0.031 C 
HETATM    5  F7  UNL     1     -24.372  16.034  10.732  1.00 20.00    -0.245 F 
HETATM    6  F8  UNL     1     -25.068  18.630  10.077  1.00 20.00    -0.245 F 
ENDROOT
BRANCH   3   7
HETATM    7  C1  UNL     1     -22.368  17.792   9.729  1.00 20.00     0.233 C 
HETATM    8  O6  UNL     1     -22.397  16.693   9.184  1.00 20.00    -0.279 OA
HETATM    9 CL9  UNL     1     -21.741  19.260   9.042  1.00 20.00    -0.043 Cl
ENDBRANCH   3   7
TORSDOF 1
ENDMDL
MODEL 7
REMARK VINA RESULT:      -3.9      8.700      9.416
REMARK  1 active torsions:
REMARK  status: ('A' for Active; 'I' for Inactive)
REMARK    1  A    between atoms: C1_1  and  C4_4 
ROOT
HETATM    1  C2  UNL     1     -41.414   5.646   0.546  1.00 20.00     0.225 A 
HETATM    2  C3  UNL     1     -42.689   5.414  -0.189  1.00 20.00     0.225 A 
HETATM    3  C4  UNL     1     -42.501   6.695   0.592  1.00 20.00     0.099 A 
HETATM    4  C5  UNL     1     -43.268   6.824   1.883  1.00 20.00     0.031 C 
HETATM    5  F7  UNL     1     -40.282   5.907  -0.206  1.00 20.00    -0.245 F 
HETATM    6  F8  UNL     1     -42.650   5.476  -1.570  1.00 20.00    -0.245 F 
ENDROOT
BRANCH   3   7
HETATM    7  C1  UNL     1     -42.280   7.938  -0.185  1.00 20.00     0.233 C 
HETATM    8  O6  UNL     1     -43.154   8.415  -0.903  1.00 20.00    -0.279 OA
HETATM    9 CL9  UNL     1     -40.687   8.587   0.058  1.00 20.00    -0.043 Cl
ENDBRANCH   3   7
TORSDOF 1
ENDMDL
MODEL 8
REMARK VINA RESULT:      -3.9      2.418      3.075
REMARK  1 active torsions:
REMARK  status: ('A' for Active; 'I' for Inactive)
REMARK    1  A    between atoms: C1_1  and  C4_4 
ROOT
HETATM    1  C2  UNL     1     -34.458   7.977   5.557  1.00 20.00     0.225 A 
HETATM    2  C3  UNL     1     -33.999   6.748   6.263  1.00 20.00     0.225 A 
HETATM    3  C4  UNL     1     -34.252   6.701   4.772  1.00 20.00     0.099 A 
HETATM    4  C5  UNL     1     -35.492   5.975   4.315  1.00 20.00     0.031 C 
HETATM    5  F7  UNL     1     -33.542   9.001   5.395  1.00 20.00    -0.245 F 
HETATM    6  F8  UNL     1     -32.689   6.719   6.707  1.00 20.00    -0.245 F 
ENDROOT
BRANCH   3   7
HETATM    7  C1  UNL     1     -33.067   6.633   3.884  1.00 20.00     0.233 C 
HETATM    8  O6  UNL     1     -32.239   7.538   3.842  1.00 20.00    -0.279 OA
HETATM    9 CL9  UNL     1     -33.024   5.161   2.963  1.00 20.00    -0.043 Cl
ENDBRANCH   3   7
TORSDOF 1
ENDMDL
MODEL 9
REMARK VINA RESULT:      -3.9      2.464      3.128
REMARK  1 active torsions:
REMARK  status: ('A' for Active; 'I' for Inactive)
REMARK    1  A    between atoms: C1_1  and  C4_4 
ROOT
HETATM    1  C2  UNL     1     -33.889   8.222   4.817  1.00 20.00     0.225 A 
HETATM    2  C3  UNL     1     -32.715   7.334   4.591  1.00 20.00     0.225 A 
HETATM    3  C4  UNL     1     -33.934   6.791   5.303  1.00 20.00     0.099 A 
HETATM    4  C5  UNL     1     -33.813   6.573   6.789  1.00 20.00     0.031 C 
HETATM    5  F7  UNL     1     -34.653   8.565   3.715  1.00 20.00    -0.245 F 
HETATM    6  F8  UNL     1     -32.472   6.915   3.295  1.00 20.00    -0.245 F 
ENDROOT
BRANCH   3   7
HETATM    7  C1  UNL     1     -34.794   5.845   4.552  1.00 20.00     0.233 C 
HETATM    8  O6  UNL     1     -35.930   6.146   4.199  1.00 20.00    -0.279 OA
HETATM    9 CL9  UNL     1     -33.998   4.329   4.260  1.00 20.00    -0.043 Cl
ENDBRANCH   3   7
TORSDOF 1
ENDMDL
