MODEL 1
REMARK VINA RESULT:      -4.9      0.000      0.000
REMARK  2 active torsions:
REMARK  status: ('A' for Active; 'I' for Inactive)
REMARK    1  A    between atoms: C1_1  and  C6_6 
REMARK    2  A    between atoms: C1_1  and  O10_10 
ROOT
HETATM    1  C2  UNL     1     -34.731   5.023   5.037  1.00 20.00     0.006 C 
HETATM    2  C3  UNL     1     -34.474   5.451   6.488  1.00 20.00     0.036 C 
HETATM    3  C4  UNL     1     -34.706   6.323   4.222  1.00 20.00     0.052 C 
HETATM    4  C5  UNL     1     -33.612   6.666   6.355  1.00 20.00     0.168 A 
HETATM    5  C6  UNL     1     -33.739   7.198   4.965  1.00 20.00     0.174 A 
HETATM    6  O9  UNL     1     -34.307   7.885   6.093  1.00 20.00    -0.358 OA
ENDROOT
BRANCH   5   7
HETATM    7  C1  UNL     1     -32.652   7.927   4.320  1.00 20.00     0.296 C 
HETATM    8  O8  UNL     1     -32.254   9.026   4.685  1.00 20.00    -0.262 OA
BRANCH   7   9
HETATM    9  O10 UNL     1     -32.169   7.197   3.275  1.00 20.00    -0.324 OA
HETATM   10  C7  UNL     1     -32.202   7.851   2.002  1.00 20.00     0.213 C 
ENDBRANCH   7   9
ENDBRANCH   5   7
TORSDOF 2
ENDMDL
MODEL 2
REMARK VINA RESULT:      -3.6     12.102     13.270
REMARK  2 active torsions:
REMARK  status: ('A' for Active; 'I' for Inactive)
REMARK    1  A    between atoms: C1_1  and  C6_6 
REMARK    2  A    between atoms: C1_1  and  O10_10 
ROOT
HETATM    1  C2  UNL     1     -32.537  18.112  -1.524  1.00 20.00     0.006 C 
HETATM    2  C3  UNL     1     -32.779  19.135  -2.641  1.00 20.00     0.036 C 
HETATM    3  C4  UNL     1     -33.518  16.966  -1.805  1.00 20.00     0.052 C 
HETATM    4  C5  UNL     1     -33.212  18.299  -3.805  1.00 20.00     0.168 A 
HETATM    5  C6  UNL     1     -33.653  16.964  -3.301  1.00 20.00     0.174 A 
HETATM    6  O9  UNL     1     -34.590  17.927  -3.813  1.00 20.00    -0.358 OA
ENDROOT
BRANCH   5   7
HETATM    7  C1  UNL     1     -33.543  15.761  -4.118  1.00 20.00     0.296 C 
HETATM    8  O8  UNL     1     -32.573  15.014  -4.111  1.00 20.00    -0.262 OA
BRANCH   7   9
HETATM    9  O10 UNL     1     -34.670  15.614  -4.870  1.00 20.00    -0.324 OA
HETATM   10  C7  UNL     1     -34.462  15.153  -6.208  1.00 20.00     0.213 C 
ENDBRANCH   7   9
ENDBRANCH   5   7
TORSDOF 2
ENDMDL
MODEL 3
REMARK VINA RESULT:      -3.5      1.758      3.427
REMARK  2 active torsions:
REMARK  status: ('A' for Active; 'I' for Inactive)
REMARK    1  A    between atoms: C1_1  and  C6_6 
REMARK    2  A    between atoms: C1_1  and  O10_10 
ROOT
HETATM    1  C2  UNL     1     -32.548   8.413   3.527  1.00 20.00     0.006 C 
HETATM    2  C3  UNL     1     -32.798   8.991   4.927  1.00 20.00     0.036 C 
HETATM    3  C4  UNL     1     -32.730   6.897   3.677  1.00 20.00     0.052 C 
HETATM    4  C5  UNL     1     -33.782   8.042   5.535  1.00 20.00     0.168 A 
HETATM    5  C6  UNL     1     -33.755   6.761   4.766  1.00 20.00     0.174 A 
HETATM    6  O9  UNL     1     -33.222   6.856   6.098  1.00 20.00    -0.358 OA
ENDROOT
BRANCH   5   7
HETATM    7  C1  UNL     1     -34.931   5.903   4.665  1.00 20.00     0.296 C 
HETATM    8  O8  UNL     1     -35.999   6.259   4.185  1.00 20.00    -0.262 OA
BRANCH   7   9
HETATM    9  O10 UNL     1     -34.645   4.674   5.180  1.00 20.00    -0.324 OA
HETATM   10  C7  UNL     1     -33.777   3.861   4.384  1.00 20.00     0.213 C 
ENDBRANCH   7   9
ENDBRANCH   5   7
TORSDOF 2
ENDMDL
MODEL 4
REMARK VINA RESULT:      -3.5     15.315     16.333
REMARK  2 active torsions:
REMARK  status: ('A' for Active; 'I' for Inactive)
REMARK    1  A    between atoms: C1_1  and  C6_6 
REMARK    2  A    between atoms: C1_1  and  O10_10 
ROOT
HETATM    1  C2  UNL     1     -23.008  19.263   8.230  1.00 20.00     0.006 C 
HETATM    2  C3  UNL     1     -22.125  18.019   8.069  1.00 20.00     0.036 C 
HETATM    3  C4  UNL     1     -24.030  18.895   9.315  1.00 20.00     0.052 C 
HETATM    4  C5  UNL     1     -22.130  17.398   9.431  1.00 20.00     0.168 A 
HETATM    5  C6  UNL     1     -23.287  17.941  10.204  1.00 20.00     0.174 A 
HETATM    6  O9  UNL     1     -23.264  16.584   9.728  1.00 20.00    -0.358 OA
ENDROOT
BRANCH   5   7
HETATM    7  C1  UNL     1     -23.253  18.053  11.658  1.00 20.00     0.296 C 
HETATM    8  O8  UNL     1     -22.490  18.788  12.270  1.00 20.00    -0.262 OA
BRANCH   7   9
HETATM    9  O10 UNL     1     -24.189  17.225  12.202  1.00 20.00    -0.324 OA
HETATM   10  C7  UNL     1     -25.503  17.779  12.327  1.00 20.00     0.213 C 
ENDBRANCH   7   9
ENDBRANCH   5   7
TORSDOF 2
ENDMDL
MODEL 5
REMARK VINA RESULT:      -3.5      1.031      1.776
REMARK  2 active torsions:
REMARK  status: ('A' for Active; 'I' for Inactive)
REMARK    1  A    between atoms: C1_1  and  C6_6 
REMARK    2  A    between atoms: C1_1  and  O10_10 
ROOT
HETATM    1  C2  UNL     1     -34.790   6.139   6.416  1.00 20.00     0.006 C 
HETATM    2  C3  UNL     1     -35.277   5.575   5.075  1.00 20.00     0.036 C 
HETATM    3  C4  UNL     1     -33.328   6.541   6.178  1.00 20.00     0.052 C 
HETATM    4  C5  UNL     1     -34.480   6.331   4.058  1.00 20.00     0.168 A 
HETATM    5  C6  UNL     1     -33.292   6.937   4.730  1.00 20.00     0.174 A 
HETATM    6  O9  UNL     1     -33.164   5.833   3.817  1.00 20.00    -0.358 OA
ENDROOT
BRANCH   5   7
HETATM    7  C1  UNL     1     -32.683   8.171   4.247  1.00 20.00     0.296 C 
HETATM    8  O8  UNL     1     -32.541   9.178   4.929  1.00 20.00    -0.262 OA
BRANCH   7   9
HETATM    9  O10 UNL     1     -32.311   8.018   2.944  1.00 20.00    -0.324 OA
HETATM   10  C7  UNL     1     -32.710   9.071   2.062  1.00 20.00     0.213 C 
ENDBRANCH   7   9
ENDBRANCH   5   7
TORSDOF 2
ENDMDL
MODEL 6
REMARK VINA RESULT:      -3.5     12.544     13.787
REMARK  2 active torsions:
REMARK  status: ('A' for Active; 'I' for Inactive)
REMARK    1  A    between atoms: C1_1  and  C6_6 
REMARK    2  A    between atoms: C1_1  and  O10_10 
ROOT
HETATM    1  C2  UNL     1     -33.080  15.709  -3.514  1.00 20.00     0.006 C 
HETATM    2  C3  UNL     1     -33.747  17.080  -3.691  1.00 20.00     0.036 C 
HETATM    3  C4  UNL     1     -33.993  14.718  -4.248  1.00 20.00     0.052 C 
HETATM    4  C5  UNL     1     -34.441  16.972  -5.013  1.00 20.00     0.168 A 
HETATM    5  C6  UNL     1     -34.583  15.528  -5.366  1.00 20.00     0.174 A 
HETATM    6  O9  UNL     1     -35.714  16.329  -4.985  1.00 20.00    -0.358 OA
ENDROOT
BRANCH   5   7
HETATM    7  C1  UNL     1     -34.623  15.079  -6.754  1.00 20.00     0.296 C 
HETATM    8  O8  UNL     1     -33.647  15.048  -7.492  1.00 20.00    -0.262 OA
BRANCH   7   9
HETATM    9  O10 UNL     1     -35.895  14.709  -7.077  1.00 20.00    -0.324 OA
HETATM   10  C7  UNL     1     -36.606  15.623  -7.917  1.00 20.00     0.213 C 
ENDBRANCH   7   9
ENDBRANCH   5   7
TORSDOF 2
ENDMDL
MODEL 7
REMARK VINA RESULT:      -3.4      1.141      3.595
REMARK  2 active torsions:
REMARK  status: ('A' for Active; 'I' for Inactive)
REMARK    1  A    between atoms: C1_1  and  C6_6 
REMARK    2  A    between atoms: C1_1  and  O10_10 
ROOT
HETATM    1  C2  UNL     1     -32.452   7.754   1.916  1.00 20.00     0.006 C 
HETATM    2  C3  UNL     1     -32.462   9.184   2.471  1.00 20.00     0.036 C 
HETATM    3  C4  UNL     1     -32.256   6.846   3.138  1.00 20.00     0.052 C 
HETATM    4  C5  UNL     1     -33.031   9.029   3.847  1.00 20.00     0.168 A 
HETATM    5  C6  UNL     1     -32.920   7.597   4.256  1.00 20.00     0.174 A 
HETATM    6  O9  UNL     1     -32.103   8.620   4.851  1.00 20.00    -0.358 OA
ENDROOT
BRANCH   5   7
HETATM    7  C1  UNL     1     -33.867   6.989   5.185  1.00 20.00     0.296 C 
HETATM    8  O8  UNL     1     -33.894   7.223   6.386  1.00 20.00    -0.262 OA
BRANCH   7   9
HETATM    9  O10 UNL     1     -34.692   6.142   4.507  1.00 20.00    -0.324 OA
HETATM   10  C7  UNL     1     -34.635   4.771   4.913  1.00 20.00     0.213 C 
ENDBRANCH   7   9
ENDBRANCH   5   7
TORSDOF 2
ENDMDL
MODEL 8
REMARK VINA RESULT:      -3.4      9.169      9.832
REMARK  2 active torsions:
REMARK  status: ('A' for Active; 'I' for Inactive)
REMARK    1  A    between atoms: C1_1  and  C6_6 
REMARK    2  A    between atoms: C1_1  and  O10_10 
ROOT
HETATM    1  C2  UNL     1     -38.555  12.068   5.225  1.00 20.00     0.006 C 
HETATM    2  C3  UNL     1     -38.857  12.146   6.727  1.00 20.00     0.036 C 
HETATM    3  C4  UNL     1     -39.926  12.081   4.536  1.00 20.00     0.052 C 
HETATM    4  C5  UNL     1     -40.131  12.927   6.796  1.00 20.00     0.168 A 
HETATM    5  C6  UNL     1     -40.785  12.902   5.453  1.00 20.00     0.174 A 
HETATM    6  O9  UNL     1     -41.323  12.175   6.570  1.00 20.00    -0.358 OA
ENDROOT
BRANCH   5   7
HETATM    7  C1  UNL     1     -41.640  13.992   4.996  1.00 20.00     0.296 C 
HETATM    8  O8  UNL     1     -42.290  14.712   5.743  1.00 20.00    -0.262 OA
BRANCH   7   9
HETATM    9  O10 UNL     1     -41.592  14.071   3.636  1.00 20.00    -0.324 OA
HETATM   10  C7  UNL     1     -42.359  15.129   3.054  1.00 20.00     0.213 C 
ENDBRANCH   7   9
ENDBRANCH   5   7
TORSDOF 2
ENDMDL
MODEL 9
REMARK VINA RESULT:      -3.4     11.941     13.875
REMARK  2 active torsions:
REMARK  status: ('A' for Active; 'I' for Inactive)
REMARK    1  A    between atoms: C1_1  and  C6_6 
REMARK    2  A    between atoms: C1_1  and  O10_10 
ROOT
HETATM    1  C2  UNL     1     -35.368  17.651  -6.553  1.00 20.00     0.006 C 
HETATM    2  C3  UNL     1     -34.845  16.745  -7.675  1.00 20.00     0.036 C 
HETATM    3  C4  UNL     1     -35.787  16.697  -5.426  1.00 20.00     0.052 C 
HETATM    4  C5  UNL     1     -34.284  15.563  -6.949  1.00 20.00     0.168 A 
HETATM    5  C6  UNL     1     -34.846  15.535  -5.566  1.00 20.00     0.174 A 
HETATM    6  O9  UNL     1     -35.236  14.574  -6.561  1.00 20.00    -0.358 OA
ENDROOT
BRANCH   5   7
HETATM    7  C1  UNL     1     -34.108  14.957  -4.449  1.00 20.00     0.296 C 
HETATM    8  O8  UNL     1     -34.327  13.846  -3.985  1.00 20.00    -0.262 OA
BRANCH   7   9
HETATM    9  O10 UNL     1     -33.160  15.839  -4.022  1.00 20.00    -0.324 OA
HETATM   10  C7  UNL     1     -33.383  16.404  -2.727  1.00 20.00     0.213 C 
ENDBRANCH   7   9
ENDBRANCH   5   7
TORSDOF 2
ENDMDL
