MODEL 1
REMARK VINA RESULT:      -4.7      0.000      0.000
REMARK  2 active torsions:
REMARK  status: ('A' for Active; 'I' for Inactive)
REMARK    1  A    between atoms: C1_1  and  C6_6 
REMARK    2  A    between atoms: C7_7  and  C8_8 
ROOT
HETATM    1  C2  UNL     1     -33.242   8.230   4.173  1.00 20.00     0.014 C 
HETATM    2  C3  UNL     1     -33.277   6.118   2.790  1.00 20.00     0.014 C 
HETATM    3  C4  UNL     1     -33.646   7.430   5.409  1.00 20.00     0.008 C 
HETATM    4  C5  UNL     1     -33.682   5.314   4.024  1.00 20.00     0.008 C 
HETATM    5  C6  UNL     1     -32.483   7.361   3.177  1.00 20.00     0.072 C 
HETATM    6  C7  UNL     1     -34.450   6.177   5.034  1.00 20.00     0.014 C 
ENDROOT
BRANCH   5   7
HETATM    7  C1  UNL     1     -32.270   8.182   1.919  1.00 20.00     0.223 C 
HETATM    8  O9  UNL     1     -31.689   7.725   0.940  1.00 20.00    -0.279 OA
HETATM    9 CL11 UNL     1     -32.936   9.781   2.063  1.00 20.00    -0.043 Cl
ENDBRANCH   5   7
BRANCH   6  10
HETATM   10  C8  UNL     1     -34.797   5.365   6.281  1.00 20.00     0.226 C 
HETATM   11  F10 UNL     1     -33.639   5.002   6.882  1.00 20.00    -0.255 F 
ENDBRANCH   6  10
TORSDOF 2
ENDMDL
MODEL 2
REMARK VINA RESULT:      -4.7      3.685      4.684
REMARK  2 active torsions:
REMARK  status: ('A' for Active; 'I' for Inactive)
REMARK    1  A    between atoms: C1_1  and  C6_6 
REMARK    2  A    between atoms: C7_7  and  C8_8 
ROOT
HETATM    1  C2  UNL     1     -33.202   8.211   4.771  1.00 20.00     0.014 C 
HETATM    2  C3  UNL     1     -33.474   5.867   3.873  1.00 20.00     0.014 C 
HETATM    3  C4  UNL     1     -32.803   8.700   3.381  1.00 20.00     0.008 C 
HETATM    4  C5  UNL     1     -33.074   6.352   2.481  1.00 20.00     0.008 C 
HETATM    5  C6  UNL     1     -34.109   6.989   4.688  1.00 20.00     0.072 C 
HETATM    6  C7  UNL     1     -32.158   7.581   2.551  1.00 20.00     0.014 C 
ENDROOT
BRANCH   5   7
HETATM    7  C1  UNL     1     -34.317   6.473   6.098  1.00 20.00     0.223 C 
HETATM    8  O9  UNL     1     -34.371   7.231   7.062  1.00 20.00    -0.279 OA
HETATM    9 CL11 UNL     1     -34.459   4.741   6.147  1.00 20.00    -0.043 Cl
ENDBRANCH   5   7
BRANCH   6  10
HETATM   10  C8  UNL     1     -31.816   8.079   1.148  1.00 20.00     0.226 C 
HETATM   11  F10 UNL     1     -32.544   9.197   0.909  1.00 20.00    -0.255 F 
ENDBRANCH   6  10
TORSDOF 2
ENDMDL
MODEL 3
REMARK VINA RESULT:      -4.4      3.511      4.563
REMARK  2 active torsions:
REMARK  status: ('A' for Active; 'I' for Inactive)
REMARK    1  A    between atoms: C1_1  and  C6_6 
REMARK    2  A    between atoms: C7_7  and  C8_8 
ROOT
HETATM    1  C2  UNL     1     -33.417   7.764   4.682  1.00 20.00     0.014 C 
HETATM    2  C3  UNL     1     -33.404   5.534   3.501  1.00 20.00     0.014 C 
HETATM    3  C4  UNL     1     -32.983   8.454   3.390  1.00 20.00     0.008 C 
HETATM    4  C5  UNL     1     -32.970   6.219   2.207  1.00 20.00     0.008 C 
HETATM    5  C6  UNL     1     -34.195   6.486   4.392  1.00 20.00     0.072 C 
HETATM    6  C7  UNL     1     -32.183   7.507   2.485  1.00 20.00     0.014 C 
ENDROOT
BRANCH   5   7
HETATM    7  C1  UNL     1     -34.437   5.785   5.714  1.00 20.00     0.223 C 
HETATM    8  O9  UNL     1     -34.598   4.570   5.781  1.00 20.00    -0.279 OA
HETATM    9 CL11 UNL     1     -34.453   6.896   7.050  1.00 20.00    -0.043 Cl
ENDBRANCH   5   7
BRANCH   6  10
HETATM   10  C8  UNL     1     -31.806   8.201   1.177  1.00 20.00     0.226 C 
HETATM   11  F10 UNL     1     -32.594   9.295   1.040  1.00 20.00    -0.255 F 
ENDBRANCH   6  10
TORSDOF 2
ENDMDL
MODEL 4
REMARK VINA RESULT:      -4.4     11.925     12.976
REMARK  2 active torsions:
REMARK  status: ('A' for Active; 'I' for Inactive)
REMARK    1  A    between atoms: C1_1  and  C6_6 
REMARK    2  A    between atoms: C7_7  and  C8_8 
ROOT
HETATM    1  C2  UNL     1     -33.864  14.914  -4.841  1.00 20.00     0.014 C 
HETATM    2  C3  UNL     1     -34.847  17.125  -5.561  1.00 20.00     0.014 C 
HETATM    3  C4  UNL     1     -33.572  15.492  -3.457  1.00 20.00     0.008 C 
HETATM    4  C5  UNL     1     -34.556  17.707  -4.179  1.00 20.00     0.008 C 
HETATM    5  C6  UNL     1     -35.050  15.615  -5.493  1.00 20.00     0.072 C 
HETATM    6  C7  UNL     1     -33.362  17.012  -3.512  1.00 20.00     0.014 C 
ENDROOT
BRANCH   5   7
HETATM    7  C1  UNL     1     -35.163  15.102  -6.915  1.00 20.00     0.223 C 
HETATM    8  O9  UNL     1     -36.086  14.375  -7.268  1.00 20.00    -0.279 OA
HETATM    9 CL11 UNL     1     -33.859  15.663  -7.918  1.00 20.00    -0.043 Cl
ENDBRANCH   5   7
BRANCH   6  10
HETATM   10  C8  UNL     1     -33.124  17.574  -2.111  1.00 20.00     0.226 C 
HETATM   11  F10 UNL     1     -33.687  16.726  -1.217  1.00 20.00    -0.255 F 
ENDBRANCH   6  10
TORSDOF 2
ENDMDL
MODEL 5
REMARK VINA RESULT:      -4.3      3.760      4.958
REMARK  2 active torsions:
REMARK  status: ('A' for Active; 'I' for Inactive)
REMARK    1  A    between atoms: C1_1  and  C6_6 
REMARK    2  A    between atoms: C7_7  and  C8_8 
ROOT
HETATM    1  C2  UNL     1     -33.514   6.040   3.901  1.00 20.00     0.014 C 
HETATM    2  C3  UNL     1     -33.301   8.395   4.785  1.00 20.00     0.014 C 
HETATM    3  C4  UNL     1     -32.663   6.415   2.689  1.00 20.00     0.008 C 
HETATM    4  C5  UNL     1     -32.451   8.775   3.574  1.00 20.00     0.008 C 
HETATM    5  C6  UNL     1     -33.173   6.910   5.105  1.00 20.00     0.072 C 
HETATM    6  C7  UNL     1     -32.786   7.907   2.353  1.00 20.00     0.014 C 
ENDROOT
BRANCH   5   7
HETATM    7  C1  UNL     1     -34.170   6.588   6.202  1.00 20.00     0.223 C 
HETATM    8  O9  UNL     1     -34.460   7.404   7.071  1.00 20.00    -0.279 OA
HETATM    9 CL11 UNL     1     -34.807   4.977   6.054  1.00 20.00    -0.043 Cl
ENDBRANCH   5   7
BRANCH   6  10
HETATM   10  C8  UNL     1     -31.887   8.270   1.172  1.00 20.00     0.226 C 
HETATM   11  F10 UNL     1     -32.429   9.340   0.544  1.00 20.00    -0.255 F 
ENDBRANCH   6  10
TORSDOF 2
ENDMDL
MODEL 6
REMARK VINA RESULT:      -4.3     12.137     12.418
REMARK  2 active torsions:
REMARK  status: ('A' for Active; 'I' for Inactive)
REMARK    1  A    between atoms: C1_1  and  C6_6 
REMARK    2  A    between atoms: C7_7  and  C8_8 
ROOT
HETATM    1  C2  UNL     1     -33.872  18.484   0.588  1.00 20.00     0.014 C 
HETATM    2  C3  UNL     1     -31.884  18.200  -0.941  1.00 20.00     0.014 C 
HETATM    3  C4  UNL     1     -32.955  19.027   1.683  1.00 20.00     0.008 C 
HETATM    4  C5  UNL     1     -30.963  18.741   0.151  1.00 20.00     0.008 C 
HETATM    5  C6  UNL     1     -33.297  18.754  -0.797  1.00 20.00     0.072 C 
HETATM    6  C7  UNL     1     -31.529  18.474   1.552  1.00 20.00     0.014 C 
ENDROOT
BRANCH   5   7
HETATM    7  C1  UNL     1     -34.176  18.041  -1.806  1.00 20.00     0.223 C 
HETATM    8  O9  UNL     1     -35.245  18.514  -2.181  1.00 20.00    -0.279 OA
HETATM    9 CL11 UNL     1     -33.485  16.533  -2.325  1.00 20.00    -0.043 Cl
ENDBRANCH   5   7
BRANCH   6  10
HETATM   10  C8  UNL     1     -30.618  19.071   2.624  1.00 20.00     0.226 C 
HETATM   11  F10 UNL     1     -29.554  18.248   2.777  1.00 20.00    -0.255 F 
ENDBRANCH   6  10
TORSDOF 2
ENDMDL
MODEL 7
REMARK VINA RESULT:      -4.2     11.830     12.737
REMARK  2 active torsions:
REMARK  status: ('A' for Active; 'I' for Inactive)
REMARK    1  A    between atoms: C1_1  and  C6_6 
REMARK    2  A    between atoms: C7_7  and  C8_8 
ROOT
HETATM    1  C2  UNL     1     -35.399  16.831  -4.984  1.00 20.00     0.014 C 
HETATM    2  C3  UNL     1     -33.917  14.976  -4.126  1.00 20.00     0.014 C 
HETATM    3  C4  UNL     1     -34.508  17.864  -4.296  1.00 20.00     0.008 C 
HETATM    4  C5  UNL     1     -33.024  16.005  -3.435  1.00 20.00     0.008 C 
HETATM    5  C6  UNL     1     -34.613  15.576  -5.343  1.00 20.00     0.072 C 
HETATM    6  C7  UNL     1     -33.805  17.274  -3.065  1.00 20.00     0.014 C 
ENDROOT
BRANCH   5   7
HETATM    7  C1  UNL     1     -35.600  14.548  -5.862  1.00 20.00     0.223 C 
HETATM    8  O9  UNL     1     -35.919  14.500  -7.046  1.00 20.00    -0.279 OA
HETATM    9 CL11 UNL     1     -36.181  13.505  -4.600  1.00 20.00    -0.043 Cl
ENDBRANCH   5   7
BRANCH   6  10
HETATM   10  C8  UNL     1     -32.879  18.308  -2.426  1.00 20.00     0.226 C 
HETATM   11  F10 UNL     1     -32.238  17.714  -1.391  1.00 20.00    -0.255 F 
ENDBRANCH   6  10
TORSDOF 2
ENDMDL
MODEL 8
REMARK VINA RESULT:      -4.0      3.551      4.482
REMARK  2 active torsions:
REMARK  status: ('A' for Active; 'I' for Inactive)
REMARK    1  A    between atoms: C1_1  and  C6_6 
REMARK    2  A    between atoms: C7_7  and  C8_8 
ROOT
HETATM    1  C2  UNL     1     -33.986   7.182   5.277  1.00 20.00     0.014 C 
HETATM    2  C3  UNL     1     -32.922   5.988   3.324  1.00 20.00     0.014 C 
HETATM    3  C4  UNL     1     -33.711   8.527   4.608  1.00 20.00     0.008 C 
HETATM    4  C5  UNL     1     -32.643   7.331   2.652  1.00 20.00     0.008 C 
HETATM    5  C6  UNL     1     -34.135   6.071   4.243  1.00 20.00     0.072 C 
HETATM    6  C7  UNL     1     -32.488   8.458   3.682  1.00 20.00     0.014 C 
ENDROOT
BRANCH   5   7
HETATM    7  C1  UNL     1     -34.236   4.757   4.992  1.00 20.00     0.223 C 
HETATM    8  O9  UNL     1     -34.026   3.681   4.440  1.00 20.00    -0.279 OA
HETATM    9 CL11 UNL     1     -34.673   4.986   6.659  1.00 20.00    -0.043 Cl
ENDBRANCH   5   7
BRANCH   6  10
HETATM   10  C8  UNL     1     -32.264   9.799   2.984  1.00 20.00     0.226 C 
HETATM   11  F10 UNL     1     -32.890   9.757   1.784  1.00 20.00    -0.255 F 
ENDBRANCH   6  10
TORSDOF 2
ENDMDL
MODEL 9
REMARK VINA RESULT:      -4.0     12.151     13.208
REMARK  2 active torsions:
REMARK  status: ('A' for Active; 'I' for Inactive)
REMARK    1  A    between atoms: C1_1  and  C6_6 
REMARK    2  A    between atoms: C7_7  and  C8_8 
ROOT
HETATM    1  C2  UNL     1     -33.311  16.219  -2.887  1.00 20.00     0.014 C 
HETATM    2  C3  UNL     1     -34.093  18.405  -3.878  1.00 20.00     0.014 C 
HETATM    3  C4  UNL     1     -33.679  15.498  -4.182  1.00 20.00     0.008 C 
HETATM    4  C5  UNL     1     -34.463  17.688  -5.175  1.00 20.00     0.008 C 
HETATM    5  C6  UNL     1     -32.968  17.681  -3.148  1.00 20.00     0.072 C 
HETATM    6  C7  UNL     1     -34.815  16.215  -4.926  1.00 20.00     0.014 C 
ENDROOT
BRANCH   5   7
HETATM    7  C1  UNL     1     -32.782  18.357  -1.803  1.00 20.00     0.223 C 
HETATM    8  O9  UNL     1     -31.967  19.260  -1.640  1.00 20.00    -0.279 OA
HETATM    9 CL11 UNL     1     -33.837  17.698  -0.589  1.00 20.00    -0.043 Cl
ENDBRANCH   5   7
BRANCH   6  10
HETATM   10  C8  UNL     1     -35.129  15.506  -6.242  1.00 20.00     0.226 C 
HETATM   11  F10 UNL     1     -34.023  14.823  -6.626  1.00 20.00    -0.255 F 
ENDBRANCH   6  10
TORSDOF 2
ENDMDL
