MODEL 1
REMARK VINA RESULT:      -3.6      0.000      0.000
REMARK  1 active torsions:
REMARK  status: ('A' for Active; 'I' for Inactive)
REMARK    1  A    between atoms: CA_2  and  C_3 
ROOT
ATOM      1  N   GLY A   1     -34.514   4.884   4.766  1.00 20.00    -0.249 NA
ATOM      2  CA  GLY A   1     -33.758   5.846   4.124  1.00 20.00     0.122 A 
HETATM    3  C1  UNK A   1     -34.797   5.307   5.979  1.00 20.00     0.168 A 
HETATM    4  C2  UNK A   1     -33.477   6.980   4.856  1.00 20.00     0.104 A 
HETATM    5  S3  UNK A   1     -32.570   8.299   4.298  1.00 20.00    -0.070 SA
HETATM    6  S4  UNK A   1     -34.185   6.850   6.412  1.00 20.00    -0.069 SA
ENDROOT
BRANCH   2   7
ATOM      7  C   GLY A   1     -33.336   5.580   2.771  1.00 20.00     0.292 C 
ATOM      8  O   GLY A   1     -32.634   4.609   2.450  1.00 20.00    -0.300 OA
ENDBRANCH   2   7
TORSDOF 1
ENDMDL
MODEL 2
REMARK VINA RESULT:      -3.6      2.643      2.892
REMARK  1 active torsions:
REMARK  status: ('A' for Active; 'I' for Inactive)
REMARK    1  A    between atoms: CA_2  and  C_3 
ROOT
ATOM      1  N   GLY A   1     -33.944   7.415   6.031  1.00 20.00    -0.249 NA
ATOM      2  CA  GLY A   1     -33.362   7.220   4.794  1.00 20.00     0.122 A 
HETATM    3  C1  UNK A   1     -34.632   6.340   6.350  1.00 20.00     0.168 A 
HETATM    4  C2  UNK A   1     -33.617   6.007   4.191  1.00 20.00     0.104 A 
HETATM    5  S3  UNK A   1     -33.024   5.528   2.677  1.00 20.00    -0.070 SA
HETATM    6  S4  UNK A   1     -34.623   5.060   5.207  1.00 20.00    -0.069 SA
ENDROOT
BRANCH   2   7
ATOM      7  C   GLY A   1     -32.556   8.287   4.252  1.00 20.00     0.292 C 
ATOM      8  O   GLY A   1     -32.167   9.259   4.918  1.00 20.00    -0.300 OA
ENDBRANCH   2   7
TORSDOF 1
ENDMDL
MODEL 3
REMARK VINA RESULT:      -3.4      2.515      3.274
REMARK  1 active torsions:
REMARK  status: ('A' for Active; 'I' for Inactive)
REMARK    1  A    between atoms: CA_2  and  C_3 
ROOT
ATOM      1  N   GLY A   1     -33.689   7.918   5.496  1.00 20.00    -0.249 NA
ATOM      2  CA  GLY A   1     -33.858   6.740   4.795  1.00 20.00     0.122 A 
HETATM    3  C1  UNK A   1     -32.748   8.628   4.913  1.00 20.00     0.168 A 
HETATM    4  C2  UNK A   1     -33.045   6.571   3.694  1.00 20.00     0.104 A 
HETATM    5  S3  UNK A   1     -33.057   5.218   2.674  1.00 20.00    -0.070 SA
HETATM    6  S4  UNK A   1     -32.025   7.938   3.518  1.00 20.00    -0.069 SA
ENDROOT
BRANCH   2   7
ATOM      7  C   GLY A   1     -34.851   5.808   5.271  1.00 20.00     0.292 C 
ATOM      8  O   GLY A   1     -34.819   5.289   6.397  1.00 20.00    -0.300 OA
ENDBRANCH   2   7
TORSDOF 1
ENDMDL
MODEL 4
REMARK VINA RESULT:      -3.4      1.631      2.685
REMARK  1 active torsions:
REMARK  status: ('A' for Active; 'I' for Inactive)
REMARK    1  A    between atoms: CA_2  and  C_3 
ROOT
ATOM      1  N   GLY A   1     -32.882   6.369   2.909  1.00 20.00    -0.249 NA
ATOM      2  CA  GLY A   1     -33.585   6.227   4.090  1.00 20.00     0.122 A 
HETATM    3  C1  UNK A   1     -32.182   7.481   2.964  1.00 20.00     0.168 A 
HETATM    4  C2  UNK A   1     -33.411   7.229   5.020  1.00 20.00     0.104 A 
HETATM    5  S3  UNK A   1     -34.159   7.288   6.539  1.00 20.00    -0.070 SA
HETATM    6  S4  UNK A   1     -32.323   8.403   4.404  1.00 20.00    -0.069 SA
ENDROOT
BRANCH   2   7
ATOM      7  C   GLY A   1     -34.425   5.063   4.239  1.00 20.00     0.292 C 
ATOM      8  O   GLY A   1     -33.986   3.925   4.465  1.00 20.00    -0.300 OA
ENDBRANCH   2   7
TORSDOF 1
ENDMDL
MODEL 5
REMARK VINA RESULT:      -3.2      2.082      2.919
REMARK  1 active torsions:
REMARK  status: ('A' for Active; 'I' for Inactive)
REMARK    1  A    between atoms: CA_2  and  C_3 
ROOT
ATOM      1  N   GLY A   1     -33.841   5.298   3.786  1.00 20.00    -0.249 NA
ATOM      2  CA  GLY A   1     -33.732   6.404   4.606  1.00 20.00     0.122 A 
HETATM    3  C1  UNK A   1     -33.088   5.481   2.724  1.00 20.00     0.168 A 
HETATM    4  C2  UNK A   1     -32.901   7.409   4.156  1.00 20.00     0.104 A 
HETATM    5  S3  UNK A   1     -32.601   8.862   4.975  1.00 20.00    -0.070 SA
HETATM    6  S4  UNK A   1     -32.223   6.961   2.647  1.00 20.00    -0.069 SA
ENDROOT
BRANCH   2   7
ATOM      7  C   GLY A   1     -34.485   6.408   5.837  1.00 20.00     0.292 C 
ATOM      8  O   GLY A   1     -34.816   5.377   6.441  1.00 20.00    -0.300 OA
ENDBRANCH   2   7
TORSDOF 1
ENDMDL
MODEL 6
REMARK VINA RESULT:      -3.1      1.900      2.566
REMARK  1 active torsions:
REMARK  status: ('A' for Active; 'I' for Inactive)
REMARK    1  A    between atoms: CA_2  and  C_3 
ROOT
ATOM      1  N   GLY A   1     -32.144   7.903   3.699  1.00 20.00    -0.249 NA
ATOM      2  CA  GLY A   1     -32.997   6.818   3.660  1.00 20.00     0.122 A 
HETATM    3  C1  UNK A   1     -32.385   8.594   4.793  1.00 20.00     0.168 A 
HETATM    4  C2  UNK A   1     -33.872   6.700   4.720  1.00 20.00     0.104 A 
HETATM    5  S3  UNK A   1     -35.016   5.464   4.904  1.00 20.00    -0.070 SA
HETATM    6  S4  UNK A   1     -33.624   7.994   5.817  1.00 20.00    -0.069 SA
ENDROOT
BRANCH   2   7
ATOM      7  C   GLY A   1     -32.899   5.923   2.534  1.00 20.00     0.292 C 
ATOM      8  O   GLY A   1     -32.657   4.711   2.640  1.00 20.00    -0.300 OA
ENDBRANCH   2   7
TORSDOF 1
ENDMDL
MODEL 7
REMARK VINA RESULT:      -3.1     13.286     14.111
REMARK  1 active torsions:
REMARK  status: ('A' for Active; 'I' for Inactive)
REMARK    1  A    between atoms: CA_2  and  C_3 
ROOT
ATOM      1  N   GLY A   1     -35.914  14.398  -6.794  1.00 20.00    -0.249 NA
ATOM      2  CA  GLY A   1     -35.339  14.903  -5.644  1.00 20.00     0.122 A 
HETATM    3  C1  UNK A   1     -35.957  15.350  -7.700  1.00 20.00     0.168 A 
HETATM    4  C2  UNK A   1     -34.957  16.227  -5.692  1.00 20.00     0.104 A 
HETATM    5  S3  UNK A   1     -34.234  17.077  -4.417  1.00 20.00    -0.070 SA
HETATM    6  S4  UNK A   1     -35.325  16.876  -7.235  1.00 20.00    -0.069 SA
ENDROOT
BRANCH   2   7
ATOM      7  C   GLY A   1     -35.195  14.015  -4.516  1.00 20.00     0.292 C 
ATOM      8  O   GLY A   1     -35.877  12.991  -4.358  1.00 20.00    -0.300 OA
ENDBRANCH   2   7
TORSDOF 1
ENDMDL
MODEL 8
REMARK VINA RESULT:      -3.0     13.050     13.496
REMARK  1 active torsions:
REMARK  status: ('A' for Active; 'I' for Inactive)
REMARK    1  A    between atoms: CA_2  and  C_3 
ROOT
ATOM      1  N   GLY A   1     -33.342  16.573  -2.335  1.00 20.00    -0.249 NA
ATOM      2  CA  GLY A   1     -33.648  16.295  -3.652  1.00 20.00     0.122 A 
HETATM    3  C1  UNK A   1     -33.894  17.720  -2.003  1.00 20.00     0.168 A 
HETATM    4  C2  UNK A   1     -34.424  17.232  -4.302  1.00 20.00     0.104 A 
HETATM    5  S3  UNK A   1     -34.933  17.125  -5.915  1.00 20.00    -0.070 SA
HETATM    6  S4  UNK A   1     -34.794  18.517  -3.228  1.00 20.00    -0.069 SA
ENDROOT
BRANCH   2   7
ATOM      7  C   GLY A   1     -33.136  15.073  -4.221  1.00 20.00     0.292 C 
ATOM      8  O   GLY A   1     -33.768  14.005  -4.235  1.00 20.00    -0.300 OA
ENDBRANCH   2   7
TORSDOF 1
ENDMDL
MODEL 9
REMARK VINA RESULT:      -3.0     13.226     13.919
REMARK  1 active torsions:
REMARK  status: ('A' for Active; 'I' for Inactive)
REMARK    1  A    between atoms: CA_2  and  C_3 
ROOT
ATOM      1  N   GLY A   1     -33.754  14.685  -5.228  1.00 20.00    -0.249 NA
ATOM      2  CA  GLY A   1     -34.688  15.643  -5.566  1.00 20.00     0.122 A 
HETATM    3  C1  UNK A   1     -33.089  15.094  -4.169  1.00 20.00     0.168 A 
HETATM    4  C2  UNK A   1     -34.720  16.764  -4.764  1.00 20.00     0.104 A 
HETATM    5  S3  UNK A   1     -35.770  18.078  -4.969  1.00 20.00    -0.070 SA
HETATM    6  S4  UNK A   1     -33.537  16.622  -3.531  1.00 20.00    -0.069 SA
ENDROOT
BRANCH   2   7
ATOM      7  C   GLY A   1     -35.531  15.391  -6.709  1.00 20.00     0.292 C 
ATOM      8  O   GLY A   1     -36.006  14.276  -6.978  1.00 20.00    -0.300 OA
ENDBRANCH   2   7
TORSDOF 1
ENDMDL
