MODEL 1
REMARK VINA RESULT:      -4.0      0.000      0.000
REMARK  1 active torsions:
REMARK  status: ('A' for Active; 'I' for Inactive)
REMARK    1  A    between atoms: C1_1  and  C8_8 
ROOT
HETATM    1  C2  UNL     1     -35.987  14.834  -5.446  1.00 20.00     0.019 A 
HETATM    2  C3  UNL     1     -34.364  15.546  -6.694  1.00 20.00     0.019 A 
HETATM    3  C4  UNL     1     -35.273  16.870  -5.238  1.00 20.00     0.019 A 
HETATM    4  C5  UNL     1     -35.731  14.898  -6.959  1.00 20.00     0.038 A 
HETATM    5  C6  UNL     1     -36.641  16.222  -5.502  1.00 20.00     0.038 A 
HETATM    6  C7  UNL     1     -35.017  16.936  -6.751  1.00 20.00     0.038 A 
HETATM    7  C8  UNL     1     -34.622  15.483  -5.184  1.00 20.00     0.050 A 
HETATM    8  C9  UNL     1     -36.372  16.281  -7.001  1.00 20.00     0.117 A 
HETATM    9  F11 UNL     1     -37.250  16.682  -7.915  1.00 20.00    -0.242 F 
ENDROOT
BRANCH   7  10
HETATM   10  C1  UNL     1     -33.630  15.030  -4.158  1.00 20.00     0.228 C 
HETATM   11  O10 UNL     1     -33.041  13.958  -4.258  1.00 20.00    -0.279 OA
HETATM   12 CL12 UNL     1     -33.445  16.185  -2.873  1.00 20.00    -0.043 Cl
ENDBRANCH   7  10
TORSDOF 1
ENDMDL
MODEL 2
REMARK VINA RESULT:      -4.0     12.312     13.289
REMARK  1 active torsions:
REMARK  status: ('A' for Active; 'I' for Inactive)
REMARK    1  A    between atoms: C1_1  and  C8_8 
ROOT
HETATM    1  C2  UNL     1     -40.828   6.107   0.349  1.00 20.00     0.019 A 
HETATM    2  C3  UNL     1     -42.473   7.098   1.354  1.00 20.00     0.019 A 
HETATM    3  C4  UNL     1     -42.449   6.963  -0.809  1.00 20.00     0.019 A 
HETATM    4  C5  UNL     1     -40.945   7.255   1.362  1.00 20.00     0.038 A 
HETATM    5  C6  UNL     1     -40.920   7.119  -0.802  1.00 20.00     0.038 A 
HETATM    6  C7  UNL     1     -42.567   8.112   0.203  1.00 20.00     0.038 A 
HETATM    7  C8  UNL     1     -42.355   5.953   0.341  1.00 20.00     0.050 A 
HETATM    8  C9  UNL     1     -41.048   8.250   0.212  1.00 20.00     0.117 A 
HETATM    9  F11 UNL     1     -40.392   9.404   0.147  1.00 20.00    -0.242 F 
ENDROOT
BRANCH   7  10
HETATM   10  C1  UNL     1     -43.095   4.654   0.418  1.00 20.00     0.228 C 
HETATM   11  O10 UNL     1     -43.417   4.156   1.493  1.00 20.00    -0.279 OA
HETATM   12 CL12 UNL     1     -43.417   3.991  -1.156  1.00 20.00    -0.043 Cl
ENDBRANCH   7  10
TORSDOF 1
ENDMDL
MODEL 3
REMARK VINA RESULT:      -3.8     25.061     26.007
REMARK  1 active torsions:
REMARK  status: ('A' for Active; 'I' for Inactive)
REMARK    1  A    between atoms: C1_1  and  C8_8 
ROOT
HETATM    1  C2  UNL     1     -27.458  -1.509  10.088  1.00 20.00     0.019 A 
HETATM    2  C3  UNL     1     -26.949  -3.369  11.076  1.00 20.00     0.019 A 
HETATM    3  C4  UNL     1     -27.802  -1.735  12.216  1.00 20.00     0.019 A 
HETATM    4  C5  UNL     1     -26.186  -2.362  10.202  1.00 20.00     0.038 A 
HETATM    5  C6  UNL     1     -27.041  -0.726  11.342  1.00 20.00     0.038 A 
HETATM    6  C7  UNL     1     -26.531  -2.588  12.332  1.00 20.00     0.038 A 
HETATM    7  C8  UNL     1     -28.217  -2.515  10.962  1.00 20.00     0.050 A 
HETATM    8  C9  UNL     1     -25.788  -1.587  11.453  1.00 20.00     0.117 A 
HETATM    9  F11 UNL     1     -24.567  -1.122  11.700  1.00 20.00    -0.242 F 
ENDROOT
BRANCH   7  10
HETATM   10  C1  UNL     1     -29.590  -3.042  10.684  1.00 20.00     0.228 C 
HETATM   11  O10 UNL     1     -30.594  -2.505  11.144  1.00 20.00    -0.279 OA
HETATM   12 CL12 UNL     1     -29.556  -4.450   9.666  1.00 20.00    -0.043 Cl
ENDBRANCH   7  10
TORSDOF 1
ENDMDL
MODEL 4
REMARK VINA RESULT:      -3.8     25.012     26.100
REMARK  1 active torsions:
REMARK  status: ('A' for Active; 'I' for Inactive)
REMARK    1  A    between atoms: C1_1  and  C8_8 
ROOT
HETATM    1  C2  UNL     1     -26.927  -0.801  11.436  1.00 20.00     0.019 A 
HETATM    2  C3  UNL     1     -27.000  -2.809  12.250  1.00 20.00     0.019 A 
HETATM    3  C4  UNL     1     -26.644  -2.511  10.133  1.00 20.00     0.019 A 
HETATM    4  C5  UNL     1     -27.947  -1.599  12.262  1.00 20.00     0.038 A 
HETATM    5  C6  UNL     1     -27.590  -1.300  10.143  1.00 20.00     0.038 A 
HETATM    6  C7  UNL     1     -27.663  -3.310  10.958  1.00 20.00     0.038 A 
HETATM    7  C8  UNL     1     -25.984  -2.011  11.424  1.00 20.00     0.050 A 
HETATM    8  C9  UNL     1     -28.590  -2.098  10.973  1.00 20.00     0.117 A 
HETATM    9  F11 UNL     1     -29.899  -2.142  10.747  1.00 20.00    -0.242 F 
ENDROOT
BRANCH   7  10
HETATM   10  C1  UNL     1     -24.510  -1.963  11.681  1.00 20.00     0.228 C 
HETATM   11  O10 UNL     1     -23.948  -0.928  12.029  1.00 20.00    -0.279 OA
HETATM   12 CL12 UNL     1     -23.752  -3.507  11.431  1.00 20.00    -0.043 Cl
ENDBRANCH   7  10
TORSDOF 1
ENDMDL
MODEL 5
REMARK VINA RESULT:      -3.7     12.919     14.382
REMARK  1 active torsions:
REMARK  status: ('A' for Active; 'I' for Inactive)
REMARK    1  A    between atoms: C1_1  and  C8_8 
ROOT
HETATM    1  C2  UNL     1     -34.836   7.492   5.022  1.00 20.00     0.019 A 
HETATM    2  C3  UNL     1     -33.036   6.779   5.996  1.00 20.00     0.019 A 
HETATM    3  C4  UNL     1     -33.768   5.789   4.212  1.00 20.00     0.019 A 
HETATM    4  C5  UNL     1     -34.481   7.039   6.446  1.00 20.00     0.038 A 
HETATM    5  C6  UNL     1     -35.214   6.048   4.661  1.00 20.00     0.038 A 
HETATM    6  C7  UNL     1     -33.412   5.334   5.635  1.00 20.00     0.038 A 
HETATM    7  C8  UNL     1     -33.392   7.231   4.575  1.00 20.00     0.050 A 
HETATM    8  C9  UNL     1     -34.848   5.607   6.073  1.00 20.00     0.117 A 
HETATM    9  F11 UNL     1     -35.578   4.790   6.826  1.00 20.00    -0.242 F 
ENDROOT
BRANCH   7  10
HETATM   10  C1  UNL     1     -32.567   8.150   3.730  1.00 20.00     0.228 C 
HETATM   11  O10 UNL     1     -32.229   9.262   4.126  1.00 20.00    -0.279 OA
HETATM   12 CL12 UNL     1     -32.177   7.449   2.188  1.00 20.00    -0.043 Cl
ENDBRANCH   7  10
TORSDOF 1
ENDMDL
MODEL 6
REMARK VINA RESULT:      -3.7      1.705      2.012
REMARK  1 active torsions:
REMARK  status: ('A' for Active; 'I' for Inactive)
REMARK    1  A    between atoms: C1_1  and  C8_8 
ROOT
HETATM    1  C2  UNL     1     -35.913  16.130  -5.079  1.00 20.00     0.019 A 
HETATM    2  C3  UNL     1     -34.039  15.117  -5.480  1.00 20.00     0.019 A 
HETATM    3  C4  UNL     1     -34.532  16.942  -6.540  1.00 20.00     0.019 A 
HETATM    4  C5  UNL     1     -35.519  14.706  -5.498  1.00 20.00     0.038 A 
HETATM    5  C6  UNL     1     -36.013  16.534  -6.557  1.00 20.00     0.038 A 
HETATM    6  C7  UNL     1     -34.138  15.519  -6.960  1.00 20.00     0.038 A 
HETATM    7  C8  UNL     1     -34.434  16.539  -5.063  1.00 20.00     0.050 A 
HETATM    8  C9  UNL     1     -35.610  15.121  -6.962  1.00 20.00     0.117 A 
HETATM    9  F11 UNL     1     -36.200  14.407  -7.917  1.00 20.00    -0.242 F 
ENDROOT
BRANCH   7  10
HETATM   10  C1  UNL     1     -33.768  17.338  -3.988  1.00 20.00     0.228 C 
HETATM   11  O10 UNL     1     -33.533  18.536  -4.124  1.00 20.00    -0.279 OA
HETATM   12 CL12 UNL     1     -33.396  16.374  -2.591  1.00 20.00    -0.043 Cl
ENDBRANCH   7  10
TORSDOF 1
ENDMDL
MODEL 7
REMARK VINA RESULT:      -3.7     12.925     14.370
REMARK  1 active torsions:
REMARK  status: ('A' for Active; 'I' for Inactive)
REMARK    1  A    between atoms: C1_1  and  C8_8 
ROOT
HETATM    1  C2  UNL     1     -33.783   5.792   4.212  1.00 20.00     0.019 A 
HETATM    2  C3  UNL     1     -34.837   7.494   5.042  1.00 20.00     0.019 A 
HETATM    3  C4  UNL     1     -33.037   6.761   6.002  1.00 20.00     0.019 A 
HETATM    4  C5  UNL     1     -35.225   6.056   4.669  1.00 20.00     0.038 A 
HETATM    5  C6  UNL     1     -33.424   5.321   5.629  1.00 20.00     0.038 A 
HETATM    6  C7  UNL     1     -34.478   7.025   6.460  1.00 20.00     0.038 A 
HETATM    7  C8  UNL     1     -33.396   7.228   4.586  1.00 20.00     0.050 A 
HETATM    8  C9  UNL     1     -34.855   5.598   6.075  1.00 20.00     0.117 A 
HETATM    9  F11 UNL     1     -35.588   4.780   6.824  1.00 20.00    -0.242 F 
ENDROOT
BRANCH   7  10
HETATM   10  C1  UNL     1     -32.575   8.152   3.743  1.00 20.00     0.228 C 
HETATM   11  O10 UNL     1     -32.238   9.263   4.142  1.00 20.00    -0.279 OA
HETATM   12 CL12 UNL     1     -32.185   7.456   2.199  1.00 20.00    -0.043 Cl
ENDBRANCH   7  10
TORSDOF 1
ENDMDL
MODEL 8
REMARK VINA RESULT:      -3.7     12.924     14.352
REMARK  1 active torsions:
REMARK  status: ('A' for Active; 'I' for Inactive)
REMARK    1  A    between atoms: C1_1  and  C8_8 
ROOT
HETATM    1  C2  UNL     1     -33.034   6.746   5.989  1.00 20.00     0.019 A 
HETATM    2  C3  UNL     1     -33.789   5.787   4.198  1.00 20.00     0.019 A 
HETATM    3  C4  UNL     1     -34.838   7.487   5.042  1.00 20.00     0.019 A 
HETATM    4  C5  UNL     1     -33.425   5.310   5.612  1.00 20.00     0.038 A 
HETATM    5  C6  UNL     1     -34.473   7.010   6.456  1.00 20.00     0.038 A 
HETATM    6  C7  UNL     1     -35.229   6.051   4.663  1.00 20.00     0.038 A 
HETATM    7  C8  UNL     1     -33.400   7.222   4.577  1.00 20.00     0.050 A 
HETATM    8  C9  UNL     1     -34.853   5.587   6.067  1.00 20.00     0.117 A 
HETATM    9  F11 UNL     1     -35.583   4.765   6.814  1.00 20.00    -0.242 F 
ENDROOT
BRANCH   7  10
HETATM   10  C1  UNL     1     -32.577   8.144   3.733  1.00 20.00     0.228 C 
HETATM   11  O10 UNL     1     -32.254   9.262   4.124  1.00 20.00    -0.279 OA
HETATM   12 CL12 UNL     1     -32.168   7.436   2.200  1.00 20.00    -0.043 Cl
ENDBRANCH   7  10
TORSDOF 1
ENDMDL
MODEL 9
REMARK VINA RESULT:      -3.7     13.631     14.339
REMARK  1 active torsions:
REMARK  status: ('A' for Active; 'I' for Inactive)
REMARK    1  A    between atoms: C1_1  and  C8_8 
ROOT
HETATM    1  C2  UNL     1     -40.549  14.237   7.897  1.00 20.00     0.019 A 
HETATM    2  C3  UNL     1     -42.137  12.966   7.149  1.00 20.00     0.019 A 
HETATM    3  C4  UNL     1     -41.273  14.487   5.869  1.00 20.00     0.019 A 
HETATM    4  C5  UNL     1     -41.971  13.892   8.363  1.00 20.00     0.038 A 
HETATM    5  C6  UNL     1     -41.105  15.414   7.083  1.00 20.00     0.038 A 
HETATM    6  C7  UNL     1     -42.695  14.143   6.333  1.00 20.00     0.038 A 
HETATM    7  C8  UNL     1     -40.717  13.312   6.685  1.00 20.00     0.050 A 
HETATM    8  C9  UNL     1     -42.514  15.056   7.541  1.00 20.00     0.117 A 
HETATM    9  F11 UNL     1     -43.417  15.932   7.972  1.00 20.00    -0.242 F 
ENDROOT
BRANCH   7  10
HETATM   10  C1  UNL     1     -39.703  12.324   6.201  1.00 20.00     0.228 C 
HETATM   11  O10 UNL     1     -38.913  11.781   6.968  1.00 20.00    -0.279 OA
HETATM   12 CL12 UNL     1     -39.805  12.069   4.485  1.00 20.00    -0.043 Cl
ENDBRANCH   7  10
TORSDOF 1
ENDMDL
