MODEL 1
REMARK VINA RESULT:      -3.8      0.000      0.000
REMARK  1 active torsions:
REMARK  status: ('A' for Active; 'I' for Inactive)
REMARK    1  A    between atoms: C1_1  and  C4_4 
ROOT
HETATM    1  C1  UNL     1     -33.594  15.994  -3.145  1.00 20.00    -0.068 C 
HETATM    2  C2  UNL     1     -33.475  16.786  -2.251  1.00 20.00    -0.108 C 
HETATM    3  C6  UNL     1     -33.330  17.749  -1.160  1.00 20.00     0.112 C 
ENDROOT
BRANCH   1   4
HETATM    4  C4  UNL     1     -33.738  15.038  -4.228  1.00 20.00     0.129 C 
HETATM    5  C5  UNL     1     -34.704  15.454  -5.400  1.00 20.00     0.016 C 
HETATM    6  C3  UNL     1     -35.366  14.091  -5.104  1.00 20.00     0.182 C 
HETATM    7  C8  UNL     1     -34.100  15.569  -6.797  1.00 20.00     0.021 C 
HETATM    8  C9  UNL     1     -35.658  16.624  -5.129  1.00 20.00     0.021 C 
HETATM    9  O10 UNL     1     -34.677  13.994  -3.830  1.00 20.00    -0.366 OA
HETATM   10  C7  UNL     1     -32.390  14.405  -4.570  1.00 20.00     0.061 C 
ENDBRANCH   1   4
TORSDOF 1
ENDMDL
MODEL 2
REMARK VINA RESULT:      -3.7     12.639     14.145
REMARK  1 active torsions:
REMARK  status: ('A' for Active; 'I' for Inactive)
REMARK    1  A    between atoms: C1_1  and  C4_4 
ROOT
HETATM    1  C1  UNL     1     -41.127  12.815   6.169  1.00 20.00    -0.068 C 
HETATM    2  C2  UNL     1     -40.224  12.343   5.534  1.00 20.00    -0.108 C 
HETATM    3  C6  UNL     1     -39.123  11.768   4.763  1.00 20.00     0.112 C 
ENDROOT
BRANCH   1   4
HETATM    4  C4  UNL     1     -42.220  13.387   6.935  1.00 20.00     0.129 C 
HETATM    5  C5  UNL     1     -41.821  14.441   8.034  1.00 20.00     0.016 C 
HETATM    6  C3  UNL     1     -42.638  13.519   8.965  1.00 20.00     0.182 C 
HETATM    7  C8  UNL     1     -42.389  15.851   7.890  1.00 20.00     0.021 C 
HETATM    8  C9  UNL     1     -40.343  14.497   8.439  1.00 20.00     0.021 C 
HETATM    9  O10 UNL     1     -42.617  12.451   7.982  1.00 20.00    -0.366 OA
HETATM   10  C7  UNL     1     -43.416  13.677   6.030  1.00 20.00     0.061 C 
ENDBRANCH   1   4
TORSDOF 1
ENDMDL
MODEL 3
REMARK VINA RESULT:      -3.6     12.367     13.814
REMARK  1 active torsions:
REMARK  status: ('A' for Active; 'I' for Inactive)
REMARK    1  A    between atoms: C1_1  and  C4_4 
ROOT
HETATM    1  C1  UNL     1     -40.618  13.294   5.988  1.00 20.00    -0.068 C 
HETATM    2  C2  UNL     1     -39.980  12.542   5.304  1.00 20.00    -0.108 C 
HETATM    3  C6  UNL     1     -39.204  11.625   4.470  1.00 20.00     0.112 C 
ENDROOT
BRANCH   1   4
HETATM    4  C4  UNL     1     -41.388  14.204   6.817  1.00 20.00     0.129 C 
HETATM    5  C5  UNL     1     -42.608  13.577   7.590  1.00 20.00     0.016 C 
HETATM    6  C3  UNL     1     -43.400  14.713   6.907  1.00 20.00     0.182 C 
HETATM    7  C8  UNL     1     -42.585  13.655   9.114  1.00 20.00     0.021 C 
HETATM    8  C9  UNL     1     -43.083  12.193   7.130  1.00 20.00     0.021 C 
HETATM    9  O10 UNL     1     -42.314  14.957   5.976  1.00 20.00    -0.366 OA
HETATM   10  C7  UNL     1     -40.465  15.174   7.553  1.00 20.00     0.061 C 
ENDBRANCH   1   4
TORSDOF 1
ENDMDL
MODEL 4
REMARK VINA RESULT:      -3.4      1.470      2.644
REMARK  1 active torsions:
REMARK  status: ('A' for Active; 'I' for Inactive)
REMARK    1  A    between atoms: C1_1  and  C4_4 
ROOT
HETATM    1  C1  UNL     1     -34.152  17.141  -3.685  1.00 20.00    -0.068 C 
HETATM    2  C2  UNL     1     -33.529  17.483  -2.717  1.00 20.00    -0.108 C 
HETATM    3  C6  UNL     1     -32.769  17.899  -1.539  1.00 20.00     0.112 C 
ENDROOT
BRANCH   1   4
HETATM    4  C4  UNL     1     -34.906  16.728  -4.855  1.00 20.00     0.129 C 
HETATM    5  C5  UNL     1     -34.781  15.212  -5.262  1.00 20.00     0.016 C 
HETATM    6  C3  UNL     1     -34.396  15.796  -6.639  1.00 20.00     0.182 C 
HETATM    7  C8  UNL     1     -36.061  14.381  -5.268  1.00 20.00     0.021 C 
HETATM    8  C9  UNL     1     -33.628  14.418  -4.636  1.00 20.00     0.021 C 
HETATM    9  O10 UNL     1     -34.176  17.108  -6.060  1.00 20.00    -0.366 OA
HETATM   10  C7  UNL     1     -36.285  17.385  -4.865  1.00 20.00     0.061 C 
ENDBRANCH   1   4
TORSDOF 1
ENDMDL
MODEL 5
REMARK VINA RESULT:      -3.3      1.877      3.806
REMARK  1 active torsions:
REMARK  status: ('A' for Active; 'I' for Inactive)
REMARK    1  A    between atoms: C1_1  and  C4_4 
ROOT
HETATM    1  C1  UNL     1     -36.946  15.717  -5.445  1.00 20.00    -0.068 C 
HETATM    2  C2  UNL     1     -37.973  16.336  -5.475  1.00 20.00    -0.108 C 
HETATM    3  C6  UNL     1     -39.226  17.090  -5.513  1.00 20.00     0.112 C 
ENDROOT
BRANCH   1   4
HETATM    4  C4  UNL     1     -35.702  14.968  -5.407  1.00 20.00     0.129 C 
HETATM    5  C5  UNL     1     -34.393  15.807  -5.156  1.00 20.00     0.016 C 
HETATM    6  C3  UNL     1     -33.908  15.107  -6.444  1.00 20.00     0.182 C 
HETATM    7  C8  UNL     1     -33.575  15.471  -3.912  1.00 20.00     0.021 C 
HETATM    8  C9  UNL     1     -34.498  17.326  -5.336  1.00 20.00     0.021 C 
HETATM    9  O10 UNL     1     -35.260  14.695  -6.771  1.00 20.00    -0.366 OA
HETATM   10  C7  UNL     1     -35.890  13.649  -4.659  1.00 20.00     0.061 C 
ENDBRANCH   1   4
TORSDOF 1
ENDMDL
MODEL 6
REMARK VINA RESULT:      -3.2     24.394     25.715
REMARK  1 active torsions:
REMARK  status: ('A' for Active; 'I' for Inactive)
REMARK    1  A    between atoms: C1_1  and  C4_4 
ROOT
HETATM    1  C1  UNL     1     -23.668  -3.042   9.923  1.00 20.00    -0.068 C 
HETATM    2  C2  UNL     1     -23.273  -3.268   8.812  1.00 20.00    -0.108 C 
HETATM    3  C6  UNL     1     -22.794  -3.545   7.459  1.00 20.00     0.112 C 
ENDROOT
BRANCH   1   4
HETATM    4  C4  UNL     1     -24.144  -2.768  11.267  1.00 20.00     0.129 C 
HETATM    5  C5  UNL     1     -25.696  -2.549  11.423  1.00 20.00     0.016 C 
HETATM    6  C3  UNL     1     -25.264  -1.236  12.111  1.00 20.00     0.182 C 
HETATM    7  C8  UNL     1     -26.451  -3.515  12.332  1.00 20.00     0.021 C 
HETATM    8  C9  UNL     1     -26.492  -2.286  10.139  1.00 20.00     0.021 C 
HETATM    9  O10 UNL     1     -23.918  -1.361  11.582  1.00 20.00    -0.366 OA
HETATM   10  C7  UNL     1     -23.414  -3.642  12.285  1.00 20.00     0.061 C 
ENDBRANCH   1   4
TORSDOF 1
ENDMDL
MODEL 7
REMARK VINA RESULT:      -3.1     12.245     13.909
REMARK  1 active torsions:
REMARK  status: ('A' for Active; 'I' for Inactive)
REMARK    1  A    between atoms: C1_1  and  C4_4 
ROOT
HETATM    1  C1  UNL     1     -40.358  13.623   6.926  1.00 20.00    -0.068 C 
HETATM    2  C2  UNL     1     -39.991  12.734   6.207  1.00 20.00    -0.108 C 
HETATM    3  C6  UNL     1     -39.543  11.652   5.331  1.00 20.00     0.112 C 
ENDROOT
BRANCH   1   4
HETATM    4  C4  UNL     1     -40.803  14.697   7.795  1.00 20.00     0.129 C 
HETATM    5  C5  UNL     1     -42.215  15.314   7.470  1.00 20.00     0.016 C 
HETATM    6  C3  UNL     1     -41.436  16.647   7.463  1.00 20.00     0.182 C 
HETATM    7  C8  UNL     1     -43.286  15.219   8.553  1.00 20.00     0.021 C 
HETATM    8  C9  UNL     1     -42.812  14.994   6.094  1.00 20.00     0.021 C 
HETATM    9  O10 UNL     1     -40.168  15.946   7.385  1.00 20.00    -0.366 OA
HETATM   10  C7  UNL     1     -40.444  14.397   9.249  1.00 20.00     0.061 C 
ENDBRANCH   1   4
TORSDOF 1
ENDMDL
MODEL 8
REMARK VINA RESULT:      -3.1      1.731      2.206
REMARK  1 active torsions:
REMARK  status: ('A' for Active; 'I' for Inactive)
REMARK    1  A    between atoms: C1_1  and  C4_4 
ROOT
HETATM    1  C1  UNL     1     -34.113  16.622  -4.222  1.00 20.00    -0.068 C 
HETATM    2  C2  UNL     1     -33.646  16.904  -3.152  1.00 20.00    -0.108 C 
HETATM    3  C6  UNL     1     -33.080  17.246  -1.848  1.00 20.00     0.112 C 
ENDROOT
BRANCH   1   4
HETATM    4  C4  UNL     1     -34.676  16.283  -5.516  1.00 20.00     0.129 C 
HETATM    5  C5  UNL     1     -34.971  17.489  -6.484  1.00 20.00     0.016 C 
HETATM    6  C3  UNL     1     -36.385  16.870  -6.540  1.00 20.00     0.182 C 
HETATM    7  C8  UNL     1     -34.240  17.507  -7.823  1.00 20.00     0.021 C 
HETATM    8  C9  UNL     1     -34.986  18.890  -5.861  1.00 20.00     0.021 C 
HETATM    9  O10 UNL     1     -36.110  16.051  -5.374  1.00 20.00    -0.366 OA
HETATM   10  C7  UNL     1     -34.010  15.028  -6.079  1.00 20.00     0.061 C 
ENDBRANCH   1   4
TORSDOF 1
ENDMDL
MODEL 9
REMARK VINA RESULT:      -3.1      2.287      4.407
REMARK  1 active torsions:
REMARK  status: ('A' for Active; 'I' for Inactive)
REMARK    1  A    between atoms: C1_1  and  C4_4 
ROOT
HETATM    1  C1  UNL     1     -35.083  17.150  -4.474  1.00 20.00    -0.068 C 
HETATM    2  C2  UNL     1     -36.064  17.027  -5.155  1.00 20.00    -0.108 C 
HETATM    3  C6  UNL     1     -37.258  16.876  -5.986  1.00 20.00     0.112 C 
ENDROOT
BRANCH   1   4
HETATM    4  C4  UNL     1     -33.897  17.300  -3.649  1.00 20.00     0.129 C 
HETATM    5  C5  UNL     1     -34.072  18.136  -2.327  1.00 20.00     0.016 C 
HETATM    6  C3  UNL     1     -32.875  18.937  -2.883  1.00 20.00     0.182 C 
HETATM    7  C8  UNL     1     -33.790  17.423  -1.006  1.00 20.00     0.021 C 
HETATM    8  C9  UNL     1     -35.334  18.999  -2.213  1.00 20.00     0.021 C 
HETATM    9  O10 UNL     1     -33.054  18.356  -4.201  1.00 20.00    -0.366 OA
HETATM   10  C7  UNL     1     -33.108  15.992  -3.599  1.00 20.00     0.061 C 
ENDBRANCH   1   4
TORSDOF 1
ENDMDL
