MODEL 1
REMARK VINA RESULT:      -6.0      0.000      0.000
REMARK  1 active torsions:
REMARK  status: ('A' for Active; 'I' for Inactive)
REMARK    1  A    between atoms: C3_3  and  C7_7 
ROOT
HETATM    1  C1  UNL     1     -33.703   6.970   6.479  1.00 20.00    -0.023 C 
HETATM    2  C2  UNL     1     -33.479   7.607   5.316  1.00 20.00    -0.075 C 
HETATM    3  C4  UNL     1     -34.419   5.658   6.591  1.00 20.00     0.027 C 
HETATM    4  C5  UNL     1     -34.581   4.933   5.257  1.00 20.00     0.005 C 
HETATM    5  C6  UNL     1     -34.965   5.899   4.136  1.00 20.00     0.018 C 
HETATM    6  C7  UNL     1     -33.963   7.054   3.997  1.00 20.00     0.100 C 
HETATM    7  C8  UNL     1     -32.775   8.936   5.278  1.00 20.00     0.044 C 
ENDROOT
BRANCH   6   8
HETATM    8  C3  UNL     1     -32.757   6.600   3.226  1.00 20.00     0.227 C 
HETATM    9  O9  UNL     1     -31.761   7.309   3.109  1.00 20.00    -0.279 OA
HETATM   10 CL10 UNL     1     -32.966   5.009   2.561  1.00 20.00    -0.043 Cl
ENDBRANCH   6   8
TORSDOF 1
ENDMDL
MODEL 2
REMARK VINA RESULT:      -5.5      1.295      1.440
REMARK  1 active torsions:
REMARK  status: ('A' for Active; 'I' for Inactive)
REMARK    1  A    between atoms: C3_3  and  C7_7 
ROOT
HETATM    1  C1  UNL     1     -33.368   7.662   5.770  1.00 20.00    -0.023 C 
HETATM    2  C2  UNL     1     -33.382   7.444   4.442  1.00 20.00    -0.075 C 
HETATM    3  C4  UNL     1     -34.189   6.887   6.755  1.00 20.00     0.027 C 
HETATM    4  C5  UNL     1     -34.792   5.608   6.177  1.00 20.00     0.005 C 
HETATM    5  C6  UNL     1     -35.334   5.831   4.766  1.00 20.00     0.018 C 
HETATM    6  C7  UNL     1     -34.267   6.393   3.816  1.00 20.00     0.100 C 
HETATM    7  C8  UNL     1     -32.551   8.278   3.506  1.00 20.00     0.044 C 
ENDROOT
BRANCH   6   8
HETATM    8  C3  UNL     1     -33.377   5.286   3.327  1.00 20.00     0.227 C 
HETATM    9  O9  UNL     1     -32.560   5.464   2.428  1.00 20.00    -0.279 OA
HETATM   10 CL10 UNL     1     -33.660   3.797   4.174  1.00 20.00    -0.043 Cl
ENDBRANCH   6   8
TORSDOF 1
ENDMDL
MODEL 3
REMARK VINA RESULT:      -5.5      2.166      3.473
REMARK  1 active torsions:
REMARK  status: ('A' for Active; 'I' for Inactive)
REMARK    1  A    between atoms: C3_3  and  C7_7 
ROOT
HETATM    1  C1  UNL     1     -32.174   7.188   3.381  1.00 20.00    -0.023 C 
HETATM    2  C2  UNL     1     -33.105   6.229   3.228  1.00 20.00    -0.075 C 
HETATM    3  C4  UNL     1     -32.279   8.307   4.372  1.00 20.00     0.027 C 
HETATM    4  C5  UNL     1     -33.362   8.091   5.427  1.00 20.00     0.005 C 
HETATM    5  C6  UNL     1     -34.638   7.517   4.812  1.00 20.00     0.018 C 
HETATM    6  C7  UNL     1     -34.376   6.215   4.043  1.00 20.00     0.100 C 
HETATM    7  C8  UNL     1     -32.948   5.148   2.194  1.00 20.00     0.044 C 
ENDROOT
BRANCH   6   8
HETATM    8  C3  UNL     1     -34.288   5.060   4.998  1.00 20.00     0.227 C 
HETATM    9  O9  UNL     1     -34.026   3.923   4.615  1.00 20.00    -0.279 OA
HETATM   10 CL10 UNL     1     -34.595   5.543   6.638  1.00 20.00    -0.043 Cl
ENDBRANCH   6   8
TORSDOF 1
ENDMDL
MODEL 4
REMARK VINA RESULT:      -4.6      2.184      3.505
REMARK  1 active torsions:
REMARK  status: ('A' for Active; 'I' for Inactive)
REMARK    1  A    between atoms: C3_3  and  C7_7 
ROOT
HETATM    1  C1  UNL     1     -33.714   4.901   3.677  1.00 20.00    -0.023 C 
HETATM    2  C2  UNL     1     -34.270   5.782   4.528  1.00 20.00    -0.075 C 
HETATM    3  C4  UNL     1     -32.790   5.283   2.560  1.00 20.00     0.027 C 
HETATM    4  C5  UNL     1     -32.262   6.712   2.664  1.00 20.00     0.005 C 
HETATM    5  C6  UNL     1     -33.359   7.686   3.092  1.00 20.00     0.018 C 
HETATM    6  C7  UNL     1     -34.026   7.268   4.409  1.00 20.00     0.100 C 
HETATM    7  C8  UNL     1     -35.211   5.332   5.612  1.00 20.00     0.044 C 
ENDROOT
BRANCH   6   8
HETATM    8  C3  UNL     1     -33.173   7.680   5.574  1.00 20.00     0.227 C 
HETATM    9  O9  UNL     1     -33.163   7.046   6.625  1.00 20.00    -0.279 OA
HETATM   10 CL10 UNL     1     -32.249   9.112   5.233  1.00 20.00    -0.043 Cl
ENDBRANCH   6   8
TORSDOF 1
ENDMDL
MODEL 5
REMARK VINA RESULT:      -4.4      1.769      3.011
REMARK  1 active torsions:
REMARK  status: ('A' for Active; 'I' for Inactive)
REMARK    1  A    between atoms: C3_3  and  C7_7 
ROOT
HETATM    1  C1  UNL     1     -33.986   6.209   4.468  1.00 20.00    -0.023 C 
HETATM    2  C2  UNL     1     -33.070   6.375   3.496  1.00 20.00    -0.075 C 
HETATM    3  C4  UNL     1     -34.192   7.170   5.599  1.00 20.00     0.027 C 
HETATM    4  C5  UNL     1     -33.514   8.522   5.385  1.00 20.00     0.005 C 
HETATM    5  C6  UNL     1     -32.116   8.360   4.788  1.00 20.00     0.018 C 
HETATM    6  C7  UNL     1     -32.133   7.559   3.479  1.00 20.00     0.100 C 
HETATM    7  C8  UNL     1     -32.899   5.356   2.403  1.00 20.00     0.044 C 
ENDROOT
BRANCH   6   8
HETATM    8  C3  UNL     1     -32.545   8.445   2.338  1.00 20.00     0.227 C 
HETATM    9  O9  UNL     1     -33.274   9.418   2.505  1.00 20.00    -0.279 OA
HETATM   10 CL10 UNL     1     -31.871   7.918   0.826  1.00 20.00    -0.043 Cl
ENDBRANCH   6   8
TORSDOF 1
ENDMDL
MODEL 6
REMARK VINA RESULT:      -4.3      2.032      2.894
REMARK  1 active torsions:
REMARK  status: ('A' for Active; 'I' for Inactive)
REMARK    1  A    between atoms: C3_3  and  C7_7 
ROOT
HETATM    1  C1  UNL     1     -34.446   4.989   4.510  1.00 20.00    -0.023 C 
HETATM    2  C2  UNL     1     -33.506   5.828   4.039  1.00 20.00    -0.075 C 
HETATM    3  C4  UNL     1     -35.038   5.080   5.884  1.00 20.00     0.027 C 
HETATM    4  C5  UNL     1     -34.738   6.399   6.593  1.00 20.00     0.005 C 
HETATM    5  C6  UNL     1     -33.291   6.838   6.374  1.00 20.00     0.018 C 
HETATM    6  C7  UNL     1     -32.936   6.942   4.884  1.00 20.00     0.100 C 
HETATM    7  C8  UNL     1     -32.936   5.664   2.656  1.00 20.00     0.044 C 
ENDROOT
BRANCH   6   8
HETATM    8  C3  UNL     1     -33.441   8.240   4.322  1.00 20.00     0.227 C 
HETATM    9  O9  UNL     1     -34.619   8.396   4.014  1.00 20.00    -0.279 OA
HETATM   10 CL10 UNL     1     -32.180   9.426   4.181  1.00 20.00    -0.043 Cl
ENDBRANCH   6   8
TORSDOF 1
ENDMDL
MODEL 7
REMARK VINA RESULT:      -4.3     12.871     13.804
REMARK  1 active torsions:
REMARK  status: ('A' for Active; 'I' for Inactive)
REMARK    1  A    between atoms: C3_3  and  C7_7 
ROOT
HETATM    1  C1  UNL     1     -34.331  17.015  -4.334  1.00 20.00    -0.023 C 
HETATM    2  C2  UNL     1     -35.396  16.668  -5.079  1.00 20.00    -0.075 C 
HETATM    3  C4  UNL     1     -33.354  16.033  -3.761  1.00 20.00     0.027 C 
HETATM    4  C5  UNL     1     -33.468  14.634  -4.363  1.00 20.00     0.005 C 
HETATM    5  C6  UNL     1     -34.926  14.217  -4.543  1.00 20.00     0.018 C 
HETATM    6  C7  UNL     1     -35.719  15.225  -5.386  1.00 20.00     0.100 C 
HETATM    7  C8  UNL     1     -36.352  17.705  -5.603  1.00 20.00     0.044 C 
ENDROOT
BRANCH   6   8
HETATM    8  C3  UNL     1     -35.450  15.002  -6.846  1.00 20.00     0.227 C 
HETATM    9  O9  UNL     1     -36.150  14.257  -7.526  1.00 20.00    -0.279 OA
HETATM   10 CL10 UNL     1     -34.075  15.906  -7.404  1.00 20.00    -0.043 Cl
ENDBRANCH   6   8
TORSDOF 1
ENDMDL
MODEL 8
REMARK VINA RESULT:      -4.0     12.874     14.078
REMARK  1 active torsions:
REMARK  status: ('A' for Active; 'I' for Inactive)
REMARK    1  A    between atoms: C3_3  and  C7_7 
ROOT
HETATM    1  C1  UNL     1     -33.538  16.745  -1.792  1.00 20.00    -0.023 C 
HETATM    2  C2  UNL     1     -33.411  16.743  -3.131  1.00 20.00    -0.075 C 
HETATM    3  C4  UNL     1     -33.584  17.988  -0.956  1.00 20.00     0.027 C 
HETATM    4  C5  UNL     1     -33.811  19.263  -1.766  1.00 20.00     0.005 C 
HETATM    5  C6  UNL     1     -32.993  19.261  -3.057  1.00 20.00     0.018 C 
HETATM    6  C7  UNL     1     -33.274  18.023  -3.920  1.00 20.00     0.100 C 
HETATM    7  C8  UNL     1     -33.346  15.456  -3.906  1.00 20.00     0.044 C 
ENDROOT
BRANCH   6   8
HETATM    8  C3  UNL     1     -34.545  18.214  -4.697  1.00 20.00     0.227 C 
HETATM    9  O9  UNL     1     -35.645  17.985  -4.203  1.00 20.00    -0.279 OA
HETATM   10 CL10 UNL     1     -34.245  18.775  -6.314  1.00 20.00    -0.043 Cl
ENDBRANCH   6   8
TORSDOF 1
ENDMDL
MODEL 9
REMARK VINA RESULT:      -3.9     13.328     14.406
REMARK  1 active torsions:
REMARK  status: ('A' for Active; 'I' for Inactive)
REMARK    1  A    between atoms: C3_3  and  C7_7 
ROOT
HETATM    1  C1  UNL     1     -34.157  16.878  -4.244  1.00 20.00    -0.023 C 
HETATM    2  C2  UNL     1     -34.206  15.697  -4.887  1.00 20.00    -0.075 C 
HETATM    3  C4  UNL     1     -34.382  18.203  -4.906  1.00 20.00     0.027 C 
HETATM    4  C5  UNL     1     -35.000  18.094  -6.299  1.00 20.00     0.005 C 
HETATM    5  C6  UNL     1     -34.377  16.954  -7.102  1.00 20.00     0.018 C 
HETATM    6  C7  UNL     1     -34.471  15.608  -6.371  1.00 20.00     0.100 C 
HETATM    7  C8  UNL     1     -33.944  14.404  -4.164  1.00 20.00     0.044 C 
ENDROOT
BRANCH   6   8
HETATM    8  C3  UNL     1     -35.840  15.018  -6.551  1.00 20.00     0.227 C 
HETATM    9  O9  UNL     1     -36.081  14.201  -7.434  1.00 20.00    -0.279 OA
HETATM   10 CL10 UNL     1     -36.974  15.630  -5.385  1.00 20.00    -0.043 Cl
ENDBRANCH   6   8
TORSDOF 1
ENDMDL
