MODEL 1
REMARK VINA RESULT:      -3.9      0.000      0.000
REMARK  1 active torsions:
REMARK  status: ('A' for Active; 'I' for Inactive)
REMARK    1  A    between atoms: C5_5  and  C6_6 
ROOT
HETATM    1  C1  UNL     1     -33.325  16.558  -2.750  1.00 20.00    -0.003 A 
HETATM    2  C2  UNL     1     -33.920  17.848  -3.024  1.00 20.00    -0.003 A 
HETATM    3  C3  UNL     1     -33.734  15.699  -3.700  1.00 20.00    -0.012 A 
HETATM    4  C4  UNL     1     -34.673  17.733  -4.133  1.00 20.00    -0.012 A 
HETATM    5  C6  UNL     1     -34.595  16.096  -6.146  1.00 20.00     0.073 A 
HETATM    6  C7  UNL     1     -34.634  16.357  -4.668  1.00 20.00     0.013 A 
HETATM    7  C8  UNL     1     -35.813  15.676  -5.324  1.00 20.00    -0.021 A 
HETATM    8  C9  UNL     1     -37.092  16.452  -5.545  1.00 20.00     0.017 C 
HETATM    9  C10 UNL     1     -36.067  14.210  -5.054  1.00 20.00     0.017 C 
ENDROOT
BRANCH   5  10
HETATM   10  C5  UNL     1     -33.691  15.089  -6.721  1.00 20.00     0.237 C 
HETATM   11  O11 UNL     1     -33.426  15.022  -7.916  1.00 20.00    -0.306 OA
ENDBRANCH   5  10
TORSDOF 1
ENDMDL
MODEL 2
REMARK VINA RESULT:      -3.8      2.623      3.900
REMARK  1 active torsions:
REMARK  status: ('A' for Active; 'I' for Inactive)
REMARK    1  A    between atoms: C5_5  and  C6_6 
ROOT
HETATM    1  C1  UNL     1     -33.519  18.129   0.328  1.00 20.00    -0.003 A 
HETATM    2  C2  UNL     1     -32.237  18.723   0.017  1.00 20.00    -0.003 A 
HETATM    3  C3  UNL     1     -34.048  17.656  -0.815  1.00 20.00    -0.012 A 
HETATM    4  C4  UNL     1     -32.025  18.592  -1.305  1.00 20.00    -0.012 A 
HETATM    5  C6  UNL     1     -32.930  16.919  -3.071  1.00 20.00     0.073 A 
HETATM    6  C7  UNL     1     -33.156  17.908  -1.964  1.00 20.00     0.013 A 
HETATM    7  C8  UNL     1     -33.644  18.240  -3.356  1.00 20.00    -0.021 A 
HETATM    8  C9  UNL     1     -32.894  19.262  -4.183  1.00 20.00     0.017 C 
HETATM    9  C10 UNL     1     -35.129  18.246  -3.639  1.00 20.00     0.017 C 
ENDROOT
BRANCH   5  10
HETATM   10  C5  UNL     1     -33.662  15.644  -3.116  1.00 20.00     0.237 C 
HETATM   11  O11 UNL     1     -33.665  14.901  -4.092  1.00 20.00    -0.306 OA
ENDBRANCH   5  10
TORSDOF 1
ENDMDL
MODEL 3
REMARK VINA RESULT:      -3.8     12.951     13.718
REMARK  1 active torsions:
REMARK  status: ('A' for Active; 'I' for Inactive)
REMARK    1  A    between atoms: C5_5  and  C6_6 
ROOT
HETATM    1  C1  UNL     1     -38.789  12.214   6.350  1.00 20.00    -0.003 A 
HETATM    2  C2  UNL     1     -39.152  11.861   4.994  1.00 20.00    -0.003 A 
HETATM    3  C3  UNL     1     -39.809  12.907   6.888  1.00 20.00    -0.012 A 
HETATM    4  C4  UNL     1     -40.382  12.349   4.750  1.00 20.00    -0.012 A 
HETATM    5  C6  UNL     1     -42.366  12.967   6.306  1.00 20.00     0.073 A 
HETATM    6  C7  UNL     1     -40.916  13.067   5.925  1.00 20.00     0.013 A 
HETATM    7  C8  UNL     1     -41.786  14.300   5.834  1.00 20.00    -0.021 A 
HETATM    8  C9  UNL     1     -42.227  14.800   4.476  1.00 20.00     0.017 C 
HETATM    9  C10 UNL     1     -41.584  15.424   6.825  1.00 20.00     0.017 C 
ENDROOT
BRANCH   5  10
HETATM   10  C5  UNL     1     -42.777  12.779   7.705  1.00 20.00     0.237 C 
HETATM   11  O11 UNL     1     -43.275  11.742   8.129  1.00 20.00    -0.306 OA
ENDBRANCH   5  10
TORSDOF 1
ENDMDL
MODEL 4
REMARK VINA RESULT:      -3.8     13.077     13.695
REMARK  1 active torsions:
REMARK  status: ('A' for Active; 'I' for Inactive)
REMARK    1  A    between atoms: C5_5  and  C6_6 
ROOT
HETATM    1  C1  UNL     1     -40.275  15.155   8.987  1.00 20.00    -0.003 A 
HETATM    2  C2  UNL     1     -40.593  16.259   8.107  1.00 20.00    -0.003 A 
HETATM    3  C3  UNL     1     -40.588  14.011   8.352  1.00 20.00    -0.012 A 
HETATM    4  C4  UNL     1     -41.089  15.752   6.964  1.00 20.00    -0.012 A 
HETATM    5  C6  UNL     1     -40.815  13.448   5.800  1.00 20.00     0.073 A 
HETATM    6  C7  UNL     1     -41.141  14.277   7.009  1.00 20.00     0.013 A 
HETATM    7  C8  UNL     1     -42.234  13.453   6.367  1.00 20.00    -0.021 A 
HETATM    8  C9  UNL     1     -43.300  14.144   5.546  1.00 20.00     0.017 C 
HETATM    9  C10 UNL     1     -42.760  12.231   7.085  1.00 20.00     0.017 C 
ENDROOT
BRANCH   5  10
HETATM   10  C5  UNL     1     -39.969  12.250   5.901  1.00 20.00     0.237 C 
HETATM   11  O11 UNL     1     -38.812  12.203   5.495  1.00 20.00    -0.306 OA
ENDBRANCH   5  10
TORSDOF 1
ENDMDL
MODEL 5
REMARK VINA RESULT:      -3.8      1.761      2.950
REMARK  1 active torsions:
REMARK  status: ('A' for Active; 'I' for Inactive)
REMARK    1  A    between atoms: C5_5  and  C6_6 
ROOT
HETATM    1  C1  UNL     1     -34.001  17.508  -2.986  1.00 20.00    -0.003 A 
HETATM    2  C2  UNL     1     -33.314  16.235  -2.954  1.00 20.00    -0.003 A 
HETATM    3  C3  UNL     1     -34.773  17.537  -4.088  1.00 20.00    -0.012 A 
HETATM    4  C4  UNL     1     -33.690  15.530  -4.037  1.00 20.00    -0.012 A 
HETATM    5  C6  UNL     1     -35.806  15.610  -5.537  1.00 20.00     0.073 A 
HETATM    6  C7  UNL     1     -34.647  16.289  -4.866  1.00 20.00     0.013 A 
HETATM    7  C8  UNL     1     -34.687  16.227  -6.375  1.00 20.00    -0.021 A 
HETATM    8  C9  UNL     1     -33.768  15.271  -7.105  1.00 20.00     0.017 C 
HETATM    9  C10 UNL     1     -34.948  17.491  -7.163  1.00 20.00     0.017 C 
ENDROOT
BRANCH   5  10
HETATM   10  C5  UNL     1     -37.151  16.204  -5.524  1.00 20.00     0.237 C 
HETATM   11  O11 UNL     1     -38.159  15.588  -5.196  1.00 20.00    -0.306 OA
ENDBRANCH   5  10
TORSDOF 1
ENDMDL
MODEL 6
REMARK VINA RESULT:      -3.7      1.894      3.843
REMARK  1 active torsions:
REMARK  status: ('A' for Active; 'I' for Inactive)
REMARK    1  A    between atoms: C5_5  and  C6_6 
ROOT
HETATM    1  C1  UNL     1     -34.948  15.325  -5.259  1.00 20.00    -0.003 A 
HETATM    2  C2  UNL     1     -33.864  14.665  -4.565  1.00 20.00    -0.003 A 
HETATM    3  C3  UNL     1     -34.998  16.601  -4.838  1.00 20.00    -0.012 A 
HETATM    4  C4  UNL     1     -33.288  15.561  -3.743  1.00 20.00    -0.012 A 
HETATM    5  C6  UNL     1     -33.168  18.153  -3.779  1.00 20.00     0.073 A 
HETATM    6  C7  UNL     1     -33.955  16.875  -3.830  1.00 20.00     0.013 A 
HETATM    7  C8  UNL     1     -34.140  17.805  -2.653  1.00 20.00    -0.021 A 
HETATM    8  C9  UNL     1     -33.539  17.438  -1.314  1.00 20.00     0.017 C 
HETATM    9  C10 UNL     1     -35.434  18.575  -2.512  1.00 20.00     0.017 C 
ENDROOT
BRANCH   5  10
HETATM   10  C5  UNL     1     -33.451  19.263  -4.701  1.00 20.00     0.237 C 
HETATM   11  O11 UNL     1     -33.118  19.263  -5.881  1.00 20.00    -0.306 OA
ENDBRANCH   5  10
TORSDOF 1
ENDMDL
MODEL 7
REMARK VINA RESULT:      -3.6      1.171      1.590
REMARK  1 active torsions:
REMARK  status: ('A' for Active; 'I' for Inactive)
REMARK    1  A    between atoms: C5_5  and  C6_6 
ROOT
HETATM    1  C1  UNL     1     -33.820  14.773  -3.716  1.00 20.00    -0.003 A 
HETATM    2  C2  UNL     1     -33.356  16.074  -3.284  1.00 20.00    -0.003 A 
HETATM    3  C3  UNL     1     -34.557  14.942  -4.829  1.00 20.00    -0.012 A 
HETATM    4  C4  UNL     1     -33.824  16.993  -4.148  1.00 20.00    -0.012 A 
HETATM    5  C6  UNL     1     -34.572  16.850  -6.629  1.00 20.00     0.073 A 
HETATM    6  C7  UNL     1     -34.638  16.366  -5.208  1.00 20.00     0.013 A 
HETATM    7  C8  UNL     1     -35.861  17.010  -5.822  1.00 20.00    -0.021 A 
HETATM    8  C9  UNL     1     -36.246  18.414  -5.412  1.00 20.00     0.017 C 
HETATM    9  C10 UNL     1     -37.063  16.154  -6.150  1.00 20.00     0.017 C 
ENDROOT
BRANCH   5  10
HETATM   10  C5  UNL     1     -34.502  15.908  -7.755  1.00 20.00     0.237 C 
HETATM   11  O11 UNL     1     -33.580  15.115  -7.916  1.00 20.00    -0.306 OA
ENDBRANCH   5  10
TORSDOF 1
ENDMDL
MODEL 8
REMARK VINA RESULT:      -3.5      1.892      3.362
REMARK  1 active torsions:
REMARK  status: ('A' for Active; 'I' for Inactive)
REMARK    1  A    between atoms: C5_5  and  C6_6 
ROOT
HETATM    1  C1  UNL     1     -34.363  16.992  -7.626  1.00 20.00    -0.003 A 
HETATM    2  C2  UNL     1     -34.785  18.085  -6.777  1.00 20.00    -0.003 A 
HETATM    3  C3  UNL     1     -34.218  15.897  -6.857  1.00 20.00    -0.012 A 
HETATM    4  C4  UNL     1     -34.884  17.621  -5.517  1.00 20.00    -0.012 A 
HETATM    5  C6  UNL     1     -35.276  15.246  -4.547  1.00 20.00     0.073 A 
HETATM    6  C7  UNL     1     -34.527  16.190  -5.444  1.00 20.00     0.013 A 
HETATM    7  C8  UNL     1     -33.806  15.562  -4.273  1.00 20.00    -0.021 A 
HETATM    8  C9  UNL     1     -33.498  16.401  -3.052  1.00 20.00     0.017 C 
HETATM    9  C10 UNL     1     -32.750  14.510  -4.530  1.00 20.00     0.017 C 
ENDROOT
BRANCH   5  10
HETATM   10  C5  UNL     1     -35.684  13.913  -5.012  1.00 20.00     0.237 C 
HETATM   11  O11 UNL     1     -35.942  12.982  -4.256  1.00 20.00    -0.306 OA
ENDBRANCH   5  10
TORSDOF 1
ENDMDL
MODEL 9
REMARK VINA RESULT:      -3.4     13.261     13.912
REMARK  1 active torsions:
REMARK  status: ('A' for Active; 'I' for Inactive)
REMARK    1  A    between atoms: C5_5  and  C6_6 
ROOT
HETATM    1  C1  UNL     1     -40.492  15.820   8.286  1.00 20.00    -0.003 A 
HETATM    2  C2  UNL     1     -41.782  15.731   8.936  1.00 20.00    -0.003 A 
HETATM    3  C3  UNL     1     -40.511  15.013   7.209  1.00 20.00    -0.012 A 
HETATM    4  C4  UNL     1     -42.546  14.874   8.233  1.00 20.00    -0.012 A 
HETATM    5  C6  UNL     1     -42.496  14.104   5.755  1.00 20.00     0.073 A 
HETATM    6  C7  UNL     1     -41.812  14.329   7.073  1.00 20.00     0.013 A 
HETATM    7  C8  UNL     1     -41.974  12.916   6.563  1.00 20.00    -0.021 A 
HETATM    8  C9  UNL     1     -43.006  12.010   7.198  1.00 20.00     0.017 C 
HETATM    9  C10 UNL     1     -40.758  12.156   6.083  1.00 20.00     0.017 C 
ENDROOT
BRANCH   5  10
HETATM   10  C5  UNL     1     -41.859  14.489   4.488  1.00 20.00     0.237 C 
HETATM   11  O11 UNL     1     -42.405  14.379   3.395  1.00 20.00    -0.306 OA
ENDBRANCH   5  10
TORSDOF 1
ENDMDL
