MODEL 1
REMARK VINA RESULT:      -4.2      0.000      0.000
REMARK  1 active torsions:
REMARK  status: ('A' for Active; 'I' for Inactive)
REMARK    1  A    between atoms: C1_1  and  C9_9 
ROOT
HETATM    1  C2  UNL     1     -42.410  14.743   4.710  1.00 20.00     0.031 C 
HETATM    2  C3  UNL     1     -43.359  13.059   7.180  1.00 20.00     0.031 C 
HETATM    3  C4  UNL     1     -41.351  13.639   4.723  1.00 20.00     0.022 C 
HETATM    4  C5  UNL     1     -42.130  12.256   6.753  1.00 20.00     0.022 C 
HETATM    5  C6  UNL     1     -42.262  15.735   5.867  1.00 20.00     0.272 C 
HETATM    6  C7  UNL     1     -43.011  14.411   7.810  1.00 20.00     0.272 C 
HETATM    7  C8  UNL     1     -40.726  14.310   7.055  1.00 20.00     0.290 C 
HETATM    8  C9  UNL     1     -41.012  13.118   6.133  1.00 20.00     0.062 C 
HETATM    9  N10 UNL     1     -41.917  15.156   7.172  1.00 20.00     0.089 N 
ENDROOT
BRANCH   8  10
HETATM   10  C1  UNL     1     -39.777  12.260   6.037  1.00 20.00     0.229 C 
HETATM   11  O11 UNL     1     -39.107  11.980   7.027  1.00 20.00    -0.279 OA
HETATM   12 CL12 UNL     1     -39.457  11.754   4.406  1.00 20.00    -0.043 Cl
ENDBRANCH   8  10
TORSDOF 1
ENDMDL
MODEL 2
REMARK VINA RESULT:      -3.9     12.034     12.839
REMARK  1 active torsions:
REMARK  status: ('A' for Active; 'I' for Inactive)
REMARK    1  A    between atoms: C1_1  and  C9_9 
ROOT
HETATM    1  C2  UNL     1     -33.940  16.323  -3.212  1.00 20.00     0.031 C 
HETATM    2  C3  UNL     1     -35.575  18.877  -2.412  1.00 20.00     0.031 C 
HETATM    3  C4  UNL     1     -33.188  16.756  -1.953  1.00 20.00     0.022 C 
HETATM    4  C5  UNL     1     -34.529  18.856  -1.296  1.00 20.00     0.022 C 
HETATM    5  C6  UNL     1     -33.708  17.255  -4.405  1.00 20.00     0.272 C 
HETATM    6  C7  UNL     1     -34.996  19.263  -3.777  1.00 20.00     0.272 C 
HETATM    7  C8  UNL     1     -32.725  18.970  -3.031  1.00 20.00     0.290 C 
HETATM    8  C9  UNL     1     -33.167  18.282  -1.734  1.00 20.00     0.062 C 
HETATM    9  N10 UNL     1     -33.682  18.692  -4.104  1.00 20.00     0.089 N 
ENDROOT
BRANCH   8  10
HETATM   10  C1  UNL     1     -32.172  18.590  -0.645  1.00 20.00     0.229 C 
HETATM   11  O11 UNL     1     -30.990  18.807  -0.894  1.00 20.00    -0.279 OA
HETATM   12 CL12 UNL     1     -32.906  18.596   0.930  1.00 20.00    -0.043 Cl
ENDBRANCH   8  10
TORSDOF 1
ENDMDL
MODEL 3
REMARK VINA RESULT:      -3.8      1.253      1.268
REMARK  1 active torsions:
REMARK  status: ('A' for Active; 'I' for Inactive)
REMARK    1  A    between atoms: C1_1  and  C9_9 
ROOT
HETATM    1  C2  UNL     1     -42.912  15.244   5.480  1.00 20.00     0.031 C 
HETATM    2  C3  UNL     1     -43.090  12.996   7.658  1.00 20.00     0.031 C 
HETATM    3  C4  UNL     1     -41.966  14.200   4.885  1.00 20.00     0.022 C 
HETATM    4  C5  UNL     1     -42.111  12.352   6.675  1.00 20.00     0.022 C 
HETATM    5  C6  UNL     1     -42.341  15.937   6.721  1.00 20.00     0.272 C 
HETATM    6  C7  UNL     1     -42.484  14.168   8.435  1.00 20.00     0.272 C 
HETATM    7  C8  UNL     1     -40.580  14.314   6.969  1.00 20.00     0.290 C 
HETATM    8  C9  UNL     1     -41.213  13.367   5.941  1.00 20.00     0.062 C 
HETATM    9  N10 UNL     1     -41.621  15.073   7.665  1.00 20.00     0.089 N 
ENDROOT
BRANCH   8  10
HETATM   10  C1  UNL     1     -40.124  12.592   5.245  1.00 20.00     0.229 C 
HETATM   11  O11 UNL     1     -40.065  12.519   4.021  1.00 20.00    -0.279 OA
HETATM   12 CL12 UNL     1     -39.023  11.858   6.371  1.00 20.00    -0.043 Cl
ENDBRANCH   8  10
TORSDOF 1
ENDMDL
MODEL 4
REMARK VINA RESULT:      -3.8     13.062     14.049
REMARK  1 active torsions:
REMARK  status: ('A' for Active; 'I' for Inactive)
REMARK    1  A    between atoms: C1_1  and  C9_9 
ROOT
HETATM    1  C2  UNL     1     -35.413  18.087  -6.057  1.00 20.00     0.031 C 
HETATM    2  C3  UNL     1     -34.567  15.708  -7.917  1.00 20.00     0.031 C 
HETATM    3  C4  UNL     1     -34.525  17.285  -5.104  1.00 20.00     0.022 C 
HETATM    4  C5  UNL     1     -33.831  15.329  -6.631  1.00 20.00     0.022 C 
HETATM    5  C6  UNL     1     -36.751  17.404  -6.354  1.00 20.00     0.272 C 
HETATM    6  C7  UNL     1     -36.086  15.534  -7.819  1.00 20.00     0.272 C 
HETATM    7  C8  UNL     1     -36.026  15.304  -5.423  1.00 20.00     0.290 C 
HETATM    8  C9  UNL     1     -34.565  15.763  -5.347  1.00 20.00     0.062 C 
HETATM    9  N10 UNL     1     -36.701  15.950  -6.552  1.00 20.00     0.089 N 
ENDROOT
BRANCH   8  10
HETATM   10  C1  UNL     1     -33.892  15.080  -4.185  1.00 20.00     0.229 C 
HETATM   11  O11 UNL     1     -33.689  13.869  -4.177  1.00 20.00    -0.279 OA
HETATM   12 CL12 UNL     1     -33.465  16.198  -2.925  1.00 20.00    -0.043 Cl
ENDBRANCH   8  10
TORSDOF 1
ENDMDL
MODEL 5
REMARK VINA RESULT:      -3.8      0.982      2.155
REMARK  1 active torsions:
REMARK  status: ('A' for Active; 'I' for Inactive)
REMARK    1  A    between atoms: C1_1  and  C9_9 
ROOT
HETATM    1  C2  UNL     1     -41.436  15.162   7.507  1.00 20.00     0.031 C 
HETATM    2  C3  UNL     1     -42.238  14.460   4.558  1.00 20.00     0.031 C 
HETATM    3  C4  UNL     1     -40.303  14.206   7.126  1.00 20.00     0.022 C 
HETATM    4  C5  UNL     1     -40.963  13.628   4.703  1.00 20.00     0.022 C 
HETATM    5  C6  UNL     1     -42.784  14.458   7.687  1.00 20.00     0.272 C 
HETATM    6  C7  UNL     1     -43.416  13.909   5.366  1.00 20.00     0.272 C 
HETATM    7  C8  UNL     1     -42.006  12.432   6.643  1.00 20.00     0.290 C 
HETATM    8  C9  UNL     1     -40.725  13.105   6.134  1.00 20.00     0.062 C 
HETATM    9  N10 UNL     1     -43.097  13.408   6.710  1.00 20.00     0.089 N 
ENDROOT
BRANCH   8  10
HETATM   10  C1  UNL     1     -39.622  12.080   6.066  1.00 20.00     0.229 C 
HETATM   11  O11 UNL     1     -38.878  11.869   7.019  1.00 20.00    -0.279 OA
HETATM   12 CL12 UNL     1     -39.563  11.284   4.522  1.00 20.00    -0.043 Cl
ENDBRANCH   8  10
TORSDOF 1
ENDMDL
MODEL 6
REMARK VINA RESULT:      -3.8     13.046     14.096
REMARK  1 active torsions:
REMARK  status: ('A' for Active; 'I' for Inactive)
REMARK    1  A    between atoms: C1_1  and  C9_9 
ROOT
HETATM    1  C2  UNL     1     -34.190  15.994  -7.918  1.00 20.00     0.031 C 
HETATM    2  C3  UNL     1     -36.961  16.333  -6.489  1.00 20.00     0.031 C 
HETATM    3  C4  UNL     1     -33.953  15.178  -6.646  1.00 20.00     0.022 C 
HETATM    4  C5  UNL     1     -36.229  15.458  -5.470  1.00 20.00     0.022 C 
HETATM    5  C6  UNL     1     -34.251  17.503  -7.665  1.00 20.00     0.272 C 
HETATM    6  C7  UNL     1     -36.433  17.770  -6.543  1.00 20.00     0.272 C 
HETATM    7  C8  UNL     1     -34.456  17.219  -5.282  1.00 20.00     0.290 C 
HETATM    8  C9  UNL     1     -34.709  15.712  -5.414  1.00 20.00     0.062 C 
HETATM    9  N10 UNL     1     -34.974  17.923  -6.457  1.00 20.00     0.089 N 
ENDROOT
BRANCH   8  10
HETATM   10  C1  UNL     1     -34.176  15.012  -4.190  1.00 20.00     0.229 C 
HETATM   11  O11 UNL     1     -34.293  13.799  -4.038  1.00 20.00    -0.279 OA
HETATM   12 CL12 UNL     1     -33.413  16.115  -3.086  1.00 20.00    -0.043 Cl
ENDBRANCH   8  10
TORSDOF 1
ENDMDL
MODEL 7
REMARK VINA RESULT:      -3.7     11.909     12.895
REMARK  1 active torsions:
REMARK  status: ('A' for Active; 'I' for Inactive)
REMARK    1  A    between atoms: C1_1  and  C9_9 
ROOT
HETATM    1  C2  UNL     1     -32.919  19.262  -4.335  1.00 20.00     0.031 C 
HETATM    2  C3  UNL     1     -33.678  16.242  -3.961  1.00 20.00     0.031 C 
HETATM    3  C4  UNL     1     -32.579  19.067  -2.857  1.00 20.00     0.022 C 
HETATM    4  C5  UNL     1     -33.204  16.586  -2.548  1.00 20.00     0.022 C 
HETATM    5  C6  UNL     1     -34.425  19.260  -4.614  1.00 20.00     0.272 C 
HETATM    6  C7  UNL     1     -35.021  16.884  -4.322  1.00 20.00     0.272 C 
HETATM    7  C8  UNL     1     -34.951  18.378  -2.435  1.00 20.00     0.290 C 
HETATM    8  C9  UNL     1     -33.483  18.046  -2.139  1.00 20.00     0.062 C 
HETATM    9  N10 UNL     1     -35.215  18.268  -3.872  1.00 20.00     0.089 N 
ENDROOT
BRANCH   8  10
HETATM   10  C1  UNL     1     -33.240  18.157  -0.656  1.00 20.00     0.229 C 
HETATM   11  O11 UNL     1     -34.161  18.106   0.154  1.00 20.00    -0.279 OA
HETATM   12 CL12 UNL     1     -31.555  18.357  -0.283  1.00 20.00    -0.043 Cl
ENDBRANCH   8  10
TORSDOF 1
ENDMDL
MODEL 8
REMARK VINA RESULT:      -3.7     13.157     14.338
REMARK  1 active torsions:
REMARK  status: ('A' for Active; 'I' for Inactive)
REMARK    1  A    between atoms: C1_1  and  C9_9 
ROOT
HETATM    1  C2  UNL     1     -36.887  16.083  -6.666  1.00 20.00     0.031 C 
HETATM    2  C3  UNL     1     -34.560  18.173  -6.445  1.00 20.00     0.031 C 
HETATM    3  C4  UNL     1     -36.214  15.620  -5.373  1.00 20.00     0.022 C 
HETATM    4  C5  UNL     1     -34.301  17.336  -5.191  1.00 20.00     0.022 C 
HETATM    5  C6  UNL     1     -36.055  15.789  -7.918  1.00 20.00     0.272 C 
HETATM    6  C7  UNL     1     -34.226  17.435  -7.745  1.00 20.00     0.272 C 
HETATM    7  C8  UNL     1     -34.074  15.302  -6.637  1.00 20.00     0.290 C 
HETATM    8  C9  UNL     1     -34.691  15.853  -5.345  1.00 20.00     0.062 C 
HETATM    9  N10 UNL     1     -34.609  16.018  -7.798  1.00 20.00     0.089 N 
ENDROOT
BRANCH   8  10
HETATM   10  C1  UNL     1     -34.119  15.108  -4.167  1.00 20.00     0.229 C 
HETATM   11  O11 UNL     1     -34.196  13.886  -4.077  1.00 20.00    -0.279 OA
HETATM   12 CL12 UNL     1     -33.372  16.175  -3.017  1.00 20.00    -0.043 Cl
ENDBRANCH   8  10
TORSDOF 1
ENDMDL
MODEL 9
REMARK VINA RESULT:      -3.7     12.951     13.843
REMARK  1 active torsions:
REMARK  status: ('A' for Active; 'I' for Inactive)
REMARK    1  A    between atoms: C1_1  and  C9_9 
ROOT
HETATM    1  C2  UNL     1     -33.679  17.072  -3.871  1.00 20.00     0.031 C 
HETATM    2  C3  UNL     1     -34.308  18.079  -6.774  1.00 20.00     0.031 C 
HETATM    3  C4  UNL     1     -34.125  15.766  -4.532  1.00 20.00     0.022 C 
HETATM    4  C5  UNL     1     -34.644  16.593  -6.917  1.00 20.00     0.022 C 
HETATM    5  C6  UNL     1     -34.830  18.056  -3.641  1.00 20.00     0.272 C 
HETATM    6  C7  UNL     1     -35.322  18.849  -5.924  1.00 20.00     0.272 C 
HETATM    7  C8  UNL     1     -36.327  16.832  -5.076  1.00 20.00     0.290 C 
HETATM    8  C9  UNL     1     -35.195  15.955  -5.626  1.00 20.00     0.062 C 
HETATM    9  N10 UNL     1     -35.815  18.159  -4.725  1.00 20.00     0.089 N 
ENDROOT
BRANCH   8  10
HETATM   10  C1  UNL     1     -35.748  14.602  -5.988  1.00 20.00     0.229 C 
HETATM   11  O11 UNL     1     -36.027  14.307  -7.146  1.00 20.00    -0.279 OA
HETATM   12 CL12 UNL     1     -35.921  13.573  -4.598  1.00 20.00    -0.043 Cl
ENDBRANCH   8  10
TORSDOF 1
ENDMDL
