MODEL 1
REMARK VINA RESULT:      -4.8      0.000      0.000
REMARK  0 active torsions:
REMARK  status: ('A' for Active; 'I' for Inactive)
ROOT
HETATM    1  C1  UNL     1     -33.767   6.592   5.751  1.00 20.00     0.251 C 
HETATM    2  C2  UNL     1     -33.323   7.785   4.925  1.00 20.00     0.251 C 
HETATM    3  C3  UNL     1     -34.446   5.636   4.787  1.00 20.00     0.271 C 
HETATM    4  C4  UNL     1     -32.515   7.199   3.783  1.00 20.00     0.271 C 
HETATM    5  F5  UNL     1     -34.634   6.984   6.714  1.00 20.00    -0.242 F 
HETATM    6  F6  UNL     1     -34.424   8.407   4.419  1.00 20.00    -0.242 F 
HETATM    7  F7  UNL     1     -35.682   6.115   4.478  1.00 20.00    -0.235 F 
HETATM    8  F8  UNL     1     -32.430   8.085   2.764  1.00 20.00    -0.235 F 
HETATM    9  S9  UNL     1     -33.407   5.697   3.296  1.00 20.00    -0.089 SA
ENDROOT
TORSDOF 0
ENDMDL
MODEL 2
REMARK VINA RESULT:      -4.4      1.510      3.042
REMARK  0 active torsions:
REMARK  status: ('A' for Active; 'I' for Inactive)
ROOT
HETATM    1  C1  UNL     1     -34.165   8.033   5.159  1.00 20.00     0.251 C 
HETATM    2  C2  UNL     1     -34.177   7.034   6.302  1.00 20.00     0.251 C 
HETATM    3  C3  UNL     1     -33.376   7.385   4.035  1.00 20.00     0.271 C 
HETATM    4  C4  UNL     1     -34.691   5.743   5.694  1.00 20.00     0.271 C 
HETATM    5  F5  UNL     1     -33.569   9.184   5.547  1.00 20.00    -0.242 F 
HETATM    6  F6  UNL     1     -32.900   6.845   6.736  1.00 20.00    -0.242 F 
HETATM    7  F7  UNL     1     -32.049   7.433   4.334  1.00 20.00    -0.235 F 
HETATM    8  F8  UNL     1     -34.350   4.689   6.473  1.00 20.00    -0.235 F 
HETATM    9  S9  UNL     1     -33.916   5.649   4.057  1.00 20.00    -0.089 SA
ENDROOT
TORSDOF 0
ENDMDL
MODEL 3
REMARK VINA RESULT:      -4.3      1.665      3.418
REMARK  0 active torsions:
REMARK  status: ('A' for Active; 'I' for Inactive)
ROOT
HETATM    1  C1  UNL     1     -33.325   5.977   3.974  1.00 20.00     0.251 C 
HETATM    2  C2  UNL     1     -34.505   5.273   4.617  1.00 20.00     0.251 C 
HETATM    3  C3  UNL     1     -33.299   7.381   4.552  1.00 20.00     0.271 C 
HETATM    4  C4  UNL     1     -34.304   5.446   6.111  1.00 20.00     0.271 C 
HETATM    5  F5  UNL     1     -33.483   6.026   2.630  1.00 20.00    -0.242 F 
HETATM    6  F6  UNL     1     -35.653   5.904   4.246  1.00 20.00    -0.242 F 
HETATM    7  F7  UNL     1     -34.288   8.119   3.980  1.00 20.00    -0.235 F 
HETATM    8  F8  UNL     1     -35.471   5.251   6.768  1.00 20.00    -0.235 F 
HETATM    9  S9  UNL     1     -33.693   7.142   6.311  1.00 20.00    -0.089 SA
ENDROOT
TORSDOF 0
ENDMDL
MODEL 4
REMARK VINA RESULT:      -4.3      2.080      2.705
REMARK  0 active torsions:
REMARK  status: ('A' for Active; 'I' for Inactive)
ROOT
HETATM    1  C1  UNL     1     -35.003   6.059   5.544  1.00 20.00     0.251 C 
HETATM    2  C2  UNL     1     -34.433   4.951   4.677  1.00 20.00     0.251 C 
HETATM    3  C3  UNL     1     -33.872   7.044   5.777  1.00 20.00     0.271 C 
HETATM    4  C4  UNL     1     -33.819   5.658   3.483  1.00 20.00     0.271 C 
HETATM    5  F5  UNL     1     -35.438   5.556   6.723  1.00 20.00    -0.242 F 
HETATM    6  F6  UNL     1     -33.450   4.310   5.369  1.00 20.00    -0.242 F 
HETATM    7  F7  UNL     1     -33.006   6.524   6.689  1.00 20.00    -0.235 F 
HETATM    8  F8  UNL     1     -32.923   4.851   2.869  1.00 20.00    -0.235 F 
HETATM    9  S9  UNL     1     -33.032   7.142   4.166  1.00 20.00    -0.089 SA
ENDROOT
TORSDOF 0
ENDMDL
MODEL 5
REMARK VINA RESULT:      -4.0      1.854      2.470
REMARK  0 active torsions:
REMARK  status: ('A' for Active; 'I' for Inactive)
ROOT
HETATM    1  C1  UNL     1     -35.175   6.020   4.814  1.00 20.00     0.251 C 
HETATM    2  C2  UNL     1     -33.985   6.223   3.893  1.00 20.00     0.251 C 
HETATM    3  C3  UNL     1     -34.629   6.058   6.231  1.00 20.00     0.271 C 
HETATM    4  C4  UNL     1     -33.314   7.491   4.386  1.00 20.00     0.271 C 
HETATM    5  F5  UNL     1     -35.761   4.825   4.569  1.00 20.00    -0.242 F 
HETATM    6  F6  UNL     1     -33.127   5.176   4.044  1.00 20.00    -0.242 F 
HETATM    7  F7  UNL     1     -33.990   4.887   6.495  1.00 20.00    -0.235 F 
HETATM    8  F8  UNL     1     -32.035   7.546   3.946  1.00 20.00    -0.235 F 
HETATM    9  S9  UNL     1     -33.399   7.398   6.195  1.00 20.00    -0.089 SA
ENDROOT
TORSDOF 0
ENDMDL
MODEL 6
REMARK VINA RESULT:      -3.8      8.709      9.643
REMARK  0 active torsions:
REMARK  status: ('A' for Active; 'I' for Inactive)
ROOT
HETATM    1  C1  UNL     1     -42.718   7.764  -0.405  1.00 20.00     0.251 C 
HETATM    2  C2  UNL     1     -43.028   6.866   0.779  1.00 20.00     0.251 C 
HETATM    3  C3  UNL     1     -41.207   7.769  -0.553  1.00 20.00     0.271 C 
HETATM    4  C4  UNL     1     -42.317   5.560   0.482  1.00 20.00     0.271 C 
HETATM    5  F5  UNL     1     -43.171   9.019  -0.174  1.00 20.00    -0.242 F 
HETATM    6  F6  UNL     1     -42.495   7.418   1.904  1.00 20.00    -0.242 F 
HETATM    7  F7  UNL     1     -40.665   8.552   0.419  1.00 20.00    -0.235 F 
HETATM    8  F8  UNL     1     -42.153   4.845   1.620  1.00 20.00    -0.235 F 
HETATM    9  S9  UNL     1     -40.727   6.042  -0.245  1.00 20.00    -0.089 SA
ENDROOT
TORSDOF 0
ENDMDL
MODEL 7
REMARK VINA RESULT:      -3.7      1.697      2.420
REMARK  0 active torsions:
REMARK  status: ('A' for Active; 'I' for Inactive)
ROOT
HETATM    1  C1  UNL     1     -32.363   8.085   4.789  1.00 20.00     0.251 C 
HETATM    2  C2  UNL     1     -32.168   7.599   3.365  1.00 20.00     0.251 C 
HETATM    3  C3  UNL     1     -33.811   7.797   5.144  1.00 20.00     0.271 C 
HETATM    4  C4  UNL     1     -32.650   6.160   3.367  1.00 20.00     0.271 C 
HETATM    5  F5  UNL     1     -32.115   9.413   4.870  1.00 20.00    -0.242 F 
HETATM    6  F6  UNL     1     -32.961   8.333   2.535  1.00 20.00    -0.242 F 
HETATM    7  F7  UNL     1     -34.612   8.708   4.528  1.00 20.00    -0.235 F 
HETATM    8  F8  UNL     1     -32.932   5.757   2.106  1.00 20.00    -0.235 F 
HETATM    9  S9  UNL     1     -34.127   6.159   4.420  1.00 20.00    -0.089 SA
ENDROOT
TORSDOF 0
ENDMDL
MODEL 8
REMARK VINA RESULT:      -3.6      8.263      9.038
REMARK  0 active torsions:
REMARK  status: ('A' for Active; 'I' for Inactive)
ROOT
HETATM    1  C1  UNL     1     -41.861   5.775   0.524  1.00 20.00     0.251 C 
HETATM    2  C2  UNL     1     -40.795   6.854   0.496  1.00 20.00     0.251 C 
HETATM    3  C3  UNL     1     -43.159   6.466   0.902  1.00 20.00     0.271 C 
HETATM    4  C4  UNL     1     -41.345   7.931  -0.420  1.00 20.00     0.271 C 
HETATM    5  F5  UNL     1     -41.548   4.829   1.441  1.00 20.00    -0.242 F 
HETATM    6  F6  UNL     1     -40.651   7.366   1.750  1.00 20.00    -0.242 F 
HETATM    7  F7  UNL     1     -43.145   6.745   2.234  1.00 20.00    -0.235 F 
HETATM    8  F8  UNL     1     -40.712   9.106  -0.196  1.00 20.00    -0.235 F 
HETATM    9  S9  UNL     1     -43.112   8.031  -0.023  1.00 20.00    -0.089 SA
ENDROOT
TORSDOF 0
ENDMDL
MODEL 9
REMARK VINA RESULT:      -3.6      1.688      2.544
REMARK  0 active torsions:
REMARK  status: ('A' for Active; 'I' for Inactive)
ROOT
HETATM    1  C1  UNL     1     -33.453   5.043   4.366  1.00 20.00     0.251 C 
HETATM    2  C2  UNL     1     -34.332   6.151   4.917  1.00 20.00     0.251 C 
HETATM    3  C3  UNL     1     -32.882   5.562   3.059  1.00 20.00     0.271 C 
HETATM    4  C4  UNL     1     -33.449   7.384   4.941  1.00 20.00     0.271 C 
HETATM    5  F5  UNL     1     -34.186   3.926   4.149  1.00 20.00    -0.242 F 
HETATM    6  F6  UNL     1     -35.368   6.362   4.058  1.00 20.00    -0.242 F 
HETATM    7  F7  UNL     1     -33.849   5.522   2.102  1.00 20.00    -0.235 F 
HETATM    8  F8  UNL     1     -34.206   8.504   4.996  1.00 20.00    -0.235 F 
HETATM    9  S9  UNL     1     -32.480   7.301   3.410  1.00 20.00    -0.089 SA
ENDROOT
TORSDOF 0
ENDMDL
