MODEL 1
REMARK VINA RESULT:      -4.3      0.000      0.000
REMARK  1 active torsions:
REMARK  status: ('A' for Active; 'I' for Inactive)
REMARK    1  A    between atoms: C2_2  and  C5_5 
ROOT
HETATM    1  C1  UNL     1     -25.633  19.231   9.805  1.00 20.00     0.016 C 
HETATM    2  C2  UNL     1     -24.414  19.110   9.260  1.00 20.00    -0.019 C 
HETATM    3  C3  UNL     1     -25.851  19.105  11.236  1.00 20.00    -0.066 C 
HETATM    4  C4  UNL     1     -27.087  19.076  11.757  1.00 20.00     0.019 C 
HETATM    5  C6  UNL     1     -23.169  18.805  10.045  1.00 20.00     0.050 C 
HETATM    6  C7  UNL     1     -24.617  19.009  12.108  1.00 20.00     0.047 C 
HETATM    7  C8  UNL     1     -23.467  18.208  11.446  1.00 20.00    -0.040 C 
HETATM    8  C9  UNL     1     -22.205  18.311  12.319  1.00 20.00     0.015 C 
HETATM    9  C10 UNL     1     -23.845  16.716  11.326  1.00 20.00     0.015 C 
ENDROOT
BRANCH   2  10
HETATM   10  C5  UNL     1     -24.300  19.261   7.806  1.00 20.00     0.265 C 
HETATM   11  O11 UNL     1     -23.338  18.844   7.175  1.00 20.00    -0.302 OA
ENDBRANCH   2  10
TORSDOF 1
ENDMDL
MODEL 2
REMARK VINA RESULT:      -4.1     15.079     17.175
REMARK  1 active torsions:
REMARK  status: ('A' for Active; 'I' for Inactive)
REMARK    1  A    between atoms: C2_2  and  C5_5 
ROOT
HETATM    1  C1  UNL     1     -33.290  16.511  -2.385  1.00 20.00     0.016 C 
HETATM    2  C2  UNL     1     -33.709  16.184  -3.616  1.00 20.00    -0.019 C 
HETATM    3  C3  UNL     1     -33.683  17.756  -1.745  1.00 20.00    -0.066 C 
HETATM    4  C4  UNL     1     -33.143  18.147  -0.582  1.00 20.00     0.019 C 
HETATM    5  C6  UNL     1     -34.584  17.061  -4.467  1.00 20.00     0.050 C 
HETATM    6  C7  UNL     1     -34.730  18.587  -2.456  1.00 20.00     0.047 C 
HETATM    7  C8  UNL     1     -34.597  18.540  -3.999  1.00 20.00    -0.040 C 
HETATM    8  C9  UNL     1     -35.797  19.263  -4.637  1.00 20.00     0.015 C 
HETATM    9  C10 UNL     1     -33.309  19.260  -4.454  1.00 20.00     0.015 C 
ENDROOT
BRANCH   2  10
HETATM   10  C5  UNL     1     -33.260  14.903  -4.169  1.00 20.00     0.265 C 
HETATM   11  O11 UNL     1     -33.967  13.903  -4.170  1.00 20.00    -0.302 OA
ENDBRANCH   2  10
TORSDOF 1
ENDMDL
MODEL 3
REMARK VINA RESULT:      -3.9     15.480     16.207
REMARK  1 active torsions:
REMARK  status: ('A' for Active; 'I' for Inactive)
REMARK    1  A    between atoms: C2_2  and  C5_5 
ROOT
HETATM    1  C1  UNL     1     -32.839   8.325   4.012  1.00 20.00     0.016 C 
HETATM    2  C2  UNL     1     -32.693   7.337   3.117  1.00 20.00    -0.019 C 
HETATM    3  C3  UNL     1     -33.430   8.095   5.320  1.00 20.00    -0.066 C 
HETATM    4  C4  UNL     1     -33.712   9.110   6.150  1.00 20.00     0.019 C 
HETATM    5  C6  UNL     1     -33.142   5.922   3.347  1.00 20.00     0.050 C 
HETATM    6  C7  UNL     1     -33.709   6.656   5.699  1.00 20.00     0.047 C 
HETATM    7  C8  UNL     1     -34.174   5.792   4.499  1.00 20.00    -0.040 C 
HETATM    8  C9  UNL     1     -34.264   4.320   4.935  1.00 20.00     0.015 C 
HETATM    9  C10 UNL     1     -35.573   6.235   4.021  1.00 20.00     0.015 C 
ENDROOT
BRANCH   2  10
HETATM   10  C5  UNL     1     -32.080   7.672   1.829  1.00 20.00     0.265 C 
HETATM   11  O11 UNL     1     -32.386   8.674   1.195  1.00 20.00    -0.302 OA
ENDBRANCH   2  10
TORSDOF 1
ENDMDL
MODEL 4
REMARK VINA RESULT:      -3.9     15.243     17.484
REMARK  1 active torsions:
REMARK  status: ('A' for Active; 'I' for Inactive)
REMARK    1  A    between atoms: C2_2  and  C5_5 
ROOT
HETATM    1  C1  UNL     1     -33.299  16.297  -2.908  1.00 20.00     0.016 C 
HETATM    2  C2  UNL     1     -33.122  17.621  -2.792  1.00 20.00    -0.019 C 
HETATM    3  C3  UNL     1     -33.882  15.702  -4.099  1.00 20.00    -0.066 C 
HETATM    4  C4  UNL     1     -34.196  14.399  -4.149  1.00 20.00     0.019 C 
HETATM    5  C6  UNL     1     -33.525  18.618  -3.841  1.00 20.00     0.050 C 
HETATM    6  C7  UNL     1     -34.116  16.623  -5.277  1.00 20.00     0.047 C 
HETATM    7  C8  UNL     1     -34.552  18.049  -4.856  1.00 20.00    -0.040 C 
HETATM    8  C9  UNL     1     -34.595  18.957  -6.097  1.00 20.00     0.015 C 
HETATM    9  C10 UNL     1     -35.965  18.022  -4.234  1.00 20.00     0.015 C 
ENDROOT
BRANCH   2  10
HETATM   10  C5  UNL     1     -32.520  18.120  -1.552  1.00 20.00     0.265 C 
HETATM   11  O11 UNL     1     -31.755  19.076  -1.530  1.00 20.00    -0.302 OA
ENDBRANCH   2  10
TORSDOF 1
ENDMDL
MODEL 5
REMARK VINA RESULT:      -3.8     15.183     17.226
REMARK  1 active torsions:
REMARK  status: ('A' for Active; 'I' for Inactive)
REMARK    1  A    between atoms: C2_2  and  C5_5 
ROOT
HETATM    1  C1  UNL     1     -34.326  16.976  -4.989  1.00 20.00     0.016 C 
HETATM    2  C2  UNL     1     -33.930  16.130  -4.027  1.00 20.00    -0.019 C 
HETATM    3  C3  UNL     1     -34.048  18.401  -4.921  1.00 20.00    -0.066 C 
HETATM    4  C4  UNL     1     -34.575  19.261  -5.804  1.00 20.00     0.019 C 
HETATM    5  C6  UNL     1     -33.199  16.553  -2.784  1.00 20.00     0.050 C 
HETATM    6  C7  UNL     1     -33.135  18.865  -3.806  1.00 20.00     0.047 C 
HETATM    7  C8  UNL     1     -33.332  18.071  -2.490  1.00 20.00    -0.040 C 
HETATM    8  C9  UNL     1     -32.252  18.487  -1.476  1.00 20.00     0.015 C 
HETATM    9  C10 UNL     1     -34.712  18.380  -1.871  1.00 20.00     0.015 C 
ENDROOT
BRANCH   2  10
HETATM   10  C5  UNL     1     -34.255  14.711  -4.194  1.00 20.00     0.265 C 
HETATM   11  O11 UNL     1     -33.394  13.847  -4.301  1.00 20.00    -0.302 OA
ENDBRANCH   2  10
TORSDOF 1
ENDMDL
MODEL 6
REMARK VINA RESULT:      -3.8     16.738     18.489
REMARK  1 active torsions:
REMARK  status: ('A' for Active; 'I' for Inactive)
REMARK    1  A    between atoms: C2_2  and  C5_5 
ROOT
HETATM    1  C1  UNL     1     -40.061  13.285   7.060  1.00 20.00     0.016 C 
HETATM    2  C2  UNL     1     -40.730  14.280   7.662  1.00 20.00    -0.019 C 
HETATM    3  C3  UNL     1     -40.369  12.862   5.705  1.00 20.00    -0.066 C 
HETATM    4  C4  UNL     1     -39.803  11.773   5.165  1.00 20.00     0.019 C 
HETATM    5  C6  UNL     1     -41.869  15.029   7.029  1.00 20.00     0.050 C 
HETATM    6  C7  UNL     1     -41.358  13.710   4.934  1.00 20.00     0.047 C 
HETATM    7  C8  UNL     1     -42.493  14.279   5.823  1.00 20.00    -0.040 C 
HETATM    8  C9  UNL     1     -43.343  15.261   4.999  1.00 20.00     0.015 C 
HETATM    9  C10 UNL     1     -43.417  13.144   6.314  1.00 20.00     0.015 C 
ENDROOT
BRANCH   2  10
HETATM   10  C5  UNL     1     -40.338  14.634   9.028  1.00 20.00     0.265 C 
HETATM   11  O11 UNL     1     -40.461  13.862   9.970  1.00 20.00    -0.302 OA
ENDBRANCH   2  10
TORSDOF 1
ENDMDL
MODEL 7
REMARK VINA RESULT:      -3.7     14.960     16.907
REMARK  1 active torsions:
REMARK  status: ('A' for Active; 'I' for Inactive)
REMARK    1  A    between atoms: C2_2  and  C5_5 
ROOT
HETATM    1  C1  UNL     1     -34.428  17.257  -4.226  1.00 20.00     0.016 C 
HETATM    2  C2  UNL     1     -35.049  18.305  -3.666  1.00 20.00    -0.019 C 
HETATM    3  C3  UNL     1     -33.578  16.365  -3.455  1.00 20.00    -0.066 C 
HETATM    4  C4  UNL     1     -32.842  15.413  -4.047  1.00 20.00     0.019 C 
HETATM    5  C6  UNL     1     -34.914  18.686  -2.219  1.00 20.00     0.050 C 
HETATM    6  C7  UNL     1     -33.566  16.563  -1.955  1.00 20.00     0.047 C 
HETATM    7  C8  UNL     1     -33.671  18.052  -1.538  1.00 20.00    -0.040 C 
HETATM    8  C9  UNL     1     -33.827  18.146  -0.011  1.00 20.00     0.015 C 
HETATM    9  C10 UNL     1     -32.391  18.818  -1.935  1.00 20.00     0.015 C 
ENDROOT
BRANCH   2  10
HETATM   10  C5  UNL     1     -35.889  19.139  -4.530  1.00 20.00     0.265 C 
HETATM   11  O11 UNL     1     -36.590  18.671  -5.418  1.00 20.00    -0.302 OA
ENDBRANCH   2  10
TORSDOF 1
ENDMDL
MODEL 8
REMARK VINA RESULT:      -3.7     17.044     18.181
REMARK  1 active torsions:
REMARK  status: ('A' for Active; 'I' for Inactive)
REMARK    1  A    between atoms: C2_2  and  C5_5 
ROOT
HETATM    1  C1  UNL     1     -41.081  13.311   4.869  1.00 20.00     0.016 C 
HETATM    2  C2  UNL     1     -40.279  12.971   5.889  1.00 20.00    -0.019 C 
HETATM    3  C3  UNL     1     -42.096  14.342   5.002  1.00 20.00    -0.066 C 
HETATM    4  C4  UNL     1     -42.993  14.572   4.032  1.00 20.00     0.019 C 
HETATM    5  C6  UNL     1     -40.358  13.579   7.260  1.00 20.00     0.050 C 
HETATM    6  C7  UNL     1     -42.092  15.142   6.288  1.00 20.00     0.047 C 
HETATM    7  C8  UNL     1     -41.709  14.296   7.528  1.00 20.00    -0.040 C 
HETATM    8  C9  UNL     1     -41.559  15.219   8.750  1.00 20.00     0.015 C 
HETATM    9  C10 UNL     1     -42.813  13.263   7.842  1.00 20.00     0.015 C 
ENDROOT
BRANCH   2  10
HETATM   10  C5  UNL     1     -39.282  11.922   5.649  1.00 20.00     0.265 C 
HETATM   11  O11 UNL     1     -38.139  12.171   5.289  1.00 20.00    -0.302 OA
ENDBRANCH   2  10
TORSDOF 1
ENDMDL
MODEL 9
REMARK VINA RESULT:      -3.6     17.069     18.539
REMARK  1 active torsions:
REMARK  status: ('A' for Active; 'I' for Inactive)
REMARK    1  A    between atoms: C2_2  and  C5_5 
ROOT
HETATM    1  C1  UNL     1     -41.192  13.389   4.834  1.00 20.00     0.016 C 
HETATM    2  C2  UNL     1     -42.098  14.375   4.920  1.00 20.00    -0.019 C 
HETATM    3  C3  UNL     1     -40.654  12.736   6.015  1.00 20.00    -0.066 C 
HETATM    4  C4  UNL     1     -39.641  11.860   5.932  1.00 20.00     0.019 C 
HETATM    5  C6  UNL     1     -42.622  14.924   6.217  1.00 20.00     0.050 C 
HETATM    6  C7  UNL     1     -41.291  13.091   7.342  1.00 20.00     0.047 C 
HETATM    7  C8  UNL     1     -41.719  14.578   7.430  1.00 20.00    -0.040 C 
HETATM    8  C9  UNL     1     -42.508  14.806   8.731  1.00 20.00     0.015 C 
HETATM    9  C10 UNL     1     -40.479  15.498   7.458  1.00 20.00     0.015 C 
ENDROOT
BRANCH   2  10
HETATM   10  C5  UNL     1     -42.583  14.963   3.668  1.00 20.00     0.265 C 
HETATM   11  O11 UNL     1     -42.060  14.731   2.586  1.00 20.00    -0.302 OA
ENDBRANCH   2  10
TORSDOF 1
ENDMDL
