MODEL 1
REMARK VINA RESULT:      -3.9      0.000      0.000
REMARK  0 active torsions:
REMARK  status: ('A' for Active; 'I' for Inactive)
ROOT
HETATM    1  C1  UNL     1     -22.916  18.699   8.253  1.00 20.00     0.017 C 
HETATM    2  C2  UNL     1     -23.216  18.432   9.384  1.00 20.00    -0.050 C 
HETATM    3  C3  UNL     1     -25.739  17.130  12.313  1.00 20.00     0.053 C 
HETATM    4  C4  UNL     1     -25.341  18.596  12.331  1.00 20.00     0.174 C 
HETATM    5  C5  UNL     1     -24.527  16.271  11.999  1.00 20.00     0.174 C 
HETATM    6  C6  UNL     1     -23.586  18.104  10.775  1.00 20.00     0.227 C 
HETATM    7  C7  UNL     1     -22.374  18.403  11.667  1.00 20.00     0.095 C 
HETATM    8  O8  UNL     1     -24.695  18.947  11.110  1.00 20.00    -0.345 OA
HETATM    9  O9  UNL     1     -23.911  16.709  10.791  1.00 20.00    -0.345 OA
ENDROOT
TORSDOF 0
ENDMDL
MODEL 2
REMARK VINA RESULT:      -3.8     14.059     15.137
REMARK  0 active torsions:
REMARK  status: ('A' for Active; 'I' for Inactive)
ROOT
HETATM    1  C1  UNL     1     -33.411  15.956  -3.278  1.00 20.00     0.017 C 
HETATM    2  C2  UNL     1     -33.278  16.861  -2.502  1.00 20.00    -0.050 C 
HETATM    3  C3  UNL     1     -32.251  18.515   1.083  1.00 20.00     0.053 C 
HETATM    4  C4  UNL     1     -33.724  18.510   0.709  1.00 20.00     0.174 C 
HETATM    5  C5  UNL     1     -31.414  18.889  -0.127  1.00 20.00     0.174 C 
HETATM    6  C6  UNL     1     -33.115  17.975  -1.546  1.00 20.00     0.227 C 
HETATM    7  C7  UNL     1     -33.579  19.263  -2.239  1.00 20.00     0.095 C 
HETATM    8  O8  UNL     1     -33.944  17.667  -0.418  1.00 20.00    -0.345 OA
HETATM    9  O9  UNL     1     -31.720  18.033  -1.224  1.00 20.00    -0.345 OA
ENDROOT
TORSDOF 0
ENDMDL
MODEL 3
REMARK VINA RESULT:      -3.8     17.117     17.924
REMARK  0 active torsions:
REMARK  status: ('A' for Active; 'I' for Inactive)
ROOT
HETATM    1  C1  UNL     1     -39.475  11.739   4.835  1.00 20.00     0.017 C 
HETATM    2  C2  UNL     1     -40.099  12.403   5.616  1.00 20.00    -0.050 C 
HETATM    3  C3  UNL     1     -40.733  15.646   8.008  1.00 20.00     0.053 C 
HETATM    4  C4  UNL     1     -40.527  14.302   8.688  1.00 20.00     0.174 C 
HETATM    5  C5  UNL     1     -41.637  15.479   6.800  1.00 20.00     0.174 C 
HETATM    6  C6  UNL     1     -40.867  13.221   6.577  1.00 20.00     0.227 C 
HETATM    7  C7  UNL     1     -42.174  12.480   6.886  1.00 20.00     0.095 C 
HETATM    8  O8  UNL     1     -40.051  13.343   7.749  1.00 20.00    -0.345 OA
HETATM    9  O9  UNL     1     -41.120  14.474   5.931  1.00 20.00    -0.345 OA
ENDROOT
TORSDOF 0
ENDMDL
MODEL 4
REMARK VINA RESULT:      -3.7     17.487     18.338
REMARK  0 active torsions:
REMARK  status: ('A' for Active; 'I' for Inactive)
ROOT
HETATM    1  C1  UNL     1     -39.283  11.686   4.676  1.00 20.00     0.017 C 
HETATM    2  C2  UNL     1     -40.059  12.391   5.261  1.00 20.00    -0.050 C 
HETATM    3  C3  UNL     1     -41.760  14.026   8.588  1.00 20.00     0.053 C 
HETATM    4  C4  UNL     1     -42.613  13.083   7.756  1.00 20.00     0.174 C 
HETATM    5  C5  UNL     1     -40.975  14.951   7.676  1.00 20.00     0.174 C 
HETATM    6  C6  UNL     1     -41.013  13.259   5.980  1.00 20.00     0.227 C 
HETATM    7  C7  UNL     1     -41.881  13.973   4.936  1.00 20.00     0.095 C 
HETATM    8  O8  UNL     1     -41.803  12.395   6.807  1.00 20.00    -0.345 OA
HETATM    9  O9  UNL     1     -40.227  14.194   6.729  1.00 20.00    -0.345 OA
ENDROOT
TORSDOF 0
ENDMDL
MODEL 5
REMARK VINA RESULT:      -3.5     17.577     18.629
REMARK  0 active torsions:
REMARK  status: ('A' for Active; 'I' for Inactive)
ROOT
HETATM    1  C1  UNL     1     -39.166  11.411   4.476  1.00 20.00     0.017 C 
HETATM    2  C2  UNL     1     -39.861  12.120   5.150  1.00 20.00    -0.050 C 
HETATM    3  C3  UNL     1     -43.417  13.700   6.375  1.00 20.00     0.053 C 
HETATM    4  C4  UNL     1     -42.440  14.631   5.678  1.00 20.00     0.174 C 
HETATM    5  C5  UNL     1     -42.673  12.809   7.353  1.00 20.00     0.174 C 
HETATM    6  C6  UNL     1     -40.717  12.992   5.980  1.00 20.00     0.227 C 
HETATM    7  C7  UNL     1     -39.807  13.765   6.944  1.00 20.00     0.095 C 
HETATM    8  O8  UNL     1     -41.388  13.881   5.077  1.00 20.00    -0.345 OA
HETATM    9  O9  UNL     1     -41.611  12.127   6.690  1.00 20.00    -0.345 OA
ENDROOT
TORSDOF 0
ENDMDL
MODEL 6
REMARK VINA RESULT:      -3.4     19.535     20.715
REMARK  0 active torsions:
REMARK  status: ('A' for Active; 'I' for Inactive)
ROOT
HETATM    1  C1  UNL     1     -23.164  -3.300   7.764  1.00 20.00     0.017 C 
HETATM    2  C2  UNL     1     -23.696  -3.215   8.837  1.00 20.00    -0.050 C 
HETATM    3  C3  UNL     1     -25.574  -1.232  11.866  1.00 20.00     0.053 C 
HETATM    4  C4  UNL     1     -24.184  -1.779  12.142  1.00 20.00     0.174 C 
HETATM    5  C5  UNL     1     -26.385  -2.254  11.089  1.00 20.00     0.174 C 
HETATM    6  C6  UNL     1     -24.350  -3.110  10.156  1.00 20.00     0.227 C 
HETATM    7  C7  UNL     1     -24.352  -4.506  10.793  1.00 20.00     0.095 C 
HETATM    8  O8  UNL     1     -23.566  -2.191  10.926  1.00 20.00    -0.345 OA
HETATM    9  O9  UNL     1     -25.684  -2.648   9.912  1.00 20.00    -0.345 OA
ENDROOT
TORSDOF 0
ENDMDL
MODEL 7
REMARK VINA RESULT:      -3.3     14.750     16.010
REMARK  0 active torsions:
REMARK  status: ('A' for Active; 'I' for Inactive)
ROOT
HETATM    1  C1  UNL     1     -34.557  18.909   1.141  1.00 20.00     0.017 C 
HETATM    2  C2  UNL     1     -33.964  18.621   0.138  1.00 20.00    -0.050 C 
HETATM    3  C3  UNL     1     -33.674  17.556  -3.789  1.00 20.00     0.053 C 
HETATM    4  C4  UNL     1     -33.242  16.533  -2.751  1.00 20.00     0.174 C 
HETATM    5  C5  UNL     1     -33.168  18.933  -3.397  1.00 20.00     0.174 C 
HETATM    6  C6  UNL     1     -33.235  18.266  -1.096  1.00 20.00     0.227 C 
HETATM    7  C7  UNL     1     -31.733  18.302  -0.783  1.00 20.00     0.095 C 
HETATM    8  O8  UNL     1     -33.658  16.944  -1.452  1.00 20.00    -0.345 OA
HETATM    9  O9  UNL     1     -33.585  19.254  -2.073  1.00 20.00    -0.345 OA
ENDROOT
TORSDOF 0
ENDMDL
MODEL 8
REMARK VINA RESULT:      -3.3     23.914     24.872
REMARK  0 active torsions:
REMARK  status: ('A' for Active; 'I' for Inactive)
ROOT
HETATM    1  C1  UNL     1     -43.417   3.581  -1.971  1.00 20.00     0.017 C 
HETATM    2  C2  UNL     1     -43.061   4.469  -1.246  1.00 20.00    -0.050 C 
HETATM    3  C3  UNL     1     -41.335   8.070  -0.412  1.00 20.00     0.053 C 
HETATM    4  C4  UNL     1     -40.635   6.822   0.098  1.00 20.00     0.174 C 
HETATM    5  C5  UNL     1     -42.833   7.944  -0.197  1.00 20.00     0.174 C 
HETATM    6  C6  UNL     1     -42.622   5.562  -0.356  1.00 20.00     0.227 C 
HETATM    7  C7  UNL     1     -43.007   5.183   1.081  1.00 20.00     0.095 C 
HETATM    8  O8  UNL     1     -41.200   5.659  -0.502  1.00 20.00    -0.345 OA
HETATM    9  O9  UNL     1     -43.317   6.740  -0.785  1.00 20.00    -0.345 OA
ENDROOT
TORSDOF 0
ENDMDL
MODEL 9
REMARK VINA RESULT:      -3.3     14.439     15.696
REMARK  0 active torsions:
REMARK  status: ('A' for Active; 'I' for Inactive)
ROOT
HETATM    1  C1  UNL     1     -31.001  18.463   0.722  1.00 20.00     0.017 C 
HETATM    2  C2  UNL     1     -31.814  18.484  -0.161  1.00 20.00    -0.050 C 
HETATM    3  C3  UNL     1     -33.207  17.652  -3.904  1.00 20.00     0.053 C 
HETATM    4  C4  UNL     1     -32.935  19.108  -3.564  1.00 20.00     0.174 C 
HETATM    5  C5  UNL     1     -33.892  16.969  -2.733  1.00 20.00     0.174 C 
HETATM    6  C6  UNL     1     -32.815  18.510  -1.247  1.00 20.00     0.227 C 
HETATM    7  C7  UNL     1     -34.049  19.263  -0.733  1.00 20.00     0.095 C 
HETATM    8  O8  UNL     1     -32.206  19.202  -2.344  1.00 20.00    -0.345 OA
HETATM    9  O9  UNL     1     -33.127  17.143  -1.543  1.00 20.00    -0.345 OA
ENDROOT
TORSDOF 0
ENDMDL
