MODEL 1
REMARK VINA RESULT:      -3.8      0.000      0.000
REMARK  0 active torsions:
REMARK  status: ('A' for Active; 'I' for Inactive)
ROOT
HETATM    1  C1  UNL     1     -32.765   4.919   2.572  1.00 20.00     0.015 C 
HETATM    2  C2  UNL     1     -33.283   5.713   3.309  1.00 20.00    -0.075 C 
HETATM    3  C3  UNL     1     -34.860   5.491   6.055  1.00 20.00     0.034 C 
HETATM    4  C4  UNL     1     -32.735   8.756   4.033  1.00 20.00     0.034 C 
HETATM    5  C5  UNL     1     -35.250   6.145   4.737  1.00 20.00     0.057 C 
HETATM    6  C6  UNL     1     -34.001   8.063   3.548  1.00 20.00     0.057 C 
HETATM    7  C7  UNL     1     -33.808   6.445   6.596  1.00 20.00     0.275 C 
HETATM    8  C8  UNL     1     -32.621   8.268   5.467  1.00 20.00     0.275 C 
HETATM    9  C9  UNL     1     -33.920   6.690   4.216  1.00 20.00     0.221 C 
HETATM   10  N10 UNL     1     -33.060   6.869   5.408  1.00 20.00     0.110 N 
ENDROOT
TORSDOF 0
ENDMDL
MODEL 2
REMARK VINA RESULT:      -3.8      1.137      2.898
REMARK  0 active torsions:
REMARK  status: ('A' for Active; 'I' for Inactive)
ROOT
HETATM    1  C1  UNL     1     -36.866   6.222   3.794  1.00 20.00     0.015 C 
HETATM    2  C2  UNL     1     -35.731   6.088   4.164  1.00 20.00    -0.075 C 
HETATM    3  C3  UNL     1     -32.991   5.412   2.712  1.00 20.00     0.034 C 
HETATM    4  C4  UNL     1     -34.008   7.310   6.535  1.00 20.00     0.034 C 
HETATM    5  C5  UNL     1     -33.675   4.747   3.898  1.00 20.00     0.057 C 
HETATM    6  C6  UNL     1     -34.274   5.864   6.144  1.00 20.00     0.057 C 
HETATM    7  C7  UNL     1     -32.492   6.717   3.308  1.00 20.00     0.275 C 
HETATM    8  C8  UNL     1     -33.061   7.778   5.444  1.00 20.00     0.275 C 
HETATM    9  C9  UNL     1     -34.335   5.924   4.618  1.00 20.00     0.221 C 
HETATM   10  N10 UNL     1     -33.560   7.124   4.228  1.00 20.00     0.110 N 
ENDROOT
TORSDOF 0
ENDMDL
MODEL 3
REMARK VINA RESULT:      -3.8     12.102     13.585
REMARK  0 active torsions:
REMARK  status: ('A' for Active; 'I' for Inactive)
ROOT
HETATM    1  C1  UNL     1     -36.150  13.604  -4.613  1.00 20.00     0.015 C 
HETATM    2  C2  UNL     1     -35.272  14.380  -4.873  1.00 20.00    -0.075 C 
HETATM    3  C3  UNL     1     -34.676  16.316  -7.317  1.00 20.00     0.034 C 
HETATM    4  C4  UNL     1     -33.332  16.202  -3.141  1.00 20.00     0.034 C 
HETATM    5  C5  UNL     1     -33.815  15.239  -6.673  1.00 20.00     0.057 C 
HETATM    6  C6  UNL     1     -33.027  15.172  -4.218  1.00 20.00     0.057 C 
HETATM    7  C7  UNL     1     -34.650  17.424  -6.277  1.00 20.00     0.275 C 
HETATM    8  C8  UNL     1     -33.900  17.360  -3.944  1.00 20.00     0.275 C 
HETATM    9  C9  UNL     1     -34.192  15.336  -5.195  1.00 20.00     0.221 C 
HETATM   10  N10 UNL     1     -34.696  16.714  -4.994  1.00 20.00     0.110 N 
ENDROOT
TORSDOF 0
ENDMDL
MODEL 4
REMARK VINA RESULT:      -3.7     12.395     13.767
REMARK  0 active torsions:
REMARK  status: ('A' for Active; 'I' for Inactive)
ROOT
HETATM    1  C1  UNL     1     -33.704  15.372  -7.871  1.00 20.00     0.015 C 
HETATM    2  C2  UNL     1     -34.217  15.446  -6.788  1.00 20.00    -0.075 C 
HETATM    3  C3  UNL     1     -33.113  15.627  -3.818  1.00 20.00     0.034 C 
HETATM    4  C4  UNL     1     -36.939  16.667  -5.699  1.00 20.00     0.034 C 
HETATM    5  C5  UNL     1     -34.102  14.659  -4.451  1.00 20.00     0.057 C 
HETATM    6  C6  UNL     1     -36.350  15.271  -5.557  1.00 20.00     0.057 C 
HETATM    7  C7  UNL     1     -33.921  16.910  -3.724  1.00 20.00     0.275 C 
HETATM    8  C8  UNL     1     -36.058  17.491  -4.775  1.00 20.00     0.275 C 
HETATM    9  C9  UNL     1     -34.848  15.538  -5.455  1.00 20.00     0.221 C 
HETATM   10  N10 UNL     1     -34.716  16.926  -4.957  1.00 20.00     0.110 N 
ENDROOT
TORSDOF 0
ENDMDL
MODEL 5
REMARK VINA RESULT:      -3.4     10.325     11.054
REMARK  0 active torsions:
REMARK  status: ('A' for Active; 'I' for Inactive)
ROOT
HETATM    1  C1  UNL     1     -39.521  12.131   5.969  1.00 20.00     0.015 C 
HETATM    2  C2  UNL     1     -40.245  13.001   6.368  1.00 20.00    -0.075 C 
HETATM    3  C3  UNL     1     -43.329  13.662   6.006  1.00 20.00     0.034 C 
HETATM    4  C4  UNL     1     -40.308  14.819   8.971  1.00 20.00     0.034 C 
HETATM    5  C5  UNL     1     -42.095  14.517   5.754  1.00 20.00     0.057 C 
HETATM    6  C6  UNL     1     -40.319  15.196   7.496  1.00 20.00     0.057 C 
HETATM    7  C7  UNL     1     -43.393  13.616   7.523  1.00 20.00     0.275 C 
HETATM    8  C8  UNL     1     -41.705  14.262   9.179  1.00 20.00     0.275 C 
HETATM    9  C9  UNL     1     -41.137  14.073   6.859  1.00 20.00     0.221 C 
HETATM   10  N10 UNL     1     -41.989  13.528   7.940  1.00 20.00     0.110 N 
ENDROOT
TORSDOF 0
ENDMDL
MODEL 6
REMARK VINA RESULT:      -3.4     12.212     13.686
REMARK  0 active torsions:
REMARK  status: ('A' for Active; 'I' for Inactive)
ROOT
HETATM    1  C1  UNL     1     -33.303  15.254  -3.757  1.00 20.00     0.015 C 
HETATM    2  C2  UNL     1     -33.323  16.397  -3.392  1.00 20.00    -0.075 C 
HETATM    3  C3  UNL     1     -34.277  19.127  -4.703  1.00 20.00     0.034 C 
HETATM    4  C4  UNL     1     -33.596  17.824  -0.568  1.00 20.00     0.034 C 
HETATM    5  C5  UNL     1     -32.942  18.736  -4.085  1.00 20.00     0.057 C 
HETATM    6  C6  UNL     1     -32.542  17.969  -1.656  1.00 20.00     0.057 C 
HETATM    7  C7  UNL     1     -35.177  19.257  -3.485  1.00 20.00     0.275 C 
HETATM    8  C8  UNL     1     -34.796  18.528  -1.175  1.00 20.00     0.275 C 
HETATM    9  C9  UNL     1     -33.350  17.805  -2.944  1.00 20.00     0.221 C 
HETATM   10  N10 UNL     1     -34.742  18.172  -2.598  1.00 20.00     0.110 N 
ENDROOT
TORSDOF 0
ENDMDL
MODEL 7
REMARK VINA RESULT:      -3.3     12.314     13.786
REMARK  0 active torsions:
REMARK  status: ('A' for Active; 'I' for Inactive)
ROOT
HETATM    1  C1  UNL     1     -33.193  14.946  -4.002  1.00 20.00     0.015 C 
HETATM    2  C2  UNL     1     -33.571  16.043  -3.694  1.00 20.00    -0.075 C 
HETATM    3  C3  UNL     1     -32.653  18.182  -1.536  1.00 20.00     0.034 C 
HETATM    4  C4  UNL     1     -34.972  18.428  -5.254  1.00 20.00     0.034 C 
HETATM    5  C5  UNL     1     -34.017  17.557  -1.795  1.00 20.00     0.057 C 
HETATM    6  C6  UNL     1     -35.378  17.701  -3.981  1.00 20.00     0.057 C 
HETATM    7  C7  UNL     1     -32.494  19.125  -2.716  1.00 20.00     0.275 C 
HETATM    8  C8  UNL     1     -33.789  19.263  -4.793  1.00 20.00     0.275 C 
HETATM    9  C9  UNL     1     -34.037  17.393  -3.315  1.00 20.00     0.221 C 
HETATM   10  N10 UNL     1     -33.083  18.395  -3.844  1.00 20.00     0.110 N 
ENDROOT
TORSDOF 0
ENDMDL
MODEL 8
REMARK VINA RESULT:      -3.3     10.363     11.267
REMARK  0 active torsions:
REMARK  status: ('A' for Active; 'I' for Inactive)
ROOT
HETATM    1  C1  UNL     1     -39.432  12.364   5.723  1.00 20.00     0.015 C 
HETATM    2  C2  UNL     1     -40.252  12.962   6.364  1.00 20.00    -0.075 C 
HETATM    3  C3  UNL     1     -40.238  15.682   8.000  1.00 20.00     0.034 C 
HETATM    4  C4  UNL     1     -43.415  13.223   6.233  1.00 20.00     0.034 C 
HETATM    5  C5  UNL     1     -40.632  14.273   8.421  1.00 20.00     0.057 C 
HETATM    6  C6  UNL     1     -42.498  12.828   7.382  1.00 20.00     0.057 C 
HETATM    7  C7  UNL     1     -41.391  16.090   7.098  1.00 20.00     0.275 C 
HETATM    8  C8  UNL     1     -43.165  14.716   6.111  1.00 20.00     0.275 C 
HETATM    9  C9  UNL     1     -41.262  13.698   7.153  1.00 20.00     0.221 C 
HETATM   10  N10 UNL     1     -41.728  14.864   6.367  1.00 20.00     0.110 N 
ENDROOT
TORSDOF 0
ENDMDL
MODEL 9
REMARK VINA RESULT:      -3.3     12.467     14.146
REMARK  0 active torsions:
REMARK  status: ('A' for Active; 'I' for Inactive)
ROOT
HETATM    1  C1  UNL     1     -37.485  16.092  -5.404  1.00 20.00     0.015 C 
HETATM    2  C2  UNL     1     -36.294  16.243  -5.443  1.00 20.00    -0.075 C 
HETATM    3  C3  UNL     1     -34.383  18.771  -5.620  1.00 20.00     0.034 C 
HETATM    4  C4  UNL     1     -33.811  14.624  -4.303  1.00 20.00     0.034 C 
HETATM    5  C5  UNL     1     -34.463  17.526  -6.491  1.00 20.00     0.057 C 
HETATM    6  C6  UNL     1     -34.129  15.089  -5.717  1.00 20.00     0.057 C 
HETATM    7  C7  UNL     1     -33.759  18.238  -4.341  1.00 20.00     0.275 C 
HETATM    8  C8  UNL     1     -33.441  15.921  -3.605  1.00 20.00     0.275 C 
HETATM    9  C9  UNL     1     -34.829  16.429  -5.491  1.00 20.00     0.221 C 
HETATM   10  N10 UNL     1     -34.364  16.912  -4.171  1.00 20.00     0.110 N 
ENDROOT
TORSDOF 0
ENDMDL
