MODEL 1
REMARK VINA RESULT:      -4.2      0.000      0.000
REMARK  2 active torsions:
REMARK  status: ('A' for Active; 'I' for Inactive)
REMARK    1  A    between atoms: C1_1  and  C4_4 
REMARK    2  A    between atoms: C2_2  and  C5_5 
ROOT
HETATM    1  C5  UNL     1     -31.233  18.116  -0.488  1.00 20.00     0.235 A 
HETATM    2  C6  UNL     1     -32.676  18.201  -0.933  1.00 20.00     0.092 A 
HETATM    3  C8  UNL     1     -33.777  18.572   0.014  1.00 20.00     0.049 C 
HETATM    4  C9  UNL     1     -33.084  17.459  -2.167  1.00 20.00     0.049 C 
HETATM    5  O10 UNL     1     -31.745  19.262  -1.180  1.00 20.00    -0.357 OA
ENDROOT
BRANCH   1   6
HETATM    6  C2  UNL     1     -30.851  18.411   0.869  1.00 20.00    -0.066 C 
HETATM    7  C1  UNL     1     -30.533  18.657   2.001  1.00 20.00    -0.070 C 
BRANCH   7   8
HETATM    8  C4  UNL     1     -30.156  18.955   3.344  1.00 20.00    -0.018 C 
HETATM    9  C3  UNL     1     -31.105  19.251   4.243  1.00 20.00     0.028 C 
HETATM   10  C7  UNL     1     -28.700  18.929   3.712  1.00 20.00     0.057 C 
ENDBRANCH   7   8
ENDBRANCH   1   6
TORSDOF 2
ENDMDL
MODEL 2
REMARK VINA RESULT:      -4.0      2.090      6.044
REMARK  2 active torsions:
REMARK  status: ('A' for Active; 'I' for Inactive)
REMARK    1  A    between atoms: C1_1  and  C4_4 
REMARK    2  A    between atoms: C2_2  and  C5_5 
ROOT
HETATM    1  C5  UNL     1     -33.666  17.845  -0.230  1.00 20.00     0.235 A 
HETATM    2  C6  UNL     1     -32.425  18.497   0.337  1.00 20.00     0.092 A 
HETATM    3  C8  UNL     1     -31.131  18.528  -0.418  1.00 20.00     0.049 C 
HETATM    4  C9  UNL     1     -32.333  18.680   1.820  1.00 20.00     0.049 C 
HETATM    5  O10 UNL     1     -33.469  19.263  -0.276  1.00 20.00    -0.357 OA
ENDROOT
BRANCH   1   6
HETATM    6  C2  UNL     1     -33.662  17.241  -1.538  1.00 20.00    -0.066 C 
HETATM    7  C1  UNL     1     -33.658  16.738  -2.629  1.00 20.00    -0.070 C 
BRANCH   7   8
HETATM    8  C4  UNL     1     -33.660  16.143  -3.926  1.00 20.00    -0.018 C 
HETATM    9  C3  UNL     1     -32.934  15.036  -4.142  1.00 20.00     0.028 C 
HETATM   10  C7  UNL     1     -34.476  16.778  -5.014  1.00 20.00     0.057 C 
ENDBRANCH   7   8
ENDBRANCH   1   6
TORSDOF 2
ENDMDL
MODEL 3
REMARK VINA RESULT:      -3.9      3.374      5.283
REMARK  2 active torsions:
REMARK  status: ('A' for Active; 'I' for Inactive)
REMARK    1  A    between atoms: C1_1  and  C4_4 
REMARK    2  A    between atoms: C2_2  and  C5_5 
ROOT
HETATM    1  C5  UNL     1     -34.006  17.032  -4.686  1.00 20.00     0.235 A 
HETATM    2  C6  UNL     1     -34.225  15.594  -5.100  1.00 20.00     0.092 A 
HETATM    3  C8  UNL     1     -34.044  14.456  -4.143  1.00 20.00     0.049 C 
HETATM    4  C9  UNL     1     -34.148  15.254  -6.556  1.00 20.00     0.049 C 
HETATM    5  O10 UNL     1     -35.317  16.460  -4.768  1.00 20.00    -0.357 OA
ENDROOT
BRANCH   1   6
HETATM    6  C2  UNL     1     -33.631  17.371  -3.337  1.00 20.00    -0.066 C 
HETATM    7  C1  UNL     1     -33.319  17.656  -2.213  1.00 20.00    -0.070 C 
BRANCH   7   8
HETATM    8  C4  UNL     1     -32.945  17.998  -0.879  1.00 20.00    -0.018 C 
HETATM    9  C3  UNL     1     -33.865  17.945   0.096  1.00 20.00     0.028 C 
HETATM   10  C7  UNL     1     -31.528  18.411  -0.606  1.00 20.00     0.057 C 
ENDBRANCH   7   8
ENDBRANCH   1   6
TORSDOF 2
ENDMDL
MODEL 4
REMARK VINA RESULT:      -3.9      3.539      5.395
REMARK  2 active torsions:
REMARK  status: ('A' for Active; 'I' for Inactive)
REMARK    1  A    between atoms: C1_1  and  C4_4 
REMARK    2  A    between atoms: C2_2  and  C5_5 
ROOT
HETATM    1  C5  UNL     1     -33.955  15.268  -3.810  1.00 20.00     0.235 A 
HETATM    2  C6  UNL     1     -34.517  15.726  -5.137  1.00 20.00     0.092 A 
HETATM    3  C8  UNL     1     -34.753  17.174  -5.442  1.00 20.00     0.049 C 
HETATM    4  C9  UNL     1     -35.288  14.741  -5.960  1.00 20.00     0.049 C 
HETATM    5  O10 UNL     1     -33.134  15.387  -4.978  1.00 20.00    -0.357 OA
ENDROOT
BRANCH   1   6
HETATM    6  C2  UNL     1     -33.600  16.214  -2.783  1.00 20.00    -0.066 C 
HETATM    7  C1  UNL     1     -33.303  17.003  -1.927  1.00 20.00    -0.070 C 
BRANCH   7   8
HETATM    8  C4  UNL     1     -32.951  17.935  -0.905  1.00 20.00    -0.018 C 
HETATM    9  C3  UNL     1     -31.763  18.554  -0.962  1.00 20.00     0.028 C 
HETATM   10  C7  UNL     1     -33.925  18.193   0.208  1.00 20.00     0.057 C 
ENDBRANCH   7   8
ENDBRANCH   1   6
TORSDOF 2
ENDMDL
MODEL 5
REMARK VINA RESULT:      -3.9      3.414      5.371
REMARK  2 active torsions:
REMARK  status: ('A' for Active; 'I' for Inactive)
REMARK    1  A    between atoms: C1_1  and  C4_4 
REMARK    2  A    between atoms: C2_2  and  C5_5 
ROOT
HETATM    1  C5  UNL     1     -33.979  17.047  -4.685  1.00 20.00     0.235 A 
HETATM    2  C6  UNL     1     -34.189  15.605  -5.089  1.00 20.00     0.092 A 
HETATM    3  C8  UNL     1     -33.977  14.474  -4.131  1.00 20.00     0.049 C 
HETATM    4  C9  UNL     1     -34.136  15.261  -6.545  1.00 20.00     0.049 C 
HETATM    5  O10 UNL     1     -35.284  16.461  -4.739  1.00 20.00    -0.357 OA
ENDROOT
BRANCH   1   6
HETATM    6  C2  UNL     1     -33.582  17.397  -3.345  1.00 20.00    -0.066 C 
HETATM    7  C1  UNL     1     -33.251  17.689  -2.228  1.00 20.00    -0.070 C 
BRANCH   7   8
HETATM    8  C4  UNL     1     -32.853  18.040  -0.903  1.00 20.00    -0.018 C 
HETATM    9  C3  UNL     1     -31.586  18.416  -0.675  1.00 20.00     0.028 C 
HETATM   10  C7  UNL     1     -33.869  17.974   0.201  1.00 20.00     0.057 C 
ENDBRANCH   7   8
ENDBRANCH   1   6
TORSDOF 2
ENDMDL
MODEL 6
REMARK VINA RESULT:      -3.7      3.345      7.326
REMARK  2 active torsions:
REMARK  status: ('A' for Active; 'I' for Inactive)
REMARK    1  A    between atoms: C1_1  and  C4_4 
REMARK    2  A    between atoms: C2_2  and  C5_5 
ROOT
HETATM    1  C5  UNL     1     -33.191  16.846  -2.103  1.00 20.00     0.235 A 
HETATM    2  C6  UNL     1     -32.799  18.307  -2.068  1.00 20.00     0.092 A 
HETATM    3  C8  UNL     1     -32.880  19.179  -3.283  1.00 20.00     0.049 C 
HETATM    4  C9  UNL     1     -31.884  18.770  -0.978  1.00 20.00     0.049 C 
HETATM    5  O10 UNL     1     -34.074  17.853  -1.596  1.00 20.00    -0.357 OA
ENDROOT
BRANCH   1   6
HETATM    6  C2  UNL     1     -33.681  16.234  -3.311  1.00 20.00    -0.066 C 
HETATM    7  C1  UNL     1     -34.090  15.724  -4.319  1.00 20.00    -0.070 C 
BRANCH   7   8
HETATM    8  C4  UNL     1     -34.583  15.117  -5.513  1.00 20.00    -0.018 C 
HETATM    9  C3  UNL     1     -33.885  15.244  -6.651  1.00 20.00     0.028 C 
HETATM   10  C7  UNL     1     -35.873  14.352  -5.459  1.00 20.00     0.057 C 
ENDBRANCH   7   8
ENDBRANCH   1   6
TORSDOF 2
ENDMDL
MODEL 7
REMARK VINA RESULT:      -3.7     10.995     11.832
REMARK  2 active torsions:
REMARK  status: ('A' for Active; 'I' for Inactive)
REMARK    1  A    between atoms: C1_1  and  C4_4 
REMARK    2  A    between atoms: C2_2  and  C5_5 
ROOT
HETATM    1  C5  UNL     1     -40.514  12.966   5.606  1.00 20.00     0.235 A 
HETATM    2  C6  UNL     1     -39.304  12.113   5.295  1.00 20.00     0.092 A 
HETATM    3  C8  UNL     1     -38.028  12.234   6.071  1.00 20.00     0.049 C 
HETATM    4  C9  UNL     1     -39.197  11.502   3.933  1.00 20.00     0.049 C 
HETATM    5  O10 UNL     1     -40.404  11.614   6.066  1.00 20.00    -0.357 OA
ENDROOT
BRANCH   1   6
HETATM    6  C2  UNL     1     -40.497  13.923   6.682  1.00 20.00    -0.066 C 
HETATM    7  C1  UNL     1     -40.482  14.720   7.581  1.00 20.00    -0.070 C 
BRANCH   7   8
HETATM    8  C4  UNL     1     -40.471  15.665   8.650  1.00 20.00    -0.018 C 
HETATM    9  C3  UNL     1     -40.160  15.254   9.888  1.00 20.00     0.028 C 
HETATM   10  C7  UNL     1     -40.809  17.098   8.355  1.00 20.00     0.057 C 
ENDBRANCH   7   8
ENDBRANCH   1   6
TORSDOF 2
ENDMDL
MODEL 8
REMARK VINA RESULT:      -3.4     16.333     18.615
REMARK  2 active torsions:
REMARK  status: ('A' for Active; 'I' for Inactive)
REMARK    1  A    between atoms: C1_1  and  C4_4 
REMARK    2  A    between atoms: C2_2  and  C5_5 
ROOT
HETATM    1  C5  UNL     1     -43.337   5.522  -0.544  1.00 20.00     0.235 A 
HETATM    2  C6  UNL     1     -42.226   6.368   0.038  1.00 20.00     0.092 A 
HETATM    3  C8  UNL     1     -40.790   6.156  -0.333  1.00 20.00     0.049 C 
HETATM    4  C9  UNL     1     -42.479   7.082   1.329  1.00 20.00     0.049 C 
HETATM    5  O10 UNL     1     -43.041   6.830  -1.046  1.00 20.00    -0.357 OA
ENDROOT
BRANCH   1   6
HETATM    6  C2  UNL     1     -43.060   4.483  -1.502  1.00 20.00    -0.066 C 
HETATM    7  C1  UNL     1     -42.828   3.616  -2.301  1.00 20.00    -0.070 C 
BRANCH   7   8
HETATM    8  C4  UNL     1     -42.552   2.592  -3.255  1.00 20.00    -0.018 C 
HETATM    9  C3  UNL     1     -41.530   2.747  -4.109  1.00 20.00     0.028 C 
HETATM   10  C7  UNL     1     -43.417   1.365  -3.274  1.00 20.00     0.057 C 
ENDBRANCH   7   8
ENDBRANCH   1   6
TORSDOF 2
ENDMDL
MODEL 9
REMARK VINA RESULT:      -3.3     22.851     23.894
REMARK  2 active torsions:
REMARK  status: ('A' for Active; 'I' for Inactive)
REMARK    1  A    between atoms: C1_1  and  C4_4 
REMARK    2  A    between atoms: C2_2  and  C5_5 
ROOT
HETATM    1  C5  UNL     1     -27.245  -2.501  10.625  1.00 20.00     0.235 A 
HETATM    2  C6  UNL     1     -27.502  -1.298  11.505  1.00 20.00     0.092 A 
HETATM    3  C8  UNL     1     -26.397  -0.388  11.948  1.00 20.00     0.049 C 
HETATM    4  C9  UNL     1     -28.750  -1.277  12.332  1.00 20.00     0.049 C 
HETATM    5  O10 UNL     1     -27.745  -1.268  10.094  1.00 20.00    -0.357 OA
ENDROOT
BRANCH   1   6
HETATM    6  C2  UNL     1     -25.920  -2.812  10.154  1.00 20.00    -0.066 C 
HETATM    7  C1  UNL     1     -24.815  -3.073   9.762  1.00 20.00    -0.070 C 
BRANCH   7   8
HETATM    8  C4  UNL     1     -23.500  -3.382   9.302  1.00 20.00    -0.018 C 
HETATM    9  C3  UNL     1     -22.591  -3.845  10.172  1.00 20.00     0.028 C 
HETATM   10  C7  UNL     1     -23.173  -3.178   7.851  1.00 20.00     0.057 C 
ENDBRANCH   7   8
ENDBRANCH   1   6
TORSDOF 2
ENDMDL
