MODEL 1
REMARK VINA RESULT:      -3.8      0.000      0.000
REMARK  1 active torsions:
REMARK  status: ('A' for Active; 'I' for Inactive)
REMARK    1  A    between atoms: C1_1  and  C7_7 
ROOT
HETATM    1  C2  UNL     1     -24.634  18.713   9.983  1.00 20.00     0.048 C 
HETATM    2  C3  UNL     1     -24.128  16.444  10.881  1.00 20.00     0.048 C 
HETATM    3  C4  UNL     1     -25.397  19.011  11.277  1.00 20.00     0.273 C 
HETATM    4  C5  UNL     1     -24.907  16.813  12.146  1.00 20.00     0.273 C 
HETATM    5  C6  UNL     1     -23.243  18.396  11.858  1.00 20.00     0.288 C 
HETATM    6  C7  UNL     1     -23.524  17.794  10.492  1.00 20.00     0.042 C 
HETATM    7  N8  UNL     1     -24.647  18.269  12.329  1.00 20.00     0.089 N 
ENDROOT
BRANCH   6   8
HETATM    8  C1  UNL     1     -22.336  17.695   9.598  1.00 20.00     0.242 C 
HETATM    9  O9  UNL     1     -22.171  16.787   8.790  1.00 20.00    -0.306 OA
ENDBRANCH   6   8
TORSDOF 1
ENDMDL
MODEL 2
REMARK VINA RESULT:      -3.7     15.584     16.425
REMARK  1 active torsions:
REMARK  status: ('A' for Active; 'I' for Inactive)
REMARK    1  A    between atoms: C1_1  and  C7_7 
ROOT
HETATM    1  C2  UNL     1     -33.143   5.936   3.914  1.00 20.00     0.048 C 
HETATM    2  C3  UNL     1     -33.674   6.559   6.269  1.00 20.00     0.048 C 
HETATM    3  C4  UNL     1     -34.034   4.702   4.082  1.00 20.00     0.273 C 
HETATM    4  C5  UNL     1     -34.548   5.305   6.362  1.00 20.00     0.273 C 
HETATM    5  C6  UNL     1     -35.315   6.566   4.579  1.00 20.00     0.288 C 
HETATM    6  C7  UNL     1     -33.862   6.951   4.803  1.00 20.00     0.042 C 
HETATM    7  N8  UNL     1     -35.123   5.152   4.996  1.00 20.00     0.089 N 
ENDROOT
BRANCH   6   8
HETATM    8  C1  UNL     1     -33.543   8.376   4.507  1.00 20.00     0.242 C 
HETATM    9  O9  UNL     1     -32.405   8.833   4.530  1.00 20.00    -0.306 OA
ENDBRANCH   6   8
TORSDOF 1
ENDMDL
MODEL 3
REMARK VINA RESULT:      -3.4     23.370     23.957
REMARK  1 active torsions:
REMARK  status: ('A' for Active; 'I' for Inactive)
REMARK    1  A    between atoms: C1_1  and  C7_7 
ROOT
HETATM    1  C2  UNL     1     -43.315   7.233   1.361  1.00 20.00     0.048 C 
HETATM    2  C3  UNL     1     -40.856   7.146   0.966  1.00 20.00     0.048 C 
HETATM    3  C4  UNL     1     -43.417   8.272   0.242  1.00 20.00     0.273 C 
HETATM    4  C5  UNL     1     -41.035   8.188  -0.140  1.00 20.00     0.273 C 
HETATM    5  C6  UNL     1     -42.403   6.389  -0.641  1.00 20.00     0.288 C 
HETATM    6  C7  UNL     1     -42.164   6.361   0.859  1.00 20.00     0.042 C 
HETATM    7  N8  UNL     1     -42.365   7.872  -0.735  1.00 20.00     0.089 N 
ENDROOT
BRANCH   6   8
HETATM    8  C1  UNL     1     -42.107   4.997   1.456  1.00 20.00     0.242 C 
HETATM    9  O9  UNL     1     -43.001   4.166   1.329  1.00 20.00    -0.306 OA
ENDBRANCH   6   8
TORSDOF 1
ENDMDL
MODEL 4
REMARK VINA RESULT:      -3.4     15.263     16.171
REMARK  1 active torsions:
REMARK  status: ('A' for Active; 'I' for Inactive)
REMARK    1  A    between atoms: C1_1  and  C7_7 
ROOT
HETATM    1  C2  UNL     1     -33.187  16.846  -2.346  1.00 20.00     0.048 C 
HETATM    2  C3  UNL     1     -34.364  18.677  -1.131  1.00 20.00     0.048 C 
HETATM    3  C4  UNL     1     -33.930  17.266  -3.617  1.00 20.00     0.273 C 
HETATM    4  C5  UNL     1     -35.070  19.039  -2.440  1.00 20.00     0.273 C 
HETATM    5  C6  UNL     1     -32.789  19.119  -2.827  1.00 20.00     0.288 C 
HETATM    6  C7  UNL     1     -33.007  18.192  -1.643  1.00 20.00     0.042 C 
HETATM    7  N8  UNL     1     -34.062  18.746  -3.498  1.00 20.00     0.089 N 
ENDROOT
BRANCH   6   8
HETATM    8  C1  UNL     1     -31.923  18.222  -0.621  1.00 20.00     0.242 C 
HETATM    9  O9  UNL     1     -30.897  18.883  -0.743  1.00 20.00    -0.306 OA
ENDBRANCH   6   8
TORSDOF 1
ENDMDL
MODEL 5
REMARK VINA RESULT:      -3.3     15.210     16.064
REMARK  1 active torsions:
REMARK  status: ('A' for Active; 'I' for Inactive)
REMARK    1  A    between atoms: C1_1  and  C7_7 
ROOT
HETATM    1  C2  UNL     1     -33.160   7.268   5.761  1.00 20.00     0.048 C 
HETATM    2  C3  UNL     1     -32.880   6.165   3.543  1.00 20.00     0.048 C 
HETATM    3  C4  UNL     1     -32.445   8.498   5.195  1.00 20.00     0.273 C 
HETATM    4  C5  UNL     1     -32.173   7.429   3.047  1.00 20.00     0.273 C 
HETATM    5  C6  UNL     1     -34.261   8.052   3.831  1.00 20.00     0.288 C 
HETATM    6  C7  UNL     1     -33.895   6.751   4.525  1.00 20.00     0.042 C 
HETATM    7  N8  UNL     1     -32.859   8.542   3.764  1.00 20.00     0.089 N 
ENDROOT
BRANCH   6   8
HETATM    8  C1  UNL     1     -35.050   5.854   4.815  1.00 20.00     0.242 C 
HETATM    9  O9  UNL     1     -34.950   4.636   4.920  1.00 20.00    -0.306 OA
ENDBRANCH   6   8
TORSDOF 1
ENDMDL
MODEL 6
REMARK VINA RESULT:      -3.3     23.919     24.517
REMARK  1 active torsions:
REMARK  status: ('A' for Active; 'I' for Inactive)
REMARK    1  A    between atoms: C1_1  and  C7_7 
ROOT
HETATM    1  C2  UNL     1     -42.791   5.027   0.945  1.00 20.00     0.048 C 
HETATM    2  C3  UNL     1     -40.818   6.178  -0.055  1.00 20.00     0.048 C 
HETATM    3  C4  UNL     1     -43.014   6.260   1.824  1.00 20.00     0.273 C 
HETATM    4  C5  UNL     1     -41.104   7.374   0.857  1.00 20.00     0.273 C 
HETATM    5  C6  UNL     1     -43.016   6.962  -0.382  1.00 20.00     0.288 C 
HETATM    6  C7  UNL     1     -42.232   5.661  -0.328  1.00 20.00     0.042 C 
HETATM    7  N8  UNL     1     -42.589   7.406   0.971  1.00 20.00     0.089 N 
ENDROOT
BRANCH   6   8
HETATM    8  C1  UNL     1     -42.346   4.815  -1.550  1.00 20.00     0.242 C 
HETATM    9  O9  UNL     1     -43.391   4.285  -1.910  1.00 20.00    -0.306 OA
ENDBRANCH   6   8
TORSDOF 1
ENDMDL
MODEL 7
REMARK VINA RESULT:      -3.3      2.258      3.345
REMARK  1 active torsions:
REMARK  status: ('A' for Active; 'I' for Inactive)
REMARK    1  A    between atoms: C1_1  and  C7_7 
ROOT
HETATM    1  C2  UNL     1     -23.717  16.752  10.217  1.00 20.00     0.048 C 
HETATM    2  C3  UNL     1     -24.705  18.960   9.618  1.00 20.00     0.048 C 
HETATM    3  C4  UNL     1     -22.499  17.110   9.361  1.00 20.00     0.273 C 
HETATM    4  C5  UNL     1     -23.457  19.248   8.781  1.00 20.00     0.273 C 
HETATM    5  C6  UNL     1     -22.764  18.781  10.940  1.00 20.00     0.288 C 
HETATM    6  C7  UNL     1     -24.121  18.123  10.757  1.00 20.00     0.042 C 
HETATM    7  N8  UNL     1     -22.350  18.583   9.526  1.00 20.00     0.089 N 
ENDROOT
BRANCH   6   8
HETATM    8  C1  UNL     1     -24.966  18.087  11.983  1.00 20.00     0.242 C 
HETATM    9  O9  UNL     1     -25.768  17.191  12.226  1.00 20.00    -0.306 OA
ENDBRANCH   6   8
TORSDOF 1
ENDMDL
MODEL 8
REMARK VINA RESULT:      -3.1     15.538     16.367
REMARK  1 active torsions:
REMARK  status: ('A' for Active; 'I' for Inactive)
REMARK    1  A    between atoms: C1_1  and  C7_7 
ROOT
HETATM    1  C2  UNL     1     -33.827   6.686   6.401  1.00 20.00     0.048 C 
HETATM    2  C3  UNL     1     -35.199   7.265   4.403  1.00 20.00     0.048 C 
HETATM    3  C4  UNL     1     -34.363   5.255   6.305  1.00 20.00     0.273 C 
HETATM    4  C5  UNL     1     -35.693   5.817   4.370  1.00 20.00     0.273 C 
HETATM    5  C6  UNL     1     -33.380   5.774   4.274  1.00 20.00     0.288 C 
HETATM    6  C7  UNL     1     -33.774   7.088   4.928  1.00 20.00     0.042 C 
HETATM    7  N8  UNL     1     -34.527   5.018   4.842  1.00 20.00     0.089 N 
ENDROOT
BRANCH   6   8
HETATM    8  C1  UNL     1     -32.866   8.231   4.624  1.00 20.00     0.242 C 
HETATM    9  O9  UNL     1     -32.537   8.549   3.487  1.00 20.00    -0.306 OA
ENDBRANCH   6   8
TORSDOF 1
ENDMDL
MODEL 9
REMARK VINA RESULT:      -3.1     18.046     18.685
REMARK  1 active torsions:
REMARK  status: ('A' for Active; 'I' for Inactive)
REMARK    1  A    between atoms: C1_1  and  C7_7 
ROOT
HETATM    1  C2  UNL     1     -41.746  13.902   5.073  1.00 20.00     0.048 C 
HETATM    2  C3  UNL     1     -42.500  12.436   6.942  1.00 20.00     0.048 C 
HETATM    3  C4  UNL     1     -42.360  15.094   5.813  1.00 20.00     0.273 C 
HETATM    4  C5  UNL     1     -43.090  13.674   7.623  1.00 20.00     0.273 C 
HETATM    5  C6  UNL     1     -40.844  14.085   7.242  1.00 20.00     0.288 C 
HETATM    6  C7  UNL     1     -41.280  13.031   6.238  1.00 20.00     0.042 C 
HETATM    7  N8  UNL     1     -42.159  14.778   7.255  1.00 20.00     0.089 N 
ENDROOT
BRANCH   6   8
HETATM    8  C1  UNL     1     -40.230  12.032   5.890  1.00 20.00     0.242 C 
HETATM    9  O9  UNL     1     -39.282  11.765   6.620  1.00 20.00    -0.306 OA
ENDBRANCH   6   8
TORSDOF 1
ENDMDL
