MODEL 1
REMARK VINA RESULT:      -4.4      0.000      0.000
REMARK  0 active torsions:
REMARK  status: ('A' for Active; 'I' for Inactive)
ROOT
HETATM    1  C1  UNL     1     -21.691  18.677  12.332  1.00 20.00     0.013 C 
HETATM    2  C2  UNL     1     -22.524  18.179  11.624  1.00 20.00    -0.104 C 
HETATM    3  C3  UNL     1     -24.430  19.198   9.037  1.00 20.00     0.048 C 
HETATM    4  C4  UNL     1     -24.465  18.662  10.263  1.00 20.00    -0.001 C 
HETATM    5  C5  UNL     1     -23.395  18.775   8.065  1.00 20.00     0.149 C 
HETATM    6  C6  UNL     1     -22.331  17.803   8.521  1.00 20.00     0.085 C 
HETATM    7  C7  UNL     1     -22.879  16.838   9.568  1.00 20.00     0.034 C 
HETATM    8  C8  UNL     1     -23.548  17.564  10.753  1.00 20.00     0.037 C 
HETATM    9  C9  UNL     1     -24.351  16.543  11.575  1.00 20.00     0.034 C 
HETATM   10  O10 UNL     1     -23.382  19.263   6.936  1.00 20.00    -0.293 OA
ENDROOT
TORSDOF 0
ENDMDL
MODEL 2
REMARK VINA RESULT:      -4.1     15.454     16.614
REMARK  0 active torsions:
REMARK  status: ('A' for Active; 'I' for Inactive)
ROOT
HETATM    1  C1  UNL     1     -36.667   6.269   3.854  1.00 20.00     0.013 C 
HETATM    2  C2  UNL     1     -35.541   6.056   4.210  1.00 20.00    -0.104 C 
HETATM    3  C3  UNL     1     -32.525   7.466   3.679  1.00 20.00     0.048 C 
HETATM    4  C4  UNL     1     -33.218   6.325   3.587  1.00 20.00    -0.001 C 
HETATM    5  C5  UNL     1     -32.696   8.353   4.854  1.00 20.00     0.149 C 
HETATM    6  C6  UNL     1     -33.735   7.987   5.889  1.00 20.00     0.085 C 
HETATM    7  C7  UNL     1     -33.885   6.474   6.008  1.00 20.00     0.034 C 
HETATM    8  C8  UNL     1     -34.154   5.794   4.650  1.00 20.00     0.037 C 
HETATM    9  C9  UNL     1     -33.961   4.277   4.804  1.00 20.00     0.034 C 
HETATM   10  O10 UNL     1     -32.042   9.392   4.935  1.00 20.00    -0.293 OA
ENDROOT
TORSDOF 0
ENDMDL
MODEL 3
REMARK VINA RESULT:      -4.1     13.298     15.008
REMARK  0 active torsions:
REMARK  status: ('A' for Active; 'I' for Inactive)
ROOT
HETATM    1  C1  UNL     1     -33.293  16.048  -3.027  1.00 20.00     0.013 C 
HETATM    2  C2  UNL     1     -33.456  17.107  -2.487  1.00 20.00    -0.104 C 
HETATM    3  C3  UNL     1     -33.611  18.206   0.696  1.00 20.00     0.048 C 
HETATM    4  C4  UNL     1     -34.272  18.158  -0.466  1.00 20.00    -0.001 C 
HETATM    5  C5  UNL     1     -32.150  18.456   0.717  1.00 20.00     0.149 C 
HETATM    6  C6  UNL     1     -31.418  18.557  -0.602  1.00 20.00     0.085 C 
HETATM    7  C7  UNL     1     -32.311  19.156  -1.684  1.00 20.00     0.034 C 
HETATM    8  C8  UNL     1     -33.656  18.413  -1.823  1.00 20.00     0.037 C 
HETATM    9  C9  UNL     1     -34.610  19.263  -2.677  1.00 20.00     0.034 C 
HETATM   10  O10 UNL     1     -31.556  18.513   1.792  1.00 20.00    -0.293 OA
ENDROOT
TORSDOF 0
ENDMDL
MODEL 4
REMARK VINA RESULT:      -4.0     17.190     18.839
REMARK  0 active torsions:
REMARK  status: ('A' for Active; 'I' for Inactive)
ROOT
HETATM    1  C1  UNL     1     -33.739  15.423  -7.815  1.00 20.00     0.013 C 
HETATM    2  C2  UNL     1     -34.246  15.412  -6.727  1.00 20.00    -0.104 C 
HETATM    3  C3  UNL     1     -33.194  15.872  -3.558  1.00 20.00     0.048 C 
HETATM    4  C4  UNL     1     -33.813  15.017  -4.379  1.00 20.00    -0.001 C 
HETATM    5  C5  UNL     1     -33.475  17.325  -3.639  1.00 20.00     0.149 C 
HETATM    6  C6  UNL     1     -34.396  17.821  -4.730  1.00 20.00     0.085 C 
HETATM    7  C7  UNL     1     -35.467  16.785  -5.060  1.00 20.00     0.034 C 
HETATM    8  C8  UNL     1     -34.873  15.399  -5.387  1.00 20.00     0.037 C 
HETATM    9  C9  UNL     1     -36.002  14.357  -5.378  1.00 20.00     0.034 C 
HETATM   10  O10 UNL     1     -32.911  18.100  -2.869  1.00 20.00    -0.293 OA
ENDROOT
TORSDOF 0
ENDMDL
MODEL 5
REMARK VINA RESULT:      -3.7     18.238     19.329
REMARK  0 active torsions:
REMARK  status: ('A' for Active; 'I' for Inactive)
ROOT
HETATM    1  C1  UNL     1     -39.513  11.687   5.786  1.00 20.00     0.013 C 
HETATM    2  C2  UNL     1     -40.375  12.513   5.912  1.00 20.00    -0.104 C 
HETATM    3  C3  UNL     1     -42.960  13.016   8.016  1.00 20.00     0.048 C 
HETATM    4  C4  UNL     1     -42.624  12.872   6.729  1.00 20.00    -0.001 C 
HETATM    5  C5  UNL     1     -42.107  13.813   8.928  1.00 20.00     0.149 C 
HETATM    6  C6  UNL     1     -40.808  14.373   8.394  1.00 20.00     0.085 C 
HETATM    7  C7  UNL     1     -40.924  14.715   6.912  1.00 20.00     0.034 C 
HETATM    8  C8  UNL     1     -41.436  13.531   6.066  1.00 20.00     0.037 C 
HETATM    9  C9  UNL     1     -41.835  14.047   4.674  1.00 20.00     0.034 C 
HETATM   10  O10 UNL     1     -42.434  13.951  10.105  1.00 20.00    -0.293 OA
ENDROOT
TORSDOF 0
ENDMDL
MODEL 6
REMARK VINA RESULT:      -3.7     23.356     24.191
REMARK  0 active torsions:
REMARK  status: ('A' for Active; 'I' for Inactive)
ROOT
HETATM    1  C1  UNL     1     -43.417   5.036   2.532  1.00 20.00     0.013 C 
HETATM    2  C2  UNL     1     -43.109   5.346   1.414  1.00 20.00    -0.104 C 
HETATM    3  C3  UNL     1     -42.534   8.233  -0.229  1.00 20.00     0.048 C 
HETATM    4  C4  UNL     1     -43.268   7.114  -0.230  1.00 20.00    -0.001 C 
HETATM    5  C5  UNL     1     -41.094   8.183   0.120  1.00 20.00     0.149 C 
HETATM    6  C6  UNL     1     -40.505   6.864   0.564  1.00 20.00     0.085 C 
HETATM    7  C7  UNL     1     -41.196   5.692  -0.126  1.00 20.00     0.034 C 
HETATM    8  C8  UNL     1     -42.730   5.726   0.036  1.00 20.00     0.037 C 
HETATM    9  C9  UNL     1     -43.359   4.725  -0.946  1.00 20.00     0.034 C 
HETATM   10  O10 UNL     1     -40.426   9.216   0.103  1.00 20.00    -0.293 OA
ENDROOT
TORSDOF 0
ENDMDL
MODEL 7
REMARK VINA RESULT:      -3.7     14.946     16.489
REMARK  0 active torsions:
REMARK  status: ('A' for Active; 'I' for Inactive)
ROOT
HETATM    1  C1  UNL     1     -35.172  19.263  -0.560  1.00 20.00     0.013 C 
HETATM    2  C2  UNL     1     -34.231  18.816  -1.156  1.00 20.00    -0.104 C 
HETATM    3  C3  UNL     1     -33.680  16.190  -3.197  1.00 20.00     0.048 C 
HETATM    4  C4  UNL     1     -33.288  16.780  -2.062  1.00 20.00    -0.001 C 
HETATM    5  C5  UNL     1     -34.009  17.005  -4.390  1.00 20.00     0.149 C 
HETATM    6  C6  UNL     1     -33.983  18.511  -4.263  1.00 20.00     0.085 C 
HETATM    7  C7  UNL     1     -32.926  18.961  -3.260  1.00 20.00     0.034 C 
HETATM    8  C8  UNL     1     -33.071  18.266  -1.890  1.00 20.00     0.037 C 
HETATM    9  C9  UNL     1     -31.798  18.516  -1.066  1.00 20.00     0.034 C 
HETATM   10  O10 UNL     1     -34.354  16.451  -5.432  1.00 20.00    -0.293 OA
ENDROOT
TORSDOF 0
ENDMDL
MODEL 8
REMARK VINA RESULT:      -3.6     18.378     19.499
REMARK  0 active torsions:
REMARK  status: ('A' for Active; 'I' for Inactive)
ROOT
HETATM    1  C1  UNL     1     -42.318  14.623   4.089  1.00 20.00     0.013 C 
HETATM    2  C2  UNL     1     -41.784  13.968   4.941  1.00 20.00    -0.104 C 
HETATM    3  C3  UNL     1     -40.827  14.462   8.136  1.00 20.00     0.048 C 
HETATM    4  C4  UNL     1     -40.398  14.103   6.921  1.00 20.00    -0.001 C 
HETATM    5  C5  UNL     1     -42.138  13.988   8.637  1.00 20.00     0.149 C 
HETATM    6  C6  UNL     1     -43.014  13.175   7.711  1.00 20.00     0.085 C 
HETATM    7  C7  UNL     1     -42.172  12.328   6.761  1.00 20.00     0.034 C 
HETATM    8  C8  UNL     1     -41.126  13.160   5.990  1.00 20.00     0.037 C 
HETATM    9  C9  UNL     1     -40.122  12.205   5.324  1.00 20.00     0.034 C 
HETATM   10  O10 UNL     1     -42.516  14.312   9.762  1.00 20.00    -0.293 OA
ENDROOT
TORSDOF 0
ENDMDL
MODEL 9
REMARK VINA RESULT:      -3.6     19.448     20.907
REMARK  0 active torsions:
REMARK  status: ('A' for Active; 'I' for Inactive)
ROOT
HETATM    1  C1  UNL     1     -23.894  -3.204   9.037  1.00 20.00     0.013 C 
HETATM    2  C2  UNL     1     -24.602  -3.154  10.006  1.00 20.00    -0.104 C 
HETATM    3  C3  UNL     1     -26.514  -0.810  11.493  1.00 20.00     0.048 C 
HETATM    4  C4  UNL     1     -25.502  -1.664  11.686  1.00 20.00    -0.001 C 
HETATM    5  C5  UNL     1     -27.693  -1.215  10.691  1.00 20.00     0.149 C 
HETATM    6  C6  UNL     1     -27.679  -2.570  10.022  1.00 20.00     0.085 C 
HETATM    7  C7  UNL     1     -26.894  -3.584  10.849  1.00 20.00     0.034 C 
HETATM    8  C8  UNL     1     -25.473  -3.095  11.199  1.00 20.00     0.037 C 
HETATM    9  C9  UNL     1     -24.886  -4.006  12.289  1.00 20.00     0.034 C 
HETATM   10  O10 UNL     1     -28.623  -0.427  10.533  1.00 20.00    -0.293 OA
ENDROOT
TORSDOF 0
ENDMDL
