MODEL 1
REMARK VINA RESULT:      -4.6      0.000      0.000
REMARK  2 active torsions:
REMARK  status: ('A' for Active; 'I' for Inactive)
REMARK    1  A    between atoms: C2_2  and  C3_3 
REMARK    2  A    between atoms: C3_3  and  C6_6 
ROOT
HETATM    1  C3  UNL     1     -33.522   6.229   3.908  1.00 20.00     0.170 C 
HETATM    2  O7  UNL     1     -33.417   5.125   3.386  1.00 20.00    -0.291 OA
ENDROOT
BRANCH   1   3
HETATM    3  C2  UNL     1     -32.678   7.392   3.495  1.00 20.00     0.047 C 
HETATM    4  C1  UNL     1     -32.111   7.473   2.285  1.00 20.00     0.035 C 
HETATM    5 BR8  UNL     1     -32.418   8.743   4.768  1.00 20.00    -0.048 Br
ENDBRANCH   1   3
BRANCH   1   6
HETATM    6  C6  UNL     1     -34.534   6.434   4.986  1.00 20.00     0.061 A 
HETATM    7  C4  UNL     1     -34.953   5.259   5.804  1.00 20.00     0.013 A 
HETATM    8  C5  UNL     1     -34.093   6.328   6.407  1.00 20.00     0.013 A 
ENDBRANCH   1   6
TORSDOF 2
ENDMDL
MODEL 2
REMARK VINA RESULT:      -4.5      1.443      1.540
REMARK  2 active torsions:
REMARK  status: ('A' for Active; 'I' for Inactive)
REMARK    1  A    between atoms: C2_2  and  C3_3 
REMARK    2  A    between atoms: C3_3  and  C6_6 
ROOT
HETATM    1  C3  UNL     1     -33.982   5.358   4.277  1.00 20.00     0.170 C 
HETATM    2  O7  UNL     1     -34.251   4.181   4.486  1.00 20.00    -0.291 OA
ENDROOT
BRANCH   1   3
HETATM    3  C2  UNL     1     -33.115   5.791   3.138  1.00 20.00     0.047 C 
HETATM    4  C1  UNL     1     -32.866   5.002   2.085  1.00 20.00     0.035 C 
HETATM    5 BR8  UNL     1     -32.353   7.499   3.256  1.00 20.00    -0.048 Br
ENDBRANCH   1   3
BRANCH   1   6
HETATM    6  C6  UNL     1     -34.546   6.407   5.176  1.00 20.00     0.061 A 
HETATM    7  C4  UNL     1     -34.942   6.021   6.562  1.00 20.00     0.013 A 
HETATM    8  C5  UNL     1     -33.727   6.868   6.335  1.00 20.00     0.013 A 
ENDBRANCH   1   6
TORSDOF 2
ENDMDL
MODEL 3
REMARK VINA RESULT:      -4.5      2.004      2.281
REMARK  2 active torsions:
REMARK  status: ('A' for Active; 'I' for Inactive)
REMARK    1  A    between atoms: C2_2  and  C3_3 
REMARK    2  A    between atoms: C3_3  and  C6_6 
ROOT
HETATM    1  C3  UNL     1     -33.593   7.248   5.240  1.00 20.00     0.170 C 
HETATM    2  O7  UNL     1     -33.993   7.607   6.342  1.00 20.00    -0.291 OA
ENDROOT
BRANCH   1   3
HETATM    3  C2  UNL     1     -32.642   8.069   4.429  1.00 20.00     0.047 C 
HETATM    4  C1  UNL     1     -32.143   9.232   4.867  1.00 20.00     0.035 C 
HETATM    5 BR8  UNL     1     -32.188   7.410   2.734  1.00 20.00    -0.048 Br
ENDBRANCH   1   3
BRANCH   1   6
HETATM    6  C6  UNL     1     -34.054   5.942   4.685  1.00 20.00     0.061 A 
HETATM    7  C4  UNL     1     -34.697   4.962   5.608  1.00 20.00     0.013 A 
HETATM    8  C5  UNL     1     -35.521   5.687   4.588  1.00 20.00     0.013 A 
ENDBRANCH   1   6
TORSDOF 2
ENDMDL
MODEL 4
REMARK VINA RESULT:      -4.4      2.035      2.035
REMARK  2 active torsions:
REMARK  status: ('A' for Active; 'I' for Inactive)
REMARK    1  A    between atoms: C2_2  and  C3_3 
REMARK    2  A    between atoms: C3_3  and  C6_6 
ROOT
HETATM    1  C3  UNL     1     -33.360   7.130   4.672  1.00 20.00     0.170 C 
HETATM    2  O7  UNL     1     -32.866   7.901   5.485  1.00 20.00    -0.291 OA
ENDROOT
BRANCH   1   3
HETATM    3  C2  UNL     1     -32.768   6.909   3.317  1.00 20.00     0.047 C 
HETATM    4  C1  UNL     1     -32.151   7.883   2.636  1.00 20.00     0.035 C 
HETATM    5 BR8  UNL     1     -32.949   5.194   2.582  1.00 20.00    -0.048 Br
ENDBRANCH   1   3
BRANCH   1   6
HETATM    6  C6  UNL     1     -34.588   6.366   5.041  1.00 20.00     0.061 A 
HETATM    7  C4  UNL     1     -34.436   4.966   5.534  1.00 20.00     0.013 A 
HETATM    8  C5  UNL     1     -34.830   6.059   6.481  1.00 20.00     0.013 A 
ENDBRANCH   1   6
TORSDOF 2
ENDMDL
MODEL 5
REMARK VINA RESULT:      -4.2      2.233      3.573
REMARK  2 active torsions:
REMARK  status: ('A' for Active; 'I' for Inactive)
REMARK    1  A    between atoms: C2_2  and  C3_3 
REMARK    2  A    between atoms: C3_3  and  C6_6 
ROOT
HETATM    1  C3  UNL     1     -33.763   7.024   5.154  1.00 20.00     0.170 C 
HETATM    2  O7  UNL     1     -33.863   7.178   6.365  1.00 20.00    -0.291 OA
ENDROOT
BRANCH   1   3
HETATM    3  C2  UNL     1     -34.131   5.742   4.477  1.00 20.00     0.047 C 
HETATM    4  C1  UNL     1     -35.074   4.922   4.958  1.00 20.00     0.035 C 
HETATM    5 BR8  UNL     1     -33.186   5.306   2.919  1.00 20.00    -0.048 Br
ENDBRANCH   1   3
BRANCH   1   6
HETATM    6  C6  UNL     1     -33.272   8.154   4.311  1.00 20.00     0.061 A 
HETATM    7  C4  UNL     1     -32.297   9.115   4.905  1.00 20.00     0.013 A 
HETATM    8  C5  UNL     1     -31.850   8.140   3.860  1.00 20.00     0.013 A 
ENDBRANCH   1   6
TORSDOF 2
ENDMDL
MODEL 6
REMARK VINA RESULT:      -4.0      1.906      3.245
REMARK  2 active torsions:
REMARK  status: ('A' for Active; 'I' for Inactive)
REMARK    1  A    between atoms: C2_2  and  C3_3 
REMARK    2  A    between atoms: C3_3  and  C6_6 
ROOT
HETATM    1  C3  UNL     1     -33.265   6.625   3.848  1.00 20.00     0.170 C 
HETATM    2  O7  UNL     1     -32.603   6.307   2.867  1.00 20.00    -0.291 OA
ENDROOT
BRANCH   1   3
HETATM    3  C2  UNL     1     -33.953   5.616   4.711  1.00 20.00     0.047 C 
HETATM    4  C1  UNL     1     -34.167   4.356   4.310  1.00 20.00     0.035 C 
HETATM    5 BR8  UNL     1     -34.541   6.199   6.392  1.00 20.00    -0.048 Br
ENDBRANCH   1   3
BRANCH   1   6
HETATM    6  C6  UNL     1     -33.383   8.067   4.214  1.00 20.00     0.061 A 
HETATM    7  C4  UNL     1     -32.211   8.742   4.843  1.00 20.00     0.013 A 
HETATM    8  C5  UNL     1     -32.597   9.067   3.432  1.00 20.00     0.013 A 
ENDBRANCH   1   6
TORSDOF 2
ENDMDL
MODEL 7
REMARK VINA RESULT:      -4.0      1.295      3.284
REMARK  2 active torsions:
REMARK  status: ('A' for Active; 'I' for Inactive)
REMARK    1  A    between atoms: C2_2  and  C3_3 
REMARK    2  A    between atoms: C3_3  and  C6_6 
ROOT
HETATM    1  C3  UNL     1     -33.201   6.160   3.576  1.00 20.00     0.170 C 
HETATM    2  O7  UNL     1     -33.101   5.185   2.839  1.00 20.00    -0.291 OA
ENDROOT
BRANCH   1   3
HETATM    3  C2  UNL     1     -34.231   6.243   4.657  1.00 20.00     0.047 C 
HETATM    4  C1  UNL     1     -35.477   5.780   4.497  1.00 20.00     0.035 C 
HETATM    5 BR8  UNL     1     -33.710   7.060   6.261  1.00 20.00    -0.048 Br
ENDBRANCH   1   3
BRANCH   1   6
HETATM    6  C6  UNL     1     -32.256   7.303   3.407  1.00 20.00     0.061 A 
HETATM    7  C4  UNL     1     -32.163   7.960   2.071  1.00 20.00     0.013 A 
HETATM    8  C5  UNL     1     -32.821   8.671   3.214  1.00 20.00     0.013 A 
ENDBRANCH   1   6
TORSDOF 2
ENDMDL
MODEL 8
REMARK VINA RESULT:      -4.0      2.440      3.037
REMARK  2 active torsions:
REMARK  status: ('A' for Active; 'I' for Inactive)
REMARK    1  A    between atoms: C2_2  and  C3_3 
REMARK    2  A    between atoms: C3_3  and  C6_6 
ROOT
HETATM    1  C3  UNL     1     -32.707   7.012   3.517  1.00 20.00     0.170 C 
HETATM    2  O7  UNL     1     -32.210   7.581   2.552  1.00 20.00    -0.291 OA
ENDROOT
BRANCH   1   3
HETATM    3  C2  UNL     1     -33.322   5.654   3.414  1.00 20.00     0.047 C 
HETATM    4  C1  UNL     1     -32.992   4.787   2.448  1.00 20.00     0.035 C 
HETATM    5 BR8  UNL     1     -34.617   5.212   4.696  1.00 20.00    -0.048 Br
ENDBRANCH   1   3
BRANCH   1   6
HETATM    6  C6  UNL     1     -32.690   7.684   4.850  1.00 20.00     0.061 A 
HETATM    7  C4  UNL     1     -32.273   9.115   4.922  1.00 20.00     0.013 A 
HETATM    8  C5  UNL     1     -33.708   8.738   5.129  1.00 20.00     0.013 A 
ENDBRANCH   1   6
TORSDOF 2
ENDMDL
MODEL 9
REMARK VINA RESULT:      -4.0      9.189      9.927
REMARK  2 active torsions:
REMARK  status: ('A' for Active; 'I' for Inactive)
REMARK    1  A    between atoms: C2_2  and  C3_3 
REMARK    2  A    between atoms: C3_3  and  C6_6 
ROOT
HETATM    1  C3  UNL     1     -40.848  12.860   5.363  1.00 20.00     0.170 C 
HETATM    2  O7  UNL     1     -41.111  13.496   4.349  1.00 20.00    -0.291 OA
ENDROOT
BRANCH   1   3
HETATM    3  C2  UNL     1     -41.494  13.151   6.679  1.00 20.00     0.047 C 
HETATM    4  C1  UNL     1     -42.642  12.576   7.058  1.00 20.00     0.035 C 
HETATM    5 BR8  UNL     1     -40.634  14.395   7.788  1.00 20.00    -0.048 Br
ENDBRANCH   1   3
BRANCH   1   6
HETATM    6  C6  UNL     1     -39.860  11.744   5.290  1.00 20.00     0.061 A 
HETATM    7  C4  UNL     1     -38.956  11.667   4.105  1.00 20.00     0.013 A 
HETATM    8  C5  UNL     1     -38.410  12.064   5.443  1.00 20.00     0.013 A 
ENDBRANCH   1   6
TORSDOF 2
ENDMDL
