MODEL 1
REMARK VINA RESULT:      -5.1      0.000      0.000
REMARK  1 active torsions:
REMARK  status: ('A' for Active; 'I' for Inactive)
REMARK    1  A    between atoms: C3_3  and  C7_7 
ROOT
HETATM    1  C1  UNL     1     -34.319   6.314   6.613  1.00 20.00    -0.029 C 
HETATM    2  C2  UNL     1     -33.264   7.092   6.339  1.00 20.00    -0.026 C 
HETATM    3  C4  UNL     1     -35.264   5.799   5.567  1.00 20.00     0.039 C 
HETATM    4  C5  UNL     1     -34.071   7.341   3.949  1.00 20.00     0.020 C 
HETATM    5  C6  UNL     1     -32.921   7.567   4.951  1.00 20.00     0.004 C 
HETATM    6  C7  UNL     1     -34.752   5.981   4.132  1.00 20.00     0.059 C 
HETATM    7  C9  UNL     1     -32.523   9.044   4.966  1.00 20.00     0.014 C 
ENDROOT
BRANCH   6   8
HETATM    8  C3  UNL     1     -33.823   4.865   3.742  1.00 20.00     0.127 C 
HETATM    9  C8  UNL     1     -32.894   5.129   2.588  1.00 20.00     0.091 C 
HETATM   10  O10 UNL     1     -33.820   3.790   4.338  1.00 20.00    -0.298 OA
ENDBRANCH   6   8
TORSDOF 1
ENDMDL
MODEL 2
REMARK VINA RESULT:      -4.4      1.714      3.398
REMARK  1 active torsions:
REMARK  status: ('A' for Active; 'I' for Inactive)
REMARK    1  A    between atoms: C3_3  and  C7_7 
ROOT
HETATM    1  C1  UNL     1     -32.550   8.182   3.750  1.00 20.00    -0.029 C 
HETATM    2  C2  UNL     1     -32.164   7.005   3.242  1.00 20.00    -0.026 C 
HETATM    3  C4  UNL     1     -33.843   8.382   4.486  1.00 20.00     0.039 C 
HETATM    4  C5  UNL     1     -34.449   6.035   3.753  1.00 20.00     0.020 C 
HETATM    5  C6  UNL     1     -32.996   5.751   3.324  1.00 20.00     0.004 C 
HETATM    6  C7  UNL     1     -34.540   7.072   4.876  1.00 20.00     0.059 C 
HETATM    7  C9  UNL     1     -32.981   5.002   1.990  1.00 20.00     0.014 C 
ENDROOT
BRANCH   6   8
HETATM    8  C3  UNL     1     -33.977   6.519   6.156  1.00 20.00     0.127 C 
HETATM    9  C8  UNL     1     -34.486   5.172   6.593  1.00 20.00     0.091 C 
HETATM   10  O10 UNL     1     -33.140   7.136   6.813  1.00 20.00    -0.298 OA
ENDBRANCH   6   8
TORSDOF 1
ENDMDL
MODEL 3
REMARK VINA RESULT:      -3.9     12.898     14.008
REMARK  1 active torsions:
REMARK  status: ('A' for Active; 'I' for Inactive)
REMARK    1  A    between atoms: C3_3  and  C7_7 
ROOT
HETATM    1  C1  UNL     1     -35.030  13.995  -4.625  1.00 20.00    -0.029 C 
HETATM    2  C2  UNL     1     -33.998  14.576  -3.999  1.00 20.00    -0.026 C 
HETATM    3  C4  UNL     1     -35.977  14.736  -5.524  1.00 20.00     0.039 C 
HETATM    4  C5  UNL     1     -34.847  16.854  -4.718  1.00 20.00     0.020 C 
HETATM    5  C6  UNL     1     -33.688  16.047  -4.099  1.00 20.00     0.004 C 
HETATM    6  C7  UNL     1     -35.491  16.139  -5.909  1.00 20.00     0.059 C 
HETATM    7  C9  UNL     1     -33.326  16.619  -2.726  1.00 20.00     0.014 C 
ENDROOT
BRANCH   6   8
HETATM    8  C3  UNL     1     -34.540  16.083  -7.073  1.00 20.00     0.127 C 
HETATM    9  C8  UNL     1     -34.165  17.397  -7.704  1.00 20.00     0.091 C 
HETATM   10  O10 UNL     1     -34.090  15.017  -7.487  1.00 20.00    -0.298 OA
ENDBRANCH   6   8
TORSDOF 1
ENDMDL
MODEL 4
REMARK VINA RESULT:      -3.8      1.335      2.305
REMARK  1 active torsions:
REMARK  status: ('A' for Active; 'I' for Inactive)
REMARK    1  A    between atoms: C3_3  and  C7_7 
ROOT
HETATM    1  C1  UNL     1     -33.120   8.152   5.354  1.00 20.00    -0.029 C 
HETATM    2  C2  UNL     1     -32.259   7.822   4.382  1.00 20.00    -0.026 C 
HETATM    3  C4  UNL     1     -34.513   7.601   5.449  1.00 20.00     0.039 C 
HETATM    4  C5  UNL     1     -34.112   6.604   3.155  1.00 20.00     0.020 C 
HETATM    5  C6  UNL     1     -32.599   6.882   3.255  1.00 20.00     0.004 C 
HETATM    6  C7  UNL     1     -34.765   6.402   4.526  1.00 20.00     0.059 C 
HETATM    7  C9  UNL     1     -32.078   7.423   1.922  1.00 20.00     0.014 C 
ENDROOT
BRANCH   6   8
HETATM    8  C3  UNL     1     -34.290   5.122   5.157  1.00 20.00     0.127 C 
HETATM    9  C8  UNL     1     -34.111   5.130   6.651  1.00 20.00     0.091 C 
HETATM   10  O10 UNL     1     -34.060   4.118   4.486  1.00 20.00    -0.298 OA
ENDBRANCH   6   8
TORSDOF 1
ENDMDL
MODEL 5
REMARK VINA RESULT:      -3.7     12.665     13.911
REMARK  1 active torsions:
REMARK  status: ('A' for Active; 'I' for Inactive)
REMARK    1  A    between atoms: C3_3  and  C7_7 
ROOT
HETATM    1  C1  UNL     1     -34.582  17.627  -5.861  1.00 20.00    -0.029 C 
HETATM    2  C2  UNL     1     -34.490  17.624  -4.525  1.00 20.00    -0.026 C 
HETATM    3  C4  UNL     1     -34.375  16.406  -6.709  1.00 20.00     0.039 C 
HETATM    4  C5  UNL     1     -33.583  15.257  -4.595  1.00 20.00     0.020 C 
HETATM    5  C6  UNL     1     -34.137  16.400  -3.720  1.00 20.00     0.004 C 
HETATM    6  C7  UNL     1     -34.353  15.097  -5.909  1.00 20.00     0.059 C 
HETATM    7  C9  UNL     1     -33.135  16.747  -2.617  1.00 20.00     0.014 C 
ENDROOT
BRANCH   6   8
HETATM    8  C3  UNL     1     -35.747  14.596  -5.651  1.00 20.00     0.127 C 
HETATM    9  C8  UNL     1     -35.904  13.557  -4.573  1.00 20.00     0.091 C 
HETATM   10  O10 UNL     1     -36.712  15.016  -6.286  1.00 20.00    -0.298 OA
ENDBRANCH   6   8
TORSDOF 1
ENDMDL
MODEL 6
REMARK VINA RESULT:      -3.6      2.585      3.676
REMARK  1 active torsions:
REMARK  status: ('A' for Active; 'I' for Inactive)
REMARK    1  A    between atoms: C3_3  and  C7_7 
ROOT
HETATM    1  C1  UNL     1     -33.424   8.340   5.375  1.00 20.00    -0.029 C 
HETATM    2  C2  UNL     1     -34.277   7.385   4.983  1.00 20.00    -0.026 C 
HETATM    3  C4  UNL     1     -32.082   8.564   4.741  1.00 20.00     0.039 C 
HETATM    4  C5  UNL     1     -32.486   6.404   3.481  1.00 20.00     0.020 C 
HETATM    5  C6  UNL     1     -33.975   6.404   3.880  1.00 20.00     0.004 C 
HETATM    6  C7  UNL     1     -31.894   7.815   3.415  1.00 20.00     0.059 C 
HETATM    7  C9  UNL     1     -34.411   4.992   4.275  1.00 20.00     0.014 C 
ENDROOT
BRANCH   6   8
HETATM    8  C3  UNL     1     -32.487   8.586   2.269  1.00 20.00     0.127 C 
HETATM    9  C8  UNL     1     -32.264   8.027   0.889  1.00 20.00     0.091 C 
HETATM   10  O10 UNL     1     -33.124   9.622   2.449  1.00 20.00    -0.298 OA
ENDBRANCH   6   8
TORSDOF 1
ENDMDL
MODEL 7
REMARK VINA RESULT:      -3.6     11.820     12.522
REMARK  1 active torsions:
REMARK  status: ('A' for Active; 'I' for Inactive)
REMARK    1  A    between atoms: C3_3  and  C7_7 
ROOT
HETATM    1  C1  UNL     1     -26.914  -0.212  11.748  1.00 20.00    -0.029 C 
HETATM    2  C2  UNL     1     -26.218  -1.201  12.323  1.00 20.00    -0.026 C 
HETATM    3  C4  UNL     1     -27.626  -0.354  10.434  1.00 20.00     0.039 C 
HETATM    4  C5  UNL     1     -26.460  -2.592  10.218  1.00 20.00     0.020 C 
HETATM    5  C6  UNL     1     -26.042  -2.562  11.701  1.00 20.00     0.004 C 
HETATM    6  C7  UNL     1     -27.747  -1.806   9.953  1.00 20.00     0.059 C 
HETATM    7  C9  UNL     1     -24.596  -3.042  11.847  1.00 20.00     0.014 C 
ENDROOT
BRANCH   6   8
HETATM    8  C3  UNL     1     -28.927  -2.489  10.587  1.00 20.00     0.127 C 
HETATM    9  C8  UNL     1     -29.097  -3.956  10.295  1.00 20.00     0.091 C 
HETATM   10  O10 UNL     1     -29.714  -1.881  11.311  1.00 20.00    -0.298 OA
ENDBRANCH   6   8
TORSDOF 1
ENDMDL
MODEL 8
REMARK VINA RESULT:      -3.4     12.522     13.919
REMARK  1 active torsions:
REMARK  status: ('A' for Active; 'I' for Inactive)
REMARK    1  A    between atoms: C3_3  and  C7_7 
ROOT
HETATM    1  C1  UNL     1     -33.957  14.437  -4.174  1.00 20.00    -0.029 C 
HETATM    2  C2  UNL     1     -35.141  14.630  -4.770  1.00 20.00    -0.026 C 
HETATM    3  C4  UNL     1     -32.946  15.527  -3.967  1.00 20.00     0.039 C 
HETATM    4  C5  UNL     1     -34.422  16.967  -5.439  1.00 20.00     0.020 C 
HETATM    5  C6  UNL     1     -35.582  15.957  -5.331  1.00 20.00     0.004 C 
HETATM    6  C7  UNL     1     -33.500  16.936  -4.217  1.00 20.00     0.059 C 
HETATM    7  C9  UNL     1     -36.245  15.775  -6.698  1.00 20.00     0.014 C 
ENDROOT
BRANCH   6   8
HETATM    8  C3  UNL     1     -34.211  17.462  -3.001  1.00 20.00     0.127 C 
HETATM    9  C8  UNL     1     -33.641  17.075  -1.663  1.00 20.00     0.091 C 
HETATM   10  O10 UNL     1     -35.209  18.174  -3.095  1.00 20.00    -0.298 OA
ENDBRANCH   6   8
TORSDOF 1
ENDMDL
MODEL 9
REMARK VINA RESULT:      -3.4     12.854     14.167
REMARK  1 active torsions:
REMARK  status: ('A' for Active; 'I' for Inactive)
REMARK    1  A    between atoms: C3_3  and  C7_7 
ROOT
HETATM    1  C1  UNL     1     -35.935  14.987  -6.468  1.00 20.00    -0.029 C 
HETATM    2  C2  UNL     1     -36.721  15.865  -5.832  1.00 20.00    -0.026 C 
HETATM    3  C4  UNL     1     -34.435  15.051  -6.449  1.00 20.00     0.039 C 
HETATM    4  C5  UNL     1     -34.698  17.305  -5.324  1.00 20.00     0.020 C 
HETATM    5  C6  UNL     1     -36.192  17.038  -5.049  1.00 20.00     0.004 C 
HETATM    6  C7  UNL     1     -33.874  16.017  -5.397  1.00 20.00     0.059 C 
HETATM    7  C9  UNL     1     -37.010  18.298  -5.340  1.00 20.00     0.014 C 
ENDROOT
BRANCH   6   8
HETATM    8  C3  UNL     1     -33.793  15.360  -4.047  1.00 20.00     0.127 C 
HETATM    9  C8  UNL     1     -33.406  16.239  -2.889  1.00 20.00     0.091 C 
HETATM   10  O10 UNL     1     -34.034  14.164  -3.896  1.00 20.00    -0.298 OA
ENDBRANCH   6   8
TORSDOF 1
ENDMDL
