MODEL 1
REMARK VINA RESULT:      -4.1      0.000      0.000
REMARK  1 active torsions:
REMARK  status: ('A' for Active; 'I' for Inactive)
REMARK    1  A    between atoms: C7_7  and  O11_11 
ROOT
HETATM    1  C1  UNL     1     -34.114   4.812   6.379  1.00 20.00    -0.029 C 
HETATM    2  C2  UNL     1     -33.008   5.330   3.048  1.00 20.00    -0.022 C 
HETATM    3  C3  UNL     1     -32.788   6.646   3.101  1.00 20.00     0.002 C 
HETATM    4  C4  UNL     1     -34.702   5.964   6.043  1.00 20.00    -0.018 C 
HETATM    5  C5  UNL     1     -33.546   4.092   5.202  1.00 20.00     0.036 C 
HETATM    6  C6  UNL     1     -34.072   4.892   4.003  1.00 20.00     0.026 C 
HETATM    7  C7  UNL     1     -33.647   7.331   4.117  1.00 20.00     0.155 C 
HETATM    8  C8  UNL     1     -34.643   6.227   4.566  1.00 20.00     0.010 C 
HETATM    9  C9  UNL     1     -36.044   6.495   4.000  1.00 20.00     0.023 C 
ENDROOT
BRANCH   7  10
HETATM   10  O11 UNL     1     -32.828   7.820   5.170  1.00 20.00    -0.386 OA
HETATM   11  C10 UNL     1     -32.182   9.037   4.813  1.00 20.00     0.202 C 
ENDBRANCH   7  10
TORSDOF 1
ENDMDL
MODEL 2
REMARK VINA RESULT:      -3.9      1.316      1.755
REMARK  1 active torsions:
REMARK  status: ('A' for Active; 'I' for Inactive)
REMARK    1  A    between atoms: C7_7  and  O11_11 
ROOT
HETATM    1  C1  UNL     1     -34.003   6.803   6.628  1.00 20.00    -0.029 C 
HETATM    2  C2  UNL     1     -33.739   4.055   4.399  1.00 20.00    -0.022 C 
HETATM    3  C3  UNL     1     -33.262   4.695   3.330  1.00 20.00     0.002 C 
HETATM    4  C4  UNL     1     -34.423   7.315   5.468  1.00 20.00    -0.018 C 
HETATM    5  C5  UNL     1     -33.918   5.313   6.601  1.00 20.00     0.036 C 
HETATM    6  C6  UNL     1     -34.576   4.939   5.266  1.00 20.00     0.026 C 
HETATM    7  C7  UNL     1     -33.672   6.134   3.293  1.00 20.00     0.155 C 
HETATM    8  C8  UNL     1     -34.708   6.255   4.444  1.00 20.00     0.010 C 
HETATM    9  C9  UNL     1     -36.129   6.401   3.884  1.00 20.00     0.023 C 
ENDROOT
BRANCH   7  10
HETATM   10  O11 UNL     1     -32.524   6.953   3.473  1.00 20.00    -0.386 OA
HETATM   11  C10 UNL     1     -32.205   7.680   2.291  1.00 20.00     0.202 C 
ENDBRANCH   7  10
TORSDOF 1
ENDMDL
MODEL 3
REMARK VINA RESULT:      -3.7     11.960     13.663
REMARK  1 active torsions:
REMARK  status: ('A' for Active; 'I' for Inactive)
REMARK    1  A    between atoms: C7_7  and  O11_11 
ROOT
HETATM    1  C1  UNL     1     -27.631  -1.169  10.189  1.00 20.00    -0.029 C 
HETATM    2  C2  UNL     1     -24.700  -1.263  12.187  1.00 20.00    -0.022 C 
HETATM    3  C3  UNL     1     -23.998  -2.160  11.491  1.00 20.00     0.002 C 
HETATM    4  C4  UNL     1     -27.322  -2.469  10.209  1.00 20.00    -0.018 C 
HETATM    5  C5  UNL     1     -26.876  -0.384  11.209  1.00 20.00     0.036 C 
HETATM    6  C6  UNL     1     -26.175  -1.461  12.048  1.00 20.00     0.026 C 
HETATM    7  C7  UNL     1     -24.872  -3.111  10.736  1.00 20.00     0.155 C 
HETATM    8  C8  UNL     1     -26.301  -2.799  11.260  1.00 20.00     0.010 C 
HETATM    9  C9  UNL     1     -26.801  -3.920  12.179  1.00 20.00     0.023 C 
ENDROOT
BRANCH   7  10
HETATM   10  O11 UNL     1     -24.716  -2.887   9.342  1.00 20.00    -0.386 OA
HETATM   11  C10 UNL     1     -23.415  -3.250   8.892  1.00 20.00     0.202 C 
ENDBRANCH   7  10
TORSDOF 1
ENDMDL
MODEL 4
REMARK VINA RESULT:      -3.6      9.941     11.522
REMARK  1 active torsions:
REMARK  status: ('A' for Active; 'I' for Inactive)
REMARK    1  A    between atoms: C7_7  and  O11_11 
ROOT
HETATM    1  C1  UNL     1     -40.690  12.874   5.109  1.00 20.00    -0.029 C 
HETATM    2  C2  UNL     1     -42.901  15.201   6.620  1.00 20.00    -0.022 C 
HETATM    3  C3  UNL     1     -42.467  15.118   7.879  1.00 20.00     0.002 C 
HETATM    4  C4  UNL     1     -41.004  12.282   6.265  1.00 20.00    -0.018 C 
HETATM    5  C5  UNL     1     -41.584  14.025   4.791  1.00 20.00     0.036 C 
HETATM    6  C6  UNL     1     -42.683  13.934   5.858  1.00 20.00     0.026 C 
HETATM    7  C7  UNL     1     -41.856  13.788   8.189  1.00 20.00     0.155 C 
HETATM    8  C8  UNL     1     -42.182  12.929   6.937  1.00 20.00     0.010 C 
HETATM    9  C9  UNL     1     -43.269  11.893   7.255  1.00 20.00     0.023 C 
ENDROOT
BRANCH   7  10
HETATM   10  O11 UNL     1     -40.463  13.953   8.418  1.00 20.00    -0.386 OA
HETATM   11  C10 UNL     1     -40.193  15.098   9.220  1.00 20.00     0.202 C 
ENDBRANCH   7  10
TORSDOF 1
ENDMDL
MODEL 5
REMARK VINA RESULT:      -3.6     12.322     13.698
REMARK  1 active torsions:
REMARK  status: ('A' for Active; 'I' for Inactive)
REMARK    1  A    between atoms: C7_7  and  O11_11 
ROOT
HETATM    1  C1  UNL     1     -36.041  13.891  -4.931  1.00 20.00    -0.029 C 
HETATM    2  C2  UNL     1     -33.252  15.755  -3.776  1.00 20.00    -0.022 C 
HETATM    3  C3  UNL     1     -33.691  16.985  -4.051  1.00 20.00     0.002 C 
HETATM    4  C4  UNL     1     -35.910  14.843  -5.860  1.00 20.00    -0.018 C 
HETATM    5  C5  UNL     1     -34.853  13.797  -4.033  1.00 20.00     0.036 C 
HETATM    6  C6  UNL     1     -33.827  14.726  -4.695  1.00 20.00     0.026 C 
HETATM    7  C7  UNL     1     -34.660  17.006  -5.191  1.00 20.00     0.155 C 
HETATM    8  C8  UNL     1     -34.595  15.562  -5.760  1.00 20.00     0.010 C 
HETATM    9  C9  UNL     1     -33.854  15.539  -7.103  1.00 20.00     0.023 C 
ENDROOT
BRANCH   7  10
HETATM   10  O11 UNL     1     -35.946  17.371  -4.708  1.00 20.00    -0.386 OA
HETATM   11  C10 UNL     1     -35.876  18.461  -3.795  1.00 20.00     0.202 C 
ENDBRANCH   7  10
TORSDOF 1
ENDMDL
MODEL 6
REMARK VINA RESULT:      -3.6      9.878     11.445
REMARK  1 active torsions:
REMARK  status: ('A' for Active; 'I' for Inactive)
REMARK    1  A    between atoms: C7_7  and  O11_11 
ROOT
HETATM    1  C1  UNL     1     -40.376  14.775   8.930  1.00 20.00    -0.029 C 
HETATM    2  C2  UNL     1     -43.252  12.877   8.085  1.00 20.00    -0.022 C 
HETATM    3  C3  UNL     1     -42.750  12.176   7.066  1.00 20.00     0.002 C 
HETATM    4  C4  UNL     1     -40.356  14.779   7.595  1.00 20.00    -0.018 C 
HETATM    5  C5  UNL     1     -41.677  14.300   9.485  1.00 20.00     0.036 C 
HETATM    6  C6  UNL     1     -42.582  14.203   8.248  1.00 20.00     0.026 C 
HETATM    7  C7  UNL     1     -41.634  12.891   6.372  1.00 20.00     0.155 C 
HETATM    8  C8  UNL     1     -41.654  14.311   7.001  1.00 20.00     0.010 C 
HETATM    9  C9  UNL     1     -42.206  15.340   6.007  1.00 20.00     0.023 C 
ENDROOT
BRANCH   7  10
HETATM   10  O11 UNL     1     -40.418  12.188   6.591  1.00 20.00    -0.386 OA
HETATM   11  C10 UNL     1     -39.790  11.827   5.366  1.00 20.00     0.202 C 
ENDBRANCH   7  10
TORSDOF 1
ENDMDL
MODEL 7
REMARK VINA RESULT:      -3.6     12.561     13.950
REMARK  1 active torsions:
REMARK  status: ('A' for Active; 'I' for Inactive)
REMARK    1  A    between atoms: C7_7  and  O11_11 
ROOT
HETATM    1  C1  UNL     1     -36.741  17.022  -5.889  1.00 20.00    -0.029 C 
HETATM    2  C2  UNL     1     -35.384  13.986  -4.651  1.00 20.00    -0.022 C 
HETATM    3  C3  UNL     1     -34.246  14.458  -4.137  1.00 20.00     0.002 C 
HETATM    4  C4  UNL     1     -35.444  17.126  -6.193  1.00 20.00    -0.018 C 
HETATM    5  C5  UNL     1     -37.127  15.638  -5.486  1.00 20.00     0.036 C 
HETATM    6  C6  UNL     1     -35.875  14.809  -5.799  1.00 20.00     0.026 C 
HETATM    7  C7  UNL     1     -33.774  15.697  -4.830  1.00 20.00     0.155 C 
HETATM    8  C8  UNL     1     -34.718  15.819  -6.058  1.00 20.00     0.010 C 
HETATM    9  C9  UNL     1     -33.974  15.467  -7.353  1.00 20.00     0.023 C 
ENDROOT
BRANCH   7  10
HETATM   10  O11 UNL     1     -33.861  16.797  -3.934  1.00 20.00    -0.386 OA
HETATM   11  C10 UNL     1     -33.319  16.481  -2.657  1.00 20.00     0.202 C 
ENDBRANCH   7  10
TORSDOF 1
ENDMDL
MODEL 8
REMARK VINA RESULT:      -3.4     12.576     13.776
REMARK  1 active torsions:
REMARK  status: ('A' for Active; 'I' for Inactive)
REMARK    1  A    between atoms: C7_7  and  O11_11 
ROOT
HETATM    1  C1  UNL     1     -36.896  15.195  -5.293  1.00 20.00    -0.029 C 
HETATM    2  C2  UNL     1     -33.529  14.778  -4.252  1.00 20.00    -0.022 C 
HETATM    3  C3  UNL     1     -33.297  16.009  -3.792  1.00 20.00     0.002 C 
HETATM    4  C4  UNL     1     -36.320  16.339  -5.672  1.00 20.00    -0.018 C 
HETATM    5  C5  UNL     1     -35.901  14.148  -4.917  1.00 20.00     0.036 C 
HETATM    6  C6  UNL     1     -34.558  14.760  -5.337  1.00 20.00     0.026 C 
HETATM    7  C7  UNL     1     -34.143  17.043  -4.466  1.00 20.00     0.155 C 
HETATM    8  C8  UNL     1     -34.820  16.267  -5.629  1.00 20.00     0.010 C 
HETATM    9  C9  UNL     1     -34.213  16.669  -6.979  1.00 20.00     0.023 C 
ENDROOT
BRANCH   7  10
HETATM   10  O11 UNL     1     -35.064  17.581  -3.527  1.00 20.00    -0.386 OA
HETATM   11  C10 UNL     1     -34.401  18.139  -2.399  1.00 20.00     0.202 C 
ENDBRANCH   7  10
TORSDOF 1
ENDMDL
MODEL 9
REMARK VINA RESULT:      -3.4      9.503     11.209
REMARK  1 active torsions:
REMARK  status: ('A' for Active; 'I' for Inactive)
REMARK    1  A    between atoms: C7_7  and  O11_11 
ROOT
HETATM    1  C1  UNL     1     -42.674  15.320   5.230  1.00 20.00    -0.029 C 
HETATM    2  C2  UNL     1     -40.419  14.155   7.710  1.00 20.00    -0.022 C 
HETATM    3  C3  UNL     1     -39.941  13.083   7.074  1.00 20.00     0.002 C 
HETATM    4  C4  UNL     1     -42.840  13.995   5.189  1.00 20.00    -0.018 C 
HETATM    5  C5  UNL     1     -41.917  15.767   6.436  1.00 20.00     0.036 C 
HETATM    6  C6  UNL     1     -41.812  14.494   7.288  1.00 20.00     0.026 C 
HETATM    7  C7  UNL     1     -40.918  12.518   6.091  1.00 20.00     0.155 C 
HETATM    8  C8  UNL     1     -42.227  13.304   6.373  1.00 20.00     0.010 C 
HETATM    9  C9  UNL     1     -43.256  12.413   7.082  1.00 20.00     0.023 C 
ENDROOT
BRANCH   7  10
HETATM   10  O11 UNL     1     -40.417  12.701   4.774  1.00 20.00    -0.386 OA
HETATM   11  C10 UNL     1     -39.355  11.798   4.483  1.00 20.00     0.202 C 
ENDBRANCH   7  10
TORSDOF 1
ENDMDL
