MODEL 1
REMARK VINA RESULT:      -4.5      0.000      0.000
REMARK  1 active torsions:
REMARK  status: ('A' for Active; 'I' for Inactive)
REMARK    1  A    between atoms: C2_2  and  C3_3 
ROOT
HETATM    1  C1  UNL     1     -32.228   8.380   4.603  1.00 20.00    -0.009 C 
HETATM    2  C2  UNL     1     -32.976   8.273   3.464  1.00 20.00    -0.007 C 
HETATM    3  C4  UNL     1     -34.842   5.954   5.705  1.00 20.00     0.002 C 
HETATM    4  C5  UNL     1     -33.522   6.552   6.266  1.00 20.00     0.009 C 
HETATM    5  C6  UNL     1     -34.983   6.544   4.267  1.00 20.00     0.015 C 
HETATM    6  C7  UNL     1     -33.364   7.721   5.339  1.00 20.00     0.021 C 
HETATM    7  C8  UNL     1     -33.554   6.960   3.959  1.00 20.00    -0.007 C 
HETATM    8  C10 UNL     1     -32.723   5.753   3.474  1.00 20.00     0.021 C 
ENDROOT
BRANCH   2   9
HETATM    9  C3  UNL     1     -32.735   8.901   2.174  1.00 20.00     0.152 C 
HETATM   10  C9  UNL     1     -32.063   8.086   1.092  1.00 20.00     0.096 C 
HETATM   11  O11 UNL     1     -33.064  10.076   1.964  1.00 20.00    -0.293 OA
ENDBRANCH   2   9
TORSDOF 1
ENDMDL
MODEL 2
REMARK VINA RESULT:      -4.3     11.231     12.639
REMARK  1 active torsions:
REMARK  status: ('A' for Active; 'I' for Inactive)
REMARK    1  A    between atoms: C2_2  and  C3_3 
ROOT
HETATM    1  C1  UNL     1     -34.127  18.690  -0.234  1.00 20.00    -0.009 C 
HETATM    2  C2  UNL     1     -32.846  18.696  -0.711  1.00 20.00    -0.007 C 
HETATM    3  C4  UNL     1     -34.750  18.905  -3.908  1.00 20.00     0.002 C 
HETATM    4  C5  UNL     1     -35.586  18.713  -2.611  1.00 20.00     0.009 C 
HETATM    5  C6  UNL     1     -33.262  18.942  -3.437  1.00 20.00     0.015 C 
HETATM    6  C7  UNL     1     -34.574  19.153  -1.595  1.00 20.00     0.021 C 
HETATM    7  C8  UNL     1     -33.348  18.266  -2.078  1.00 20.00    -0.007 C 
HETATM    8  C10 UNL     1     -33.350  16.730  -2.227  1.00 20.00     0.021 C 
ENDROOT
BRANCH   2   9
HETATM    9  C3  UNL     1     -31.609  18.577   0.045  1.00 20.00     0.152 C 
HETATM   10  C9  UNL     1     -31.693  18.496   1.552  1.00 20.00     0.096 C 
HETATM   11  O11 UNL     1     -30.512  18.549  -0.527  1.00 20.00    -0.293 OA
ENDBRANCH   2   9
TORSDOF 1
ENDMDL
MODEL 3
REMARK VINA RESULT:      -4.3     11.197     12.542
REMARK  1 active torsions:
REMARK  status: ('A' for Active; 'I' for Inactive)
REMARK    1  A    between atoms: C2_2  and  C3_3 
ROOT
HETATM    1  C1  UNL     1     -34.086  14.986  -3.910  1.00 20.00    -0.009 C 
HETATM    2  C2  UNL     1     -34.047  15.693  -5.079  1.00 20.00    -0.007 C 
HETATM    3  C4  UNL     1     -33.053  18.348  -2.661  1.00 20.00     0.002 C 
HETATM    4  C5  UNL     1     -33.474  16.979  -2.057  1.00 20.00     0.009 C 
HETATM    5  C6  UNL     1     -33.196  18.179  -4.206  1.00 20.00     0.015 C 
HETATM    6  C7  UNL     1     -33.318  16.112  -3.272  1.00 20.00     0.021 C 
HETATM    7  C8  UNL     1     -34.144  16.994  -4.302  1.00 20.00    -0.007 C 
HETATM    8  C10 UNL     1     -35.609  17.446  -4.131  1.00 20.00     0.021 C 
ENDROOT
BRANCH   2   9
HETATM    9  C3  UNL     1     -34.392  15.233  -6.415  1.00 20.00     0.152 C 
HETATM   10  C9  UNL     1     -35.843  14.940  -6.722  1.00 20.00     0.096 C 
HETATM   11  O11 UNL     1     -33.521  15.075  -7.281  1.00 20.00    -0.293 OA
ENDBRANCH   2   9
TORSDOF 1
ENDMDL
MODEL 4
REMARK VINA RESULT:      -4.2      9.978     10.777
REMARK  1 active torsions:
REMARK  status: ('A' for Active; 'I' for Inactive)
REMARK    1  A    between atoms: C2_2  and  C3_3 
ROOT
HETATM    1  C1  UNL     1     -41.495  13.744   5.102  1.00 20.00    -0.009 C 
HETATM    2  C2  UNL     1     -40.836  13.043   6.073  1.00 20.00    -0.007 C 
HETATM    3  C4  UNL     1     -43.417  14.766   8.135  1.00 20.00     0.002 C 
HETATM    4  C5  UNL     1     -43.356  15.152   6.630  1.00 20.00     0.009 C 
HETATM    5  C6  UNL     1     -42.289  13.706   8.334  1.00 20.00     0.015 C 
HETATM    6  C7  UNL     1     -42.600  13.970   6.100  1.00 20.00     0.021 C 
HETATM    7  C8  UNL     1     -41.395  13.973   7.134  1.00 20.00    -0.007 C 
HETATM    8  C10 UNL     1     -40.446  15.159   7.408  1.00 20.00     0.021 C 
ENDROOT
BRANCH   2   9
HETATM    9  C3  UNL     1     -39.663  12.196   5.923  1.00 20.00     0.152 C 
HETATM   10  C9  UNL     1     -39.271  11.748   4.533  1.00 20.00     0.096 C 
HETATM   11  O11 UNL     1     -39.002  11.840   6.908  1.00 20.00    -0.293 OA
ENDBRANCH   2   9
TORSDOF 1
ENDMDL
MODEL 5
REMARK VINA RESULT:      -4.2     10.015     10.779
REMARK  1 active torsions:
REMARK  status: ('A' for Active; 'I' for Inactive)
REMARK    1  A    between atoms: C2_2  and  C3_3 
ROOT
HETATM    1  C1  UNL     1     -40.489  14.253   7.447  1.00 20.00    -0.009 C 
HETATM    2  C2  UNL     1     -40.453  13.429   6.357  1.00 20.00    -0.007 C 
HETATM    3  C4  UNL     1     -43.417  15.521   5.510  1.00 20.00     0.002 C 
HETATM    4  C5  UNL     1     -42.781  15.750   6.910  1.00 20.00     0.009 C 
HETATM    5  C6  UNL     1     -42.563  14.395   4.848  1.00 20.00     0.015 C 
HETATM    6  C7  UNL     1     -41.432  15.135   6.674  1.00 20.00     0.021 C 
HETATM    7  C8  UNL     1     -41.906  13.751   6.058  1.00 20.00    -0.007 C 
HETATM    8  C10 UNL     1     -42.862  12.744   6.732  1.00 20.00     0.021 C 
ENDROOT
BRANCH   2   9
HETATM    9  C3  UNL     1     -39.542  12.324   6.102  1.00 20.00     0.152 C 
HETATM   10  C9  UNL     1     -39.408  11.815   4.684  1.00 20.00     0.096 C 
HETATM   11  O11 UNL     1     -38.895  11.803   7.020  1.00 20.00    -0.293 OA
ENDBRANCH   2   9
TORSDOF 1
ENDMDL
MODEL 6
REMARK VINA RESULT:      -3.9     11.361     12.715
REMARK  1 active torsions:
REMARK  status: ('A' for Active; 'I' for Inactive)
REMARK    1  A    between atoms: C2_2  and  C3_3 
ROOT
HETATM    1  C1  UNL     1     -33.017  16.359  -3.042  1.00 20.00    -0.009 C 
HETATM    2  C2  UNL     1     -33.585  17.358  -2.302  1.00 20.00    -0.007 C 
HETATM    3  C4  UNL     1     -35.670  17.546  -5.384  1.00 20.00     0.002 C 
HETATM    4  C5  UNL     1     -34.470  16.559  -5.415  1.00 20.00     0.009 C 
HETATM    5  C6  UNL     1     -35.621  18.210  -3.973  1.00 20.00     0.015 C 
HETATM    6  C7  UNL     1     -34.222  16.421  -3.941  1.00 20.00     0.021 C 
HETATM    7  C8  UNL     1     -34.179  17.962  -3.561  1.00 20.00    -0.007 C 
HETATM    8  C10 UNL     1     -33.240  19.018  -4.183  1.00 20.00     0.021 C 
ENDROOT
BRANCH   2   9
HETATM    9  C3  UNL     1     -33.183  17.838  -0.988  1.00 20.00     0.152 C 
HETATM   10  C9  UNL     1     -31.786  18.392  -0.822  1.00 20.00     0.096 C 
HETATM   11  O11 UNL     1     -33.959  17.789  -0.025  1.00 20.00    -0.293 OA
ENDBRANCH   2   9
TORSDOF 1
ENDMDL
MODEL 7
REMARK VINA RESULT:      -3.8     11.230     13.558
REMARK  1 active torsions:
REMARK  status: ('A' for Active; 'I' for Inactive)
REMARK    1  A    between atoms: C2_2  and  C3_3 
ROOT
HETATM    1  C1  UNL     1     -35.856  14.694  -5.717  1.00 20.00    -0.009 C 
HETATM    2  C2  UNL     1     -34.786  15.429  -5.290  1.00 20.00    -0.007 C 
HETATM    3  C4  UNL     1     -36.142  17.696  -7.918  1.00 20.00     0.002 C 
HETATM    4  C5  UNL     1     -36.821  16.305  -7.781  1.00 20.00     0.009 C 
HETATM    5  C6  UNL     1     -35.012  17.711  -6.841  1.00 20.00     0.015 C 
HETATM    6  C7  UNL     1     -36.360  15.937  -6.401  1.00 20.00     0.021 C 
HETATM    7  C8  UNL     1     -34.810  16.227  -6.581  1.00 20.00    -0.007 C 
HETATM    8  C10 UNL     1     -33.895  15.600  -7.654  1.00 20.00     0.021 C 
ENDROOT
BRANCH   2   9
HETATM    9  C3  UNL     1     -33.791  15.065  -4.292  1.00 20.00     0.152 C 
HETATM   10  C9  UNL     1     -33.347  16.118  -3.302  1.00 20.00     0.096 C 
HETATM   11  O11 UNL     1     -33.312  13.924  -4.256  1.00 20.00    -0.293 OA
ENDBRANCH   2   9
TORSDOF 1
ENDMDL
MODEL 8
REMARK VINA RESULT:      -3.8     10.111     10.909
REMARK  1 active torsions:
REMARK  status: ('A' for Active; 'I' for Inactive)
REMARK    1  A    between atoms: C2_2  and  C3_3 
ROOT
HETATM    1  C1  UNL     1     -42.519  12.932   6.704  1.00 20.00    -0.009 C 
HETATM    2  C2  UNL     1     -41.190  13.156   6.472  1.00 20.00    -0.007 C 
HETATM    3  C4  UNL     1     -41.560  14.756   9.817  1.00 20.00     0.002 C 
HETATM    4  C5  UNL     1     -42.863  14.235   9.146  1.00 20.00     0.009 C 
HETATM    5  C6  UNL     1     -40.418  14.434   8.803  1.00 20.00     0.015 C 
HETATM    6  C7  UNL     1     -42.267  13.291   8.144  1.00 20.00     0.021 C 
HETATM    7  C8  UNL     1     -41.191  14.268   7.505  1.00 20.00    -0.007 C 
HETATM    8  C10 UNL     1     -41.488  15.640   6.863  1.00 20.00     0.021 C 
ENDROOT
BRANCH   2   9
HETATM    9  C3  UNL     1     -40.420  12.817   5.286  1.00 20.00     0.152 C 
HETATM   10  C9  UNL     1     -39.178  11.971   5.452  1.00 20.00     0.096 C 
HETATM   11  O11 UNL     1     -40.764  13.216   4.165  1.00 20.00    -0.293 OA
ENDBRANCH   2   9
TORSDOF 1
ENDMDL
MODEL 9
REMARK VINA RESULT:      -3.7     11.612     12.670
REMARK  1 active torsions:
REMARK  status: ('A' for Active; 'I' for Inactive)
REMARK    1  A    between atoms: C2_2  and  C3_3 
ROOT
HETATM    1  C1  UNL     1     -33.090  16.066  -3.733  1.00 20.00    -0.009 C 
HETATM    2  C2  UNL     1     -34.107  16.888  -3.333  1.00 20.00    -0.007 C 
HETATM    3  C4  UNL     1     -35.597  15.443  -6.428  1.00 20.00     0.002 C 
HETATM    4  C5  UNL     1     -34.120  15.065  -6.124  1.00 20.00     0.009 C 
HETATM    5  C6  UNL     1     -36.028  16.389  -5.264  1.00 20.00     0.015 C 
HETATM    6  C7  UNL     1     -34.071  15.404  -4.664  1.00 20.00     0.021 C 
HETATM    7  C8  UNL     1     -34.684  16.867  -4.737  1.00 20.00    -0.007 C 
HETATM    8  C10 UNL     1     -34.140  18.030  -5.593  1.00 20.00     0.021 C 
ENDROOT
BRANCH   2   9
HETATM    9  C3  UNL     1     -34.130  17.794  -2.196  1.00 20.00     0.152 C 
HETATM   10  C9  UNL     1     -32.938  17.811  -1.265  1.00 20.00     0.096 C 
HETATM   11  O11 UNL     1     -35.103  18.531  -1.986  1.00 20.00    -0.293 OA
ENDBRANCH   2   9
TORSDOF 1
ENDMDL
