MODEL 1
REMARK VINA RESULT:      -4.0      0.000      0.000
REMARK  0 active torsions:
REMARK  status: ('A' for Active; 'I' for Inactive)
ROOT
HETATM    1  C1  UNL     1     -34.672  19.063  -5.735  1.00 20.00     0.015 C 
HETATM    2  C2  UNL     1     -33.998  14.431  -4.166  1.00 20.00     0.015 C 
HETATM    3  C3  UNL     1     -34.556  18.520  -4.671  1.00 20.00    -0.082 C 
HETATM    4  C4  UNL     1     -33.670  15.525  -3.795  1.00 20.00    -0.082 C 
HETATM    5  C5  UNL     1     -34.416  17.856  -3.374  1.00 20.00     0.243 C 
HETATM    6  C6  UNL     1     -33.271  16.860  -3.345  1.00 20.00     0.243 C 
HETATM    7  C7  UNL     1     -33.248  18.099  -1.431  1.00 20.00     0.160 C 
HETATM    8  C8  UNL     1     -31.980  18.901  -1.174  1.00 20.00     0.078 C 
HETATM    9  C9  UNL     1     -34.040  17.888  -0.147  1.00 20.00     0.078 C 
HETATM   10  O10 UNL     1     -34.058  18.814  -2.372  1.00 20.00    -0.335 OA
HETATM   11  O11 UNL     1     -32.895  16.817  -1.964  1.00 20.00    -0.335 OA
ENDROOT
TORSDOF 0
ENDMDL
MODEL 2
REMARK VINA RESULT:      -3.9      0.045      2.986
REMARK  0 active torsions:
REMARK  status: ('A' for Active; 'I' for Inactive)
ROOT
HETATM    1  C1  UNL     1     -34.033  14.461  -4.179  1.00 20.00     0.015 C 
HETATM    2  C2  UNL     1     -34.598  19.112  -5.735  1.00 20.00     0.015 C 
HETATM    3  C3  UNL     1     -33.687  15.546  -3.801  1.00 20.00    -0.082 C 
HETATM    4  C4  UNL     1     -34.503  18.562  -4.672  1.00 20.00    -0.082 C 
HETATM    5  C5  UNL     1     -33.264  16.870  -3.341  1.00 20.00     0.243 C 
HETATM    6  C6  UNL     1     -34.388  17.890  -3.376  1.00 20.00     0.243 C 
HETATM    7  C7  UNL     1     -33.233  18.099  -1.421  1.00 20.00     0.160 C 
HETATM    8  C8  UNL     1     -34.042  17.899  -0.147  1.00 20.00     0.078 C 
HETATM    9  C9  UNL     1     -31.951  18.875  -1.148  1.00 20.00     0.078 C 
HETATM   10  O10 UNL     1     -32.900  16.813  -1.958  1.00 20.00    -0.335 OA
HETATM   11  O11 UNL     1     -34.019  18.836  -2.367  1.00 20.00    -0.335 OA
ENDROOT
TORSDOF 0
ENDMDL
MODEL 3
REMARK VINA RESULT:      -3.8     11.500     13.196
REMARK  0 active torsions:
REMARK  status: ('A' for Active; 'I' for Inactive)
ROOT
HETATM    1  C1  UNL     1     -39.302  11.739   4.586  1.00 20.00     0.015 C 
HETATM    2  C2  UNL     1     -42.397  15.413   3.447  1.00 20.00     0.015 C 
HETATM    3  C3  UNL     1     -40.053  12.455   5.190  1.00 20.00    -0.082 C 
HETATM    4  C4  UNL     1     -42.365  14.533   4.263  1.00 20.00    -0.082 C 
HETATM    5  C5  UNL     1     -40.967  13.330   5.926  1.00 20.00     0.243 C 
HETATM    6  C6  UNL     1     -42.323  13.458   5.257  1.00 20.00     0.243 C 
HETATM    7  C7  UNL     1     -42.609  13.173   7.501  1.00 20.00     0.160 C 
HETATM    8  C8  UNL     1     -43.417  11.952   7.918  1.00 20.00     0.078 C 
HETATM    9  C9  UNL     1     -42.571  14.217   8.609  1.00 20.00     0.078 C 
HETATM   10  O10 UNL     1     -41.271  12.754   7.201  1.00 20.00    -0.335 OA
HETATM   11  O11 UNL     1     -43.209  13.761   6.340  1.00 20.00    -0.335 OA
ENDROOT
TORSDOF 0
ENDMDL
MODEL 4
REMARK VINA RESULT:      -3.8      1.998      5.048
REMARK  0 active torsions:
REMARK  status: ('A' for Active; 'I' for Inactive)
ROOT
HETATM    1  C1  UNL     1     -30.412  19.247   1.749  1.00 20.00     0.015 C 
HETATM    2  C2  UNL     1     -35.338  19.237   2.074  1.00 20.00     0.015 C 
HETATM    3  C3  UNL     1     -31.319  18.802   1.101  1.00 20.00    -0.082 C 
HETATM    4  C4  UNL     1     -34.531  19.248   1.186  1.00 20.00    -0.082 C 
HETATM    5  C5  UNL     1     -32.427  18.258   0.314  1.00 20.00     0.243 C 
HETATM    6  C6  UNL     1     -33.545  19.262   0.103  1.00 20.00     0.243 C 
HETATM    7  C7  UNL     1     -33.121  18.176  -1.857  1.00 20.00     0.160 C 
HETATM    8  C8  UNL     1     -32.701  19.055  -3.027  1.00 20.00     0.078 C 
HETATM    9  C9  UNL     1     -33.649  16.830  -2.337  1.00 20.00     0.078 C 
HETATM   10  O10 UNL     1     -31.981  17.962  -1.014  1.00 20.00    -0.335 OA
HETATM   11  O11 UNL     1     -34.158  18.836  -1.120  1.00 20.00    -0.335 OA
ENDROOT
TORSDOF 0
ENDMDL
MODEL 5
REMARK VINA RESULT:      -3.8     11.500     12.901
REMARK  0 active torsions:
REMARK  status: ('A' for Active; 'I' for Inactive)
ROOT
HETATM    1  C1  UNL     1     -42.312  15.391   3.401  1.00 20.00     0.015 C 
HETATM    2  C2  UNL     1     -39.252  11.760   4.751  1.00 20.00     0.015 C 
HETATM    3  C3  UNL     1     -42.296  14.549   4.256  1.00 20.00    -0.082 C 
HETATM    4  C4  UNL     1     -40.007  12.505   5.311  1.00 20.00    -0.082 C 
HETATM    5  C5  UNL     1     -42.275  13.520   5.297  1.00 20.00     0.243 C 
HETATM    6  C6  UNL     1     -40.929  13.416   5.993  1.00 20.00     0.243 C 
HETATM    7  C7  UNL     1     -42.596  13.338   7.547  1.00 20.00     0.160 C 
HETATM    8  C8  UNL     1     -42.568  14.431   8.607  1.00 20.00     0.078 C 
HETATM    9  C9  UNL     1     -43.417  12.141   8.008  1.00 20.00     0.078 C 
HETATM   10  O10 UNL     1     -43.176  13.875   6.351  1.00 20.00    -0.335 OA
HETATM   11  O11 UNL     1     -41.256  12.900   7.288  1.00 20.00    -0.335 OA
ENDROOT
TORSDOF 0
ENDMDL
MODEL 6
REMARK VINA RESULT:      -3.7     11.814     13.189
REMARK  0 active torsions:
REMARK  status: ('A' for Active; 'I' for Inactive)
ROOT
HETATM    1  C1  UNL     1     -39.586  11.396   5.481  1.00 20.00     0.015 C 
HETATM    2  C2  UNL     1     -42.459  14.960   3.632  1.00 20.00     0.015 C 
HETATM    3  C3  UNL     1     -40.062  12.420   5.888  1.00 20.00    -0.082 C 
HETATM    4  C4  UNL     1     -42.301  14.448   4.706  1.00 20.00    -0.082 C 
HETATM    5  C5  UNL     1     -40.642  13.670   6.383  1.00 20.00     0.243 C 
HETATM    6  C6  UNL     1     -42.107  13.823   6.016  1.00 20.00     0.243 C 
HETATM    7  C7  UNL     1     -41.802  14.435   8.191  1.00 20.00     0.160 C 
HETATM    8  C8  UNL     1     -42.594  13.642   9.222  1.00 20.00     0.078 C 
HETATM    9  C9  UNL     1     -41.352  15.778   8.751  1.00 20.00     0.078 C 
HETATM   10  O10 UNL     1     -40.649  13.671   7.814  1.00 20.00    -0.335 OA
HETATM   11  O11 UNL     1     -42.628  14.673   7.044  1.00 20.00    -0.335 OA
ENDROOT
TORSDOF 0
ENDMDL
MODEL 7
REMARK VINA RESULT:      -3.7     11.913     12.913
REMARK  0 active torsions:
REMARK  status: ('A' for Active; 'I' for Inactive)
ROOT
HETATM    1  C1  UNL     1     -42.514  15.039   3.834  1.00 20.00     0.015 C 
HETATM    2  C2  UNL     1     -39.600  11.442   5.553  1.00 20.00     0.015 C 
HETATM    3  C3  UNL     1     -42.300  14.537   4.904  1.00 20.00    -0.082 C 
HETATM    4  C4  UNL     1     -40.032  12.480   5.975  1.00 20.00    -0.082 C 
HETATM    5  C5  UNL     1     -42.041  13.922   6.207  1.00 20.00     0.243 C 
HETATM    6  C6  UNL     1     -40.560  13.746   6.488  1.00 20.00     0.243 C 
HETATM    7  C7  UNL     1     -41.595  14.554   8.352  1.00 20.00     0.160 C 
HETATM    8  C8  UNL     1     -41.087  15.893   8.866  1.00 20.00     0.078 C 
HETATM    9  C9  UNL     1     -42.338  13.788   9.439  1.00 20.00     0.078 C 
HETATM   10  O10 UNL     1     -42.484  14.793   7.253  1.00 20.00    -0.335 OA
HETATM   11  O11 UNL     1     -40.482  13.763   7.918  1.00 20.00    -0.335 OA
ENDROOT
TORSDOF 0
ENDMDL
MODEL 8
REMARK VINA RESULT:      -3.4     12.530     13.922
REMARK  0 active torsions:
REMARK  status: ('A' for Active; 'I' for Inactive)
ROOT
HETATM    1  C1  UNL     1     -40.898  18.041   7.936  1.00 20.00     0.015 C 
HETATM    2  C2  UNL     1     -40.317  14.558  11.387  1.00 20.00     0.015 C 
HETATM    3  C3  UNL     1     -40.666  16.863   7.944  1.00 20.00    -0.082 C 
HETATM    4  C4  UNL     1     -40.752  14.603  10.269  1.00 20.00    -0.082 C 
HETATM    5  C5  UNL     1     -40.382  15.428   7.956  1.00 20.00     0.243 C 
HETATM    6  C6  UNL     1     -41.283  14.659   8.905  1.00 20.00     0.243 C 
HETATM    7  C7  UNL     1     -41.106  13.520   6.938  1.00 20.00     0.160 C 
HETATM    8  C8  UNL     1     -42.410  13.271   6.194  1.00 20.00     0.078 C 
HETATM    9  C9  UNL     1     -40.019  12.551   6.490  1.00 20.00     0.078 C 
HETATM   10  O10 UNL     1     -40.678  14.862   6.674  1.00 20.00    -0.335 OA
HETATM   11  O11 UNL     1     -41.323  13.342   8.343  1.00 20.00    -0.335 OA
ENDROOT
TORSDOF 0
ENDMDL
MODEL 9
REMARK VINA RESULT:      -3.4     12.474     14.103
REMARK  0 active torsions:
REMARK  status: ('A' for Active; 'I' for Inactive)
ROOT
HETATM    1  C1  UNL     1     -40.429  14.406  11.310  1.00 20.00     0.015 C 
HETATM    2  C2  UNL     1     -40.888  18.038   7.997  1.00 20.00     0.015 C 
HETATM    3  C3  UNL     1     -40.852  14.506  10.191  1.00 20.00    -0.082 C 
HETATM    4  C4  UNL     1     -40.686  16.855   7.959  1.00 20.00    -0.082 C 
HETATM    5  C5  UNL     1     -41.369  14.630   8.827  1.00 20.00     0.243 C 
HETATM    6  C6  UNL     1     -40.440  15.412   7.916  1.00 20.00     0.243 C 
HETATM    7  C7  UNL     1     -41.202  13.565   6.817  1.00 20.00     0.160 C 
HETATM    8  C8  UNL     1     -40.136  12.588   6.340  1.00 20.00     0.078 C 
HETATM    9  C9  UNL     1     -42.506  13.379   6.052  1.00 20.00     0.078 C 
HETATM   10  O10 UNL     1     -41.438  13.338   8.213  1.00 20.00    -0.335 OA
HETATM   11  O11 UNL     1     -40.740  14.905   6.610  1.00 20.00    -0.335 OA
ENDROOT
TORSDOF 0
ENDMDL
