MODEL 1
REMARK VINA RESULT:      -4.1      0.000      0.000
REMARK  1 active torsions:
REMARK  status: ('A' for Active; 'I' for Inactive)
REMARK    1  A    between atoms: C4_4  and  C7_7 
ROOT
HETATM    1  C1  UNL     1     -33.197  15.118  -4.114  1.00 20.00     0.047 C 
HETATM    2  C2  UNL     1     -33.550  14.811  -5.368  1.00 20.00    -0.006 C 
HETATM    3  C3  UNL     1     -33.718  16.345  -3.470  1.00 20.00     0.149 C 
HETATM    4  C5  UNL     1     -34.729  17.181  -4.217  1.00 20.00     0.088 C 
HETATM    5  C6  UNL     1     -34.505  17.124  -5.734  1.00 20.00     0.007 C 
HETATM    6  C7  UNL     1     -34.425  15.664  -6.258  1.00 20.00     0.031 C 
HETATM    7  C8  UNL     1     -35.552  17.987  -6.447  1.00 20.00     0.012 C 
HETATM    8  C9  UNL     1     -33.886  15.625  -7.696  1.00 20.00     0.027 C 
HETATM    9  O10 UNL     1     -33.368  16.626  -2.324  1.00 20.00    -0.293 OA
ENDROOT
BRANCH   6  10
HETATM   10  C4  UNL     1     -35.765  14.972  -6.233  1.00 20.00     0.244 C 
HETATM   11  O11 UNL     1     -36.185  14.279  -7.153  1.00 20.00    -0.306 OA
ENDBRANCH   6  10
TORSDOF 1
ENDMDL
MODEL 2
REMARK VINA RESULT:      -4.0     12.528     13.699
REMARK  1 active torsions:
REMARK  status: ('A' for Active; 'I' for Inactive)
REMARK    1  A    between atoms: C4_4  and  C7_7 
ROOT
HETATM    1  C1  UNL     1     -33.467   8.168   5.941  1.00 20.00     0.047 C 
HETATM    2  C2  UNL     1     -34.227   7.069   5.868  1.00 20.00    -0.006 C 
HETATM    3  C3  UNL     1     -32.565   8.529   4.824  1.00 20.00     0.149 C 
HETATM    4  C5  UNL     1     -32.600   7.692   3.567  1.00 20.00     0.088 C 
HETATM    5  C6  UNL     1     -32.928   6.224   3.869  1.00 20.00     0.007 C 
HETATM    6  C7  UNL     1     -34.216   6.079   4.726  1.00 20.00     0.031 C 
HETATM    7  C8  UNL     1     -32.950   5.418   2.567  1.00 20.00     0.012 C 
HETATM    8  C9  UNL     1     -34.346   4.653   5.283  1.00 20.00     0.027 C 
HETATM    9  O10 UNL     1     -31.856   9.530   4.914  1.00 20.00    -0.293 OA
ENDROOT
BRANCH   6  10
HETATM   10  C4  UNL     1     -35.464   6.400   3.943  1.00 20.00     0.244 C 
HETATM   11  O11 UNL     1     -36.534   5.824   4.110  1.00 20.00    -0.306 OA
ENDBRANCH   6  10
TORSDOF 1
ENDMDL
MODEL 3
REMARK VINA RESULT:      -3.8      1.911      4.252
REMARK  1 active torsions:
REMARK  status: ('A' for Active; 'I' for Inactive)
REMARK    1  A    between atoms: C4_4  and  C7_7 
ROOT
HETATM    1  C1  UNL     1     -33.391  15.539  -3.806  1.00 20.00     0.047 C 
HETATM    2  C2  UNL     1     -33.291  16.469  -2.849  1.00 20.00    -0.006 C 
HETATM    3  C3  UNL     1     -34.146  15.821  -5.048  1.00 20.00     0.149 C 
HETATM    4  C5  UNL     1     -34.708  17.208  -5.253  1.00 20.00     0.088 C 
HETATM    5  C6  UNL     1     -35.107  17.862  -3.924  1.00 20.00     0.007 C 
HETATM    6  C7  UNL     1     -33.952  17.828  -2.886  1.00 20.00     0.031 C 
HETATM    7  C8  UNL     1     -35.672  19.263  -4.183  1.00 20.00     0.012 C 
HETATM    8  C9  UNL     1     -34.465  18.186  -1.482  1.00 20.00     0.027 C 
HETATM    9  O10 UNL     1     -34.248  14.949  -5.909  1.00 20.00    -0.293 OA
ENDROOT
BRANCH   6  10
HETATM   10  C4  UNL     1     -32.834  18.776  -3.241  1.00 20.00     0.244 C 
HETATM   11  O11 UNL     1     -32.071  19.261  -2.413  1.00 20.00    -0.306 OA
ENDBRANCH   6  10
TORSDOF 1
ENDMDL
MODEL 4
REMARK VINA RESULT:      -3.7      1.989      2.687
REMARK  1 active torsions:
REMARK  status: ('A' for Active; 'I' for Inactive)
REMARK    1  A    between atoms: C4_4  and  C7_7 
ROOT
HETATM    1  C1  UNL     1     -34.146  14.455  -4.427  1.00 20.00     0.047 C 
HETATM    2  C2  UNL     1     -33.790  15.611  -5.000  1.00 20.00    -0.006 C 
HETATM    3  C3  UNL     1     -35.495  13.891  -4.657  1.00 20.00     0.149 C 
HETATM    4  C5  UNL     1     -36.417  14.592  -5.627  1.00 20.00     0.088 C 
HETATM    5  C6  UNL     1     -36.186  16.108  -5.637  1.00 20.00     0.007 C 
HETATM    6  C7  UNL     1     -34.692  16.471  -5.856  1.00 20.00     0.031 C 
HETATM    7  C8  UNL     1     -37.142  16.773  -6.633  1.00 20.00     0.012 C 
HETATM    8  C9  UNL     1     -34.434  17.953  -5.543  1.00 20.00     0.027 C 
HETATM    9  O10 UNL     1     -35.816  12.839  -4.106  1.00 20.00    -0.293 OA
ENDROOT
BRANCH   6  10
HETATM   10  C4  UNL     1     -34.236  16.196  -7.268  1.00 20.00     0.244 C 
HETATM   11  O11 UNL     1     -33.642  15.176  -7.599  1.00 20.00    -0.306 OA
ENDBRANCH   6  10
TORSDOF 1
ENDMDL
MODEL 5
REMARK VINA RESULT:      -3.7      2.033      3.402
REMARK  1 active torsions:
REMARK  status: ('A' for Active; 'I' for Inactive)
REMARK    1  A    between atoms: C4_4  and  C7_7 
ROOT
HETATM    1  C1  UNL     1     -34.408  15.654  -5.459  1.00 20.00     0.047 C 
HETATM    2  C2  UNL     1     -34.632  16.972  -5.534  1.00 20.00    -0.006 C 
HETATM    3  C3  UNL     1     -33.794  15.068  -4.246  1.00 20.00     0.149 C 
HETATM    4  C5  UNL     1     -33.524  15.969  -3.064  1.00 20.00     0.088 C 
HETATM    5  C6  UNL     1     -33.185  17.399  -3.504  1.00 20.00     0.007 C 
HETATM    6  C7  UNL     1     -34.251  17.980  -4.474  1.00 20.00     0.031 C 
HETATM    7  C8  UNL     1     -32.919  18.272  -2.273  1.00 20.00     0.012 C 
HETATM    8  C9  UNL     1     -33.739  19.262  -5.148  1.00 20.00     0.027 C 
HETATM    9  O10 UNL     1     -33.573  13.858  -4.200  1.00 20.00    -0.293 OA
ENDROOT
BRANCH   6  10
HETATM   10  C4  UNL     1     -35.550  18.294  -3.775  1.00 20.00     0.244 C 
HETATM   11  O11 UNL     1     -36.649  18.174  -4.307  1.00 20.00    -0.306 OA
ENDBRANCH   6  10
TORSDOF 1
ENDMDL
MODEL 6
REMARK VINA RESULT:      -3.5      1.981      3.606
REMARK  1 active torsions:
REMARK  status: ('A' for Active; 'I' for Inactive)
REMARK    1  A    between atoms: C4_4  and  C7_7 
ROOT
HETATM    1  C1  UNL     1     -33.329  16.111  -3.012  1.00 20.00     0.047 C 
HETATM    2  C2  UNL     1     -33.805  17.360  -2.936  1.00 20.00    -0.006 C 
HETATM    3  C3  UNL     1     -33.648  15.259  -4.180  1.00 20.00     0.149 C 
HETATM    4  C5  UNL     1     -34.431  15.862  -5.323  1.00 20.00     0.088 C 
HETATM    5  C6  UNL     1     -35.418  16.931  -4.835  1.00 20.00     0.007 C 
HETATM    6  C7  UNL     1     -34.728  18.001  -3.946  1.00 20.00     0.031 C 
HETATM    7  C8  UNL     1     -36.187  17.510  -6.027  1.00 20.00     0.012 C 
HETATM    8  C9  UNL     1     -35.769  18.862  -3.214  1.00 20.00     0.027 C 
HETATM    9  O10 UNL     1     -33.222  14.106  -4.226  1.00 20.00    -0.293 OA
ENDROOT
BRANCH   6  10
HETATM   10  C4  UNL     1     -33.830  18.915  -4.742  1.00 20.00     0.244 C 
HETATM   11  O11 UNL     1     -32.715  19.261  -4.367  1.00 20.00    -0.306 OA
ENDBRANCH   6  10
TORSDOF 1
ENDMDL
MODEL 7
REMARK VINA RESULT:      -3.5      1.486      2.799
REMARK  1 active torsions:
REMARK  status: ('A' for Active; 'I' for Inactive)
REMARK    1  A    between atoms: C4_4  and  C7_7 
ROOT
HETATM    1  C1  UNL     1     -35.964  17.936  -4.527  1.00 20.00     0.047 C 
HETATM    2  C2  UNL     1     -36.115  16.839  -5.280  1.00 20.00    -0.006 C 
HETATM    3  C3  UNL     1     -34.732  18.132  -3.730  1.00 20.00     0.149 C 
HETATM    4  C5  UNL     1     -33.614  17.125  -3.867  1.00 20.00     0.088 C 
HETATM    5  C6  UNL     1     -34.150  15.716  -4.153  1.00 20.00     0.007 C 
HETATM    6  C7  UNL     1     -35.128  15.697  -5.359  1.00 20.00     0.031 C 
HETATM    7  C8  UNL     1     -32.981  14.733  -4.281  1.00 20.00     0.012 C 
HETATM    8  C9  UNL     1     -35.892  14.365  -5.425  1.00 20.00     0.027 C 
HETATM    9  O10 UNL     1     -34.617  19.134  -3.026  1.00 20.00    -0.293 OA
ENDROOT
BRANCH   6  10
HETATM   10  C4  UNL     1     -34.421  15.907  -6.674  1.00 20.00     0.244 C 
HETATM   11  O11 UNL     1     -34.299  15.031  -7.523  1.00 20.00    -0.306 OA
ENDBRANCH   6  10
TORSDOF 1
ENDMDL
MODEL 8
REMARK VINA RESULT:      -3.4     12.770     14.294
REMARK  1 active torsions:
REMARK  status: ('A' for Active; 'I' for Inactive)
REMARK    1  A    between atoms: C4_4  and  C7_7 
ROOT
HETATM    1  C1  UNL     1     -42.459  15.310   5.311  1.00 20.00     0.047 C 
HETATM    2  C2  UNL     1     -42.206  15.117   6.611  1.00 20.00    -0.006 C 
HETATM    3  C3  UNL     1     -41.885  14.400   4.295  1.00 20.00     0.149 C 
HETATM    4  C5  UNL     1     -41.101  13.197   4.761  1.00 20.00     0.088 C 
HETATM    5  C6  UNL     1     -40.359  13.476   6.075  1.00 20.00     0.007 C 
HETATM    6  C7  UNL     1     -41.303  14.041   7.170  1.00 20.00     0.031 C 
HETATM    7  C8  UNL     1     -39.578  12.230   6.506  1.00 20.00     0.012 C 
HETATM    8  C9  UNL     1     -40.498  14.611   8.349  1.00 20.00     0.027 C 
HETATM    9  O10 UNL     1     -42.108  14.603   3.102  1.00 20.00    -0.293 OA
ENDROOT
BRANCH   6  10
HETATM   10  C4  UNL     1     -42.253  12.998   7.702  1.00 20.00     0.244 C 
HETATM   11  O11 UNL     1     -42.535  12.883   8.890  1.00 20.00    -0.306 OA
ENDBRANCH   6  10
TORSDOF 1
ENDMDL
MODEL 9
REMARK VINA RESULT:      -3.4      2.891      4.269
REMARK  1 active torsions:
REMARK  status: ('A' for Active; 'I' for Inactive)
REMARK    1  A    between atoms: C4_4  and  C7_7 
ROOT
HETATM    1  C1  UNL     1     -34.889  19.083  -1.295  1.00 20.00     0.047 C 
HETATM    2  C2  UNL     1     -35.116  19.061  -2.614  1.00 20.00    -0.006 C 
HETATM    3  C3  UNL     1     -33.933  18.132  -0.684  1.00 20.00     0.149 C 
HETATM    4  C5  UNL     1     -33.148  17.213  -1.590  1.00 20.00     0.088 C 
HETATM    5  C6  UNL     1     -33.948  16.830  -2.842  1.00 20.00     0.007 C 
HETATM    6  C7  UNL     1     -34.505  18.075  -3.584  1.00 20.00     0.031 C 
HETATM    7  C8  UNL     1     -33.113  15.898  -3.727  1.00 20.00     0.012 C 
HETATM    8  C9  UNL     1     -35.555  17.668  -4.629  1.00 20.00     0.027 C 
HETATM    9  O10 UNL     1     -33.751  18.149   0.533  1.00 20.00    -0.293 OA
ENDROOT
BRANCH   6  10
HETATM   10  C4  UNL     1     -33.421  18.861  -4.278  1.00 20.00     0.244 C 
HETATM   11  O11 UNL     1     -33.489  19.215  -5.451  1.00 20.00    -0.306 OA
ENDBRANCH   6  10
TORSDOF 1
ENDMDL
