MODEL 1
REMARK VINA RESULT:      -4.6      0.000      0.000
REMARK  2 active torsions:
REMARK  status: ('A' for Active; 'I' for Inactive)
REMARK    1  A    between atoms: C3_3  and  C6_6 
REMARK    2  A    between atoms: C3_3  and  O10_10 
ROOT
HETATM    1  C1  UNL     1     -34.126   7.419   4.354  1.00 20.00    -0.010 C 
HETATM    2  C2  UNL     1     -33.312   7.934   5.283  1.00 20.00    -0.087 C 
HETATM    3  C4  UNL     1     -33.335   7.131   6.546  1.00 20.00     0.034 C 
HETATM    4  C5  UNL     1     -34.537   6.202   6.345  1.00 20.00     0.023 C 
HETATM    5  C6  UNL     1     -34.826   6.196   4.843  1.00 20.00     0.108 C 
HETATM    6  C7  UNL     1     -32.439   9.128   5.146  1.00 20.00     0.043 C 
ENDROOT
BRANCH   5   7
HETATM    7  C3  UNL     1     -34.225   5.011   4.155  1.00 20.00     0.266 C 
HETATM    8  O9  UNL     1     -34.163   3.893   4.647  1.00 20.00    -0.265 OA
BRANCH   7   9
HETATM    9  O10 UNL     1     -33.771   5.380   2.924  1.00 20.00    -0.326 OA
HETATM   10  C8  UNL     1     -32.666   4.622   2.423  1.00 20.00     0.213 C 
ENDBRANCH   7   9
ENDBRANCH   5   7
TORSDOF 2
ENDMDL
MODEL 2
REMARK VINA RESULT:      -4.2      2.661      3.778
REMARK  2 active torsions:
REMARK  status: ('A' for Active; 'I' for Inactive)
REMARK    1  A    between atoms: C3_3  and  C6_6 
REMARK    2  A    between atoms: C3_3  and  O10_10 
ROOT
HETATM    1  C1  UNL     1     -33.069   6.585   3.569  1.00 20.00    -0.010 C 
HETATM    2  C2  UNL     1     -33.969   6.647   4.557  1.00 20.00    -0.087 C 
HETATM    3  C4  UNL     1     -33.775   7.861   5.409  1.00 20.00     0.034 C 
HETATM    4  C5  UNL     1     -32.407   8.385   4.960  1.00 20.00     0.023 C 
HETATM    5  C6  UNL     1     -32.127   7.742   3.601  1.00 20.00     0.108 C 
HETATM    6  C7  UNL     1     -35.072   5.688   4.823  1.00 20.00     0.043 C 
ENDROOT
BRANCH   5   7
HETATM    7  C3  UNL     1     -32.470   8.651   2.463  1.00 20.00     0.266 C 
HETATM    8  O9  UNL     1     -32.959   9.764   2.599  1.00 20.00    -0.265 OA
BRANCH   7   9
HETATM    9  O10 UNL     1     -32.155   8.044   1.284  1.00 20.00    -0.326 OA
HETATM   10  C8  UNL     1     -32.509   8.771   0.104  1.00 20.00     0.213 C 
ENDBRANCH   7   9
ENDBRANCH   5   7
TORSDOF 2
ENDMDL
MODEL 3
REMARK VINA RESULT:      -4.2     12.550     13.720
REMARK  2 active torsions:
REMARK  status: ('A' for Active; 'I' for Inactive)
REMARK    1  A    between atoms: C3_3  and  C6_6 
REMARK    2  A    between atoms: C3_3  and  O10_10 
ROOT
HETATM    1  C1  UNL     1     -33.488  17.057  -1.449  1.00 20.00    -0.010 C 
HETATM    2  C2  UNL     1     -33.357  16.941  -2.776  1.00 20.00    -0.087 C 
HETATM    3  C4  UNL     1     -33.023  18.251  -3.416  1.00 20.00     0.034 C 
HETATM    4  C5  UNL     1     -33.269  19.261  -2.290  1.00 20.00     0.023 C 
HETATM    5  C6  UNL     1     -33.267  18.459  -0.988  1.00 20.00     0.108 C 
HETATM    6  C7  UNL     1     -33.482  15.700  -3.582  1.00 20.00     0.043 C 
ENDROOT
BRANCH   5   7
HETATM    7  C3  UNL     1     -31.945  18.515  -0.290  1.00 20.00     0.266 C 
HETATM    8  O9  UNL     1     -30.878  18.707  -0.858  1.00 20.00    -0.265 OA
BRANCH   7   9
HETATM    9  O10 UNL     1     -32.127  18.320   1.047  1.00 20.00    -0.326 OA
HETATM   10  C8  UNL     1     -30.933  18.314   1.836  1.00 20.00     0.213 C 
ENDBRANCH   7   9
ENDBRANCH   5   7
TORSDOF 2
ENDMDL
MODEL 4
REMARK VINA RESULT:      -3.9     12.318     13.428
REMARK  2 active torsions:
REMARK  status: ('A' for Active; 'I' for Inactive)
REMARK    1  A    between atoms: C3_3  and  C6_6 
REMARK    2  A    between atoms: C3_3  and  O10_10 
ROOT
HETATM    1  C1  UNL     1     -33.893  14.988  -4.033  1.00 20.00    -0.010 C 
HETATM    2  C2  UNL     1     -33.763  16.270  -3.672  1.00 20.00    -0.087 C 
HETATM    3  C4  UNL     1     -34.273  17.198  -4.729  1.00 20.00     0.034 C 
HETATM    4  C5  UNL     1     -34.464  16.276  -5.938  1.00 20.00     0.023 C 
HETATM    5  C6  UNL     1     -34.507  14.851  -5.386  1.00 20.00     0.108 C 
HETATM    6  C7  UNL     1     -33.219  16.787  -2.391  1.00 20.00     0.043 C 
ENDROOT
BRANCH   5   7
HETATM    7  C3  UNL     1     -35.907  14.352  -5.213  1.00 20.00     0.266 C 
HETATM    8  O9  UNL     1     -36.212  13.394  -4.516  1.00 20.00    -0.265 OA
BRANCH   7   9
HETATM    9  O10 UNL     1     -36.759  15.125  -5.946  1.00 20.00    -0.326 OA
HETATM   10  C8  UNL     1     -37.776  15.798  -5.197  1.00 20.00     0.213 C 
ENDBRANCH   7   9
ENDBRANCH   5   7
TORSDOF 2
ENDMDL
MODEL 5
REMARK VINA RESULT:      -3.8      1.578      2.158
REMARK  2 active torsions:
REMARK  status: ('A' for Active; 'I' for Inactive)
REMARK    1  A    between atoms: C3_3  and  C6_6 
REMARK    2  A    between atoms: C3_3  and  O10_10 
ROOT
HETATM    1  C1  UNL     1     -34.305   7.078   4.676  1.00 20.00    -0.010 C 
HETATM    2  C2  UNL     1     -34.205   6.754   5.970  1.00 20.00    -0.087 C 
HETATM    3  C4  UNL     1     -34.175   5.272   6.170  1.00 20.00     0.034 C 
HETATM    4  C5  UNL     1     -34.582   4.728   4.795  1.00 20.00     0.023 C 
HETATM    5  C6  UNL     1     -34.362   5.870   3.802  1.00 20.00     0.108 C 
HETATM    6  C7  UNL     1     -34.100   7.688   7.120  1.00 20.00     0.043 C 
ENDROOT
BRANCH   5   7
HETATM    7  C3  UNL     1     -33.054   5.753   3.085  1.00 20.00     0.266 C 
HETATM    8  O9  UNL     1     -32.686   4.748   2.492  1.00 20.00    -0.265 OA
BRANCH   7   9
HETATM    9  O10 UNL     1     -32.363   6.923   3.203  1.00 20.00    -0.326 OA
HETATM   10  C8  UNL     1     -32.167   7.647   1.985  1.00 20.00     0.213 C 
ENDBRANCH   7   9
ENDBRANCH   5   7
TORSDOF 2
ENDMDL
MODEL 6
REMARK VINA RESULT:      -3.8     12.321     13.217
REMARK  2 active torsions:
REMARK  status: ('A' for Active; 'I' for Inactive)
REMARK    1  A    between atoms: C3_3  and  C6_6 
REMARK    2  A    between atoms: C3_3  and  O10_10 
ROOT
HETATM    1  C1  UNL     1     -33.187  16.351  -2.783  1.00 20.00    -0.010 C 
HETATM    2  C2  UNL     1     -33.811  17.348  -2.146  1.00 20.00    -0.087 C 
HETATM    3  C4  UNL     1     -34.694  18.129  -3.068  1.00 20.00     0.034 C 
HETATM    4  C5  UNL     1     -34.274  17.630  -4.455  1.00 20.00     0.023 C 
HETATM    5  C6  UNL     1     -33.546  16.304  -4.230  1.00 20.00     0.108 C 
HETATM    6  C7  UNL     1     -33.717  17.685  -0.702  1.00 20.00     0.043 C 
ENDROOT
BRANCH   5   7
HETATM    7  C3  UNL     1     -34.439  15.123  -4.449  1.00 20.00     0.266 C 
HETATM    8  O9  UNL     1     -34.218  14.006  -4.004  1.00 20.00    -0.265 OA
BRANCH   7   9
HETATM    9  O10 UNL     1     -35.508  15.495  -5.210  1.00 20.00    -0.326 OA
HETATM   10  C8  UNL     1     -35.732  14.707  -6.383  1.00 20.00     0.213 C 
ENDBRANCH   7   9
ENDBRANCH   5   7
TORSDOF 2
ENDMDL
MODEL 7
REMARK VINA RESULT:      -3.8      9.862     10.830
REMARK  2 active torsions:
REMARK  status: ('A' for Active; 'I' for Inactive)
REMARK    1  A    between atoms: C3_3  and  C6_6 
REMARK    2  A    between atoms: C3_3  and  O10_10 
ROOT
HETATM    1  C1  UNL     1     -40.196  12.250   6.401  1.00 20.00    -0.010 C 
HETATM    2  C2  UNL     1     -40.069  12.416   5.079  1.00 20.00    -0.087 C 
HETATM    3  C4  UNL     1     -41.000  13.466   4.560  1.00 20.00     0.034 C 
HETATM    4  C5  UNL     1     -41.944  13.707   5.743  1.00 20.00     0.023 C 
HETATM    5  C6  UNL     1     -41.232  13.155   6.979  1.00 20.00     0.108 C 
HETATM    6  C7  UNL     1     -39.124  11.710   4.176  1.00 20.00     0.043 C 
ENDROOT
BRANCH   5   7
HETATM    7  C3  UNL     1     -40.533  14.225   7.755  1.00 20.00     0.266 C 
HETATM    8  O9  UNL     1     -40.314  15.350   7.328  1.00 20.00    -0.265 OA
BRANCH   7   9
HETATM    9  O10 UNL     1     -40.191  13.745   8.985  1.00 20.00    -0.326 OA
HETATM   10  C8  UNL     1     -40.562  14.572  10.093  1.00 20.00     0.213 C 
ENDBRANCH   7   9
ENDBRANCH   5   7
TORSDOF 2
ENDMDL
MODEL 8
REMARK VINA RESULT:      -3.6     12.849     13.981
REMARK  2 active torsions:
REMARK  status: ('A' for Active; 'I' for Inactive)
REMARK    1  A    between atoms: C3_3  and  C6_6 
REMARK    2  A    between atoms: C3_3  and  O10_10 
ROOT
HETATM    1  C1  UNL     1     -34.899  16.629  -4.835  1.00 20.00    -0.010 C 
HETATM    2  C2  UNL     1     -33.795  16.819  -4.103  1.00 20.00    -0.087 C 
HETATM    3  C4  UNL     1     -33.096  15.528  -3.811  1.00 20.00     0.034 C 
HETATM    4  C5  UNL     1     -34.125  14.473  -4.230  1.00 20.00     0.023 C 
HETATM    5  C6  UNL     1     -35.120  15.187  -5.146  1.00 20.00     0.108 C 
HETATM    6  C7  UNL     1     -33.247  18.115  -3.629  1.00 20.00     0.043 C 
ENDROOT
BRANCH   5   7
HETATM    7  C3  UNL     1     -34.812  14.972  -6.594  1.00 20.00     0.266 C 
HETATM    8  O9  UNL     1     -33.689  15.041  -7.073  1.00 20.00    -0.265 OA
BRANCH   7   9
HETATM    9  O10 UNL     1     -35.965  14.696  -7.269  1.00 20.00    -0.326 OA
HETATM   10  C8  UNL     1     -36.580  15.814  -7.918  1.00 20.00     0.213 C 
ENDBRANCH   7   9
ENDBRANCH   5   7
TORSDOF 2
ENDMDL
MODEL 9
REMARK VINA RESULT:      -3.6     10.065     10.982
REMARK  2 active torsions:
REMARK  status: ('A' for Active; 'I' for Inactive)
REMARK    1  A    between atoms: C3_3  and  C6_6 
REMARK    2  A    between atoms: C3_3  and  O10_10 
ROOT
HETATM    1  C1  UNL     1     -40.499  12.186   6.365  1.00 20.00    -0.010 C 
HETATM    2  C2  UNL     1     -40.212  12.450   5.085  1.00 20.00    -0.087 C 
HETATM    3  C4  UNL     1     -41.059  13.558   4.544  1.00 20.00     0.034 C 
HETATM    4  C5  UNL     1     -42.134  13.732   5.623  1.00 20.00     0.023 C 
HETATM    5  C6  UNL     1     -41.583  13.069   6.886  1.00 20.00     0.108 C 
HETATM    6  C7  UNL     1     -39.177  11.793   4.246  1.00 20.00     0.043 C 
ENDROOT
BRANCH   5   7
HETATM    7  C3  UNL     1     -40.966  14.060   7.822  1.00 20.00     0.266 C 
HETATM    8  O9  UNL     1     -40.103  13.781   8.643  1.00 20.00    -0.265 OA
BRANCH   7   9
HETATM    9  O10 UNL     1     -41.516  15.290   7.610  1.00 20.00    -0.326 OA
HETATM   10  C8  UNL     1     -40.621  16.397   7.759  1.00 20.00     0.213 C 
ENDBRANCH   7   9
ENDBRANCH   5   7
TORSDOF 2
ENDMDL
