MODEL 1
REMARK VINA RESULT:      -4.8      0.000      0.000
REMARK  0 active torsions:
REMARK  status: ('A' for Active; 'I' for Inactive)
ROOT
HETATM    1  C1  UNL     1     -34.426   4.937   6.896  1.00 20.00     0.015 C 
HETATM    2  C2  UNL     1     -34.570   5.435   5.813  1.00 20.00    -0.075 C 
HETATM    3  C3  UNL     1     -32.231   8.919   4.241  1.00 20.00     0.001 C 
HETATM    4  C4  UNL     1     -32.036   7.777   3.218  1.00 20.00     0.005 C 
HETATM    5  C5  UNL     1     -33.437   8.502   5.112  1.00 20.00     0.009 C 
HETATM    6  C6  UNL     1     -33.790   5.551   3.349  1.00 20.00     0.060 C 
HETATM    7  C7  UNL     1     -32.811   6.646   3.855  1.00 20.00    -0.003 C 
HETATM    8  C8  UNL     1     -34.094   7.433   4.261  1.00 20.00     0.040 C 
HETATM    9  C9  UNL     1     -34.742   6.036   4.512  1.00 20.00     0.162 C 
HETATM   10  O10 UNL     1     -36.095   5.992   4.139  1.00 20.00    -0.214 OA
ENDROOT
TORSDOF 0
ENDMDL
MODEL 2
REMARK VINA RESULT:      -4.5     16.015     16.692
REMARK  0 active torsions:
REMARK  status: ('A' for Active; 'I' for Inactive)
ROOT
HETATM    1  C1  UNL     1     -26.143  19.262  12.293  1.00 20.00     0.015 C 
HETATM    2  C2  UNL     1     -25.285  18.469  12.015  1.00 20.00    -0.075 C 
HETATM    3  C3  UNL     1     -22.355  18.905   8.652  1.00 20.00     0.001 C 
HETATM    4  C4  UNL     1     -21.511  18.725   9.934  1.00 20.00     0.005 C 
HETATM    5  C5  UNL     1     -23.787  18.459   9.025  1.00 20.00     0.009 C 
HETATM    6  C6  UNL     1     -22.809  17.762  12.266  1.00 20.00     0.060 C 
HETATM    7  C7  UNL     1     -22.575  18.638  11.004  1.00 20.00    -0.003 C 
HETATM    8  C8  UNL     1     -23.555  17.657  10.290  1.00 20.00     0.040 C 
HETATM    9  C9  UNL     1     -24.255  17.516  11.678  1.00 20.00     0.162 C 
HETATM   10  O10 UNL     1     -24.709  16.211  11.924  1.00 20.00    -0.214 OA
ENDROOT
TORSDOF 0
ENDMDL
MODEL 3
REMARK VINA RESULT:      -4.1      1.399      2.370
REMARK  0 active torsions:
REMARK  status: ('A' for Active; 'I' for Inactive)
ROOT
HETATM    1  C1  UNL     1     -36.624   6.091   3.828  1.00 20.00     0.015 C 
HETATM    2  C2  UNL     1     -35.614   6.069   4.477  1.00 20.00    -0.075 C 
HETATM    3  C3  UNL     1     -31.877   8.349   3.520  1.00 20.00     0.001 C 
HETATM    4  C4  UNL     1     -32.282   8.773   4.949  1.00 20.00     0.005 C 
HETATM    5  C5  UNL     1     -32.680   7.063   3.219  1.00 20.00     0.009 C 
HETATM    6  C6  UNL     1     -34.189   7.186   6.325  1.00 20.00     0.060 C 
HETATM    7  C7  UNL     1     -33.564   7.999   5.159  1.00 20.00    -0.003 C 
HETATM    8  C8  UNL     1     -33.102   6.616   4.604  1.00 20.00     0.040 C 
HETATM    9  C9  UNL     1     -34.399   6.043   5.255  1.00 20.00     0.162 C 
HETATM   10  O10 UNL     1     -34.209   4.765   5.805  1.00 20.00    -0.214 OA
ENDROOT
TORSDOF 0
ENDMDL
MODEL 4
REMARK VINA RESULT:      -4.0      9.722     10.750
REMARK  0 active torsions:
REMARK  status: ('A' for Active; 'I' for Inactive)
ROOT
HETATM    1  C1  UNL     1     -39.593  11.689   5.515  1.00 20.00     0.015 C 
HETATM    2  C2  UNL     1     -40.555  12.195   6.025  1.00 20.00    -0.075 C 
HETATM    3  C3  UNL     1     -40.506  15.939   8.487  1.00 20.00     0.001 C 
HETATM    4  C4  UNL     1     -41.510  16.195   7.340  1.00 20.00     0.005 C 
HETATM    5  C5  UNL     1     -40.278  14.410   8.514  1.00 20.00     0.009 C 
HETATM    6  C6  UNL     1     -42.435  13.964   5.851  1.00 20.00     0.060 C 
HETATM    7  C7  UNL     1     -41.419  14.911   6.547  1.00 20.00    -0.003 C 
HETATM    8  C8  UNL     1     -41.468  13.895   7.729  1.00 20.00     0.040 C 
HETATM    9  C9  UNL     1     -41.710  12.803   6.640  1.00 20.00     0.162 C 
HETATM   10  O10 UNL     1     -42.609  11.810   7.060  1.00 20.00    -0.214 OA
ENDROOT
TORSDOF 0
ENDMDL
MODEL 5
REMARK VINA RESULT:      -3.9     12.288     12.983
REMARK  0 active torsions:
REMARK  status: ('A' for Active; 'I' for Inactive)
ROOT
HETATM    1  C1  UNL     1     -36.272  13.822  -4.854  1.00 20.00     0.015 C 
HETATM    2  C2  UNL     1     -35.273  14.474  -4.999  1.00 20.00    -0.075 C 
HETATM    3  C3  UNL     1     -34.288  18.229  -2.762  1.00 20.00     0.001 C 
HETATM    4  C4  UNL     1     -33.110  17.261  -2.512  1.00 20.00     0.005 C 
HETATM    5  C5  UNL     1     -35.064  17.646  -3.965  1.00 20.00     0.009 C 
HETATM    6  C6  UNL     1     -32.870  14.985  -4.189  1.00 20.00     0.060 C 
HETATM    7  C7  UNL     1     -33.554  16.022  -3.256  1.00 20.00    -0.003 C 
HETATM    8  C8  UNL     1     -34.049  16.697  -4.572  1.00 20.00     0.040 C 
HETATM    9  C9  UNL     1     -34.075  15.258  -5.174  1.00 20.00     0.162 C 
HETATM   10  O10 UNL     1     -33.673  15.227  -6.519  1.00 20.00    -0.214 OA
ENDROOT
TORSDOF 0
ENDMDL
MODEL 6
REMARK VINA RESULT:      -3.8     12.367     13.767
REMARK  0 active torsions:
REMARK  status: ('A' for Active; 'I' for Inactive)
ROOT
HETATM    1  C1  UNL     1     -33.667  15.510  -7.918  1.00 20.00     0.015 C 
HETATM    2  C2  UNL     1     -34.412  15.536  -6.977  1.00 20.00    -0.075 C 
HETATM    3  C3  UNL     1     -33.257  16.650  -2.794  1.00 20.00     0.001 C 
HETATM    4  C4  UNL     1     -34.407  17.604  -3.188  1.00 20.00     0.005 C 
HETATM    5  C5  UNL     1     -33.289  15.503  -3.828  1.00 20.00     0.009 C 
HETATM    6  C6  UNL     1     -35.965  16.950  -5.467  1.00 20.00     0.060 C 
HETATM    7  C7  UNL     1     -34.689  17.189  -4.614  1.00 20.00    -0.003 C 
HETATM    8  C8  UNL     1     -34.678  15.641  -4.419  1.00 20.00     0.040 C 
HETATM    9  C9  UNL     1     -35.307  15.565  -5.845  1.00 20.00     0.162 C 
HETATM   10  O10 UNL     1     -36.261  14.542  -5.961  1.00 20.00    -0.214 OA
ENDROOT
TORSDOF 0
ENDMDL
MODEL 7
REMARK VINA RESULT:      -3.8     12.399     13.610
REMARK  0 active torsions:
REMARK  status: ('A' for Active; 'I' for Inactive)
ROOT
HETATM    1  C1  UNL     1     -33.937  17.784  -0.008  1.00 20.00     0.015 C 
HETATM    2  C2  UNL     1     -33.629  18.098  -1.125  1.00 20.00    -0.075 C 
HETATM    3  C3  UNL     1     -34.161  15.543  -4.767  1.00 20.00     0.001 C 
HETATM    4  C4  UNL     1     -34.908  16.863  -5.059  1.00 20.00     0.005 C 
HETATM    5  C5  UNL     1     -33.246  15.836  -3.556  1.00 20.00     0.009 C 
HETATM    6  C6  UNL     1     -34.378  19.097  -3.391  1.00 20.00     0.060 C 
HETATM    7  C7  UNL     1     -34.716  17.628  -3.769  1.00 20.00    -0.003 C 
HETATM    8  C8  UNL     1     -33.197  17.350  -3.550  1.00 20.00     0.040 C 
HETATM    9  C9  UNL     1     -33.257  18.474  -2.468  1.00 20.00     0.162 C 
HETATM   10  O10 UNL     1     -32.097  19.263  -2.442  1.00 20.00    -0.214 OA
ENDROOT
TORSDOF 0
ENDMDL
MODEL 8
REMARK VINA RESULT:      -3.8     12.288     13.303
REMARK  0 active torsions:
REMARK  status: ('A' for Active; 'I' for Inactive)
ROOT
HETATM    1  C1  UNL     1     -33.657  15.706  -3.494  1.00 20.00     0.015 C 
HETATM    2  C2  UNL     1     -33.738  16.857  -3.158  1.00 20.00    -0.075 C 
HETATM    3  C3  UNL     1     -32.601  18.461   0.868  1.00 20.00     0.001 C 
HETATM    4  C4  UNL     1     -31.773  19.263  -0.161  1.00 20.00     0.005 C 
HETATM    5  C5  UNL     1     -33.720  17.767   0.059  1.00 20.00     0.009 C 
HETATM    6  C6  UNL     1     -32.544  19.136  -2.888  1.00 20.00     0.060 C 
HETATM    7  C7  UNL     1     -32.184  18.622  -1.467  1.00 20.00    -0.003 C 
HETATM    8  C8  UNL     1     -33.724  18.563  -1.231  1.00 20.00     0.040 C 
HETATM    9  C9  UNL     1     -33.837  18.238  -2.753  1.00 20.00     0.162 C 
HETATM   10  O10 UNL     1     -34.958  18.835  -3.352  1.00 20.00    -0.214 OA
ENDROOT
TORSDOF 0
ENDMDL
MODEL 9
REMARK VINA RESULT:      -3.7      9.857     10.995
REMARK  0 active torsions:
REMARK  status: ('A' for Active; 'I' for Inactive)
ROOT
HETATM    1  C1  UNL     1     -39.420  11.735   5.359  1.00 20.00     0.015 C 
HETATM    2  C2  UNL     1     -40.270  12.579   5.445  1.00 20.00    -0.075 C 
HETATM    3  C3  UNL     1     -43.417  12.760   8.629  1.00 20.00     0.001 C 
HETATM    4  C4  UNL     1     -42.671  14.111   8.690  1.00 20.00     0.005 C 
HETATM    5  C5  UNL     1     -43.033  12.126   7.273  1.00 20.00     0.009 C 
HETATM    6  C6  UNL     1     -41.013  14.821   6.499  1.00 20.00     0.060 C 
HETATM    7  C7  UNL     1     -41.610  13.935   7.627  1.00 20.00    -0.003 C 
HETATM    8  C8  UNL     1     -42.498  13.317   6.503  1.00 20.00     0.040 C 
HETATM    9  C9  UNL     1     -41.293  13.591   5.549  1.00 20.00     0.162 C 
HETATM   10  O10 UNL     1     -41.699  13.996   4.268  1.00 20.00    -0.214 OA
ENDROOT
TORSDOF 0
ENDMDL
