MODEL 1
REMARK VINA RESULT:      -4.8      0.000      0.000
REMARK  0 active torsions:
REMARK  status: ('A' for Active; 'I' for Inactive)
ROOT
HETATM    1  C1  UNL     1     -32.904   7.897   4.733  1.00 20.00     0.026 C 
HETATM    2  C2  UNL     1     -33.291   6.056   3.705  1.00 20.00     0.017 C 
HETATM    3  C3  UNL     1     -32.501   9.162   4.897  1.00 20.00     0.040 C 
HETATM    4  C4  UNL     1     -33.817   7.178   5.682  1.00 20.00     0.073 C 
HETATM    5  C5  UNL     1     -34.303   5.994   4.833  1.00 20.00    -0.002 C 
HETATM    6  C6  UNL     1     -33.175   4.971   2.681  1.00 20.00     0.066 C 
HETATM    7  C7  UNL     1     -34.234   4.682   5.608  1.00 20.00     0.021 C 
HETATM    8  C8  UNL     1     -35.711   6.237   4.284  1.00 20.00     0.021 C 
HETATM    9  N9  UNL     1     -32.550   7.120   3.659  1.00 20.00    -0.263 NA
ENDROOT
TORSDOF 0
ENDMDL
MODEL 2
REMARK VINA RESULT:      -3.9      9.055     10.177
REMARK  0 active torsions:
REMARK  status: ('A' for Active; 'I' for Inactive)
ROOT
HETATM    1  C1  UNL     1     -39.925  12.271   4.728  1.00 20.00     0.026 C 
HETATM    2  C2  UNL     1     -41.487  13.688   5.116  1.00 20.00     0.017 C 
HETATM    3  C3  UNL     1     -38.870  11.732   4.108  1.00 20.00     0.040 C 
HETATM    4  C4  UNL     1     -40.357  11.909   6.118  1.00 20.00     0.073 C 
HETATM    5  C5  UNL     1     -41.275  13.083   6.490  1.00 20.00    -0.002 C 
HETATM    6  C6  UNL     1     -42.497  14.765   4.868  1.00 20.00     0.066 C 
HETATM    7  C7  UNL     1     -42.576  12.599   7.122  1.00 20.00     0.021 C 
HETATM    8  C8  UNL     1     -40.561  14.087   7.399  1.00 20.00     0.021 C 
HETATM    9  N9  UNL     1     -40.719  13.242   4.170  1.00 20.00    -0.263 NA
ENDROOT
TORSDOF 0
ENDMDL
MODEL 3
REMARK VINA RESULT:      -3.8      1.199      2.294
REMARK  0 active torsions:
REMARK  status: ('A' for Active; 'I' for Inactive)
ROOT
HETATM    1  C1  UNL     1     -33.092   8.055   5.067  1.00 20.00     0.026 C 
HETATM    2  C2  UNL     1     -34.065   6.284   5.784  1.00 20.00     0.017 C 
HETATM    3  C3  UNL     1     -32.194   9.046   5.032  1.00 20.00     0.040 C 
HETATM    4  C4  UNL     1     -33.947   7.656   3.900  1.00 20.00     0.073 C 
HETATM    5  C5  UNL     1     -34.428   6.257   4.312  1.00 20.00    -0.002 C 
HETATM    6  C6  UNL     1     -34.515   5.219   6.734  1.00 20.00     0.066 C 
HETATM    7  C7  UNL     1     -35.926   6.088   4.082  1.00 20.00     0.021 C 
HETATM    8  C8  UNL     1     -33.634   5.159   3.599  1.00 20.00     0.021 C 
HETATM    9  N9  UNL     1     -33.313   7.269   6.169  1.00 20.00    -0.263 NA
ENDROOT
TORSDOF 0
ENDMDL
MODEL 4
REMARK VINA RESULT:      -3.6     12.430     13.528
REMARK  0 active torsions:
REMARK  status: ('A' for Active; 'I' for Inactive)
ROOT
HETATM    1  C1  UNL     1     -33.740  16.471  -3.542  1.00 20.00     0.026 C 
HETATM    2  C2  UNL     1     -34.968  16.796  -5.270  1.00 20.00     0.017 C 
HETATM    3  C3  UNL     1     -33.292  16.638  -2.293  1.00 20.00     0.040 C 
HETATM    4  C4  UNL     1     -33.444  15.266  -4.385  1.00 20.00     0.073 C 
HETATM    5  C5  UNL     1     -34.515  15.364  -5.481  1.00 20.00    -0.002 C 
HETATM    6  C6  UNL     1     -35.878  17.493  -6.232  1.00 20.00     0.066 C 
HETATM    7  C7  UNL     1     -33.922  15.138  -6.868  1.00 20.00     0.021 C 
HETATM    8  C8  UNL     1     -35.679  14.404  -5.217  1.00 20.00     0.021 C 
HETATM    9  N9  UNL     1     -34.547  17.374  -4.187  1.00 20.00    -0.263 NA
ENDROOT
TORSDOF 0
ENDMDL
MODEL 5
REMARK VINA RESULT:      -3.6      9.553     10.732
REMARK  0 active torsions:
REMARK  status: ('A' for Active; 'I' for Inactive)
ROOT
HETATM    1  C1  UNL     1     -40.094  12.584   5.571  1.00 20.00     0.026 C 
HETATM    2  C2  UNL     1     -40.706  13.705   7.294  1.00 20.00     0.017 C 
HETATM    3  C3  UNL     1     -39.482  11.618   4.877  1.00 20.00     0.040 C 
HETATM    4  C4  UNL     1     -41.217  13.420   5.035  1.00 20.00     0.073 C 
HETATM    5  C5  UNL     1     -41.823  14.013   6.315  1.00 20.00    -0.002 C 
HETATM    6  C6  UNL     1     -40.688  14.264   8.682  1.00 20.00     0.066 C 
HETATM    7  C7  UNL     1     -42.080  15.510   6.175  1.00 20.00     0.021 C 
HETATM    8  C8  UNL     1     -43.098  13.272   6.728  1.00 20.00     0.021 C 
HETATM    9  N9  UNL     1     -39.781  12.900   6.869  1.00 20.00    -0.263 NA
ENDROOT
TORSDOF 0
ENDMDL
MODEL 6
REMARK VINA RESULT:      -3.5     10.079     11.106
REMARK  0 active torsions:
REMARK  status: ('A' for Active; 'I' for Inactive)
ROOT
HETATM    1  C1  UNL     1     -40.861  14.342   8.466  1.00 20.00     0.026 C 
HETATM    2  C2  UNL     1     -42.176  13.032   7.391  1.00 20.00     0.017 C 
HETATM    3  C3  UNL     1     -40.220  14.860   9.519  1.00 20.00     0.040 C 
HETATM    4  C4  UNL     1     -40.446  14.559   7.041  1.00 20.00     0.073 C 
HETATM    5  C5  UNL     1     -41.192  13.434   6.309  1.00 20.00    -0.002 C 
HETATM    6  C6  UNL     1     -43.309  12.092   7.127  1.00 20.00     0.066 C 
HETATM    7  C7  UNL     1     -41.885  13.946   5.051  1.00 20.00     0.021 C 
HETATM    8  C8  UNL     1     -40.263  12.261   5.987  1.00 20.00     0.021 C 
HETATM    9  N9  UNL     1     -41.960  13.527   8.572  1.00 20.00    -0.263 NA
ENDROOT
TORSDOF 0
ENDMDL
MODEL 7
REMARK VINA RESULT:      -3.4      9.900     10.894
REMARK  0 active torsions:
REMARK  status: ('A' for Active; 'I' for Inactive)
ROOT
HETATM    1  C1  UNL     1     -42.215  14.493   4.410  1.00 20.00     0.026 C 
HETATM    2  C2  UNL     1     -40.808  13.098   5.230  1.00 20.00     0.017 C 
HETATM    3  C3  UNL     1     -43.007  15.056   3.490  1.00 20.00     0.040 C 
HETATM    4  C4  UNL     1     -42.346  14.726   5.886  1.00 20.00     0.073 C 
HETATM    5  C5  UNL     1     -41.548  13.553   6.473  1.00 20.00    -0.002 C 
HETATM    6  C6  UNL     1     -39.704  12.088   5.285  1.00 20.00     0.066 C 
HETATM    7  C7  UNL     1     -40.604  14.013   7.579  1.00 20.00     0.021 C 
HETATM    8  C8  UNL     1     -42.472  12.436   6.967  1.00 20.00     0.021 C 
HETATM    9  N9  UNL     1     -41.207  13.612   4.107  1.00 20.00    -0.263 NA
ENDROOT
TORSDOF 0
ENDMDL
MODEL 8
REMARK VINA RESULT:      -3.3     12.313     13.353
REMARK  0 active torsions:
REMARK  status: ('A' for Active; 'I' for Inactive)
ROOT
HETATM    1  C1  UNL     1     -34.000  17.873  -1.178  1.00 20.00     0.026 C 
HETATM    2  C2  UNL     1     -33.641  16.772  -2.982  1.00 20.00     0.017 C 
HETATM    3  C3  UNL     1     -33.830  18.257   0.092  1.00 20.00     0.040 C 
HETATM    4  C4  UNL     1     -34.749  18.672  -2.203  1.00 20.00     0.073 C 
HETATM    5  C5  UNL     1     -34.271  18.043  -3.520  1.00 20.00    -0.002 C 
HETATM    6  C6  UNL     1     -33.193  15.664  -3.883  1.00 20.00     0.066 C 
HETATM    7  C7  UNL     1     -35.435  17.764  -4.464  1.00 20.00     0.021 C 
HETATM    8  C8  UNL     1     -33.204  18.906  -4.200  1.00 20.00     0.021 C 
HETATM    9  N9  UNL     1     -33.484  16.712  -1.696  1.00 20.00    -0.263 NA
ENDROOT
TORSDOF 0
ENDMDL
MODEL 9
REMARK VINA RESULT:      -3.3     10.003     10.879
REMARK  0 active torsions:
REMARK  status: ('A' for Active; 'I' for Inactive)
ROOT
HETATM    1  C1  UNL     1     -40.729  14.314   8.503  1.00 20.00     0.026 C 
HETATM    2  C2  UNL     1     -40.790  12.943   6.855  1.00 20.00     0.017 C 
HETATM    3  C3  UNL     1     -40.215  15.227   9.334  1.00 20.00     0.040 C 
HETATM    4  C4  UNL     1     -42.197  14.046   8.355  1.00 20.00     0.073 C 
HETATM    5  C5  UNL     1     -42.258  13.288   7.021  1.00 20.00    -0.002 C 
HETATM    6  C6  UNL     1     -40.309  12.003   5.795  1.00 20.00     0.066 C 
HETATM    7  C7  UNL     1     -43.141  12.049   7.118  1.00 20.00     0.021 C 
HETATM    8  C8  UNL     1     -42.711  14.200   5.878  1.00 20.00     0.021 C 
HETATM    9  N9  UNL     1     -39.969  13.536   7.666  1.00 20.00    -0.263 NA
ENDROOT
TORSDOF 0
ENDMDL
