MODEL 1
REMARK VINA RESULT:      -3.8      0.000      0.000
REMARK  0 active torsions:
REMARK  status: ('A' for Active; 'I' for Inactive)
ROOT
HETATM    1  C1  UNL     1     -33.386  16.670  -2.331  1.00 20.00     0.014 C 
HETATM    2  C2  UNL     1     -33.620  16.307  -3.450  1.00 20.00    -0.081 C 
HETATM    3  C3  UNL     1     -36.798  15.941  -5.363  1.00 20.00     0.035 C 
HETATM    4  C4  UNL     1     -35.320  15.161  -7.199  1.00 20.00     0.035 C 
HETATM    5  C5  UNL     1     -34.789  14.590  -4.833  1.00 20.00     0.053 C 
HETATM    6  C6  UNL     1     -35.918  17.190  -5.205  1.00 20.00     0.274 C 
HETATM    7  C7  UNL     1     -34.560  16.490  -7.051  1.00 20.00     0.274 C 
HETATM    8  C8  UNL     1     -33.909  15.859  -4.826  1.00 20.00     0.300 C 
HETATM    9  C9  UNL     1     -35.933  14.768  -5.845  1.00 20.00    -0.008 C 
HETATM   10  N10 UNL     1     -34.522  16.942  -5.640  1.00 20.00     0.104 N 
ENDROOT
TORSDOF 0
ENDMDL
MODEL 2
REMARK VINA RESULT:      -3.4     12.667     13.933
REMARK  0 active torsions:
REMARK  status: ('A' for Active; 'I' for Inactive)
ROOT
HETATM    1  C1  UNL     1     -39.301  11.773   4.459  1.00 20.00     0.014 C 
HETATM    2  C2  UNL     1     -39.929  12.122   5.419  1.00 20.00    -0.081 C 
HETATM    3  C3  UNL     1     -41.967  15.161   6.123  1.00 20.00     0.035 C 
HETATM    4  C4  UNL     1     -42.345  14.100   8.336  1.00 20.00     0.035 C 
HETATM    5  C5  UNL     1     -40.145  13.865   7.191  1.00 20.00     0.053 C 
HETATM    6  C6  UNL     1     -42.404  13.857   5.440  1.00 20.00     0.274 C 
HETATM    7  C7  UNL     1     -42.875  12.873   7.574  1.00 20.00     0.274 C 
HETATM    8  C8  UNL     1     -40.702  12.552   6.600  1.00 20.00     0.300 C 
HETATM    9  C9  UNL     1     -41.308  14.833   7.470  1.00 20.00    -0.008 C 
HETATM   10  N10 UNL     1     -42.152  12.672   6.295  1.00 20.00     0.104 N 
ENDROOT
TORSDOF 0
ENDMDL
MODEL 3
REMARK VINA RESULT:      -3.3     13.088     14.313
REMARK  0 active torsions:
REMARK  status: ('A' for Active; 'I' for Inactive)
ROOT
HETATM    1  C1  UNL     1     -39.317  11.769   5.670  1.00 20.00     0.014 C 
HETATM    2  C2  UNL     1     -40.266  12.484   5.842  1.00 20.00    -0.081 C 
HETATM    3  C3  UNL     1     -41.747  14.006   8.903  1.00 20.00     0.035 C 
HETATM    4  C4  UNL     1     -43.405  14.972   7.328  1.00 20.00     0.035 C 
HETATM    5  C5  UNL     1     -42.494  12.685   6.945  1.00 20.00     0.053 C 
HETATM    6  C6  UNL     1     -40.614  14.550   8.020  1.00 20.00     0.274 C 
HETATM    7  C7  UNL     1     -42.216  15.576   6.563  1.00 20.00     0.274 C 
HETATM    8  C8  UNL     1     -41.431  13.363   6.053  1.00 20.00     0.300 C 
HETATM    9  C9  UNL     1     -42.961  13.676   8.025  1.00 20.00    -0.008 C 
HETATM   10  N10 UNL     1     -41.031  14.685   6.604  1.00 20.00     0.104 N 
ENDROOT
TORSDOF 0
ENDMDL
MODEL 4
REMARK VINA RESULT:      -3.3     12.992     14.070
REMARK  0 active torsions:
REMARK  status: ('A' for Active; 'I' for Inactive)
ROOT
HETATM    1  C1  UNL     1     -40.101  15.143   9.943  1.00 20.00     0.014 C 
HETATM    2  C2  UNL     1     -40.359  15.019   8.778  1.00 20.00    -0.081 C 
HETATM    3  C3  UNL     1     -42.458  12.569   6.912  1.00 20.00     0.035 C 
HETATM    4  C4  UNL     1     -41.758  13.861   4.910  1.00 20.00     0.035 C 
HETATM    5  C5  UNL     1     -40.169  13.513   6.797  1.00 20.00     0.053 C 
HETATM    6  C6  UNL     1     -42.892  13.879   7.587  1.00 20.00     0.274 C 
HETATM    7  C7  UNL     1     -42.321  15.109   5.611  1.00 20.00     0.274 C 
HETATM    8  C8  UNL     1     -40.675  14.865   7.345  1.00 20.00     0.300 C 
HETATM    9  C9  UNL     1     -41.282  12.851   5.967  1.00 20.00    -0.008 C 
HETATM   10  N10 UNL     1     -42.127  15.043   7.080  1.00 20.00     0.104 N 
ENDROOT
TORSDOF 0
ENDMDL
MODEL 5
REMARK VINA RESULT:      -3.3     12.956     14.171
REMARK  0 active torsions:
REMARK  status: ('A' for Active; 'I' for Inactive)
ROOT
HETATM    1  C1  UNL     1     -43.350   3.519  -1.960  1.00 20.00     0.014 C 
HETATM    2  C2  UNL     1     -42.884   4.504  -1.457  1.00 20.00    -0.081 C 
HETATM    3  C3  UNL     1     -43.144   5.939   1.972  1.00 20.00     0.035 C 
HETATM    4  C4  UNL     1     -41.678   7.729   1.073  1.00 20.00     0.035 C 
HETATM    5  C5  UNL     1     -43.417   6.687  -0.374  1.00 20.00     0.053 C 
HETATM    6  C6  UNL     1     -42.154   4.886   1.452  1.00 20.00     0.274 C 
HETATM    7  C7  UNL     1     -40.686   6.618   0.684  1.00 20.00     0.274 C 
HETATM    8  C8  UNL     1     -42.312   5.714  -0.837  1.00 20.00     0.300 C 
HETATM    9  C9  UNL     1     -43.109   7.168   1.054  1.00 20.00    -0.008 C 
HETATM   10  N10 UNL     1     -41.390   5.377   0.280  1.00 20.00     0.104 N 
ENDROOT
TORSDOF 0
ENDMDL
MODEL 6
REMARK VINA RESULT:      -3.2      1.214      2.363
REMARK  0 active torsions:
REMARK  status: ('A' for Active; 'I' for Inactive)
ROOT
HETATM    1  C1  UNL     1     -33.261  16.636  -2.842  1.00 20.00     0.014 C 
HETATM    2  C2  UNL     1     -34.056  16.818  -3.722  1.00 20.00    -0.081 C 
HETATM    3  C3  UNL     1     -34.120  15.802  -7.306  1.00 20.00     0.035 C 
HETATM    4  C4  UNL     1     -36.292  17.003  -7.358  1.00 20.00     0.035 C 
HETATM    5  C5  UNL     1     -34.417  17.861  -5.960  1.00 20.00     0.053 C 
HETATM    6  C6  UNL     1     -34.603  15.010  -6.082  1.00 20.00     0.274 C 
HETATM    7  C7  UNL     1     -36.739  16.090  -6.203  1.00 20.00     0.274 C 
HETATM    8  C8  UNL     1     -35.033  17.043  -4.804  1.00 20.00     0.300 C 
HETATM    9  C9  UNL     1     -34.768  17.193  -7.300  1.00 20.00    -0.008 C 
HETATM   10  N10 UNL     1     -35.611  15.764  -5.298  1.00 20.00     0.104 N 
ENDROOT
TORSDOF 0
ENDMDL
MODEL 7
REMARK VINA RESULT:      -3.2      2.974      4.828
REMARK  0 active torsions:
REMARK  status: ('A' for Active; 'I' for Inactive)
ROOT
HETATM    1  C1  UNL     1     -37.348  18.586  -3.493  1.00 20.00     0.014 C 
HETATM    2  C2  UNL     1     -36.252  18.805  -3.058  1.00 20.00    -0.081 C 
HETATM    3  C3  UNL     1     -33.340  16.593  -2.343  1.00 20.00     0.035 C 
HETATM    4  C4  UNL     1     -32.239  18.689  -1.596  1.00 20.00     0.035 C 
HETATM    5  C5  UNL     1     -34.670  18.335  -1.186  1.00 20.00     0.053 C 
HETATM    6  C6  UNL     1     -33.715  17.279  -3.666  1.00 20.00     0.274 C 
HETATM    7  C7  UNL     1     -32.555  19.263  -2.988  1.00 20.00     0.274 C 
HETATM    8  C8  UNL     1     -34.904  19.075  -2.521  1.00 20.00     0.300 C 
HETATM    9  C9  UNL     1     -33.298  17.640  -1.222  1.00 20.00    -0.008 C 
HETATM   10  N10 UNL     1     -33.843  18.748  -3.511  1.00 20.00     0.104 N 
ENDROOT
TORSDOF 0
ENDMDL
MODEL 8
REMARK VINA RESULT:      -3.1     24.403     25.885
REMARK  0 active torsions:
REMARK  status: ('A' for Active; 'I' for Inactive)
ROOT
HETATM    1  C1  UNL     1     -23.465  -2.575  11.080  1.00 20.00     0.014 C 
HETATM    2  C2  UNL     1     -24.553  -2.362  11.539  1.00 20.00    -0.081 C 
HETATM    3  C3  UNL     1     -27.702  -1.048  10.043  1.00 20.00     0.035 C 
HETATM    4  C4  UNL     1     -28.622  -1.328  12.332  1.00 20.00     0.035 C 
HETATM    5  C5  UNL     1     -26.260  -0.604  12.009  1.00 20.00     0.053 C 
HETATM    6  C6  UNL     1     -27.199  -2.499  10.084  1.00 20.00     0.274 C 
HETATM    7  C7  UNL     1     -28.185  -2.800  12.247  1.00 20.00     0.274 C 
HETATM    8  C8  UNL     1     -25.890  -2.101  12.104  1.00 20.00     0.300 C 
HETATM    9  C9  UNL     1     -27.692  -0.466  11.462  1.00 20.00    -0.008 C 
HETATM   10  N10 UNL     1     -26.931  -2.953  11.470  1.00 20.00     0.104 N 
ENDROOT
TORSDOF 0
ENDMDL
MODEL 9
REMARK VINA RESULT:      -3.1      1.822      3.991
REMARK  0 active torsions:
REMARK  status: ('A' for Active; 'I' for Inactive)
ROOT
HETATM    1  C1  UNL     1     -34.007  15.161  -6.238  1.00 20.00     0.014 C 
HETATM    2  C2  UNL     1     -34.259  15.756  -5.227  1.00 20.00    -0.081 C 
HETATM    3  C3  UNL     1     -32.743  18.767  -3.638  1.00 20.00     0.035 C 
HETATM    4  C4  UNL     1     -34.455  18.402  -1.878  1.00 20.00     0.035 C 
HETATM    5  C5  UNL     1     -33.377  16.457  -3.001  1.00 20.00     0.053 C 
HETATM    6  C6  UNL     1     -33.847  18.705  -4.704  1.00 20.00     0.274 C 
HETATM    7  C7  UNL     1     -35.510  18.465  -2.996  1.00 20.00     0.274 C 
HETATM    8  C8  UNL     1     -34.567  16.488  -3.984  1.00 20.00     0.300 C 
HETATM    9  C9  UNL     1     -33.131  17.873  -2.453  1.00 20.00    -0.008 C 
HETATM   10  N10 UNL     1     -35.000  17.884  -4.261  1.00 20.00     0.104 N 
ENDROOT
TORSDOF 0
ENDMDL
