MODEL 1
REMARK VINA RESULT:      -4.5      0.000      0.000
REMARK  2 active torsions:
REMARK  status: ('A' for Active; 'I' for Inactive)
REMARK    1  A    between atoms: C1_1  and  C7_7 
REMARK    2  A    between atoms: C1_1  and  C9_9 
ROOT
HETATM    1  C2  UNL     1     -34.529   4.964   6.174  1.00 20.00     0.000 C 
HETATM    2  C3  UNL     1     -34.498   6.363   6.780  1.00 20.00     0.001 C 
HETATM    3  C4  UNL     1     -34.735   5.013   4.664  1.00 20.00     0.001 C 
HETATM    4  C5  UNL     1     -33.443   7.245   6.113  1.00 20.00     0.017 C 
HETATM    5  C6  UNL     1     -33.682   5.883   3.976  1.00 20.00     0.017 C 
HETATM    6  C7  UNL     1     -33.575   7.282   4.588  1.00 20.00     0.018 C 
HETATM    7  C8  UNL     1     -34.802   8.105   4.201  1.00 20.00     0.023 C 
ENDROOT
BRANCH   6   8
HETATM    8  C1  UNL     1     -32.430   8.073   3.956  1.00 20.00     0.148 C 
HETATM    9  O10 UNL     1     -31.854   8.958   4.588  1.00 20.00    -0.296 OA
BRANCH   8  10
HETATM   10  C9  UNL     1     -32.074   7.693   2.536  1.00 20.00     0.193 C 
HETATM   11 CL11 UNL     1     -32.543   8.975   1.410  1.00 20.00    -0.123 Cl
ENDBRANCH   8  10
ENDBRANCH   6   8
TORSDOF 2
ENDMDL
MODEL 2
REMARK VINA RESULT:      -3.7     12.015     13.180
REMARK  2 active torsions:
REMARK  status: ('A' for Active; 'I' for Inactive)
REMARK    1  A    between atoms: C1_1  and  C7_7 
REMARK    2  A    between atoms: C1_1  and  C9_9 
ROOT
HETATM    1  C2  UNL     1     -33.739  17.665  -4.349  1.00 20.00     0.000 C 
HETATM    2  C3  UNL     1     -34.230  16.866  -3.147  1.00 20.00     0.001 C 
HETATM    3  C4  UNL     1     -33.494  19.126  -3.987  1.00 20.00     0.001 C 
HETATM    4  C5  UNL     1     -33.271  16.981  -1.961  1.00 20.00     0.017 C 
HETATM    5  C6  UNL     1     -32.528  19.263  -2.809  1.00 20.00     0.017 C 
HETATM    6  C7  UNL     1     -32.950  18.433  -1.594  1.00 20.00     0.018 C 
HETATM    7  C8  UNL     1     -34.169  19.075  -0.934  1.00 20.00     0.023 C 
ENDROOT
BRANCH   6   8
HETATM    8  C1  UNL     1     -31.897  18.500  -0.488  1.00 20.00     0.148 C 
HETATM    9  O10 UNL     1     -30.701  18.569  -0.764  1.00 20.00    -0.296 OA
BRANCH   8  10
HETATM   10  C9  UNL     1     -32.429  18.474   0.927  1.00 20.00     0.193 C 
HETATM   11 CL11 UNL     1     -31.120  18.184   2.082  1.00 20.00    -0.123 Cl
ENDBRANCH   8  10
ENDBRANCH   6   8
TORSDOF 2
ENDMDL
MODEL 3
REMARK VINA RESULT:      -3.7      9.349     10.726
REMARK  2 active torsions:
REMARK  status: ('A' for Active; 'I' for Inactive)
REMARK    1  A    between atoms: C1_1  and  C7_7 
REMARK    2  A    between atoms: C1_1  and  C9_9 
ROOT
HETATM    1  C2  UNL     1     -41.129  16.044   8.455  1.00 20.00     0.000 C 
HETATM    2  C3  UNL     1     -42.307  15.935   7.493  1.00 20.00     0.001 C 
HETATM    3  C4  UNL     1     -40.556  14.673   8.796  1.00 20.00     0.001 C 
HETATM    4  C5  UNL     1     -41.933  15.169   6.224  1.00 20.00     0.017 C 
HETATM    5  C6  UNL     1     -40.165  13.894   7.539  1.00 20.00     0.017 C 
HETATM    6  C7  UNL     1     -41.301  13.804   6.517  1.00 20.00     0.018 C 
HETATM    7  C8  UNL     1     -42.374  12.843   7.027  1.00 20.00     0.023 C 
ENDROOT
BRANCH   6   8
HETATM    8  C1  UNL     1     -40.832  13.129   5.229  1.00 20.00     0.148 C 
HETATM    9  O10 UNL     1     -41.179  13.560   4.131  1.00 20.00    -0.296 OA
BRANCH   8  10
HETATM   10  C9  UNL     1     -39.935  11.924   5.409  1.00 20.00     0.193 C 
HETATM   11 CL11 UNL     1     -38.977  11.634   3.950  1.00 20.00    -0.123 Cl
ENDBRANCH   8  10
ENDBRANCH   6   8
TORSDOF 2
ENDMDL
MODEL 4
REMARK VINA RESULT:      -3.6     12.299     13.685
REMARK  2 active torsions:
REMARK  status: ('A' for Active; 'I' for Inactive)
REMARK    1  A    between atoms: C1_1  and  C7_7 
REMARK    2  A    between atoms: C1_1  and  C9_9 
ROOT
HETATM    1  C2  UNL     1     -33.338  16.286  -3.235  1.00 20.00     0.000 C 
HETATM    2  C3  UNL     1     -33.121  15.016  -4.050  1.00 20.00     0.001 C 
HETATM    3  C4  UNL     1     -33.775  17.450  -4.118  1.00 20.00     0.001 C 
HETATM    4  C5  UNL     1     -34.361  14.647  -4.864  1.00 20.00     0.017 C 
HETATM    5  C6  UNL     1     -35.022  17.105  -4.933  1.00 20.00     0.017 C 
HETATM    6  C7  UNL     1     -34.872  15.805  -5.728  1.00 20.00     0.018 C 
HETATM    7  C8  UNL     1     -33.918  16.028  -6.900  1.00 20.00     0.023 C 
ENDROOT
BRANCH   6   8
HETATM    8  C1  UNL     1     -36.180  15.433  -6.427  1.00 20.00     0.148 C 
HETATM    9  O10 UNL     1     -36.267  14.397  -7.085  1.00 20.00    -0.296 OA
BRANCH   8  10
HETATM   10  C9  UNL     1     -37.319  16.411  -6.251  1.00 20.00     0.193 C 
HETATM   11 CL11 UNL     1     -38.390  15.896  -4.940  1.00 20.00    -0.123 Cl
ENDBRANCH   8  10
ENDBRANCH   6   8
TORSDOF 2
ENDMDL
MODEL 5
REMARK VINA RESULT:      -3.6      9.552     11.147
REMARK  2 active torsions:
REMARK  status: ('A' for Active; 'I' for Inactive)
REMARK    1  A    between atoms: C1_1  and  C7_7 
REMARK    2  A    between atoms: C1_1  and  C9_9 
ROOT
HETATM    1  C2  UNL     1     -42.704  16.273   4.669  1.00 20.00     0.000 C 
HETATM    2  C3  UNL     1     -42.833  14.881   4.061  1.00 20.00     0.001 C 
HETATM    3  C4  UNL     1     -42.729  16.223   6.192  1.00 20.00     0.001 C 
HETATM    4  C5  UNL     1     -41.761  13.929   4.593  1.00 20.00     0.017 C 
HETATM    5  C6  UNL     1     -41.655  15.285   6.745  1.00 20.00     0.017 C 
HETATM    6  C7  UNL     1     -41.710  13.887   6.123  1.00 20.00     0.018 C 
HETATM    7  C8  UNL     1     -42.930  13.137   6.655  1.00 20.00     0.023 C 
ENDROOT
BRANCH   6   8
HETATM    8  C1  UNL     1     -40.547  13.022   6.610  1.00 20.00     0.148 C 
HETATM    9  O10 UNL     1     -40.026  13.229   7.704  1.00 20.00    -0.296 OA
BRANCH   8  10
HETATM   10  C9  UNL     1     -40.104  11.927   5.666  1.00 20.00     0.193 C 
HETATM   11 CL11 UNL     1     -38.371  12.053   5.331  1.00 20.00    -0.123 Cl
ENDBRANCH   8  10
ENDBRANCH   6   8
TORSDOF 2
ENDMDL
MODEL 6
REMARK VINA RESULT:      -3.5     12.299     13.265
REMARK  2 active torsions:
REMARK  status: ('A' for Active; 'I' for Inactive)
REMARK    1  A    between atoms: C1_1  and  C7_7 
REMARK    2  A    between atoms: C1_1  and  C9_9 
ROOT
HETATM    1  C2  UNL     1     -32.616  18.823   0.731  1.00 20.00     0.000 C 
HETATM    2  C3  UNL     1     -33.965  18.156   0.487  1.00 20.00     0.001 C 
HETATM    3  C4  UNL     1     -31.625  18.504  -0.383  1.00 20.00     0.001 C 
HETATM    4  C5  UNL     1     -34.542  18.527  -0.879  1.00 20.00     0.017 C 
HETATM    5  C6  UNL     1     -32.179  18.879  -1.758  1.00 20.00     0.017 C 
HETATM    6  C7  UNL     1     -33.560  18.276  -2.027  1.00 20.00     0.018 C 
HETATM    7  C8  UNL     1     -33.425  16.774  -2.266  1.00 20.00     0.023 C 
ENDROOT
BRANCH   6   8
HETATM    8  C1  UNL     1     -34.130  18.775  -3.356  1.00 20.00     0.148 C 
HETATM    9  O10 UNL     1     -33.387  19.212  -4.233  1.00 20.00    -0.296 OA
BRANCH   8  10
HETATM   10  C9  UNL     1     -35.633  18.692  -3.498  1.00 20.00     0.193 C 
HETATM   11 CL11 UNL     1     -36.080  17.504  -4.731  1.00 20.00    -0.123 Cl
ENDBRANCH   8  10
ENDBRANCH   6   8
TORSDOF 2
ENDMDL
MODEL 7
REMARK VINA RESULT:      -3.5     12.020     13.721
REMARK  2 active torsions:
REMARK  status: ('A' for Active; 'I' for Inactive)
REMARK    1  A    between atoms: C1_1  and  C7_7 
REMARK    2  A    between atoms: C1_1  and  C9_9 
ROOT
HETATM    1  C2  UNL     1     -36.899  17.623  -6.477  1.00 20.00     0.000 C 
HETATM    2  C3  UNL     1     -35.437  18.058  -6.468  1.00 20.00     0.001 C 
HETATM    3  C4  UNL     1     -37.032  16.116  -6.660  1.00 20.00     0.001 C 
HETATM    4  C5  UNL     1     -34.629  17.306  -5.410  1.00 20.00     0.017 C 
HETATM    5  C6  UNL     1     -36.240  15.345  -5.604  1.00 20.00     0.017 C 
HETATM    6  C7  UNL     1     -34.776  15.786  -5.520  1.00 20.00     0.018 C 
HETATM    7  C8  UNL     1     -34.019  15.286  -6.748  1.00 20.00     0.023 C 
ENDROOT
BRANCH   6   8
HETATM    8  C1  UNL     1     -34.054  15.080  -4.371  1.00 20.00     0.148 C 
HETATM    9  O10 UNL     1     -34.368  13.938  -4.040  1.00 20.00    -0.296 OA
BRANCH   8  10
HETATM   10  C9  UNL     1     -32.959  15.876  -3.698  1.00 20.00     0.193 C 
HETATM   11 CL11 UNL     1     -33.515  16.518  -2.146  1.00 20.00    -0.123 Cl
ENDBRANCH   8  10
ENDBRANCH   6   8
TORSDOF 2
ENDMDL
MODEL 8
REMARK VINA RESULT:      -3.5     12.591     13.433
REMARK  2 active torsions:
REMARK  status: ('A' for Active; 'I' for Inactive)
REMARK    1  A    between atoms: C1_1  and  C7_7 
REMARK    2  A    between atoms: C1_1  and  C9_9 
ROOT
HETATM    1  C2  UNL     1     -33.967  18.139  -0.742  1.00 20.00     0.000 C 
HETATM    2  C3  UNL     1     -32.829  17.525  -1.551  1.00 20.00     0.001 C 
HETATM    3  C4  UNL     1     -34.797  19.100  -1.586  1.00 20.00     0.001 C 
HETATM    4  C5  UNL     1     -33.341  16.837  -2.817  1.00 20.00     0.017 C 
HETATM    5  C6  UNL     1     -35.329  18.427  -2.853  1.00 20.00     0.017 C 
HETATM    6  C7  UNL     1     -34.228  17.748  -3.671  1.00 20.00     0.018 C 
HETATM    7  C8  UNL     1     -33.366  18.810  -4.351  1.00 20.00     0.023 C 
ENDROOT
BRANCH   6   8
HETATM    8  C1  UNL     1     -34.816  16.984  -4.859  1.00 20.00     0.148 C 
HETATM    9  O10 UNL     1     -35.559  17.548  -5.661  1.00 20.00    -0.296 OA
BRANCH   8  10
HETATM   10  C9  UNL     1     -34.424  15.528  -4.961  1.00 20.00     0.193 C 
HETATM   11 CL11 UNL     1     -33.907  15.134  -6.607  1.00 20.00    -0.123 Cl
ENDBRANCH   8  10
ENDBRANCH   6   8
TORSDOF 2
ENDMDL
MODEL 9
REMARK VINA RESULT:      -3.5     12.106     13.128
REMARK  2 active torsions:
REMARK  status: ('A' for Active; 'I' for Inactive)
REMARK    1  A    between atoms: C1_1  and  C7_7 
REMARK    2  A    between atoms: C1_1  and  C9_9 
ROOT
HETATM    1  C2  UNL     1     -34.237  15.395  -4.930  1.00 20.00     0.000 C 
HETATM    2  C3  UNL     1     -34.759  16.780  -5.298  1.00 20.00     0.001 C 
HETATM    3  C4  UNL     1     -33.069  15.479  -3.953  1.00 20.00     0.001 C 
HETATM    4  C5  UNL     1     -35.141  17.589  -4.058  1.00 20.00     0.017 C 
HETATM    5  C6  UNL     1     -33.435  16.275  -2.700  1.00 20.00     0.017 C 
HETATM    6  C7  UNL     1     -34.016  17.655  -3.021  1.00 20.00     0.018 C 
HETATM    7  C8  UNL     1     -32.906  18.573  -3.528  1.00 20.00     0.023 C 
ENDROOT
BRANCH   6   8
HETATM    8  C1  UNL     1     -34.483  18.365  -1.749  1.00 20.00     0.148 C 
HETATM    9  O10 UNL     1     -35.489  19.072  -1.759  1.00 20.00    -0.296 OA
BRANCH   8  10
HETATM   10  C9  UNL     1     -33.633  18.136  -0.520  1.00 20.00     0.193 C 
HETATM   11 CL11 UNL     1     -34.464  18.712   0.932  1.00 20.00    -0.123 Cl
ENDBRANCH   8  10
ENDBRANCH   6   8
TORSDOF 2
ENDMDL
