MODEL 1
REMARK VINA RESULT:      -3.9      0.000      0.000
REMARK  1 active torsions:
REMARK  status: ('A' for Active; 'I' for Inactive)
REMARK    1  A    between atoms: C2_2  and  C6_6 
ROOT
HETATM    1  C3  UNL     1     -42.854  14.986   7.267  1.00 20.00     0.031 C 
HETATM    2  C4  UNL     1     -43.020  14.268   5.925  1.00 20.00     0.032 C 
HETATM    3  C5  UNL     1     -40.443  14.240   7.394  1.00 20.00     0.040 C 
HETATM    4  C6  UNL     1     -40.596  13.571   6.012  1.00 20.00     0.042 C 
HETATM    5  C7  UNL     1     -41.809  14.228   8.096  1.00 20.00     0.131 C 
HETATM    6  C8  UNL     1     -42.054  13.075   5.890  1.00 20.00     0.139 C 
HETATM    7  N10 UNL     1     -42.246  12.813   8.185  1.00 20.00    -0.192 NA
HETATM    8  N11 UNL     1     -42.362  12.228   7.073  1.00 20.00    -0.192 NA
ENDROOT
BRANCH   4   9
HETATM    9  C2  UNL     1     -39.602  12.467   5.811  1.00 20.00    -0.087 C 
HETATM   10  C1  UNL     1     -38.811  12.035   6.803  1.00 20.00     0.014 C 
HETATM   11  C9  UNL     1     -39.545  11.872   4.434  1.00 20.00     0.043 C 
ENDBRANCH   4   9
TORSDOF 1
ENDMDL
MODEL 2
REMARK VINA RESULT:      -3.7     12.898     13.882
REMARK  1 active torsions:
REMARK  status: ('A' for Active; 'I' for Inactive)
REMARK    1  A    between atoms: C2_2  and  C6_6 
ROOT
HETATM    1  C3  UNL     1     -36.820  16.623  -7.260  1.00 20.00     0.031 C 
HETATM    2  C4  UNL     1     -35.655  15.717  -7.670  1.00 20.00     0.032 C 
HETATM    3  C5  UNL     1     -35.711  17.082  -5.036  1.00 20.00     0.040 C 
HETATM    4  C6  UNL     1     -34.510  16.220  -5.477  1.00 20.00     0.042 C 
HETATM    5  C7  UNL     1     -36.973  16.554  -5.735  1.00 20.00     0.131 C 
HETATM    6  C8  UNL     1     -35.048  15.103  -6.400  1.00 20.00     0.139 C 
HETATM    7  N10 UNL     1     -37.120  15.126  -5.361  1.00 20.00    -0.192 NA
HETATM    8  N11 UNL     1     -36.145  14.395  -5.689  1.00 20.00    -0.192 NA
ENDROOT
BRANCH   4   9
HETATM    9  C2  UNL     1     -33.753  15.671  -4.305  1.00 20.00    -0.087 C 
HETATM   10  C1  UNL     1     -33.200  14.450  -4.327  1.00 20.00     0.014 C 
HETATM   11  C9  UNL     1     -33.649  16.568  -3.108  1.00 20.00     0.043 C 
ENDBRANCH   4   9
TORSDOF 1
ENDMDL
MODEL 3
REMARK VINA RESULT:      -3.6      9.577     10.551
REMARK  1 active torsions:
REMARK  status: ('A' for Active; 'I' for Inactive)
REMARK    1  A    between atoms: C2_2  and  C6_6 
ROOT
HETATM    1  C3  UNL     1     -34.485   4.919   6.024  1.00 20.00     0.031 C 
HETATM    2  C4  UNL     1     -34.069   6.282   6.584  1.00 20.00     0.032 C 
HETATM    3  C5  UNL     1     -33.291   5.420   3.853  1.00 20.00     0.040 C 
HETATM    4  C6  UNL     1     -32.822   6.766   4.444  1.00 20.00     0.042 C 
HETATM    5  C7  UNL     1     -34.632   5.045   4.502  1.00 20.00     0.131 C 
HETATM    6  C8  UNL     1     -33.919   7.263   5.412  1.00 20.00     0.139 C 
HETATM    7  N10 UNL     1     -35.578   6.155   4.233  1.00 20.00    -0.192 NA
HETATM    8  N11 UNL     1     -35.216   7.276   4.684  1.00 20.00    -0.192 NA
ENDROOT
BRANCH   4   9
HETATM    9  C2  UNL     1     -32.513   7.771   3.374  1.00 20.00    -0.087 C 
HETATM   10  C1  UNL     1     -32.299   7.408   2.101  1.00 20.00     0.014 C 
HETATM   11  C9  UNL     1     -32.457   9.205   3.810  1.00 20.00     0.043 C 
ENDBRANCH   4   9
TORSDOF 1
ENDMDL
MODEL 4
REMARK VINA RESULT:      -3.5     13.891     14.617
REMARK  1 active torsions:
REMARK  status: ('A' for Active; 'I' for Inactive)
REMARK    1  A    between atoms: C2_2  and  C6_6 
ROOT
HETATM    1  C3  UNL     1     -36.776  16.289  -7.461  1.00 20.00     0.031 C 
HETATM    2  C4  UNL     1     -35.995  17.500  -6.944  1.00 20.00     0.032 C 
HETATM    3  C5  UNL     1     -35.817  14.852  -5.617  1.00 20.00     0.040 C 
HETATM    4  C6  UNL     1     -35.081  16.089  -5.061  1.00 20.00     0.042 C 
HETATM    5  C7  UNL     1     -35.976  15.021  -7.135  1.00 20.00     0.131 C 
HETATM    6  C8  UNL     1     -34.717  16.996  -6.258  1.00 20.00     0.139 C 
HETATM    7  N10 UNL     1     -34.617  15.188  -7.706  1.00 20.00    -0.192 NA
HETATM    8  N11 UNL     1     -33.978  16.179  -7.258  1.00 20.00    -0.192 NA
ENDROOT
BRANCH   4   9
HETATM    9  C2  UNL     1     -33.877  15.709  -4.252  1.00 20.00    -0.087 C 
HETATM   10  C1  UNL     1     -33.326  14.489  -4.331  1.00 20.00     0.014 C 
HETATM   11  C9  UNL     1     -33.325  16.772  -3.350  1.00 20.00     0.043 C 
ENDBRANCH   4   9
TORSDOF 1
ENDMDL
MODEL 5
REMARK VINA RESULT:      -3.5     12.216     13.266
REMARK  1 active torsions:
REMARK  status: ('A' for Active; 'I' for Inactive)
REMARK    1  A    between atoms: C2_2  and  C6_6 
ROOT
HETATM    1  C3  UNL     1     -32.883  19.113  -2.095  1.00 20.00     0.031 C 
HETATM    2  C4  UNL     1     -32.908  19.263  -3.619  1.00 20.00     0.032 C 
HETATM    3  C5  UNL     1     -33.299  16.629  -2.310  1.00 20.00     0.040 C 
HETATM    4  C6  UNL     1     -33.261  16.774  -3.846  1.00 20.00     0.042 C 
HETATM    5  C7  UNL     1     -33.804  17.949  -1.708  1.00 20.00     0.131 C 
HETATM    6  C8  UNL     1     -33.819  18.171  -4.199  1.00 20.00     0.139 C 
HETATM    7  N10 UNL     1     -35.139  18.218  -2.295  1.00 20.00    -0.192 NA
HETATM    8  N11 UNL     1     -35.149  18.323  -3.553  1.00 20.00    -0.192 NA
ENDROOT
BRANCH   4   9
HETATM    9  C2  UNL     1     -34.014  15.673  -4.531  1.00 20.00    -0.087 C 
HETATM   10  C1  UNL     1     -34.170  14.465  -3.971  1.00 20.00     0.014 C 
HETATM   11  C9  UNL     1     -34.582  16.002  -5.880  1.00 20.00     0.043 C 
ENDBRANCH   4   9
TORSDOF 1
ENDMDL
MODEL 6
REMARK VINA RESULT:      -3.5      1.758      2.916
REMARK  1 active torsions:
REMARK  status: ('A' for Active; 'I' for Inactive)
REMARK    1  A    between atoms: C2_2  and  C6_6 
ROOT
HETATM    1  C3  UNL     1     -41.137  16.253   9.477  1.00 20.00     0.031 C 
HETATM    2  C4  UNL     1     -42.585  15.757   9.421  1.00 20.00     0.032 C 
HETATM    3  C5  UNL     1     -40.497  14.668   7.616  1.00 20.00     0.040 C 
HETATM    4  C6  UNL     1     -41.969  14.216   7.519  1.00 20.00     0.042 C 
HETATM    5  C7  UNL     1     -40.214  15.100   9.062  1.00 20.00     0.131 C 
HETATM    6  C8  UNL     1     -42.579  14.300   8.936  1.00 20.00     0.139 C 
HETATM    7  N10 UNL     1     -40.520  13.942   9.936  1.00 20.00    -0.192 NA
HETATM    8  N11 UNL     1     -41.711  13.532   9.868  1.00 20.00    -0.192 NA
ENDROOT
BRANCH   4   9
HETATM    9  C2  UNL     1     -42.096  12.844   6.927  1.00 20.00    -0.087 C 
HETATM   10  C1  UNL     1     -43.209  12.111   7.070  1.00 20.00     0.014 C 
HETATM   11  C9  UNL     1     -40.907  12.340   6.165  1.00 20.00     0.043 C 
ENDBRANCH   4   9
TORSDOF 1
ENDMDL
MODEL 7
REMARK VINA RESULT:      -3.4     13.065     14.325
REMARK  1 active torsions:
REMARK  status: ('A' for Active; 'I' for Inactive)
REMARK    1  A    between atoms: C2_2  and  C6_6 
ROOT
HETATM    1  C3  UNL     1     -33.809  14.813  -5.158  1.00 20.00     0.031 C 
HETATM    2  C4  UNL     1     -35.109  14.195  -4.633  1.00 20.00     0.032 C 
HETATM    3  C5  UNL     1     -35.066  16.870  -5.918  1.00 20.00     0.040 C 
HETATM    4  C6  UNL     1     -36.362  16.272  -5.332  1.00 20.00     0.042 C 
HETATM    5  C7  UNL     1     -34.149  15.716  -6.351  1.00 20.00     0.131 C 
HETATM    6  C8  UNL     1     -36.275  14.736  -5.473  1.00 20.00     0.139 C 
HETATM    7  N10 UNL     1     -34.902  14.898  -7.333  1.00 20.00    -0.192 NA
HETATM    8  N11 UNL     1     -35.979  14.410  -6.893  1.00 20.00    -0.192 NA
ENDROOT
BRANCH   4   9
HETATM    9  C2  UNL     1     -37.586  16.833  -5.991  1.00 20.00    -0.087 C 
HETATM   10  C1  UNL     1     -37.512  17.603  -7.086  1.00 20.00     0.014 C 
HETATM   11  C9  UNL     1     -38.899  16.483  -5.355  1.00 20.00     0.043 C 
ENDBRANCH   4   9
TORSDOF 1
ENDMDL
MODEL 8
REMARK VINA RESULT:      -3.4     13.197     14.370
REMARK  1 active torsions:
REMARK  status: ('A' for Active; 'I' for Inactive)
REMARK    1  A    between atoms: C2_2  and  C6_6 
ROOT
HETATM    1  C3  UNL     1     -33.795  14.806  -5.169  1.00 20.00     0.031 C 
HETATM    2  C4  UNL     1     -35.108  14.225  -4.637  1.00 20.00     0.032 C 
HETATM    3  C5  UNL     1     -35.003  16.884  -5.948  1.00 20.00     0.040 C 
HETATM    4  C6  UNL     1     -36.313  16.323  -5.355  1.00 20.00     0.042 C 
HETATM    5  C7  UNL     1     -34.115  15.704  -6.371  1.00 20.00     0.131 C 
HETATM    6  C8  UNL     1     -36.263  14.784  -5.480  1.00 20.00     0.139 C 
HETATM    7  N10 UNL     1     -34.890  14.895  -7.343  1.00 20.00    -0.192 NA
HETATM    8  N11 UNL     1     -35.978  14.437  -6.897  1.00 20.00    -0.192 NA
ENDROOT
BRANCH   4   9
HETATM    9  C2  UNL     1     -37.524  16.907  -6.017  1.00 20.00    -0.087 C 
HETATM   10  C1  UNL     1     -38.766  16.631  -5.594  1.00 20.00     0.014 C 
HETATM   11  C9  UNL     1     -37.266  17.819  -7.180  1.00 20.00     0.043 C 
ENDBRANCH   4   9
TORSDOF 1
ENDMDL
MODEL 9
REMARK VINA RESULT:      -3.4     13.301     14.226
REMARK  1 active torsions:
REMARK  status: ('A' for Active; 'I' for Inactive)
REMARK    1  A    between atoms: C2_2  and  C6_6 
ROOT
HETATM    1  C3  UNL     1     -36.771  16.271  -6.798  1.00 20.00     0.031 C 
HETATM    2  C4  UNL     1     -36.754  17.114  -5.519  1.00 20.00     0.032 C 
HETATM    3  C5  UNL     1     -34.853  14.872  -5.930  1.00 20.00     0.040 C 
HETATM    4  C6  UNL     1     -34.880  15.683  -4.617  1.00 20.00     0.042 C 
HETATM    5  C7  UNL     1     -35.345  15.776  -7.071  1.00 20.00     0.131 C 
HETATM    6  C8  UNL     1     -35.322  17.122  -4.964  1.00 20.00     0.139 C 
HETATM    7  N10 UNL     1     -34.456  16.963  -7.107  1.00 20.00    -0.192 NA
HETATM    8  N11 UNL     1     -34.438  17.639  -6.042  1.00 20.00    -0.192 NA
ENDROOT
BRANCH   4   9
HETATM    9  C2  UNL     1     -33.558  15.651  -3.911  1.00 20.00    -0.087 C 
HETATM   10  C1  UNL     1     -32.565  14.839  -4.302  1.00 20.00     0.014 C 
HETATM   11  C9  UNL     1     -33.411  16.579  -2.742  1.00 20.00     0.043 C 
ENDBRANCH   4   9
TORSDOF 1
ENDMDL
