MODEL 1
REMARK VINA RESULT:      -5.0      0.000      0.000
REMARK  1 active torsions:
REMARK  status: ('A' for Active; 'I' for Inactive)
REMARK    1  A    between atoms: C3_3  and  C8_8 
ROOT
HETATM    1  C1  UNL     1     -33.614   5.405   3.695  1.00 20.00    -0.084 C 
HETATM    2  C2  UNL     1     -32.903   5.149   2.595  1.00 20.00     0.015 C 
HETATM    3  C4  UNL     1     -33.558   4.632   4.989  1.00 20.00     0.038 C 
HETATM    4  C5  UNL     1     -35.664   5.726   4.745  1.00 20.00     0.014 C 
HETATM    5  C6  UNL     1     -34.081   6.801   6.172  1.00 20.00     0.021 C 
HETATM    6  C7  UNL     1     -34.669   6.481   3.859  1.00 20.00     0.028 C 
HETATM    7  C8  UNL     1     -34.164   7.559   4.834  1.00 20.00     0.095 C 
HETATM    8  C9  UNL     1     -34.615   5.395   5.812  1.00 20.00    -0.009 C 
ENDROOT
BRANCH   7   9
HETATM    9  C3  UNL     1     -32.845   8.175   4.408  1.00 20.00     0.177 C 
HETATM   10  O10 UNL     1     -32.779   8.523   3.197  1.00 20.00    -0.648 OA
HETATM   11  O11 UNL     1     -31.980   8.260   5.325  1.00 20.00    -0.648 OA
ENDBRANCH   7   9
TORSDOF 1
ENDMDL
MODEL 2
REMARK VINA RESULT:      -3.7      9.449     10.640
REMARK  1 active torsions:
REMARK  status: ('A' for Active; 'I' for Inactive)
REMARK    1  A    between atoms: C3_3  and  C8_8 
ROOT
HETATM    1  C1  UNL     1     -41.062  14.341   7.608  1.00 20.00    -0.084 C 
HETATM    2  C2  UNL     1     -40.309  14.596   8.682  1.00 20.00     0.015 C 
HETATM    3  C4  UNL     1     -41.525  15.352   6.589  1.00 20.00     0.038 C 
HETATM    4  C5  UNL     1     -43.004  13.481   6.663  1.00 20.00     0.014 C 
HETATM    5  C6  UNL     1     -41.420  13.498   4.878  1.00 20.00     0.021 C 
HETATM    6  C7  UNL     1     -41.660  13.004   7.222  1.00 20.00     0.028 C 
HETATM    7  C8  UNL     1     -40.979  12.480   5.946  1.00 20.00     0.095 C 
HETATM    8  C9  UNL     1     -42.358  14.445   5.662  1.00 20.00    -0.009 C 
ENDROOT
BRANCH   7   9
HETATM    9  C3  UNL     1     -39.473  12.364   6.080  1.00 20.00     0.177 C 
HETATM   10  O10 UNL     1     -39.067  11.849   7.158  1.00 20.00    -0.648 OA
HETATM   11  O11 UNL     1     -38.818  12.799   5.092  1.00 20.00    -0.648 OA
ENDBRANCH   7   9
TORSDOF 1
ENDMDL
MODEL 3
REMARK VINA RESULT:      -3.7      9.835     10.913
REMARK  1 active torsions:
REMARK  status: ('A' for Active; 'I' for Inactive)
REMARK    1  A    between atoms: C3_3  and  C8_8 
ROOT
HETATM    1  C1  UNL     1     -42.670  12.954   7.236  1.00 20.00    -0.084 C 
HETATM    2  C2  UNL     1     -43.234  11.744   7.258  1.00 20.00     0.015 C 
HETATM    3  C4  UNL     1     -42.469  13.862   8.423  1.00 20.00     0.038 C 
HETATM    4  C5  UNL     1     -42.576  15.122   6.400  1.00 20.00     0.014 C 
HETATM    5  C6  UNL     1     -40.391  14.715   7.270  1.00 20.00     0.021 C 
HETATM    6  C7  UNL     1     -42.173  13.696   6.011  1.00 20.00     0.028 C 
HETATM    7  C8  UNL     1     -40.638  13.800   6.056  1.00 20.00     0.095 C 
HETATM    8  C9  UNL     1     -41.820  15.078   7.732  1.00 20.00    -0.009 C 
ENDROOT
BRANCH   7   9
HETATM    9  C3  UNL     1     -39.953  12.452   6.169  1.00 20.00     0.177 C 
HETATM   10  O10 UNL     1     -39.323  12.257   7.244  1.00 20.00    -0.648 OA
HETATM   11  O11 UNL     1     -40.103  11.697   5.168  1.00 20.00    -0.648 OA
ENDBRANCH   7   9
TORSDOF 1
ENDMDL
MODEL 4
REMARK VINA RESULT:      -3.5     10.582     11.589
REMARK  1 active torsions:
REMARK  status: ('A' for Active; 'I' for Inactive)
REMARK    1  A    between atoms: C3_3  and  C8_8 
ROOT
HETATM    1  C1  UNL     1     -42.771  12.706   6.890  1.00 20.00    -0.084 C 
HETATM    2  C2  UNL     1     -43.407  11.799   7.634  1.00 20.00     0.015 C 
HETATM    3  C4  UNL     1     -43.415  13.675   5.930  1.00 20.00     0.038 C 
HETATM    4  C5  UNL     1     -41.150  13.246   5.313  1.00 20.00     0.014 C 
HETATM    5  C6  UNL     1     -41.550  15.284   6.489  1.00 20.00     0.021 C 
HETATM    6  C7  UNL     1     -41.273  12.913   6.803  1.00 20.00     0.028 C 
HETATM    7  C8  UNL     1     -40.898  14.263   7.439  1.00 20.00     0.095 C 
HETATM    8  C9  UNL     1     -42.163  14.393   5.385  1.00 20.00    -0.009 C 
ENDROOT
BRANCH   7   9
HETATM    9  C3  UNL     1     -41.365  14.394   8.876  1.00 20.00     0.177 C 
HETATM   10  O10 UNL     1     -42.271  15.250   9.071  1.00 20.00    -0.648 OA
HETATM   11  O11 UNL     1     -40.785  13.627   9.694  1.00 20.00    -0.648 OA
ENDBRANCH   7   9
TORSDOF 1
ENDMDL
MODEL 5
REMARK VINA RESULT:      -3.5     10.478     11.357
REMARK  1 active torsions:
REMARK  status: ('A' for Active; 'I' for Inactive)
REMARK    1  A    between atoms: C3_3  and  C8_8 
ROOT
HETATM    1  C1  UNL     1     -41.027  13.084   6.547  1.00 20.00    -0.084 C 
HETATM    2  C2  UNL     1     -39.806  12.577   6.364  1.00 20.00     0.015 C 
HETATM    3  C4  UNL     1     -42.306  12.294   6.678  1.00 20.00     0.038 C 
HETATM    4  C5  UNL     1     -42.747  14.498   5.878  1.00 20.00     0.014 C 
HETATM    5  C6  UNL     1     -43.142  14.126   8.202  1.00 20.00     0.021 C 
HETATM    6  C7  UNL     1     -41.396  14.552   6.599  1.00 20.00     0.028 C 
HETATM    7  C8  UNL     1     -41.838  14.926   8.025  1.00 20.00     0.095 C 
HETATM    8  C9  UNL     1     -43.323  13.443   6.827  1.00 20.00    -0.009 C 
ENDROOT
BRANCH   7   9
HETATM    9  C3  UNL     1     -40.790  14.609   9.074  1.00 20.00     0.177 C 
HETATM   10  O10 UNL     1     -41.081  13.662   9.856  1.00 20.00    -0.648 OA
HETATM   11  O11 UNL     1     -39.759  15.337   9.030  1.00 20.00    -0.648 OA
ENDBRANCH   7   9
TORSDOF 1
ENDMDL
MODEL 6
REMARK VINA RESULT:      -3.4     10.804     11.805
REMARK  1 active torsions:
REMARK  status: ('A' for Active; 'I' for Inactive)
REMARK    1  A    between atoms: C3_3  and  C8_8 
ROOT
HETATM    1  C1  UNL     1     -40.805  14.721   7.193  1.00 20.00    -0.084 C 
HETATM    2  C2  UNL     1     -40.214  15.664   7.931  1.00 20.00     0.015 C 
HETATM    3  C4  UNL     1     -40.151  13.470   6.662  1.00 20.00     0.038 C 
HETATM    4  C5  UNL     1     -42.013  14.096   5.308  1.00 20.00     0.014 C 
HETATM    5  C6  UNL     1     -42.400  12.343   6.881  1.00 20.00     0.021 C 
HETATM    6  C7  UNL     1     -42.231  14.737   6.682  1.00 20.00     0.028 C 
HETATM    7  C8  UNL     1     -43.048  13.643   7.392  1.00 20.00     0.095 C 
HETATM    8  C9  UNL     1     -41.332  12.852   5.886  1.00 20.00    -0.009 C 
ENDROOT
BRANCH   7   9
HETATM    9  C3  UNL     1     -43.029  13.772   8.903  1.00 20.00     0.177 C 
HETATM   10  O10 UNL     1     -43.417  14.885   9.353  1.00 20.00    -0.648 OA
HETATM   11  O11 UNL     1     -42.626  12.745   9.517  1.00 20.00    -0.648 OA
ENDBRANCH   7   9
TORSDOF 1
ENDMDL
MODEL 7
REMARK VINA RESULT:      -3.4     13.080     14.473
REMARK  1 active torsions:
REMARK  status: ('A' for Active; 'I' for Inactive)
REMARK    1  A    between atoms: C3_3  and  C8_8 
ROOT
HETATM    1  C1  UNL     1     -36.106  17.042  -5.625  1.00 20.00    -0.084 C 
HETATM    2  C2  UNL     1     -36.908  17.496  -4.658  1.00 20.00     0.015 C 
HETATM    3  C4  UNL     1     -34.710  17.528  -5.921  1.00 20.00     0.038 C 
HETATM    4  C5  UNL     1     -35.711  16.582  -7.869  1.00 20.00     0.014 C 
HETATM    5  C6  UNL     1     -34.182  15.181  -6.688  1.00 20.00     0.021 C 
HETATM    6  C7  UNL     1     -36.449  15.993  -6.663  1.00 20.00     0.028 C 
HETATM    7  C8  UNL     1     -35.624  14.719  -6.406  1.00 20.00     0.095 C 
HETATM    8  C9  UNL     1     -34.366  16.648  -7.140  1.00 20.00    -0.009 C 
ENDROOT
BRANCH   7   9
HETATM    9  C3  UNL     1     -35.814  14.159  -5.009  1.00 20.00     0.177 C 
HETATM   10  O10 UNL     1     -37.008  13.906  -4.689  1.00 20.00    -0.648 OA
HETATM   11  O11 UNL     1     -34.749  14.019  -4.345  1.00 20.00    -0.648 OA
ENDBRANCH   7   9
TORSDOF 1
ENDMDL
MODEL 8
REMARK VINA RESULT:      -3.3     12.821     14.126
REMARK  1 active torsions:
REMARK  status: ('A' for Active; 'I' for Inactive)
REMARK    1  A    between atoms: C3_3  and  C8_8 
ROOT
HETATM    1  C1  UNL     1     -34.177  15.688  -4.540  1.00 20.00    -0.084 C 
HETATM    2  C2  UNL     1     -33.440  15.968  -3.462  1.00 20.00     0.015 C 
HETATM    3  C4  UNL     1     -35.043  14.468  -4.729  1.00 20.00     0.038 C 
HETATM    4  C5  UNL     1     -34.353  15.354  -6.834  1.00 20.00     0.014 C 
HETATM    5  C6  UNL     1     -36.565  15.912  -6.134  1.00 20.00     0.021 C 
HETATM    6  C7  UNL     1     -34.250  16.496  -5.819  1.00 20.00     0.028 C 
HETATM    7  C8  UNL     1     -35.645  17.134  -5.950  1.00 20.00     0.095 C 
HETATM    8  C9  UNL     1     -35.574  14.727  -6.154  1.00 20.00    -0.009 C 
ENDROOT
BRANCH   7   9
HETATM    9  C3  UNL     1     -36.020  17.996  -4.759  1.00 20.00     0.177 C 
HETATM   10  O10 UNL     1     -35.199  18.913  -4.480  1.00 20.00    -0.648 OA
HETATM   11  O11 UNL     1     -37.108  17.682  -4.201  1.00 20.00    -0.648 OA
ENDBRANCH   7   9
TORSDOF 1
ENDMDL
MODEL 9
REMARK VINA RESULT:      -3.3     13.107     14.508
REMARK  1 active torsions:
REMARK  status: ('A' for Active; 'I' for Inactive)
REMARK    1  A    between atoms: C3_3  and  C8_8 
ROOT
HETATM    1  C1  UNL     1     -34.600  15.601  -4.632  1.00 20.00    -0.084 C 
HETATM    2  C2  UNL     1     -34.417  14.357  -4.185  1.00 20.00     0.015 C 
HETATM    3  C4  UNL     1     -33.598  16.726  -4.561  1.00 20.00     0.038 C 
HETATM    4  C5  UNL     1     -35.826  17.577  -4.658  1.00 20.00     0.014 C 
HETATM    5  C6  UNL     1     -34.603  17.598  -6.707  1.00 20.00     0.021 C 
HETATM    6  C7  UNL     1     -35.867  16.163  -5.245  1.00 20.00     0.028 C 
HETATM    7  C8  UNL     1     -35.635  16.456  -6.738  1.00 20.00     0.095 C 
HETATM    8  C9  UNL     1     -34.421  17.866  -5.196  1.00 20.00    -0.009 C 
ENDROOT
BRANCH   7   9
HETATM    9  C3  UNL     1     -35.167  15.242  -7.517  1.00 20.00     0.177 C 
HETATM   10  O10 UNL     1     -36.029  14.332  -7.664  1.00 20.00    -0.648 OA
HETATM   11  O11 UNL     1     -33.971  15.300  -7.918  1.00 20.00    -0.648 OA
ENDBRANCH   7   9
TORSDOF 1
ENDMDL
