MODEL 1
REMARK VINA RESULT:      -4.2      0.000      0.000
REMARK  1 active torsions:
REMARK  status: ('A' for Active; 'I' for Inactive)
REMARK    1  A    between atoms: C4_4  and  C10_10 
ROOT
HETATM    1  C1  UNL     1     -34.048  19.263  -2.591  1.00 20.00     0.174 C 
HETATM    2  C2  UNL     1     -32.721  18.992  -1.976  1.00 20.00     0.025 A 
HETATM    3  C3  UNL     1     -32.550  17.520  -1.958  1.00 20.00     0.030 A 
HETATM    4  C4  UNL     1     -33.789  16.935  -2.560  1.00 20.00     0.130 C 
HETATM    5  C5  UNL     1     -32.530  18.286  -0.646  1.00 20.00    -0.035 A 
HETATM    6  C6  UNL     1     -31.191  18.450   0.029  1.00 20.00     0.016 C 
HETATM    7  C7  UNL     1     -33.675  18.166   0.325  1.00 20.00     0.016 C 
HETATM    8  O11 UNL     1     -34.746  18.008  -2.681  1.00 20.00    -0.385 OA
ENDROOT
BRANCH   4   9
HETATM    9  C10 UNL     1     -33.542  16.353  -3.944  1.00 20.00     0.007 C 
HETATM   10  C8  UNL     1     -33.627  14.826  -3.912  1.00 20.00     0.012 C 
HETATM   11  C9  UNL     1     -34.537  16.921  -4.956  1.00 20.00     0.012 C 
ENDBRANCH   4   9
TORSDOF 1
ENDMDL
MODEL 2
REMARK VINA RESULT:      -3.9      1.329      1.776
REMARK  1 active torsions:
REMARK  status: ('A' for Active; 'I' for Inactive)
REMARK    1  A    between atoms: C4_4  and  C10_10 
ROOT
HETATM    1  C1  UNL     1     -33.024  18.831  -3.975  1.00 20.00     0.174 C 
HETATM    2  C2  UNL     1     -32.899  18.239  -2.615  1.00 20.00     0.025 A 
HETATM    3  C3  UNL     1     -33.742  17.020  -2.602  1.00 20.00     0.030 A 
HETATM    4  C4  UNL     1     -34.364  16.909  -3.959  1.00 20.00     0.130 C 
HETATM    5  C5  UNL     1     -34.045  18.142  -1.624  1.00 20.00    -0.035 A 
HETATM    6  C6  UNL     1     -33.679  17.906  -0.179  1.00 20.00     0.016 C 
HETATM    7  C7  UNL     1     -35.276  18.992  -1.795  1.00 20.00     0.016 C 
HETATM    8  O11 UNL     1     -34.101  18.151  -4.645  1.00 20.00    -0.385 OA
ENDROOT
BRANCH   4   9
HETATM    9  C10 UNL     1     -33.770  15.773  -4.778  1.00 20.00     0.007 C 
HETATM   10  C8  UNL     1     -33.996  14.429  -4.083  1.00 20.00     0.012 C 
HETATM   11  C9  UNL     1     -34.366  15.751  -6.186  1.00 20.00     0.012 C 
ENDBRANCH   4   9
TORSDOF 1
ENDMDL
MODEL 3
REMARK VINA RESULT:      -3.9     11.140     12.390
REMARK  1 active torsions:
REMARK  status: ('A' for Active; 'I' for Inactive)
REMARK    1  A    between atoms: C4_4  and  C10_10 
ROOT
HETATM    1  C1  UNL     1     -42.339  12.899   7.249  1.00 20.00     0.174 C 
HETATM    2  C2  UNL     1     -42.649  13.444   5.900  1.00 20.00     0.025 A 
HETATM    3  C3  UNL     1     -41.350  13.727   5.245  1.00 20.00     0.030 A 
HETATM    4  C4  UNL     1     -40.282  13.350   6.223  1.00 20.00     0.130 C 
HETATM    5  C5  UNL     1     -42.333  14.864   5.465  1.00 20.00    -0.035 A 
HETATM    6  C6  UNL     1     -43.061  15.384   4.250  1.00 20.00     0.016 C 
HETATM    7  C7  UNL     1     -42.050  15.930   6.490  1.00 20.00     0.016 C 
HETATM    8  O11 UNL     1     -40.935  13.107   7.487  1.00 20.00    -0.385 OA
ENDROOT
BRANCH   4   9
HETATM    9  C10 UNL     1     -39.540  12.086   5.814  1.00 20.00     0.007 C 
HETATM   10  C8  UNL     1     -39.585  11.899   4.297  1.00 20.00     0.012 C 
HETATM   11  C9  UNL     1     -38.093  12.125   6.303  1.00 20.00     0.012 C 
ENDBRANCH   4   9
TORSDOF 1
ENDMDL
MODEL 4
REMARK VINA RESULT:      -3.9     11.842     12.890
REMARK  1 active torsions:
REMARK  status: ('A' for Active; 'I' for Inactive)
REMARK    1  A    between atoms: C4_4  and  C10_10 
ROOT
HETATM    1  C1  UNL     1     -42.726  14.074   8.296  1.00 20.00     0.174 C 
HETATM    2  C2  UNL     1     -42.180  15.306   7.665  1.00 20.00     0.025 A 
HETATM    3  C3  UNL     1     -40.909  14.921   7.007  1.00 20.00     0.030 A 
HETATM    4  C4  UNL     1     -40.715  13.459   7.265  1.00 20.00     0.130 C 
HETATM    5  C5  UNL     1     -40.890  15.979   8.096  1.00 20.00    -0.035 A 
HETATM    6  C6  UNL     1     -40.686  17.409   7.656  1.00 20.00     0.016 C 
HETATM    7  C7  UNL     1     -40.285  15.680   9.442  1.00 20.00     0.016 C 
HETATM    8  O11 UNL     1     -41.694  13.071   8.250  1.00 20.00    -0.385 OA
ENDROOT
BRANCH   4   9
HETATM    9  C10 UNL     1     -40.928  12.617   6.016  1.00 20.00     0.007 C 
HETATM   10  C8  UNL     1     -41.216  13.506   4.805  1.00 20.00     0.012 C 
HETATM   11  C9  UNL     1     -39.713  11.729   5.747  1.00 20.00     0.012 C 
ENDBRANCH   4   9
TORSDOF 1
ENDMDL
MODEL 5
REMARK VINA RESULT:      -3.8      1.603      2.667
REMARK  1 active torsions:
REMARK  status: ('A' for Active; 'I' for Inactive)
REMARK    1  A    between atoms: C4_4  and  C10_10 
ROOT
HETATM    1  C1  UNL     1     -33.144  16.532  -2.984  1.00 20.00     0.174 C 
HETATM    2  C2  UNL     1     -33.720  16.925  -1.670  1.00 20.00     0.025 A 
HETATM    3  C3  UNL     1     -34.431  18.208  -1.882  1.00 20.00     0.030 A 
HETATM    4  C4  UNL     1     -34.259  18.563  -3.327  1.00 20.00     0.130 C 
HETATM    5  C5  UNL     1     -33.285  18.150  -0.886  1.00 20.00    -0.035 A 
HETATM    6  C6  UNL     1     -33.650  18.189   0.578  1.00 20.00     0.016 C 
HETATM    7  C7  UNL     1     -31.974  18.825  -1.190  1.00 20.00     0.016 C 
HETATM    8  O11 UNL     1     -33.272  17.660  -3.867  1.00 20.00    -0.385 OA
ENDROOT
BRANCH   4   9
HETATM    9  C10 UNL     1     -35.546  18.400  -4.120  1.00 20.00     0.007 C 
HETATM   10  C8  UNL     1     -36.761  18.760  -3.263  1.00 20.00     0.012 C 
HETATM   11  C9  UNL     1     -35.515  19.257  -5.386  1.00 20.00     0.012 C 
ENDBRANCH   4   9
TORSDOF 1
ENDMDL
MODEL 6
REMARK VINA RESULT:      -3.7      1.971      5.222
REMARK  1 active torsions:
REMARK  status: ('A' for Active; 'I' for Inactive)
REMARK    1  A    between atoms: C4_4  and  C10_10 
ROOT
HETATM    1  C1  UNL     1     -33.193  14.467  -4.557  1.00 20.00     0.174 C 
HETATM    2  C2  UNL     1     -33.762  15.056  -5.800  1.00 20.00     0.025 A 
HETATM    3  C3  UNL     1     -34.419  16.326  -5.410  1.00 20.00     0.030 A 
HETATM    4  C4  UNL     1     -34.236  16.470  -3.931  1.00 20.00     0.130 C 
HETATM    5  C5  UNL     1     -35.248  15.228  -6.054  1.00 20.00    -0.035 A 
HETATM    6  C6  UNL     1     -35.676  15.445  -7.485  1.00 20.00     0.016 C 
HETATM    7  C7  UNL     1     -36.256  14.457  -5.244  1.00 20.00     0.016 C 
HETATM    8  O11 UNL     1     -33.724  15.212  -3.446  1.00 20.00    -0.385 OA
ENDROOT
BRANCH   4   9
HETATM    9  C10 UNL     1     -33.240  17.564  -3.575  1.00 20.00     0.007 C 
HETATM   10  C8  UNL     1     -33.699  18.915  -4.126  1.00 20.00     0.012 C 
HETATM   11  C9  UNL     1     -33.045  17.645  -2.061  1.00 20.00     0.012 C 
ENDBRANCH   4   9
TORSDOF 1
ENDMDL
MODEL 7
REMARK VINA RESULT:      -3.6     11.586     13.302
REMARK  1 active torsions:
REMARK  status: ('A' for Active; 'I' for Inactive)
REMARK    1  A    between atoms: C4_4  and  C10_10 
ROOT
HETATM    1  C1  UNL     1     -43.127  13.713   7.035  1.00 20.00     0.174 C 
HETATM    2  C2  UNL     1     -41.887  12.890   7.052  1.00 20.00     0.025 A 
HETATM    3  C3  UNL     1     -40.751  13.833   7.184  1.00 20.00     0.030 A 
HETATM    4  C4  UNL     1     -41.337  15.210   7.236  1.00 20.00     0.130 C 
HETATM    5  C5  UNL     1     -40.829  12.929   5.965  1.00 20.00    -0.035 A 
HETATM    6  C6  UNL     1     -39.863  11.771   5.911  1.00 20.00     0.016 C 
HETATM    7  C7  UNL     1     -41.147  13.501   4.609  1.00 20.00     0.016 C 
HETATM    8  O11 UNL     1     -42.731  15.088   6.886  1.00 20.00    -0.385 OA
ENDROOT
BRANCH   4   9
HETATM    9  C10 UNL     1     -41.240  15.828   8.623  1.00 20.00     0.007 C 
HETATM   10  C8  UNL     1     -40.142  15.151   9.443  1.00 20.00     0.012 C 
HETATM   11  C9  UNL     1     -40.985  17.332   8.529  1.00 20.00     0.012 C 
ENDBRANCH   4   9
TORSDOF 1
ENDMDL
MODEL 8
REMARK VINA RESULT:      -3.5     24.689     25.740
REMARK  1 active torsions:
REMARK  status: ('A' for Active; 'I' for Inactive)
REMARK    1  A    between atoms: C4_4  and  C10_10 
ROOT
HETATM    1  C1  UNL     1     -25.487  -3.935  12.054  1.00 20.00     0.174 C 
HETATM    2  C2  UNL     1     -26.493  -3.304  11.157  1.00 20.00     0.025 A 
HETATM    3  C3  UNL     1     -25.740  -2.677  10.046  1.00 20.00     0.030 A 
HETATM    4  C4  UNL     1     -24.289  -2.940  10.304  1.00 20.00     0.130 C 
HETATM    5  C5  UNL     1     -26.611  -1.808  10.936  1.00 20.00    -0.035 A 
HETATM    6  C6  UNL     1     -27.906  -1.305  10.345  1.00 20.00     0.016 C 
HETATM    7  C7  UNL     1     -25.987  -0.841  11.906  1.00 20.00     0.016 C 
HETATM    8  O11 UNL     1     -24.189  -3.469  11.642  1.00 20.00    -0.385 OA
ENDROOT
BRANCH   4   9
HETATM    9  C10 UNL     1     -23.704  -3.959   9.339  1.00 20.00     0.007 C 
HETATM   10  C8  UNL     1     -23.394  -3.311   7.989  1.00 20.00     0.012 C 
HETATM   11  C9  UNL     1     -22.445  -4.599   9.923  1.00 20.00     0.012 C 
ENDBRANCH   4   9
TORSDOF 1
ENDMDL
MODEL 9
REMARK VINA RESULT:      -3.5      2.106      5.293
REMARK  1 active torsions:
REMARK  status: ('A' for Active; 'I' for Inactive)
REMARK    1  A    between atoms: C4_4  and  C10_10 
ROOT
HETATM    1  C1  UNL     1     -34.071  15.075  -5.927  1.00 20.00     0.174 C 
HETATM    2  C2  UNL     1     -34.408  16.333  -6.648  1.00 20.00     0.025 A 
HETATM    3  C3  UNL     1     -34.712  17.349  -5.614  1.00 20.00     0.030 A 
HETATM    4  C4  UNL     1     -34.557  16.675  -4.287  1.00 20.00     0.130 C 
HETATM    5  C5  UNL     1     -35.781  16.979  -6.628  1.00 20.00    -0.035 A 
HETATM    6  C6  UNL     1     -36.076  17.990  -7.709  1.00 20.00     0.016 C 
HETATM    7  C7  UNL     1     -36.991  16.188  -6.208  1.00 20.00     0.016 C 
HETATM    8  O11 UNL     1     -34.424  15.262  -4.545  1.00 20.00    -0.385 OA
ENDROOT
BRANCH   4   9
HETATM    9  C10 UNL     1     -33.318  17.145  -3.539  1.00 20.00     0.007 C 
HETATM   10  C8  UNL     1     -33.068  18.634  -3.786  1.00 20.00     0.012 C 
HETATM   11  C9  UNL     1     -33.451  16.869  -2.042  1.00 20.00     0.012 C 
ENDBRANCH   4   9
TORSDOF 1
ENDMDL
