MODEL 1
REMARK VINA RESULT:      -6.5      0.000      0.000
REMARK  1 active torsions:
REMARK  status: ('A' for Active; 'I' for Inactive)
REMARK    1  A    between atoms: C9_9  and  C10_10 
ROOT
HETATM    1  C1  UNL     1     -34.689   5.012   5.423  1.00 20.00     0.001 A 
HETATM    2  C2  UNL     1     -34.596   6.095   6.408  1.00 20.00     0.001 A 
HETATM    3  C3  UNL     1     -34.098   5.090   4.212  1.00 20.00     0.012 A 
HETATM    4  C4  UNL     1     -33.913   7.233   6.162  1.00 20.00     0.012 A 
HETATM    5  C5  UNL     1     -32.678   6.630   2.794  1.00 20.00     0.001 A 
HETATM    6  C6  UNL     1     -32.529   8.368   4.377  1.00 20.00     0.001 A 
HETATM    7  C7  UNL     1     -33.355   6.290   3.899  1.00 20.00    -0.029 A 
HETATM    8  C8  UNL     1     -33.263   7.366   4.880  1.00 20.00    -0.029 A 
HETATM    9  C10 UNL     1     -32.078   7.999   2.988  1.00 20.00     0.094 A 
ENDROOT
BRANCH   9  10
HETATM   10  C9  UNL     1     -32.682   8.949   2.002  1.00 20.00     0.243 C 
HETATM   11  O11 UNL     1     -32.465   8.899   0.795  1.00 20.00    -0.306 OA
ENDBRANCH   9  10
TORSDOF 1
ENDMDL
MODEL 2
REMARK VINA RESULT:      -4.7      2.379      4.139
REMARK  1 active torsions:
REMARK  status: ('A' for Active; 'I' for Inactive)
REMARK    1  A    between atoms: C9_9  and  C10_10 
ROOT
HETATM    1  C1  UNL     1     -31.992   7.241   2.320  1.00 20.00     0.001 A 
HETATM    2  C2  UNL     1     -31.876   8.396   3.216  1.00 20.00     0.001 A 
HETATM    3  C3  UNL     1     -32.813   6.204   2.588  1.00 20.00     0.012 A 
HETATM    4  C4  UNL     1     -32.585   8.492   4.360  1.00 20.00     0.012 A 
HETATM    5  C5  UNL     1     -34.477   5.385   4.308  1.00 20.00     0.001 A 
HETATM    6  C6  UNL     1     -34.291   7.242   5.745  1.00 20.00     0.001 A 
HETATM    7  C7  UNL     1     -33.594   6.257   3.802  1.00 20.00    -0.029 A 
HETATM    8  C8  UNL     1     -33.479   7.408   4.692  1.00 20.00    -0.029 A 
HETATM    9  C10 UNL     1     -35.015   5.927   5.607  1.00 20.00     0.094 A 
ENDROOT
BRANCH   9  10
HETATM   10  C9  UNL     1     -34.614   5.020   6.726  1.00 20.00     0.243 C 
HETATM   11  O11 UNL     1     -33.450   4.855   7.079  1.00 20.00    -0.306 OA
ENDBRANCH   9  10
TORSDOF 1
ENDMDL
MODEL 3
REMARK VINA RESULT:      -4.5     11.712     13.007
REMARK  1 active torsions:
REMARK  status: ('A' for Active; 'I' for Inactive)
REMARK    1  A    between atoms: C9_9  and  C10_10 
ROOT
HETATM    1  C1  UNL     1     -33.369  17.906  -1.892  1.00 20.00     0.001 A 
HETATM    2  C2  UNL     1     -33.814  18.962  -2.806  1.00 20.00     0.001 A 
HETATM    3  C3  UNL     1     -33.323  16.609  -2.261  1.00 20.00     0.012 A 
HETATM    4  C4  UNL     1     -34.205  18.700  -4.071  1.00 20.00     0.012 A 
HETATM    5  C5  UNL     1     -33.785  15.089  -4.230  1.00 20.00     0.001 A 
HETATM    6  C6  UNL     1     -34.501  16.787  -5.698  1.00 20.00     0.001 A 
HETATM    7  C7  UNL     1     -33.733  16.274  -3.605  1.00 20.00    -0.029 A 
HETATM    8  C8  UNL     1     -34.175  17.326  -4.515  1.00 20.00    -0.029 A 
HETATM    9  C10 UNL     1     -34.284  15.297  -5.637  1.00 20.00     0.094 A 
ENDROOT
BRANCH   9  10
HETATM   10  C9  UNL     1     -35.595  14.598  -5.806  1.00 20.00     0.243 C 
HETATM   11  O11 UNL     1     -36.032  14.235  -6.894  1.00 20.00    -0.306 OA
ENDBRANCH   9  10
TORSDOF 1
ENDMDL
MODEL 4
REMARK VINA RESULT:      -4.2     12.548     13.576
REMARK  1 active torsions:
REMARK  status: ('A' for Active; 'I' for Inactive)
REMARK    1  A    between atoms: C9_9  and  C10_10 
ROOT
HETATM    1  C1  UNL     1     -24.194  -2.613  10.845  1.00 20.00     0.001 A 
HETATM    2  C2  UNL     1     -24.277  -1.578  11.881  1.00 20.00     0.001 A 
HETATM    3  C3  UNL     1     -25.276  -3.024  10.152  1.00 20.00     0.012 A 
HETATM    4  C4  UNL     1     -25.441  -0.974  12.201  1.00 20.00     0.012 A 
HETATM    5  C5  UNL     1     -27.763  -2.617   9.934  1.00 20.00     0.001 A 
HETATM    6  C6  UNL     1     -27.896  -0.955  11.597  1.00 20.00     0.001 A 
HETATM    7  C7  UNL     1     -26.547  -2.409  10.458  1.00 20.00    -0.029 A 
HETATM    8  C8  UNL     1     -26.629  -1.379  11.488  1.00 20.00    -0.029 A 
HETATM    9  C10 UNL     1     -28.753  -1.705  10.612  1.00 20.00     0.094 A 
ENDROOT
BRANCH   9  10
HETATM   10  C9  UNL     1     -29.758  -2.528  11.354  1.00 20.00     0.243 C 
HETATM   11  O11 UNL     1     -30.970  -2.377  11.244  1.00 20.00    -0.306 OA
ENDBRANCH   9  10
TORSDOF 1
ENDMDL
MODEL 5
REMARK VINA RESULT:      -4.2      1.797      2.638
REMARK  1 active torsions:
REMARK  status: ('A' for Active; 'I' for Inactive)
REMARK    1  A    between atoms: C9_9  and  C10_10 
ROOT
HETATM    1  C1  UNL     1     -34.719   4.644   5.221  1.00 20.00     0.001 A 
HETATM    2  C2  UNL     1     -33.901   4.208   4.084  1.00 20.00     0.001 A 
HETATM    3  C3  UNL     1     -34.788   5.936   5.602  1.00 20.00     0.012 A 
HETATM    4  C4  UNL     1     -33.170   5.074   3.351  1.00 20.00     0.012 A 
HETATM    5  C5  UNL     1     -33.907   8.230   5.003  1.00 20.00     0.001 A 
HETATM    6  C6  UNL     1     -32.594   7.529   3.177  1.00 20.00     0.001 A 
HETATM    7  C7  UNL     1     -34.022   6.903   4.851  1.00 20.00    -0.029 A 
HETATM    8  C8  UNL     1     -33.209   6.469   3.719  1.00 20.00    -0.029 A 
HETATM    9  C10 UNL     1     -32.979   8.768   3.944  1.00 20.00     0.094 A 
ENDROOT
BRANCH   9  10
HETATM   10  C9  UNL     1     -31.763   9.344   4.598  1.00 20.00     0.243 C 
HETATM   11  O11 UNL     1     -31.768   9.834   5.722  1.00 20.00    -0.306 OA
ENDBRANCH   9  10
TORSDOF 1
ENDMDL
MODEL 6
REMARK VINA RESULT:      -4.2     11.785     13.159
REMARK  1 active torsions:
REMARK  status: ('A' for Active; 'I' for Inactive)
REMARK    1  A    between atoms: C9_9  and  C10_10 
ROOT
HETATM    1  C1  UNL     1     -34.323  18.157  -2.605  1.00 20.00     0.001 A 
HETATM    2  C2  UNL     1     -33.397  17.067  -2.281  1.00 20.00     0.001 A 
HETATM    3  C3  UNL     1     -35.087  18.145  -3.717  1.00 20.00     0.012 A 
HETATM    4  C4  UNL     1     -33.253  15.986  -3.077  1.00 20.00     0.012 A 
HETATM    5  C5  UNL     1     -35.597  16.737  -5.756  1.00 20.00     0.001 A 
HETATM    6  C6  UNL     1     -34.109  14.987  -5.235  1.00 20.00     0.001 A 
HETATM    7  C7  UNL     1     -34.970  17.010  -4.603  1.00 20.00    -0.029 A 
HETATM    8  C8  UNL     1     -34.048  15.925  -4.281  1.00 20.00    -0.029 A 
HETATM    9  C10 UNL     1     -35.109  15.411  -6.280  1.00 20.00     0.094 A 
ENDROOT
BRANCH   9  10
HETATM   10  C9  UNL     1     -34.405  15.622  -7.583  1.00 20.00     0.243 C 
HETATM   11  O11 UNL     1     -33.402  15.000  -7.918  1.00 20.00    -0.306 OA
ENDBRANCH   9  10
TORSDOF 1
ENDMDL
MODEL 7
REMARK VINA RESULT:      -4.0     11.513     12.818
REMARK  1 active torsions:
REMARK  status: ('A' for Active; 'I' for Inactive)
REMARK    1  A    between atoms: C9_9  and  C10_10 
ROOT
HETATM    1  C1  UNL     1     -34.824  15.915  -5.952  1.00 20.00     0.001 A 
HETATM    2  C2  UNL     1     -34.265  14.768  -5.229  1.00 20.00     0.001 A 
HETATM    3  C3  UNL     1     -34.776  17.170  -5.457  1.00 20.00     0.012 A 
HETATM    4  C4  UNL     1     -33.668  14.900  -4.026  1.00 20.00     0.012 A 
HETATM    5  C5  UNL     1     -33.960  18.481  -3.454  1.00 20.00     0.001 A 
HETATM    6  C6  UNL     1     -33.061  16.638  -2.293  1.00 20.00     0.001 A 
HETATM    7  C7  UNL     1     -34.148  17.364  -4.171  1.00 20.00    -0.029 A 
HETATM    8  C8  UNL     1     -33.591  16.222  -3.452  1.00 20.00    -0.029 A 
HETATM    9  C10 UNL     1     -33.243  18.129  -2.175  1.00 20.00     0.094 A 
ENDROOT
BRANCH   9  10
HETATM   10  C9  UNL     1     -34.133  18.430  -1.011  1.00 20.00     0.243 C 
HETATM   11  O11 UNL     1     -34.042  17.861   0.073  1.00 20.00    -0.306 OA
ENDBRANCH   9  10
TORSDOF 1
ENDMDL
MODEL 8
REMARK VINA RESULT:      -4.0     15.161     16.684
REMARK  1 active torsions:
REMARK  status: ('A' for Active; 'I' for Inactive)
REMARK    1  A    between atoms: C9_9  and  C10_10 
ROOT
HETATM    1  C1  UNL     1     -21.293  18.958   8.873  1.00 20.00     0.001 A 
HETATM    2  C2  UNL     1     -21.867  17.822   8.143  1.00 20.00     0.001 A 
HETATM    3  C3  UNL     1     -21.662  19.261  10.135  1.00 20.00     0.012 A 
HETATM    4  C4  UNL     1     -22.798  17.013   8.690  1.00 20.00     0.012 A 
HETATM    5  C5  UNL     1     -23.198  18.491  11.991  1.00 20.00     0.001 A 
HETATM    6  C6  UNL     1     -24.120  16.668  10.817  1.00 20.00     0.001 A 
HETATM    7  C7  UNL     1     -22.657  18.425  10.766  1.00 20.00    -0.029 A 
HETATM    8  C8  UNL     1     -23.227  17.295  10.040  1.00 20.00    -0.029 A 
HETATM    9  C10 UNL     1     -24.193  17.370  12.149  1.00 20.00     0.094 A 
ENDROOT
BRANCH   9  10
HETATM   10  C9  UNL     1     -25.562  17.944  12.332  1.00 20.00     0.243 C 
HETATM   11  O11 UNL     1     -26.062  18.758  11.562  1.00 20.00    -0.306 OA
ENDBRANCH   9  10
TORSDOF 1
ENDMDL
MODEL 9
REMARK VINA RESULT:      -3.9     11.602     13.065
REMARK  1 active torsions:
REMARK  status: ('A' for Active; 'I' for Inactive)
REMARK    1  A    between atoms: C9_9  and  C10_10 
ROOT
HETATM    1  C1  UNL     1     -34.512  15.112  -5.918  1.00 20.00     0.001 A 
HETATM    2  C2  UNL     1     -34.925  16.431  -6.407  1.00 20.00     0.001 A 
HETATM    3  C3  UNL     1     -34.067  14.918  -4.659  1.00 20.00     0.012 A 
HETATM    4  C4  UNL     1     -34.884  17.531  -5.626  1.00 20.00     0.012 A 
HETATM    5  C5  UNL     1     -33.611  16.162  -2.504  1.00 20.00     0.001 A 
HETATM    6  C6  UNL     1     -34.275  18.282  -3.290  1.00 20.00     0.001 A 
HETATM    7  C7  UNL     1     -34.004  16.065  -3.783  1.00 20.00    -0.029 A 
HETATM    8  C8  UNL     1     -34.415  17.378  -4.269  1.00 20.00    -0.029 A 
HETATM    9  C10 UNL     1     -33.745  17.595  -2.057  1.00 20.00     0.094 A 
ENDROOT
BRANCH   9  10
HETATM   10  C9  UNL     1     -32.391  18.140  -1.729  1.00 20.00     0.243 C 
HETATM   11  O11 UNL     1     -32.018  19.263  -2.054  1.00 20.00    -0.306 OA
ENDBRANCH   9  10
TORSDOF 1
ENDMDL
