MODEL 1
REMARK VINA RESULT:      -5.5      0.000      0.000
REMARK  1 active torsions:
REMARK  status: ('A' for Active; 'I' for Inactive)
REMARK    1  A    between atoms: C5_5  and  C8_8 
ROOT
HETATM    1  C1  UNL     1     -34.766   5.713   5.683  1.00 20.00    -0.004 C 
HETATM    2  C2  UNL     1     -34.575   5.326   4.286  1.00 20.00    -0.004 C 
HETATM    3  C3  UNL     1     -34.337   6.810   6.345  1.00 20.00    -0.026 C 
HETATM    4  C4  UNL     1     -33.594   5.766   3.473  1.00 20.00    -0.021 C 
HETATM    5  C6  UNL     1     -33.516   7.985   5.831  1.00 20.00     0.033 C 
HETATM    6  C7  UNL     1     -32.596   6.736   3.912  1.00 20.00     0.026 A 
HETATM    7  C8  UNL     1     -32.181   8.083   3.430  1.00 20.00     0.085 A 
HETATM    8  C9  UNL     1     -33.362   7.987   4.350  1.00 20.00     0.011 A 
ENDROOT
BRANCH   7   9
HETATM    9  C5  UNL     1     -32.380   8.436   2.019  1.00 20.00     0.224 C 
HETATM   10  O10 UNL     1     -32.055   7.676   1.112  1.00 20.00    -0.279 OA
HETATM   11 CL11 UNL     1     -33.103  10.005   1.833  1.00 20.00    -0.043 Cl
ENDBRANCH   7   9
TORSDOF 1
ENDMDL
MODEL 2
REMARK VINA RESULT:      -4.4     11.588     12.528
REMARK  1 active torsions:
REMARK  status: ('A' for Active; 'I' for Inactive)
REMARK    1  A    between atoms: C5_5  and  C8_8 
ROOT
HETATM    1  C1  UNL     1     -34.778  17.506  -3.978  1.00 20.00    -0.004 C 
HETATM    2  C2  UNL     1     -33.567  16.786  -3.586  1.00 20.00    -0.004 C 
HETATM    3  C3  UNL     1     -35.410  18.535  -3.372  1.00 20.00    -0.026 C 
HETATM    4  C4  UNL     1     -33.058  16.719  -2.339  1.00 20.00    -0.021 C 
HETATM    5  C6  UNL     1     -35.048  19.263  -2.084  1.00 20.00     0.033 C 
HETATM    6  C7  UNL     1     -33.674  17.409  -1.210  1.00 20.00     0.026 A 
HETATM    7  C8  UNL     1     -33.194  18.428  -0.234  1.00 20.00     0.085 A 
HETATM    8  C9  UNL     1     -33.700  18.898  -1.566  1.00 20.00     0.011 A 
ENDROOT
BRANCH   7   9
HETATM    9  C5  UNL     1     -31.761  18.511   0.074  1.00 20.00     0.224 C 
HETATM   10  O10 UNL     1     -30.931  18.776  -0.790  1.00 20.00    -0.279 OA
HETATM   11 CL11 UNL     1     -31.432  18.195   1.750  1.00 20.00    -0.043 Cl
ENDBRANCH   7   9
TORSDOF 1
ENDMDL
MODEL 3
REMARK VINA RESULT:      -4.4      1.267      2.266
REMARK  1 active torsions:
REMARK  status: ('A' for Active; 'I' for Inactive)
REMARK    1  A    between atoms: C5_5  and  C8_8 
ROOT
HETATM    1  C1  UNL     1     -34.641   5.915   6.654  1.00 20.00    -0.004 C 
HETATM    2  C2  UNL     1     -33.992   7.218   6.533  1.00 20.00    -0.004 C 
HETATM    3  C3  UNL     1     -34.759   4.916   5.752  1.00 20.00    -0.026 C 
HETATM    4  C4  UNL     1     -33.734   7.867   5.379  1.00 20.00    -0.021 C 
HETATM    5  C6  UNL     1     -34.245   4.848   4.319  1.00 20.00     0.033 C 
HETATM    6  C7  UNL     1     -34.066   7.298   4.077  1.00 20.00     0.026 A 
HETATM    7  C8  UNL     1     -33.272   6.965   2.861  1.00 20.00     0.085 A 
HETATM    8  C9  UNL     1     -33.320   5.964   3.977  1.00 20.00     0.011 A 
ENDROOT
BRANCH   7   9
HETATM    9  C5  UNL     1     -32.028   7.697   2.590  1.00 20.00     0.224 C 
HETATM   10  O10 UNL     1     -31.161   7.835   3.447  1.00 20.00    -0.279 OA
HETATM   11 CL11 UNL     1     -31.970   8.310   0.965  1.00 20.00    -0.043 Cl
ENDBRANCH   7   9
TORSDOF 1
ENDMDL
MODEL 4
REMARK VINA RESULT:      -4.1      9.778     10.675
REMARK  1 active torsions:
REMARK  status: ('A' for Active; 'I' for Inactive)
REMARK    1  A    between atoms: C5_5  and  C8_8 
ROOT
HETATM    1  C1  UNL     1     -42.540  14.919   8.698  1.00 20.00    -0.004 C 
HETATM    2  C2  UNL     1     -41.093  15.041   8.531  1.00 20.00    -0.004 C 
HETATM    3  C3  UNL     1     -43.417  14.094   8.086  1.00 20.00    -0.026 C 
HETATM    4  C4  UNL     1     -40.389  14.653   7.449  1.00 20.00    -0.021 C 
HETATM    5  C6  UNL     1     -43.161  13.031   7.026  1.00 20.00     0.033 C 
HETATM    6  C7  UNL     1     -41.021  14.020   6.295  1.00 20.00     0.026 A 
HETATM    7  C8  UNL     1     -40.833  12.717   5.599  1.00 20.00     0.085 A 
HETATM    8  C9  UNL     1     -41.713  12.756   6.813  1.00 20.00     0.011 A 
ENDROOT
BRANCH   7   9
HETATM    9  C5  UNL     1     -39.527  12.047   5.665  1.00 20.00     0.224 C 
HETATM   10  O10 UNL     1     -38.988  11.789   6.737  1.00 20.00    -0.279 OA
HETATM   11 CL11 UNL     1     -38.892  11.695   4.087  1.00 20.00    -0.043 Cl
ENDBRANCH   7   9
TORSDOF 1
ENDMDL
MODEL 5
REMARK VINA RESULT:      -4.1     11.850     12.408
REMARK  1 active torsions:
REMARK  status: ('A' for Active; 'I' for Inactive)
REMARK    1  A    between atoms: C5_5  and  C8_8 
ROOT
HETATM    1  C1  UNL     1     -32.841  19.224   1.408  1.00 20.00    -0.004 C 
HETATM    2  C2  UNL     1     -34.124  19.230   0.708  1.00 20.00    -0.004 C 
HETATM    3  C3  UNL     1     -31.620  18.836   0.979  1.00 20.00    -0.026 C 
HETATM    4  C4  UNL     1     -34.442  18.473  -0.362  1.00 20.00    -0.021 C 
HETATM    5  C6  UNL     1     -31.208  18.281  -0.378  1.00 20.00     0.033 C 
HETATM    6  C7  UNL     1     -33.489  17.552  -0.974  1.00 20.00     0.026 A 
HETATM    7  C8  UNL     1     -32.921  17.410  -2.344  1.00 20.00     0.085 A 
HETATM    8  C9  UNL     1     -32.282  18.390  -1.404  1.00 20.00     0.011 A 
ENDROOT
BRANCH   7   9
HETATM    9  C5  UNL     1     -33.690  17.898  -3.496  1.00 20.00     0.224 C 
HETATM   10  O10 UNL     1     -34.746  17.374  -3.835  1.00 20.00    -0.279 OA
HETATM   11 CL11 UNL     1     -32.923  19.253  -4.268  1.00 20.00    -0.043 Cl
ENDBRANCH   7   9
TORSDOF 1
ENDMDL
MODEL 6
REMARK VINA RESULT:      -4.1     11.875     12.190
REMARK  1 active torsions:
REMARK  status: ('A' for Active; 'I' for Inactive)
REMARK    1  A    between atoms: C5_5  and  C8_8 
ROOT
HETATM    1  C1  UNL     1     -31.744  19.026   1.888  1.00 20.00    -0.004 C 
HETATM    2  C2  UNL     1     -30.989  18.510   0.748  1.00 20.00    -0.004 C 
HETATM    3  C3  UNL     1     -33.070  19.246   2.023  1.00 20.00    -0.026 C 
HETATM    4  C4  UNL     1     -31.391  18.533  -0.539  1.00 20.00    -0.021 C 
HETATM    5  C6  UNL     1     -34.190  19.021   1.016  1.00 20.00     0.033 C 
HETATM    6  C7  UNL     1     -32.686  19.073  -0.940  1.00 20.00     0.026 A 
HETATM    7  C8  UNL     1     -33.861  18.512  -1.665  1.00 20.00     0.085 A 
HETATM    8  C9  UNL     1     -33.749  18.266  -0.189  1.00 20.00     0.011 A 
ENDROOT
BRANCH   7   9
HETATM    9  C5  UNL     1     -33.663  17.403  -2.607  1.00 20.00     0.224 C 
HETATM   10  O10 UNL     1     -33.550  16.243  -2.223  1.00 20.00    -0.279 OA
HETATM   11 CL11 UNL     1     -33.612  17.947  -4.257  1.00 20.00    -0.043 Cl
ENDBRANCH   7   9
TORSDOF 1
ENDMDL
MODEL 7
REMARK VINA RESULT:      -4.1     11.561     12.743
REMARK  1 active torsions:
REMARK  status: ('A' for Active; 'I' for Inactive)
REMARK    1  A    between atoms: C5_5  and  C8_8 
ROOT
HETATM    1  C1  UNL     1     -34.251  17.947  -1.708  1.00 20.00    -0.004 C 
HETATM    2  C2  UNL     1     -33.481  16.766  -2.092  1.00 20.00    -0.004 C 
HETATM    3  C3  UNL     1     -35.168  18.650  -2.408  1.00 20.00    -0.026 C 
HETATM    4  C4  UNL     1     -33.215  16.374  -3.355  1.00 20.00    -0.021 C 
HETATM    5  C6  UNL     1     -35.681  18.422  -3.824  1.00 20.00     0.033 C 
HETATM    6  C7  UNL     1     -33.713  17.104  -4.517  1.00 20.00     0.026 A 
HETATM    7  C8  UNL     1     -34.562  16.735  -5.684  1.00 20.00     0.085 A 
HETATM    8  C9  UNL     1     -35.239  17.123  -4.403  1.00 20.00     0.011 A 
ENDROOT
BRANCH   7   9
HETATM    9  C5  UNL     1     -34.599  15.338  -6.135  1.00 20.00     0.224 C 
HETATM   10  O10 UNL     1     -33.827  14.917  -6.992  1.00 20.00    -0.279 OA
HETATM   11 CL11 UNL     1     -35.830  14.419  -5.324  1.00 20.00    -0.043 Cl
ENDBRANCH   7   9
TORSDOF 1
ENDMDL
MODEL 8
REMARK VINA RESULT:      -4.0     11.475     12.516
REMARK  1 active torsions:
REMARK  status: ('A' for Active; 'I' for Inactive)
REMARK    1  A    between atoms: C5_5  and  C8_8 
ROOT
HETATM    1  C1  UNL     1     -35.467  16.121  -5.443  1.00 20.00    -0.004 C 
HETATM    2  C2  UNL     1     -35.656  17.404  -4.768  1.00 20.00    -0.004 C 
HETATM    3  C3  UNL     1     -34.598  15.121  -5.178  1.00 20.00    -0.026 C 
HETATM    4  C4  UNL     1     -34.740  18.037  -4.007  1.00 20.00    -0.021 C 
HETATM    5  C6  UNL     1     -33.541  15.028  -4.085  1.00 20.00     0.033 C 
HETATM    6  C7  UNL     1     -33.421  17.469  -3.744  1.00 20.00     0.026 A 
HETATM    7  C8  UNL     1     -32.680  17.105  -2.504  1.00 20.00     0.085 A 
HETATM    8  C9  UNL     1     -33.652  16.114  -3.072  1.00 20.00     0.011 A 
ENDROOT
BRANCH   7   9
HETATM    9  C5  UNL     1     -32.993  17.799  -1.248  1.00 20.00     0.224 C 
HETATM   10  O10 UNL     1     -34.093  17.698  -0.714  1.00 20.00    -0.279 OA
HETATM   11 CL11 UNL     1     -31.651  18.734  -0.664  1.00 20.00    -0.043 Cl
ENDBRANCH   7   9
TORSDOF 1
ENDMDL
MODEL 9
REMARK VINA RESULT:      -4.0     11.592     13.016
REMARK  1 active torsions:
REMARK  status: ('A' for Active; 'I' for Inactive)
REMARK    1  A    between atoms: C5_5  and  C8_8 
ROOT
HETATM    1  C1  UNL     1     -33.055  17.658  -2.686  1.00 20.00    -0.004 C 
HETATM    2  C2  UNL     1     -33.494  16.264  -2.664  1.00 20.00    -0.004 C 
HETATM    3  C3  UNL     1     -33.263  18.619  -3.612  1.00 20.00    -0.026 C 
HETATM    4  C4  UNL     1     -33.841  15.530  -3.740  1.00 20.00    -0.021 C 
HETATM    5  C6  UNL     1     -34.026  18.538  -4.928  1.00 20.00     0.033 C 
HETATM    6  C7  UNL     1     -33.842  16.083  -5.091  1.00 20.00     0.026 A 
HETATM    7  C8  UNL     1     -34.882  16.229  -6.148  1.00 20.00     0.085 A 
HETATM    8  C9  UNL     1     -34.801  17.276  -5.077  1.00 20.00     0.011 A 
ENDROOT
BRANCH   7   9
HETATM    9  C5  UNL     1     -36.017  15.298  -6.176  1.00 20.00     0.224 C 
HETATM   10  O10 UNL     1     -35.953  14.220  -6.760  1.00 20.00    -0.279 OA
HETATM   11 CL11 UNL     1     -37.390  15.914  -5.308  1.00 20.00    -0.043 Cl
ENDBRANCH   7   9
TORSDOF 1
ENDMDL
