MODEL 1
REMARK VINA RESULT:      -6.2      0.000      0.000
REMARK  0 active torsions:
REMARK  status: ('A' for Active; 'I' for Inactive)
ROOT
HETATM    1  C1  UNL     1     -34.267   6.722   6.301  1.00 20.00     0.031 A 
HETATM    2  C2  UNL     1     -33.011   8.387   5.013  1.00 20.00    -0.014 A 
HETATM    3  C3  UNL     1     -32.784   6.506   2.880  1.00 20.00    -0.013 A 
HETATM    4  C4  UNL     1     -34.790   5.483   6.322  1.00 20.00     0.117 A 
HETATM    5  C5  UNL     1     -34.080   4.906   4.228  1.00 20.00     0.128 A 
HETATM    6  C6  UNL     1     -33.552   7.160   5.118  1.00 20.00    -0.027 A 
HETATM    7  C7  UNL     1     -33.431   6.228   4.015  1.00 20.00    -0.012 A 
HETATM    8  C8  UNL     1     -32.277   8.861   3.789  1.00 20.00     0.032 A 
HETATM    9  C9  UNL     1     -32.115   7.832   2.654  1.00 20.00     0.032 A 
HETATM   10  N10 UNL     1     -34.717   4.552   5.304  1.00 20.00    -0.272 NA
ENDROOT
TORSDOF 0
ENDMDL
MODEL 2
REMARK VINA RESULT:      -5.9      1.671      3.495
REMARK  0 active torsions:
REMARK  status: ('A' for Active; 'I' for Inactive)
ROOT
HETATM    1  C1  UNL     1     -32.720   8.618   4.835  1.00 20.00     0.031 A 
HETATM    2  C2  UNL     1     -34.021   7.084   6.236  1.00 20.00    -0.014 A 
HETATM    3  C3  UNL     1     -34.039   5.204   4.089  1.00 20.00    -0.013 A 
HETATM    4  C4  UNL     1     -32.123   8.816   3.646  1.00 20.00     0.117 A 
HETATM    5  C5  UNL     1     -32.705   6.791   2.763  1.00 20.00     0.128 A 
HETATM    6  C6  UNL     1     -33.411   7.364   5.071  1.00 20.00    -0.027 A 
HETATM    7  C7  UNL     1     -33.425   6.387   4.000  1.00 20.00    -0.012 A 
HETATM    8  C8  UNL     1     -34.731   5.784   6.500  1.00 20.00     0.032 A 
HETATM    9  C9  UNL     1     -34.779   4.786   5.327  1.00 20.00     0.032 A 
HETATM   10  N10 UNL     1     -32.094   7.925   2.592  1.00 20.00    -0.272 NA
ENDROOT
TORSDOF 0
ENDMDL
MODEL 3
REMARK VINA RESULT:      -5.9      1.787      4.074
REMARK  0 active torsions:
REMARK  status: ('A' for Active; 'I' for Inactive)
ROOT
HETATM    1  C1  UNL     1     -32.566   7.226   2.928  1.00 20.00     0.031 A 
HETATM    2  C2  UNL     1     -33.837   5.356   3.877  1.00 20.00    -0.014 A 
HETATM    3  C3  UNL     1     -34.125   6.835   6.301  1.00 20.00    -0.013 A 
HETATM    4  C4  UNL     1     -32.080   8.464   3.125  1.00 20.00     0.117 A 
HETATM    5  C5  UNL     1     -32.868   8.677   5.259  1.00 20.00     0.128 A 
HETATM    6  C6  UNL     1     -33.308   6.586   3.999  1.00 20.00    -0.027 A 
HETATM    7  C7  UNL     1     -33.478   7.320   5.237  1.00 20.00    -0.012 A 
HETATM    8  C8  UNL     1     -34.617   4.684   4.973  1.00 20.00     0.032 A 
HETATM    9  C9  UNL     1     -34.736   5.463   6.298  1.00 20.00     0.032 A 
HETATM   10  N10 UNL     1     -32.214   9.217   4.275  1.00 20.00    -0.272 NA
ENDROOT
TORSDOF 0
ENDMDL
MODEL 4
REMARK VINA RESULT:      -5.8      0.728      2.125
REMARK  0 active torsions:
REMARK  status: ('A' for Active; 'I' for Inactive)
ROOT
HETATM    1  C1  UNL     1     -34.254   4.969   4.532  1.00 20.00     0.031 A 
HETATM    2  C2  UNL     1     -32.948   6.264   2.911  1.00 20.00    -0.014 A 
HETATM    3  C3  UNL     1     -32.858   8.426   4.772  1.00 20.00    -0.013 A 
HETATM    4  C4  UNL     1     -34.808   4.941   5.757  1.00 20.00     0.117 A 
HETATM    5  C5  UNL     1     -34.143   7.044   6.352  1.00 20.00     0.128 A 
HETATM    6  C6  UNL     1     -33.540   6.161   4.114  1.00 20.00    -0.027 A 
HETATM    7  C7  UNL     1     -33.470   7.270   5.045  1.00 20.00    -0.012 A 
HETATM    8  C8  UNL     1     -32.195   7.488   2.467  1.00 20.00     0.032 A 
HETATM    9  C9  UNL     1     -32.183   8.673   3.453  1.00 20.00     0.032 A 
HETATM   10  N10 UNL     1     -34.770   5.957   6.691  1.00 20.00    -0.272 NA
ENDROOT
TORSDOF 0
ENDMDL
MODEL 5
REMARK VINA RESULT:      -4.8      1.229      2.035
REMARK  0 active torsions:
REMARK  status: ('A' for Active; 'I' for Inactive)
ROOT
HETATM    1  C1  UNL     1     -34.440   5.258   5.000  1.00 20.00     0.031 A 
HETATM    2  C2  UNL     1     -34.038   7.499   5.909  1.00 20.00    -0.014 A 
HETATM    3  C3  UNL     1     -32.300   8.035   3.710  1.00 20.00    -0.013 A 
HETATM    4  C4  UNL     1     -34.181   4.389   4.007  1.00 20.00     0.117 A 
HETATM    5  C5  UNL     1     -32.785   5.780   2.851  1.00 20.00     0.128 A 
HETATM    6  C6  UNL     1     -33.820   6.570   4.962  1.00 20.00    -0.027 A 
HETATM    7  C7  UNL     1     -32.941   6.871   3.850  1.00 20.00    -0.012 A 
HETATM    8  C8  UNL     1     -33.412   8.867   5.878  1.00 20.00     0.032 A 
HETATM    9  C9  UNL     1     -32.439   9.142   4.715  1.00 20.00     0.032 A 
HETATM   10  N10 UNL     1     -33.362   4.618   2.919  1.00 20.00    -0.272 NA
ENDROOT
TORSDOF 0
ENDMDL
MODEL 6
REMARK VINA RESULT:      -4.7      1.866      3.167
REMARK  0 active torsions:
REMARK  status: ('A' for Active; 'I' for Inactive)
ROOT
HETATM    1  C1  UNL     1     -34.054   7.518   5.950  1.00 20.00     0.031 A 
HETATM    2  C2  UNL     1     -34.320   5.344   4.847  1.00 20.00    -0.014 A 
HETATM    3  C3  UNL     1     -32.550   6.219   2.787  1.00 20.00    -0.013 A 
HETATM    4  C4  UNL     1     -33.460   8.723   5.920  1.00 20.00     0.117 A 
HETATM    5  C5  UNL     1     -32.315   8.360   3.977  1.00 20.00     0.128 A 
HETATM    6  C6  UNL     1     -33.777   6.574   4.883  1.00 20.00    -0.027 A 
HETATM    7  C7  UNL     1     -32.872   6.989   3.830  1.00 20.00    -0.012 A 
HETATM    8  C8  UNL     1     -34.034   4.351   3.755  1.00 20.00     0.032 A 
HETATM    9  C9  UNL     1     -33.113   4.837   2.619  1.00 20.00     0.032 A 
HETATM   10  N10 UNL     1     -32.585   9.176   4.952  1.00 20.00    -0.272 NA
ENDROOT
TORSDOF 0
ENDMDL
MODEL 7
REMARK VINA RESULT:      -4.7      1.079      2.604
REMARK  0 active torsions:
REMARK  status: ('A' for Active; 'I' for Inactive)
ROOT
HETATM    1  C1  UNL     1     -32.566   6.043   2.683  1.00 20.00     0.031 A 
HETATM    2  C2  UNL     1     -32.231   8.191   3.816  1.00 20.00    -0.014 A 
HETATM    3  C3  UNL     1     -34.066   7.364   5.839  1.00 20.00    -0.013 A 
HETATM    4  C4  UNL     1     -33.184   4.849   2.706  1.00 20.00     0.117 A 
HETATM    5  C5  UNL     1     -34.318   5.221   4.654  1.00 20.00     0.128 A 
HETATM    6  C6  UNL     1     -32.819   6.983   3.759  1.00 20.00    -0.027 A 
HETATM    7  C7  UNL     1     -33.739   6.583   4.806  1.00 20.00    -0.012 A 
HETATM    8  C8  UNL     1     -32.474   9.172   4.930  1.00 20.00     0.032 A 
HETATM    9  C9  UNL     1     -33.498   8.745   6.000  1.00 20.00     0.032 A 
HETATM   10  N10 UNL     1     -34.063   4.406   3.675  1.00 20.00    -0.272 NA
ENDROOT
TORSDOF 0
ENDMDL
MODEL 8
REMARK VINA RESULT:      -4.0     12.390     13.507
REMARK  0 active torsions:
REMARK  status: ('A' for Active; 'I' for Inactive)
ROOT
HETATM    1  C1  UNL     1     -33.300  15.154  -4.148  1.00 20.00     0.031 A 
HETATM    2  C2  UNL     1     -33.363  16.635  -2.195  1.00 20.00    -0.014 A 
HETATM    3  C3  UNL     1     -35.078  18.400  -3.640  1.00 20.00    -0.013 A 
HETATM    4  C4  UNL     1     -33.732  14.936  -5.403  1.00 20.00     0.117 A 
HETATM    5  C5  UNL     1     -34.986  16.840  -5.542  1.00 20.00     0.128 A 
HETATM    6  C6  UNL     1     -33.738  16.351  -3.455  1.00 20.00    -0.027 A 
HETATM    7  C7  UNL     1     -34.619  17.259  -4.162  1.00 20.00    -0.012 A 
HETATM    8  C8  UNL     1     -33.817  17.865  -1.459  1.00 20.00     0.032 A 
HETATM    9  C9  UNL     1     -34.708  18.841  -2.253  1.00 20.00     0.032 A 
HETATM   10  N10 UNL     1     -34.575  15.756  -6.127  1.00 20.00    -0.272 NA
ENDROOT
TORSDOF 0
ENDMDL
MODEL 9
REMARK VINA RESULT:      -3.9     12.275     13.471
REMARK  0 active torsions:
REMARK  status: ('A' for Active; 'I' for Inactive)
ROOT
HETATM    1  C1  UNL     1     -35.051  16.772  -5.570  1.00 20.00     0.031 A 
HETATM    2  C2  UNL     1     -35.164  18.311  -3.665  1.00 20.00    -0.014 A 
HETATM    3  C3  UNL     1     -33.353  16.623  -2.246  1.00 20.00    -0.013 A 
HETATM    4  C4  UNL     1     -34.515  15.643  -6.068  1.00 20.00     0.117 A 
HETATM    5  C5  UNL     1     -33.272  15.149  -4.216  1.00 20.00     0.128 A 
HETATM    6  C6  UNL     1     -34.683  17.189  -4.230  1.00 20.00    -0.027 A 
HETATM    7  C7  UNL     1     -33.756  16.355  -3.491  1.00 20.00    -0.012 A 
HETATM    8  C8  UNL     1     -34.784  18.763  -2.282  1.00 20.00     0.032 A 
HETATM    9  C9  UNL     1     -33.840  17.830  -1.498  1.00 20.00     0.032 A 
HETATM   10  N10 UNL     1     -33.623  14.811  -5.420  1.00 20.00    -0.272 NA
ENDROOT
TORSDOF 0
ENDMDL
