MODEL 1
REMARK VINA RESULT:      -4.1      0.000      0.000
REMARK  0 active torsions:
REMARK  status: ('A' for Active; 'I' for Inactive)
ROOT
HETATM    1  C1  UNL     1     -32.196   8.919   4.703  1.00 20.00     0.089 C 
HETATM    2  C2  UNL     1     -33.267   6.776   4.456  1.00 20.00     0.017 C 
HETATM    3  C3  UNL     1     -32.502   7.754   3.956  1.00 20.00     0.118 C 
HETATM    4  C4  UNL     1     -33.857   6.836   5.844  1.00 20.00     0.059 C 
HETATM    5  C5  UNL     1     -34.983   5.800   5.774  1.00 20.00     0.026 C 
HETATM    6  C6  UNL     1     -34.510   4.783   4.733  1.00 20.00     0.122 C 
HETATM    7  C7  UNL     1     -33.214   5.057   2.600  1.00 20.00     0.149 C 
HETATM    8  N8  UNL     1     -31.942   9.875   5.311  1.00 20.00    -0.192 NA
HETATM    9  N9  UNL     1     -33.670   5.593   3.862  1.00 20.00    -0.388 N 
ENDROOT
TORSDOF 0
ENDMDL
MODEL 2
REMARK VINA RESULT:      -3.8      1.672      2.665
REMARK  0 active torsions:
REMARK  status: ('A' for Active; 'I' for Inactive)
ROOT
HETATM    1  C1  UNL     1     -32.318   7.909   2.561  1.00 20.00     0.089 C 
HETATM    2  C2  UNL     1     -33.474   6.757   4.332  1.00 20.00     0.017 C 
HETATM    3  C3  UNL     1     -32.804   7.829   3.890  1.00 20.00     0.118 C 
HETATM    4  C4  UNL     1     -33.763   5.562   3.457  1.00 20.00     0.059 C 
HETATM    5  C5  UNL     1     -34.085   4.469   4.479  1.00 20.00     0.026 C 
HETATM    6  C6  UNL     1     -34.658   5.219   5.683  1.00 20.00     0.122 C 
HETATM    7  C7  UNL     1     -34.086   7.448   6.688  1.00 20.00     0.149 C 
HETATM    8  N8  UNL     1     -31.918   7.981   1.474  1.00 20.00    -0.192 NA
HETATM    9  N9  UNL     1     -33.999   6.514   5.589  1.00 20.00    -0.388 N 
ENDROOT
TORSDOF 0
ENDMDL
MODEL 3
REMARK VINA RESULT:      -3.7      1.422      3.461
REMARK  0 active torsions:
REMARK  status: ('A' for Active; 'I' for Inactive)
ROOT
HETATM    1  C1  UNL     1     -32.914   5.150   2.381  1.00 20.00     0.089 C 
HETATM    2  C2  UNL     1     -33.428   6.428   4.358  1.00 20.00     0.017 C 
HETATM    3  C3  UNL     1     -32.756   6.291   3.207  1.00 20.00     0.118 C 
HETATM    4  C4  UNL     1     -34.399   5.387   4.859  1.00 20.00     0.059 C 
HETATM    5  C5  UNL     1     -34.523   5.733   6.346  1.00 20.00     0.026 C 
HETATM    6  C6  UNL     1     -34.262   7.239   6.416  1.00 20.00     0.122 C 
HETATM    7  C7  UNL     1     -32.703   8.726   5.127  1.00 20.00     0.149 C 
HETATM    8  N8  UNL     1     -33.040   4.218   1.701  1.00 20.00    -0.192 NA
HETATM    9  N9  UNL     1     -33.381   7.459   5.279  1.00 20.00    -0.388 N 
ENDROOT
TORSDOF 0
ENDMDL
MODEL 4
REMARK VINA RESULT:      -3.7     11.948     13.551
REMARK  0 active torsions:
REMARK  status: ('A' for Active; 'I' for Inactive)
ROOT
HETATM    1  C1  UNL     1     -34.200  14.884  -4.284  1.00 20.00     0.089 C 
HETATM    2  C2  UNL     1     -33.553  17.105  -3.613  1.00 20.00     0.017 C 
HETATM    3  C3  UNL     1     -33.887  16.236  -4.576  1.00 20.00     0.118 C 
HETATM    4  C4  UNL     1     -33.489  16.718  -2.156  1.00 20.00     0.059 C 
HETATM    5  C5  UNL     1     -32.637  17.837  -1.550  1.00 20.00     0.026 C 
HETATM    6  C6  UNL     1     -32.903  19.053  -2.440  1.00 20.00     0.122 C 
HETATM    7  C7  UNL     1     -33.287  19.260  -4.912  1.00 20.00     0.149 C 
HETATM    8  N8  UNL     1     -34.459  13.777  -4.052  1.00 20.00    -0.192 NA
HETATM    9  N9  UNL     1     -33.208  18.441  -3.725  1.00 20.00    -0.388 N 
ENDROOT
TORSDOF 0
ENDMDL
MODEL 5
REMARK VINA RESULT:      -3.7     15.871     16.571
REMARK  0 active torsions:
REMARK  status: ('A' for Active; 'I' for Inactive)
ROOT
HETATM    1  C1  UNL     1     -24.102  19.208   7.737  1.00 20.00     0.089 C 
HETATM    2  C2  UNL     1     -23.968  18.774  10.103  1.00 20.00     0.017 C 
HETATM    3  C3  UNL     1     -24.680  19.143   9.030  1.00 20.00     0.118 C 
HETATM    4  C4  UNL     1     -22.508  18.400  10.019  1.00 20.00     0.059 C 
HETATM    5  C5  UNL     1     -22.045  18.532  11.473  1.00 20.00     0.026 C 
HETATM    6  C6  UNL     1     -23.294  18.241  12.306  1.00 20.00     0.122 C 
HETATM    7  C7  UNL     1     -25.716  18.789  11.932  1.00 20.00     0.149 C 
HETATM    8  N8  UNL     1     -23.635  19.262   6.676  1.00 20.00    -0.192 NA
HETATM    9  N9  UNL     1     -24.368  18.673  11.423  1.00 20.00    -0.388 N 
ENDROOT
TORSDOF 0
ENDMDL
MODEL 6
REMARK VINA RESULT:      -3.5     12.628     13.998
REMARK  0 active torsions:
REMARK  status: ('A' for Active; 'I' for Inactive)
ROOT
HETATM    1  C1  UNL     1     -35.975  15.329  -7.151  1.00 20.00     0.089 C 
HETATM    2  C2  UNL     1     -34.786  16.103  -5.204  1.00 20.00     0.017 C 
HETATM    3  C3  UNL     1     -35.629  16.339  -6.218  1.00 20.00     0.118 C 
HETATM    4  C4  UNL     1     -34.146  14.756  -4.977  1.00 20.00     0.059 C 
HETATM    5  C5  UNL     1     -32.964  15.096  -4.065  1.00 20.00     0.026 C 
HETATM    6  C6  UNL     1     -33.415  16.337  -3.292  1.00 20.00     0.122 C 
HETATM    7  C7  UNL     1     -34.809  18.312  -3.970  1.00 20.00     0.149 C 
HETATM    8  N8  UNL     1     -36.262  14.506  -7.918  1.00 20.00    -0.192 NA
HETATM    9  N9  UNL     1     -34.337  16.970  -4.224  1.00 20.00    -0.388 N 
ENDROOT
TORSDOF 0
ENDMDL
MODEL 7
REMARK VINA RESULT:      -3.5     12.587     12.870
REMARK  0 active torsions:
REMARK  status: ('A' for Active; 'I' for Inactive)
ROOT
HETATM    1  C1  UNL     1     -30.282  18.836   2.711  1.00 20.00     0.089 C 
HETATM    2  C2  UNL     1     -32.134  18.852   1.170  1.00 20.00     0.017 C 
HETATM    3  C3  UNL     1     -31.666  18.940   2.423  1.00 20.00     0.118 C 
HETATM    4  C4  UNL     1     -31.231  18.639  -0.020  1.00 20.00     0.059 C 
HETATM    5  C5  UNL     1     -32.203  18.138  -1.092  1.00 20.00     0.026 C 
HETATM    6  C6  UNL     1     -33.546  18.772  -0.724  1.00 20.00     0.122 C 
HETATM    7  C7  UNL     1     -34.609  19.263   1.498  1.00 20.00     0.149 C 
HETATM    8  N8  UNL     1     -29.150  18.753   2.954  1.00 20.00    -0.192 NA
HETATM    9  N9  UNL     1     -33.440  18.917   0.721  1.00 20.00    -0.388 N 
ENDROOT
TORSDOF 0
ENDMDL
MODEL 8
REMARK VINA RESULT:      -3.5     12.218     13.430
REMARK  0 active torsions:
REMARK  status: ('A' for Active; 'I' for Inactive)
ROOT
HETATM    1  C1  UNL     1     -32.916  18.634  -2.754  1.00 20.00     0.089 C 
HETATM    2  C2  UNL     1     -33.970  17.015  -4.192  1.00 20.00     0.017 C 
HETATM    3  C3  UNL     1     -33.846  18.277  -3.762  1.00 20.00     0.118 C 
HETATM    4  C4  UNL     1     -33.134  15.884  -3.642  1.00 20.00     0.059 C 
HETATM    5  C5  UNL     1     -33.934  14.646  -4.056  1.00 20.00     0.026 C 
HETATM    6  C6  UNL     1     -34.665  15.064  -5.333  1.00 20.00     0.122 C 
HETATM    7  C7  UNL     1     -35.692  17.246  -6.031  1.00 20.00     0.149 C 
HETATM    8  N8  UNL     1     -32.156  18.933  -1.929  1.00 20.00    -0.192 NA
HETATM    9  N9  UNL     1     -34.828  16.498  -5.146  1.00 20.00    -0.388 N 
ENDROOT
TORSDOF 0
ENDMDL
MODEL 9
REMARK VINA RESULT:      -3.4      1.789      2.572
REMARK  0 active torsions:
REMARK  status: ('A' for Active; 'I' for Inactive)
ROOT
HETATM    1  C1  UNL     1     -32.349   7.447   2.004  1.00 20.00     0.089 C 
HETATM    2  C2  UNL     1     -33.325   6.889   4.135  1.00 20.00     0.017 C 
HETATM    3  C3  UNL     1     -33.036   6.558   2.870  1.00 20.00     0.118 C 
HETATM    4  C4  UNL     1     -32.945   8.222   4.733  1.00 20.00     0.059 C 
HETATM    5  C5  UNL     1     -33.867   8.317   5.951  1.00 20.00     0.026 C 
HETATM    6  C6  UNL     1     -34.119   6.865   6.362  1.00 20.00     0.122 C 
HETATM    7  C7  UNL     1     -34.400   4.771   5.006  1.00 20.00     0.149 C 
HETATM    8  N8  UNL     1     -31.787   8.169   1.291  1.00 20.00    -0.192 NA
HETATM    9  N9  UNL     1     -33.995   6.154   5.097  1.00 20.00    -0.388 N 
ENDROOT
TORSDOF 0
ENDMDL
