MODEL 1
REMARK VINA RESULT:      -4.0      0.000      0.000
REMARK  1 active torsions:
REMARK  status: ('A' for Active; 'I' for Inactive)
REMARK    1  A    between atoms: C1_1  and  C5_5 
ROOT
HETATM    1  C2  UNL     1     -24.262  16.837  10.642  1.00 20.00     0.026 C 
HETATM    2  C3  UNL     1     -24.575  18.830   9.972  1.00 20.00     0.026 C 
HETATM    3  C4  UNL     1     -23.260  18.449  11.599  1.00 20.00     0.026 C 
HETATM    4  C5  UNL     1     -23.312  17.949  10.135  1.00 20.00     0.022 C 
HETATM    5  C6  UNL     1     -24.796  18.134  11.377  1.00 20.00    -0.041 C 
HETATM    6  C8  UNL     1     -25.924  18.274  12.322  1.00 20.00     0.015 C 
ENDROOT
BRANCH   4   7
HETATM    7  C1  UNL     1     -22.179  17.807   9.182  1.00 20.00     0.131 C 
HETATM    8  C7  UNL     1     -21.295  19.009   8.996  1.00 20.00     0.091 C 
HETATM    9  O9  UNL     1     -21.974  16.756   8.576  1.00 20.00    -0.298 OA
ENDBRANCH   4   7
TORSDOF 1
ENDMDL
MODEL 2
REMARK VINA RESULT:      -3.8     17.698     18.691
REMARK  1 active torsions:
REMARK  status: ('A' for Active; 'I' for Inactive)
REMARK    1  A    between atoms: C1_1  and  C5_5 
ROOT
HETATM    1  C2  UNL     1     -40.795  14.404   6.869  1.00 20.00     0.026 C 
HETATM    2  C3  UNL     1     -42.120  12.748   6.712  1.00 20.00     0.026 C 
HETATM    3  C4  UNL     1     -41.528  13.807   4.965  1.00 20.00     0.026 C 
HETATM    4  C5  UNL     1     -40.743  13.073   6.080  1.00 20.00     0.022 C 
HETATM    5  C6  UNL     1     -42.263  14.268   6.290  1.00 20.00    -0.041 C 
HETATM    6  C8  UNL     1     -43.417  15.177   6.449  1.00 20.00     0.015 C 
ENDROOT
BRANCH   4   7
HETATM    7  C1  UNL     1     -39.581  12.158   5.922  1.00 20.00     0.131 C 
HETATM    8  C7  UNL     1     -39.254  11.714   4.523  1.00 20.00     0.091 C 
HETATM    9  O9  UNL     1     -38.919  11.785   6.889  1.00 20.00    -0.298 OA
ENDBRANCH   4   7
TORSDOF 1
ENDMDL
MODEL 3
REMARK VINA RESULT:      -3.8      1.682      3.679
REMARK  1 active torsions:
REMARK  status: ('A' for Active; 'I' for Inactive)
REMARK    1  A    between atoms: C1_1  and  C5_5 
ROOT
HETATM    1  C2  UNL     1     -22.821  17.097   9.794  1.00 20.00     0.026 C 
HETATM    2  C3  UNL     1     -22.409  18.470  11.364  1.00 20.00     0.026 C 
HETATM    3  C4  UNL     1     -23.894  18.929   9.912  1.00 20.00     0.026 C 
HETATM    4  C5  UNL     1     -23.695  17.748  10.894  1.00 20.00     0.022 C 
HETATM    5  C6  UNL     1     -22.348  18.609   9.788  1.00 20.00    -0.041 C 
HETATM    6  C8  UNL     1     -21.324  19.263   8.947  1.00 20.00     0.015 C 
ENDROOT
BRANCH   4   7
HETATM    7  C1  UNL     1     -24.724  17.088  11.741  1.00 20.00     0.131 C 
HETATM    8  C7  UNL     1     -25.838  17.958  12.256  1.00 20.00     0.091 C 
HETATM    9  O9  UNL     1     -24.667  15.888  12.006  1.00 20.00    -0.298 OA
ENDBRANCH   4   7
TORSDOF 1
ENDMDL
MODEL 4
REMARK VINA RESULT:      -3.8     14.474     15.461
REMARK  1 active torsions:
REMARK  status: ('A' for Active; 'I' for Inactive)
REMARK    1  A    between atoms: C1_1  and  C5_5 
ROOT
HETATM    1  C2  UNL     1     -34.308  18.645  -1.315  1.00 20.00     0.026 C 
HETATM    2  C3  UNL     1     -33.177  17.027  -2.104  1.00 20.00     0.026 C 
HETATM    3  C4  UNL     1     -32.802  19.011  -2.770  1.00 20.00     0.026 C 
HETATM    4  C5  UNL     1     -32.792  18.338  -1.376  1.00 20.00     0.022 C 
HETATM    5  C6  UNL     1     -34.105  18.111  -2.792  1.00 20.00    -0.041 C 
HETATM    6  C8  UNL     1     -35.102  17.938  -3.869  1.00 20.00     0.015 C 
ENDROOT
BRANCH   4   7
HETATM    7  C1  UNL     1     -31.790  18.510  -0.291  1.00 20.00     0.131 C 
HETATM    8  C7  UNL     1     -32.319  18.579   1.116  1.00 20.00     0.091 C 
HETATM    9  O9  UNL     1     -30.586  18.590  -0.531  1.00 20.00    -0.298 OA
ENDBRANCH   4   7
TORSDOF 1
ENDMDL
MODEL 5
REMARK VINA RESULT:      -3.5     15.129     16.332
REMARK  1 active torsions:
REMARK  status: ('A' for Active; 'I' for Inactive)
REMARK    1  A    between atoms: C1_1  and  C5_5 
ROOT
HETATM    1  C2  UNL     1     -32.619   7.190   3.900  1.00 20.00     0.026 C 
HETATM    2  C3  UNL     1     -33.183   7.302   5.947  1.00 20.00     0.026 C 
HETATM    3  C4  UNL     1     -34.306   8.349   4.475  1.00 20.00     0.026 C 
HETATM    4  C5  UNL     1     -33.925   6.860   4.662  1.00 20.00     0.022 C 
HETATM    5  C6  UNL     1     -32.780   8.414   4.893  1.00 20.00    -0.041 C 
HETATM    6  C8  UNL     1     -31.910   9.595   5.068  1.00 20.00     0.015 C 
ENDROOT
BRANCH   4   7
HETATM    7  C1  UNL     1     -34.799   5.669   4.486  1.00 20.00     0.131 C 
HETATM    8  C7  UNL     1     -34.120   4.326   4.480  1.00 20.00     0.091 C 
HETATM    9  O9  UNL     1     -36.017   5.777   4.354  1.00 20.00    -0.298 OA
ENDBRANCH   4   7
TORSDOF 1
ENDMDL
MODEL 6
REMARK VINA RESULT:      -3.5     14.821     16.101
REMARK  1 active torsions:
REMARK  status: ('A' for Active; 'I' for Inactive)
REMARK    1  A    between atoms: C1_1  and  C5_5 
ROOT
HETATM    1  C2  UNL     1     -34.175   8.205   3.803  1.00 20.00     0.026 C 
HETATM    2  C3  UNL     1     -32.995   6.446   3.617  1.00 20.00     0.026 C 
HETATM    3  C4  UNL     1     -32.256   8.113   4.712  1.00 20.00     0.026 C 
HETATM    4  C5  UNL     1     -33.531   7.243   4.832  1.00 20.00     0.022 C 
HETATM    5  C6  UNL     1     -32.729   7.953   3.209  1.00 20.00    -0.041 C 
HETATM    6  C8  UNL     1     -32.119   8.493   1.976  1.00 20.00     0.015 C 
ENDROOT
BRANCH   4   7
HETATM    7  C1  UNL     1     -34.147   6.699   6.071  1.00 20.00     0.131 C 
HETATM    8  C7  UNL     1     -34.539   5.247   6.051  1.00 20.00     0.091 C 
HETATM    9  O9  UNL     1     -34.326   7.402   7.065  1.00 20.00    -0.298 OA
ENDBRANCH   4   7
TORSDOF 1
ENDMDL
MODEL 7
REMARK VINA RESULT:      -3.5      1.797      3.924
REMARK  1 active torsions:
REMARK  status: ('A' for Active; 'I' for Inactive)
REMARK    1  A    between atoms: C1_1  and  C5_5 
ROOT
HETATM    1  C2  UNL     1     -22.393  17.072   9.204  1.00 20.00     0.026 C 
HETATM    2  C3  UNL     1     -21.297  18.869   9.507  1.00 20.00     0.026 C 
HETATM    3  C4  UNL     1     -23.231  18.938   8.627  1.00 20.00     0.026 C 
HETATM    4  C5  UNL     1     -22.694  18.384   9.969  1.00 20.00     0.022 C 
HETATM    5  C6  UNL     1     -21.897  18.197   8.205  1.00 20.00    -0.041 C 
HETATM    6  C8  UNL     1     -21.292  18.055   6.864  1.00 20.00     0.015 C 
ENDROOT
BRANCH   4   7
HETATM    7  C1  UNL     1     -23.300  18.525  11.319  1.00 20.00     0.131 C 
HETATM    8  C7  UNL     1     -24.803  18.533  11.389  1.00 20.00     0.091 C 
HETATM    9  O9  UNL     1     -22.607  18.630  12.330  1.00 20.00    -0.298 OA
ENDBRANCH   4   7
TORSDOF 1
ENDMDL
MODEL 8
REMARK VINA RESULT:      -3.5     15.202     16.437
REMARK  1 active torsions:
REMARK  status: ('A' for Active; 'I' for Inactive)
REMARK    1  A    between atoms: C1_1  and  C5_5 
ROOT
HETATM    1  C2  UNL     1     -32.907   7.659   5.473  1.00 20.00     0.026 C 
HETATM    2  C3  UNL     1     -34.524   7.852   4.105  1.00 20.00     0.026 C 
HETATM    3  C4  UNL     1     -32.770   6.794   3.536  1.00 20.00     0.026 C 
HETATM    4  C5  UNL     1     -33.775   6.635   4.702  1.00 20.00     0.022 C 
HETATM    5  C6  UNL     1     -33.002   8.283   4.020  1.00 20.00    -0.041 C 
HETATM    6  C8  UNL     1     -32.414   9.536   3.502  1.00 20.00     0.015 C 
ENDROOT
BRANCH   4   7
HETATM    7  C1  UNL     1     -34.369   5.375   5.225  1.00 20.00     0.131 C 
HETATM    8  C7  UNL     1     -34.811   5.381   6.663  1.00 20.00     0.091 C 
HETATM    9  O9  UNL     1     -34.493   4.378   4.516  1.00 20.00    -0.298 OA
ENDBRANCH   4   7
TORSDOF 1
ENDMDL
MODEL 9
REMARK VINA RESULT:      -3.5     23.707     24.608
REMARK  1 active torsions:
REMARK  status: ('A' for Active; 'I' for Inactive)
REMARK    1  A    between atoms: C1_1  and  C5_5 
ROOT
HETATM    1  C2  UNL     1     -41.627   5.456   0.671  1.00 20.00     0.026 C 
HETATM    2  C3  UNL     1     -43.417   5.522  -0.475  1.00 20.00     0.026 C 
HETATM    3  C4  UNL     1     -43.411   6.231   1.530  1.00 20.00     0.026 C 
HETATM    4  C5  UNL     1     -42.591   6.599   0.269  1.00 20.00     0.022 C 
HETATM    5  C6  UNL     1     -43.060   4.821   0.900  1.00 20.00    -0.041 C 
HETATM    6  C8  UNL     1     -43.417   3.470   1.380  1.00 20.00     0.015 C 
ENDROOT
BRANCH   4   7
HETATM    7  C1  UNL     1     -42.230   7.958  -0.216  1.00 20.00     0.131 C 
HETATM    8  C7  UNL     1     -40.811   8.403   0.009  1.00 20.00     0.091 C 
HETATM    9  O9  UNL     1     -43.052   8.683  -0.775  1.00 20.00    -0.298 OA
ENDBRANCH   4   7
TORSDOF 1
ENDMDL
