MODEL 1
REMARK VINA RESULT:      -6.3      0.000      0.000
REMARK  0 active torsions:
REMARK  status: ('A' for Active; 'I' for Inactive)
ROOT
HETATM    1  C1  UNL     1     -32.428   7.545   2.952  1.00 20.00    -0.039 C 
HETATM    2  C2  UNL     1     -33.049   6.232   3.111  1.00 20.00     0.034 C 
HETATM    3  C3  UNL     1     -34.324   5.288   5.086  1.00 20.00     0.224 C 
HETATM    4  C4  UNL     1     -31.875   8.065   1.850  1.00 20.00     0.021 C 
HETATM    5  C5  UNL     1     -32.896   5.161   2.324  1.00 20.00     0.044 C 
HETATM    6  C6  UNL     1     -32.585   8.287   4.270  1.00 20.00     0.065 C 
HETATM    7  C7  UNL     1     -34.673   5.987   6.391  1.00 20.00     0.105 C 
HETATM    8  C8  UNL     1     -33.824   7.270   6.356  1.00 20.00     0.035 C 
HETATM    9  C9  UNL     1     -33.786   7.583   4.877  1.00 20.00     0.098 C 
HETATM   10  N10 UNL     1     -33.759   6.269   4.282  1.00 20.00    -0.313 N 
HETATM   11  O11 UNL     1     -34.511   4.106   4.857  1.00 20.00    -0.273 OA
ENDROOT
TORSDOF 0
ENDMDL
MODEL 2
REMARK VINA RESULT:      -5.1      1.406      2.527
REMARK  0 active torsions:
REMARK  status: ('A' for Active; 'I' for Inactive)
ROOT
HETATM    1  C1  UNL     1     -33.001   5.559   2.819  1.00 20.00    -0.039 C 
HETATM    2  C2  UNL     1     -33.749   5.600   4.074  1.00 20.00     0.034 C 
HETATM    3  C3  UNL     1     -33.884   7.446   5.803  1.00 20.00     0.224 C 
HETATM    4  C4  UNL     1     -33.051   4.626   1.861  1.00 20.00     0.021 C 
HETATM    5  C5  UNL     1     -34.362   4.581   4.686  1.00 20.00     0.044 C 
HETATM    6  C6  UNL     1     -32.180   6.837   2.735  1.00 20.00     0.065 C 
HETATM    7  C7  UNL     1     -33.232   8.819   5.754  1.00 20.00     0.105 C 
HETATM    8  C8  UNL     1     -32.244   8.712   4.580  1.00 20.00     0.035 C 
HETATM    9  C9  UNL     1     -32.965   7.765   3.646  1.00 20.00     0.098 C 
HETATM   10  N10 UNL     1     -33.633   6.874   4.563  1.00 20.00    -0.313 N 
HETATM   11  O11 UNL     1     -34.477   6.990   6.765  1.00 20.00    -0.273 OA
ENDROOT
TORSDOF 0
ENDMDL
MODEL 3
REMARK VINA RESULT:      -5.1      1.192      2.073
REMARK  0 active torsions:
REMARK  status: ('A' for Active; 'I' for Inactive)
ROOT
HETATM    1  C1  UNL     1     -32.629   8.494   4.928  1.00 20.00    -0.039 C 
HETATM    2  C2  UNL     1     -32.668   7.515   3.843  1.00 20.00     0.034 C 
HETATM    3  C3  UNL     1     -33.824   5.264   3.753  1.00 20.00     0.224 C 
HETATM    4  C4  UNL     1     -32.121   9.732   4.902  1.00 20.00     0.021 C 
HETATM    5  C5  UNL     1     -31.921   7.505   2.734  1.00 20.00     0.044 C 
HETATM    6  C6  UNL     1     -33.356   7.886   6.117  1.00 20.00     0.065 C 
HETATM    7  C7  UNL     1     -34.700   4.621   4.818  1.00 20.00     0.105 C 
HETATM    8  C8  UNL     1     -34.474   5.505   6.057  1.00 20.00     0.035 C 
HETATM    9  C9  UNL     1     -34.256   6.867   5.438  1.00 20.00     0.098 C 
HETATM   10  N10 UNL     1     -33.560   6.545   4.216  1.00 20.00    -0.313 N 
HETATM   11  O11 UNL     1     -33.450   4.712   2.733  1.00 20.00    -0.273 OA
ENDROOT
TORSDOF 0
ENDMDL
MODEL 4
REMARK VINA RESULT:      -5.0      1.408      2.479
REMARK  0 active torsions:
REMARK  status: ('A' for Active; 'I' for Inactive)
ROOT
HETATM    1  C1  UNL     1     -32.578   7.212   2.849  1.00 20.00    -0.039 C 
HETATM    2  C2  UNL     1     -32.843   7.744   4.185  1.00 20.00     0.034 C 
HETATM    3  C3  UNL     1     -34.105   6.690   6.111  1.00 20.00     0.224 C 
HETATM    4  C4  UNL     1     -31.797   7.734   1.896  1.00 20.00     0.021 C 
HETATM    5  C5  UNL     1     -32.654   8.998   4.610  1.00 20.00     0.044 C 
HETATM    6  C6  UNL     1     -33.299   5.878   2.738  1.00 20.00     0.065 C 
HETATM    7  C7  UNL     1     -34.736   5.307   6.168  1.00 20.00     0.105 C 
HETATM    8  C8  UNL     1     -34.694   4.827   4.707  1.00 20.00     0.035 C 
HETATM    9  C9  UNL     1     -33.426   5.476   4.198  1.00 20.00     0.098 C 
HETATM   10  N10 UNL     1     -33.411   6.730   4.909  1.00 20.00    -0.313 N 
HETATM   11  O11 UNL     1     -34.231   7.549   6.967  1.00 20.00    -0.273 OA
ENDROOT
TORSDOF 0
ENDMDL
MODEL 5
REMARK VINA RESULT:      -4.7      1.810      4.232
REMARK  0 active torsions:
REMARK  status: ('A' for Active; 'I' for Inactive)
ROOT
HETATM    1  C1  UNL     1     -34.447   5.523   5.792  1.00 20.00    -0.039 C 
HETATM    2  C2  UNL     1     -33.891   6.868   5.654  1.00 20.00     0.034 C 
HETATM    3  C3  UNL     1     -32.621   7.887   3.713  1.00 20.00     0.224 C 
HETATM    4  C4  UNL     1     -35.227   5.053   6.773  1.00 20.00     0.021 C 
HETATM    5  C5  UNL     1     -33.747   7.789   6.613  1.00 20.00     0.044 C 
HETATM    6  C6  UNL     1     -34.048   4.734   4.555  1.00 20.00     0.065 C 
HETATM    7  C7  UNL     1     -32.296   7.248   2.372  1.00 20.00     0.105 C 
HETATM    8  C8  UNL     1     -32.644   5.764   2.582  1.00 20.00     0.035 C 
HETATM    9  C9  UNL     1     -33.805   5.845   3.548  1.00 20.00     0.098 C 
HETATM   10  N10 UNL     1     -33.453   6.984   4.361  1.00 20.00    -0.313 N 
HETATM   11  O11 UNL     1     -32.196   8.965   4.093  1.00 20.00    -0.273 OA
ENDROOT
TORSDOF 0
ENDMDL
MODEL 6
REMARK VINA RESULT:      -4.6      1.299      3.437
REMARK  0 active torsions:
REMARK  status: ('A' for Active; 'I' for Inactive)
ROOT
HETATM    1  C1  UNL     1     -34.115   7.013   5.889  1.00 20.00    -0.039 C 
HETATM    2  C2  UNL     1     -33.897   6.008   4.850  1.00 20.00     0.034 C 
HETATM    3  C3  UNL     1     -32.742   6.241   2.608  1.00 20.00     0.224 C 
HETATM    4  C4  UNL     1     -34.611   6.831   7.118  1.00 20.00     0.021 C 
HETATM    5  C5  UNL     1     -34.450   4.793   4.769  1.00 20.00     0.044 C 
HETATM    6  C6  UNL     1     -33.595   8.339   5.357  1.00 20.00     0.065 C 
HETATM    7  C7  UNL     1     -32.054   7.471   2.036  1.00 20.00     0.105 C 
HETATM    8  C8  UNL     1     -32.482   8.603   2.987  1.00 20.00     0.035 C 
HETATM    9  C9  UNL     1     -32.595   7.879   4.309  1.00 20.00     0.098 C 
HETATM   10  N10 UNL     1     -33.079   6.579   3.912  1.00 20.00    -0.313 N 
HETATM   11  O11 UNL     1     -32.942   5.206   1.995  1.00 20.00    -0.273 OA
ENDROOT
TORSDOF 0
ENDMDL
MODEL 7
REMARK VINA RESULT:      -4.6      1.767      3.494
REMARK  0 active torsions:
REMARK  status: ('A' for Active; 'I' for Inactive)
ROOT
HETATM    1  C1  UNL     1     -34.375   5.915   5.750  1.00 20.00    -0.039 C 
HETATM    2  C2  UNL     1     -33.765   5.843   4.424  1.00 20.00     0.034 C 
HETATM    3  C3  UNL     1     -32.432   7.597   3.174  1.00 20.00     0.224 C 
HETATM    4  C4  UNL     1     -34.961   4.929   6.440  1.00 20.00     0.021 C 
HETATM    5  C5  UNL     1     -33.959   4.904   3.492  1.00 20.00     0.044 C 
HETATM    6  C6  UNL     1     -34.162   7.326   6.275  1.00 20.00     0.065 C 
HETATM    7  C7  UNL     1     -32.028   8.981   3.656  1.00 20.00     0.105 C 
HETATM    8  C8  UNL     1     -32.861   9.179   4.934  1.00 20.00     0.035 C 
HETATM    9  C9  UNL     1     -32.948   7.770   5.476  1.00 20.00     0.098 C 
HETATM   10  N10 UNL     1     -33.013   6.978   4.272  1.00 20.00    -0.313 N 
HETATM   11  O11 UNL     1     -32.268   7.178   2.040  1.00 20.00    -0.273 OA
ENDROOT
TORSDOF 0
ENDMDL
MODEL 8
REMARK VINA RESULT:      -4.5      1.690      3.790
REMARK  0 active torsions:
REMARK  status: ('A' for Active; 'I' for Inactive)
ROOT
HETATM    1  C1  UNL     1     -33.974   7.089   6.162  1.00 20.00    -0.039 C 
HETATM    2  C2  UNL     1     -33.245   7.597   5.002  1.00 20.00     0.034 C 
HETATM    3  C3  UNL     1     -32.712   6.443   2.811  1.00 20.00     0.224 C 
HETATM    4  C4  UNL     1     -34.355   7.764   7.254  1.00 20.00     0.021 C 
HETATM    5  C5  UNL     1     -32.514   8.715   4.928  1.00 20.00     0.044 C 
HETATM    6  C6  UNL     1     -34.313   5.633   5.887  1.00 20.00     0.065 C 
HETATM    7  C7  UNL     1     -33.127   5.050   2.365  1.00 20.00     0.105 C 
HETATM    8  C8  UNL     1     -33.674   4.404   3.650  1.00 20.00     0.035 C 
HETATM    9  C9  UNL     1     -34.275   5.591   4.369  1.00 20.00     0.098 C 
HETATM   10  N10 UNL     1     -33.374   6.659   4.012  1.00 20.00    -0.313 N 
HETATM   11  O11 UNL     1     -31.941   7.168   2.205  1.00 20.00    -0.273 OA
ENDROOT
TORSDOF 0
ENDMDL
MODEL 9
REMARK VINA RESULT:      -4.5      1.725      2.789
REMARK  0 active torsions:
REMARK  status: ('A' for Active; 'I' for Inactive)
ROOT
HETATM    1  C1  UNL     1     -33.224   5.225   2.896  1.00 20.00    -0.039 C 
HETATM    2  C2  UNL     1     -32.781   6.570   3.260  1.00 20.00     0.034 C 
HETATM    3  C3  UNL     1     -33.263   7.904   5.358  1.00 20.00     0.224 C 
HETATM    4  C4  UNL     1     -32.848   4.493   1.840  1.00 20.00     0.021 C 
HETATM    5  C5  UNL     1     -32.196   7.473   2.467  1.00 20.00     0.044 C 
HETATM    6  C6  UNL     1     -34.160   4.740   3.991  1.00 20.00     0.065 C 
HETATM    7  C7  UNL     1     -34.055   7.467   6.581  1.00 20.00     0.105 C 
HETATM    8  C8  UNL     1     -34.738   6.166   6.126  1.00 20.00     0.035 C 
HETATM    9  C9  UNL     1     -33.717   5.590   5.171  1.00 20.00     0.098 C 
HETATM   10  N10 UNL     1     -33.162   6.773   4.560  1.00 20.00    -0.313 N 
HETATM   11  O11 UNL     1     -32.843   9.032   5.167  1.00 20.00    -0.273 OA
ENDROOT
TORSDOF 0
ENDMDL
