MODEL 1
REMARK VINA RESULT:      -4.9      0.000      0.000
REMARK  1 active torsions:
REMARK  status: ('A' for Active; 'I' for Inactive)
REMARK    1  A    between atoms: C2_2  and  C3_3 
ROOT
HETATM    1  C1  UNL     1     -33.269   5.925   3.078  1.00 20.00    -0.015 C 
HETATM    2  C2  UNL     1     -33.705   6.425   4.238  1.00 20.00    -0.012 C 
HETATM    3  C4  UNL     1     -32.069   6.671   2.590  1.00 20.00     0.032 C 
HETATM    4  C5  UNL     1     -32.876   7.576   4.718  1.00 20.00     0.022 C 
HETATM    5  C6  UNL     1     -32.105   7.966   3.426  1.00 20.00    -0.007 C 
HETATM    6  C8  UNL     1     -33.659   8.709   5.372  1.00 20.00     0.015 C 
HETATM    7  C9  UNL     1     -32.737   9.105   2.617  1.00 20.00     0.011 C 
ENDROOT
BRANCH   2   8
HETATM    8  C3  UNL     1     -34.831   5.838   4.947  1.00 20.00     0.151 C 
HETATM    9  C7  UNL     1     -34.604   5.311   6.348  1.00 20.00     0.096 C 
HETATM   10  O10 UNL     1     -35.949   5.761   4.420  1.00 20.00    -0.293 OA
ENDBRANCH   2   8
TORSDOF 1
ENDMDL
MODEL 2
REMARK VINA RESULT:      -4.9      1.854      3.699
REMARK  1 active torsions:
REMARK  status: ('A' for Active; 'I' for Inactive)
REMARK    1  A    between atoms: C2_2  and  C3_3 
ROOT
HETATM    1  C1  UNL     1     -33.320   5.401   3.490  1.00 20.00    -0.015 C 
HETATM    2  C2  UNL     1     -33.230   6.693   3.818  1.00 20.00    -0.012 C 
HETATM    3  C4  UNL     1     -34.493   4.760   4.157  1.00 20.00     0.032 C 
HETATM    4  C5  UNL     1     -34.321   7.130   4.745  1.00 20.00     0.022 C 
HETATM    5  C6  UNL     1     -34.852   5.767   5.268  1.00 20.00    -0.007 C 
HETATM    6  C8  UNL     1     -33.895   8.118   5.826  1.00 20.00     0.015 C 
HETATM    7  C9  UNL     1     -34.259   5.315   6.608  1.00 20.00     0.011 C 
ENDROOT
BRANCH   2   8
HETATM    8  C3  UNL     1     -32.201   7.554   3.255  1.00 20.00     0.151 C 
HETATM    9  C7  UNL     1     -32.263   7.881   1.779  1.00 20.00     0.096 C 
HETATM   10  O10 UNL     1     -31.289   8.005   3.962  1.00 20.00    -0.293 OA
ENDBRANCH   2   8
TORSDOF 1
ENDMDL
MODEL 3
REMARK VINA RESULT:      -4.4      1.804      3.566
REMARK  1 active torsions:
REMARK  status: ('A' for Active; 'I' for Inactive)
REMARK    1  A    between atoms: C2_2  and  C3_3 
ROOT
HETATM    1  C1  UNL     1     -33.337   5.430   3.477  1.00 20.00    -0.015 C 
HETATM    2  C2  UNL     1     -33.359   6.696   3.907  1.00 20.00    -0.012 C 
HETATM    3  C4  UNL     1     -34.395   4.617   4.149  1.00 20.00     0.032 C 
HETATM    4  C5  UNL     1     -34.430   6.940   4.925  1.00 20.00     0.022 C 
HETATM    5  C6  UNL     1     -34.786   5.490   5.358  1.00 20.00    -0.007 C 
HETATM    6  C8  UNL     1     -34.042   7.879   6.061  1.00 20.00     0.015 C 
HETATM    7  C9  UNL     1     -34.069   5.001   6.622  1.00 20.00     0.011 C 
ENDROOT
BRANCH   2   8
HETATM    8  C3  UNL     1     -32.460   7.702   3.365  1.00 20.00     0.151 C 
HETATM    9  C7  UNL     1     -31.991   8.815   4.277  1.00 20.00     0.096 C 
HETATM   10  O10 UNL     1     -32.090   7.659   2.183  1.00 20.00    -0.293 OA
ENDBRANCH   2   8
TORSDOF 1
ENDMDL
MODEL 4
REMARK VINA RESULT:      -4.2      1.702      3.377
REMARK  1 active torsions:
REMARK  status: ('A' for Active; 'I' for Inactive)
REMARK    1  A    between atoms: C2_2  and  C3_3 
ROOT
HETATM    1  C1  UNL     1     -32.766   6.618   3.324  1.00 20.00    -0.015 C 
HETATM    2  C2  UNL     1     -33.506   6.989   4.372  1.00 20.00    -0.012 C 
HETATM    3  C4  UNL     1     -33.233   5.310   2.773  1.00 20.00     0.032 C 
HETATM    4  C5  UNL     1     -34.587   6.003   4.692  1.00 20.00     0.022 C 
HETATM    5  C6  UNL     1     -34.106   4.747   3.913  1.00 20.00    -0.007 C 
HETATM    6  C8  UNL     1     -34.844   5.785   6.179  1.00 20.00     0.015 C 
HETATM    7  C9  UNL     1     -33.307   3.739   4.747  1.00 20.00     0.011 C 
ENDROOT
BRANCH   2   8
HETATM    8  C3  UNL     1     -33.286   8.255   5.053  1.00 20.00     0.151 C 
HETATM    9  C7  UNL     1     -32.015   9.022   4.755  1.00 20.00     0.096 C 
HETATM   10  O10 UNL     1     -34.111   8.696   5.865  1.00 20.00    -0.293 OA
ENDBRANCH   2   8
TORSDOF 1
ENDMDL
MODEL 5
REMARK VINA RESULT:      -4.1      1.936      4.055
REMARK  1 active torsions:
REMARK  status: ('A' for Active; 'I' for Inactive)
REMARK    1  A    between atoms: C2_2  and  C3_3 
ROOT
HETATM    1  C1  UNL     1     -33.950   7.631   6.017  1.00 20.00    -0.015 C 
HETATM    2  C2  UNL     1     -33.225   7.476   4.906  1.00 20.00    -0.012 C 
HETATM    3  C4  UNL     1     -34.555   6.335   6.449  1.00 20.00     0.032 C 
HETATM    4  C5  UNL     1     -33.219   6.061   4.415  1.00 20.00     0.022 C 
HETATM    5  C6  UNL     1     -34.424   5.456   5.188  1.00 20.00    -0.007 C 
HETATM    6  C8  UNL     1     -33.276   5.901   2.900  1.00 20.00     0.015 C 
HETATM    7  C9  UNL     1     -35.746   5.439   4.412  1.00 20.00     0.011 C 
ENDROOT
BRANCH   2   8
HETATM    8  C3  UNL     1     -32.489   8.581   4.313  1.00 20.00     0.151 C 
HETATM    9  C7  UNL     1     -32.529   8.749   2.810  1.00 20.00     0.096 C 
HETATM   10  O10 UNL     1     -31.836   9.365   5.017  1.00 20.00    -0.293 OA
ENDBRANCH   2   8
TORSDOF 1
ENDMDL
MODEL 6
REMARK VINA RESULT:      -4.0      0.920      2.188
REMARK  1 active torsions:
REMARK  status: ('A' for Active; 'I' for Inactive)
REMARK    1  A    between atoms: C2_2  and  C3_3 
ROOT
HETATM    1  C1  UNL     1     -33.729   7.781   5.574  1.00 20.00    -0.015 C 
HETATM    2  C2  UNL     1     -33.971   6.708   4.816  1.00 20.00    -0.012 C 
HETATM    3  C4  UNL     1     -33.062   8.858   4.780  1.00 20.00     0.032 C 
HETATM    4  C5  UNL     1     -33.515   6.886   3.401  1.00 20.00     0.022 C 
HETATM    5  C6  UNL     1     -32.561   8.105   3.531  1.00 20.00    -0.007 C 
HETATM    6  C8  UNL     1     -32.901   5.647   2.758  1.00 20.00     0.015 C 
HETATM    7  C9  UNL     1     -31.077   7.750   3.683  1.00 20.00     0.011 C 
ENDROOT
BRANCH   2   8
HETATM    8  C3  UNL     1     -34.663   5.542   5.343  1.00 20.00     0.151 C 
HETATM    9  C7  UNL     1     -34.373   5.113   6.765  1.00 20.00     0.096 C 
HETATM   10  O10 UNL     1     -35.467   4.907   4.646  1.00 20.00    -0.293 OA
ENDBRANCH   2   8
TORSDOF 1
ENDMDL
MODEL 7
REMARK VINA RESULT:      -3.9      8.889     10.269
REMARK  1 active torsions:
REMARK  status: ('A' for Active; 'I' for Inactive)
REMARK    1  A    between atoms: C2_2  and  C3_3 
ROOT
HETATM    1  C1  UNL     1     -43.414   6.848   1.686  1.00 20.00    -0.015 C 
HETATM    2  C2  UNL     1     -42.433   6.925   0.782  1.00 20.00    -0.012 C 
HETATM    3  C4  UNL     1     -43.411   5.520   2.370  1.00 20.00     0.032 C 
HETATM    4  C5  UNL     1     -41.613   5.673   0.714  1.00 20.00     0.022 C 
HETATM    5  C6  UNL     1     -42.535   4.655   1.440  1.00 20.00    -0.007 C 
HETATM    6  C8  UNL     1     -41.172   5.264  -0.687  1.00 20.00     0.015 C 
HETATM    7  C9  UNL     1     -43.417   3.809   0.513  1.00 20.00     0.011 C 
ENDROOT
BRANCH   2   8
HETATM    8  C3  UNL     1     -42.191   8.138   0.018  1.00 20.00     0.151 C 
HETATM    9  C7  UNL     1     -40.780   8.682  -0.044  1.00 20.00     0.096 C 
HETATM   10  O10 UNL     1     -43.116   8.722  -0.565  1.00 20.00    -0.293 OA
ENDBRANCH   2   8
TORSDOF 1
ENDMDL
MODEL 8
REMARK VINA RESULT:      -3.9     12.124     13.309
REMARK  1 active torsions:
REMARK  status: ('A' for Active; 'I' for Inactive)
REMARK    1  A    between atoms: C2_2  and  C3_3 
ROOT
HETATM    1  C1  UNL     1     -33.372  15.624  -3.771  1.00 20.00    -0.015 C 
HETATM    2  C2  UNL     1     -34.262  15.982  -4.701  1.00 20.00    -0.012 C 
HETATM    3  C4  UNL     1     -33.313  16.632  -2.669  1.00 20.00     0.032 C 
HETATM    4  C5  UNL     1     -34.945  17.275  -4.378  1.00 20.00     0.022 C 
HETATM    5  C6  UNL     1     -34.004  17.863  -3.290  1.00 20.00    -0.007 C 
HETATM    6  C8  UNL     1     -35.205  18.186  -5.572  1.00 20.00     0.015 C 
HETATM    7  C9  UNL     1     -32.957  18.854  -3.811  1.00 20.00     0.011 C 
ENDROOT
BRANCH   2   8
HETATM    8  C3  UNL     1     -34.545  15.139  -5.852  1.00 20.00     0.151 C 
HETATM    9  C7  UNL     1     -35.912  14.499  -5.958  1.00 20.00     0.096 C 
HETATM   10  O10 UNL     1     -33.688  14.941  -6.725  1.00 20.00    -0.293 OA
ENDBRANCH   2   8
TORSDOF 1
ENDMDL
MODEL 9
REMARK VINA RESULT:      -3.7      2.017      4.101
REMARK  1 active torsions:
REMARK  status: ('A' for Active; 'I' for Inactive)
REMARK    1  A    between atoms: C2_2  and  C3_3 
ROOT
HETATM    1  C1  UNL     1     -33.424   8.501   4.469  1.00 20.00    -0.015 C 
HETATM    2  C2  UNL     1     -32.950   7.770   3.455  1.00 20.00    -0.012 C 
HETATM    3  C4  UNL     1     -33.734   7.640   5.651  1.00 20.00     0.032 C 
HETATM    4  C5  UNL     1     -32.861   6.313   3.787  1.00 20.00     0.022 C 
HETATM    5  C6  UNL     1     -33.768   6.222   5.046  1.00 20.00    -0.007 C 
HETATM    6  C8  UNL     1     -33.231   5.366   2.651  1.00 20.00     0.015 C 
HETATM    7  C9  UNL     1     -35.215   5.797   4.767  1.00 20.00     0.011 C 
ENDROOT
BRANCH   2   8
HETATM    8  C3  UNL     1     -32.522   8.383   2.208  1.00 20.00     0.151 C 
HETATM    9  C7  UNL     1     -33.001   9.783   1.891  1.00 20.00     0.096 C 
HETATM   10  O10 UNL     1     -31.789   7.774   1.415  1.00 20.00    -0.293 OA
ENDBRANCH   2   8
TORSDOF 1
ENDMDL
