MODEL 1
REMARK VINA RESULT:      -3.0      0.000      0.000
REMARK  0 active torsions:
REMARK  status: ('A' for Active; 'I' for Inactive)
ROOT
HETATM    1  C1  UNL     1     -35.942  14.382  -5.543  1.00 20.00     0.037 C 
HETATM    2  C2  UNL     1     -37.055  15.425  -5.335  1.00 20.00     0.019 C 
HETATM    3  C3  UNL     1     -33.984  15.458  -6.870  1.00 20.00     0.051 C 
HETATM    4  C4  UNL     1     -34.424  17.859  -6.261  1.00 20.00     0.052 C 
HETATM    5  C5  UNL     1     -34.524  14.994  -5.483  1.00 20.00     0.224 C 
HETATM    6  C6  UNL     1     -35.265  17.261  -5.125  1.00 20.00     0.237 C 
HETATM    7  C7  UNL     1     -36.621  16.823  -5.777  1.00 20.00     0.081 C 
HETATM    8  C8  UNL     1     -34.516  16.817  -7.368  1.00 20.00     0.052 C 
HETATM    9  C9  UNL     1     -33.312  16.392  -3.886  1.00 20.00     0.310 C 
HETATM   10  N10 UNL     1     -34.593  16.095  -4.512  1.00 20.00     0.094 N 
HETATM   11  S11 UNL     1     -36.312  16.768  -7.582  1.00 20.00    -0.157 SA
ENDROOT
TORSDOF 0
ENDMDL
MODEL 2
REMARK VINA RESULT:      -3.0      0.724      2.830
REMARK  0 active torsions:
REMARK  status: ('A' for Active; 'I' for Inactive)
ROOT
HETATM    1  C1  UNL     1     -34.418  18.161  -6.355  1.00 20.00     0.037 C 
HETATM    2  C2  UNL     1     -34.116  17.279  -7.579  1.00 20.00     0.019 C 
HETATM    3  C3  UNL     1     -36.274  17.046  -4.919  1.00 20.00     0.051 C 
HETATM    4  C4  UNL     1     -35.918  14.670  -5.667  1.00 20.00     0.052 C 
HETATM    5  C5  UNL     1     -34.753  17.341  -5.089  1.00 20.00     0.224 C 
HETATM    6  C6  UNL     1     -34.554  15.185  -6.151  1.00 20.00     0.237 C 
HETATM    7  C7  UNL     1     -34.829  15.928  -7.502  1.00 20.00     0.081 C 
HETATM    8  C8  UNL     1     -36.825  15.889  -5.777  1.00 20.00     0.052 C 
HETATM    9  C9  UNL     1     -33.665  15.523  -3.870  1.00 20.00     0.310 C 
HETATM   10  N10 UNL     1     -33.950  16.113  -5.171  1.00 20.00     0.094 N 
HETATM   11  S11 UNL     1     -36.633  16.245  -7.541  1.00 20.00    -0.157 SA
ENDROOT
TORSDOF 0
ENDMDL
MODEL 3
REMARK VINA RESULT:      -2.9      1.312      2.577
REMARK  0 active torsions:
REMARK  status: ('A' for Active; 'I' for Inactive)
ROOT
HETATM    1  C1  UNL     1     -34.008  16.134  -4.338  1.00 20.00     0.037 C 
HETATM    2  C2  UNL     1     -34.478  14.764  -4.857  1.00 20.00     0.019 C 
HETATM    3  C3  UNL     1     -34.418  17.938  -6.163  1.00 20.00     0.051 C 
HETATM    4  C4  UNL     1     -36.263  16.765  -7.408  1.00 20.00     0.052 C 
HETATM    5  C5  UNL     1     -34.899  17.300  -4.824  1.00 20.00     0.224 C 
HETATM    6  C6  UNL     1     -36.388  15.924  -6.130  1.00 20.00     0.237 C 
HETATM    7  C7  UNL     1     -35.223  14.879  -6.188  1.00 20.00     0.081 C 
HETATM    8  C8  UNL     1     -34.792  17.160  -7.441  1.00 20.00     0.052 C 
HETATM    9  C9  UNL     1     -37.294  17.780  -4.774  1.00 20.00     0.310 C 
HETATM   10  N10 UNL     1     -36.263  16.762  -4.918  1.00 20.00     0.094 N 
HETATM   11  S11 UNL     1     -34.042  15.513  -7.436  1.00 20.00    -0.157 SA
ENDROOT
TORSDOF 0
ENDMDL
MODEL 4
REMARK VINA RESULT:      -2.8     13.853     14.871
REMARK  0 active torsions:
REMARK  status: ('A' for Active; 'I' for Inactive)
ROOT
HETATM    1  C1  UNL     1     -43.414  12.927   6.794  1.00 20.00     0.037 C 
HETATM    2  C2  UNL     1     -43.194  12.978   8.316  1.00 20.00     0.019 C 
HETATM    3  C3  UNL     1     -42.238  14.958   5.680  1.00 20.00     0.051 C 
HETATM    4  C4  UNL     1     -40.522  15.396   7.467  1.00 20.00     0.052 C 
HETATM    5  C5  UNL     1     -42.193  13.432   5.992  1.00 20.00     0.224 C 
HETATM    6  C6  UNL     1     -40.853  13.968   7.924  1.00 20.00     0.237 C 
HETATM    7  C7  UNL     1     -42.200  14.070   8.716  1.00 20.00     0.081 C 
HETATM    8  C8  UNL     1     -41.821  15.885   6.839  1.00 20.00     0.052 C 
HETATM    9  C9  UNL     1     -39.808  12.898   5.957  1.00 20.00     0.310 C 
HETATM   10  N10 UNL     1     -41.006  13.054   6.771  1.00 20.00     0.094 N 
HETATM   11  S11 UNL     1     -42.930  15.686   8.255  1.00 20.00    -0.157 SA
ENDROOT
TORSDOF 0
ENDMDL
MODEL 5
REMARK VINA RESULT:      -2.8     25.132     26.402
REMARK  0 active torsions:
REMARK  status: ('A' for Active; 'I' for Inactive)
ROOT
HETATM    1  C1  UNL     1     -26.095  -0.902  12.332  1.00 20.00     0.037 C 
HETATM    2  C2  UNL     1     -27.022  -0.094  11.407  1.00 20.00     0.019 C 
HETATM    3  C3  UNL     1     -26.823  -3.396  12.326  1.00 20.00     0.051 C 
HETATM    4  C4  UNL     1     -27.980  -3.419  10.092  1.00 20.00     0.052 C 
HETATM    5  C5  UNL     1     -25.814  -2.328  11.807  1.00 20.00     0.224 C 
HETATM    6  C6  UNL     1     -27.193  -2.125   9.839  1.00 20.00     0.237 C 
HETATM    7  C7  UNL     1     -27.962  -0.997  10.606  1.00 20.00     0.081 C 
HETATM    8  C8  UNL     1     -28.184  -3.430  11.602  1.00 20.00     0.052 C 
HETATM    9  C9  UNL     1     -25.005  -3.264   9.699  1.00 20.00     0.310 C 
HETATM   10  N10 UNL     1     -25.806  -2.231  10.341  1.00 20.00     0.094 N 
HETATM   11  S11 UNL     1     -29.058  -1.858  11.795  1.00 20.00    -0.157 SA
ENDROOT
TORSDOF 0
ENDMDL
MODEL 6
REMARK VINA RESULT:      -2.8     13.827     14.936
REMARK  0 active torsions:
REMARK  status: ('A' for Active; 'I' for Inactive)
ROOT
HETATM    1  C1  UNL     1     -40.415  15.630   8.576  1.00 20.00     0.037 C 
HETATM    2  C2  UNL     1     -40.787  16.641   7.476  1.00 20.00     0.019 C 
HETATM    3  C3  UNL     1     -42.148  13.695   8.595  1.00 20.00     0.051 C 
HETATM    4  C4  UNL     1     -42.936  13.903   6.215  1.00 20.00     0.052 C 
HETATM    5  C5  UNL     1     -40.723  14.168   8.179  1.00 20.00     0.224 C 
HETATM    6  C6  UNL     1     -41.641  14.705   6.015  1.00 20.00     0.237 C 
HETATM    7  C7  UNL     1     -41.927  16.133   6.592  1.00 20.00     0.081 C 
HETATM    8  C8  UNL     1     -43.296  14.154   7.673  1.00 20.00     0.052 C 
HETATM    9  C9  UNL     1     -40.165  12.741   6.275  1.00 20.00     0.310 C 
HETATM   10  N10 UNL     1     -40.505  14.082   6.728  1.00 20.00     0.094 N 
HETATM   11  S11 UNL     1     -43.416  15.959   7.643  1.00 20.00    -0.157 SA
ENDROOT
TORSDOF 0
ENDMDL
MODEL 7
REMARK VINA RESULT:      -2.8     13.768     14.891
REMARK  0 active torsions:
REMARK  status: ('A' for Active; 'I' for Inactive)
ROOT
HETATM    1  C1  UNL     1     -41.971  14.406   4.996  1.00 20.00     0.037 C 
HETATM    2  C2  UNL     1     -42.768  15.588   5.577  1.00 20.00     0.019 C 
HETATM    3  C3  UNL     1     -40.487  13.365   6.856  1.00 20.00     0.051 C 
HETATM    4  C4  UNL     1     -41.830  14.123   8.844  1.00 20.00     0.052 C 
HETATM    5  C5  UNL     1     -41.787  13.250   6.005  1.00 20.00     0.224 C 
HETATM    6  C6  UNL     1     -42.950  14.337   7.816  1.00 20.00     0.237 C 
HETATM    7  C7  UNL     1     -42.620  15.688   7.096  1.00 20.00     0.081 C 
HETATM    8  C8  UNL     1     -40.554  14.348   8.042  1.00 20.00     0.052 C 
HETATM    9  C9  UNL     1     -43.288  11.924   7.406  1.00 20.00     0.310 C 
HETATM   10  N10 UNL     1     -43.000  13.232   6.834  1.00 20.00     0.094 N 
HETATM   11  S11 UNL     1     -40.860  16.036   7.465  1.00 20.00    -0.157 SA
ENDROOT
TORSDOF 0
ENDMDL
MODEL 8
REMARK VINA RESULT:      -2.8     13.690     14.849
REMARK  0 active torsions:
REMARK  status: ('A' for Active; 'I' for Inactive)
ROOT
HETATM    1  C1  UNL     1     -42.005  14.541   4.986  1.00 20.00     0.037 C 
HETATM    2  C2  UNL     1     -41.168  13.279   5.261  1.00 20.00     0.019 C 
HETATM    3  C3  UNL     1     -43.417  15.118   7.089  1.00 20.00     0.051 C 
HETATM    4  C4  UNL     1     -41.978  13.975   8.806  1.00 20.00     0.052 C 
HETATM    5  C5  UNL     1     -42.158  15.445   6.231  1.00 20.00     0.224 C 
HETATM    6  C6  UNL     1     -40.902  14.015   7.711  1.00 20.00     0.237 C 
HETATM    7  C7  UNL     1     -41.247  12.846   6.726  1.00 20.00     0.081 C 
HETATM    8  C8  UNL     1     -43.285  13.902   8.027  1.00 20.00     0.052 C 
HETATM    9  C9  UNL     1     -40.612  16.466   7.825  1.00 20.00     0.310 C 
HETATM   10  N10 UNL     1     -40.910  15.308   6.994  1.00 20.00     0.094 N 
HETATM   11  S11 UNL     1     -42.984  12.388   7.082  1.00 20.00    -0.157 SA
ENDROOT
TORSDOF 0
ENDMDL
MODEL 9
REMARK VINA RESULT:      -2.8      1.467      2.713
REMARK  0 active torsions:
REMARK  status: ('A' for Active; 'I' for Inactive)
ROOT
HETATM    1  C1  UNL     1     -34.140  15.353  -4.220  1.00 20.00     0.037 C 
HETATM    2  C2  UNL     1     -33.658  16.800  -4.015  1.00 20.00     0.019 C 
HETATM    3  C3  UNL     1     -36.306  15.357  -5.655  1.00 20.00     0.051 C 
HETATM    4  C4  UNL     1     -35.956  17.561  -6.816  1.00 20.00     0.052 C 
HETATM    5  C5  UNL     1     -34.766  15.119  -5.614  1.00 20.00     0.224 C 
HETATM    6  C6  UNL     1     -34.495  17.391  -6.374  1.00 20.00     0.237 C 
HETATM    7  C7  UNL     1     -34.454  17.795  -4.861  1.00 20.00     0.081 C 
HETATM    8  C8  UNL     1     -36.748  16.832  -5.738  1.00 20.00     0.052 C 
HETATM    9  C9  UNL     1     -34.052  15.514  -7.917  1.00 20.00     0.310 C 
HETATM   10  N10 UNL     1     -34.039  15.995  -6.543  1.00 20.00     0.094 N 
HETATM   11  S11 UNL     1     -36.192  17.755  -4.284  1.00 20.00    -0.157 SA
ENDROOT
TORSDOF 0
ENDMDL
