MODEL 1
REMARK VINA RESULT:      -4.4      0.000      0.000
REMARK  1 active torsions:
REMARK  status: ('A' for Active; 'I' for Inactive)
REMARK    1  A    between atoms: C6_6  and  N10_10 
ROOT
HETATM    1  C1  UNL     1     -21.959  17.729   8.238  1.00 20.00     0.064 C 
HETATM    2  C2  UNL     1     -23.787  19.263   8.955  1.00 20.00     0.021 C 
HETATM    3  C3  UNL     1     -24.774  18.733   9.994  1.00 20.00     0.037 C 
HETATM    4  C4  UNL     1     -22.651  17.867  10.619  1.00 20.00     0.055 C 
HETATM    5  C5  UNL     1     -22.431  18.626   9.302  1.00 20.00     0.095 C 
HETATM    6  C6  UNL     1     -23.897  18.511  11.219  1.00 20.00     0.223 C 
HETATM    7  N9  UNL     1     -21.587  17.020   7.399  1.00 20.00    -0.197 NA
ENDROOT
BRANCH   6   8
HETATM    8  N10 UNL     1     -24.535  17.677  12.222  1.00 20.00     0.084 N 
HETATM    9  C7  UNL     1     -24.339  16.256  11.921  1.00 20.00     0.309 C 
HETATM   10  C8  UNL     1     -25.967  17.978  12.316  1.00 20.00     0.309 C 
ENDBRANCH   6   8
TORSDOF 1
ENDMDL
MODEL 2
REMARK VINA RESULT:      -4.3     15.198     15.835
REMARK  1 active torsions:
REMARK  status: ('A' for Active; 'I' for Inactive)
REMARK    1  A    between atoms: C6_6  and  N10_10 
ROOT
HETATM    1  C1  UNL     1     -32.232   8.123   1.952  1.00 20.00     0.064 C 
HETATM    2  C2  UNL     1     -32.249   8.785   4.354  1.00 20.00     0.021 C 
HETATM    3  C3  UNL     1     -33.484   8.408   5.171  1.00 20.00     0.037 C 
HETATM    4  C4  UNL     1     -33.105   6.585   3.695  1.00 20.00     0.055 C 
HETATM    5  C5  UNL     1     -32.061   7.651   3.333  1.00 20.00     0.095 C 
HETATM    6  C6  UNL     1     -33.460   6.886   5.148  1.00 20.00     0.223 C 
HETATM    7  N9  UNL     1     -32.367   8.495   0.862  1.00 20.00    -0.197 NA
ENDROOT
BRANCH   6   8
HETATM    8  N10 UNL     1     -34.724   6.298   5.552  1.00 20.00     0.084 N 
HETATM    9  C7  UNL     1     -34.515   5.236   6.541  1.00 20.00     0.309 C 
HETATM   10  C8  UNL     1     -35.448   5.769   4.391  1.00 20.00     0.309 C 
ENDBRANCH   6   8
TORSDOF 1
ENDMDL
MODEL 3
REMARK VINA RESULT:      -4.0     15.545     16.715
REMARK  1 active torsions:
REMARK  status: ('A' for Active; 'I' for Inactive)
REMARK    1  A    between atoms: C6_6  and  N10_10 
ROOT
HETATM    1  C1  UNL     1     -31.854  18.358  -0.913  1.00 20.00     0.064 C 
HETATM    2  C2  UNL     1     -33.477  19.262  -2.573  1.00 20.00     0.021 C 
HETATM    3  C3  UNL     1     -33.560  18.551  -3.923  1.00 20.00     0.037 C 
HETATM    4  C4  UNL     1     -33.232  16.837  -2.310  1.00 20.00     0.055 C 
HETATM    5  C5  UNL     1     -33.167  18.165  -1.541  1.00 20.00     0.095 C 
HETATM    6  C6  UNL     1     -34.059  17.162  -3.550  1.00 20.00     0.223 C 
HETATM    7  N9  UNL     1     -30.816  18.510  -0.417  1.00 20.00    -0.197 NA
ENDROOT
BRANCH   6   8
HETATM    8  N10 UNL     1     -33.878  16.195  -4.617  1.00 20.00     0.084 N 
HETATM    9  C7  UNL     1     -35.031  16.194  -5.523  1.00 20.00     0.309 C 
HETATM   10  C8  UNL     1     -33.666  14.850  -4.071  1.00 20.00     0.309 C 
ENDBRANCH   6   8
TORSDOF 1
ENDMDL
MODEL 4
REMARK VINA RESULT:      -3.7     17.078     18.154
REMARK  1 active torsions:
REMARK  status: ('A' for Active; 'I' for Inactive)
REMARK    1  A    between atoms: C6_6  and  N10_10 
ROOT
HETATM    1  C1  UNL     1     -34.064  15.340  -6.588  1.00 20.00     0.064 C 
HETATM    2  C2  UNL     1     -33.785  15.022  -4.132  1.00 20.00     0.021 C 
HETATM    3  C3  UNL     1     -33.180  16.182  -3.345  1.00 20.00     0.037 C 
HETATM    4  C4  UNL     1     -34.567  17.178  -4.996  1.00 20.00     0.055 C 
HETATM    5  C5  UNL     1     -34.606  15.666  -5.262  1.00 20.00     0.095 C 
HETATM    6  C6  UNL     1     -34.209  17.290  -3.518  1.00 20.00     0.223 C 
HETATM    7  N9  UNL     1     -33.636  15.083  -7.635  1.00 20.00    -0.197 NA
ENDROOT
BRANCH   6   8
HETATM    8  N10 UNL     1     -33.692  18.599  -3.161  1.00 20.00     0.084 N 
HETATM    9  C7  UNL     1     -33.095  19.260  -4.325  1.00 20.00     0.309 C 
HETATM   10  C8  UNL     1     -32.704  18.492  -2.083  1.00 20.00     0.309 C 
ENDBRANCH   6   8
TORSDOF 1
ENDMDL
MODEL 5
REMARK VINA RESULT:      -3.7     16.957     17.911
REMARK  1 active torsions:
REMARK  status: ('A' for Active; 'I' for Inactive)
REMARK    1  A    between atoms: C6_6  and  N10_10 
ROOT
HETATM    1  C1  UNL     1     -34.992  14.033  -4.549  1.00 20.00     0.064 C 
HETATM    2  C2  UNL     1     -34.611  16.247  -5.628  1.00 20.00     0.021 C 
HETATM    3  C3  UNL     1     -34.663  17.478  -4.726  1.00 20.00     0.037 C 
HETATM    4  C4  UNL     1     -33.621  15.778  -3.435  1.00 20.00     0.055 C 
HETATM    5  C5  UNL     1     -34.026  15.118  -4.762  1.00 20.00     0.095 C 
HETATM    6  C6  UNL     1     -33.494  17.259  -3.776  1.00 20.00     0.223 C 
HETATM    7  N9  UNL     1     -35.755  13.176  -4.380  1.00 20.00    -0.197 NA
ENDROOT
BRANCH   6   8
HETATM    8  N10 UNL     1     -33.555  18.114  -2.604  1.00 20.00     0.084 N 
HETATM    9  C7  UNL     1     -33.579  17.315  -1.375  1.00 20.00     0.309 C 
HETATM   10  C8  UNL     1     -34.730  18.989  -2.658  1.00 20.00     0.309 C 
ENDBRANCH   6   8
TORSDOF 1
ENDMDL
MODEL 6
REMARK VINA RESULT:      -3.6     17.755     18.845
REMARK  1 active torsions:
REMARK  status: ('A' for Active; 'I' for Inactive)
REMARK    1  A    between atoms: C6_6  and  N10_10 
ROOT
HETATM    1  C1  UNL     1     -33.532  17.019  -2.286  1.00 20.00     0.064 C 
HETATM    2  C2  UNL     1     -33.052  15.213  -3.934  1.00 20.00     0.021 C 
HETATM    3  C3  UNL     1     -34.242  14.629  -4.692  1.00 20.00     0.037 C 
HETATM    4  C4  UNL     1     -34.690  16.953  -4.481  1.00 20.00     0.055 C 
HETATM    5  C5  UNL     1     -33.385  16.698  -3.712  1.00 20.00     0.095 C 
HETATM    6  C6  UNL     1     -34.754  15.816  -5.496  1.00 20.00     0.223 C 
HETATM    7  N9  UNL     1     -33.648  17.273  -1.160  1.00 20.00    -0.197 NA
ENDROOT
BRANCH   6   8
HETATM    8  N10 UNL     1     -36.091  15.604  -6.021  1.00 20.00     0.084 N 
HETATM    9  C7  UNL     1     -36.102  15.711  -7.483  1.00 20.00     0.309 C 
HETATM   10  C8  UNL     1     -37.036  16.564  -5.439  1.00 20.00     0.309 C 
ENDBRANCH   6   8
TORSDOF 1
ENDMDL
MODEL 7
REMARK VINA RESULT:      -3.6      1.463      4.473
REMARK  1 active torsions:
REMARK  status: ('A' for Active; 'I' for Inactive)
REMARK    1  A    between atoms: C6_6  and  N10_10 
ROOT
HETATM    1  C1  UNL     1     -26.232  18.177  12.329  1.00 20.00     0.064 C 
HETATM    2  C2  UNL     1     -24.416  16.532  11.877  1.00 20.00     0.021 C 
HETATM    3  C3  UNL     1     -23.642  16.692  10.570  1.00 20.00     0.037 C 
HETATM    4  C4  UNL     1     -24.071  18.898  11.340  1.00 20.00     0.055 C 
HETATM    5  C5  UNL     1     -24.780  17.957  12.326  1.00 20.00     0.095 C 
HETATM    6  C6  UNL     1     -22.961  18.044  10.738  1.00 20.00     0.223 C 
HETATM    7  N9  UNL     1     -27.379  18.352  12.332  1.00 20.00    -0.197 NA
ENDROOT
BRANCH   6   8
HETATM    8  N10 UNL     1     -22.456  18.577   9.485  1.00 20.00     0.084 N 
HETATM    9  C7  UNL     1     -23.553  19.077   8.650  1.00 20.00     0.309 C 
HETATM   10  C8  UNL     1     -21.693  17.560   8.756  1.00 20.00     0.309 C 
ENDBRANCH   6   8
TORSDOF 1
ENDMDL
MODEL 8
REMARK VINA RESULT:      -3.6      1.362      4.231
REMARK  1 active torsions:
REMARK  status: ('A' for Active; 'I' for Inactive)
REMARK    1  A    between atoms: C6_6  and  N10_10 
ROOT
HETATM    1  C1  UNL     1     -24.332  16.930  11.984  1.00 20.00     0.064 C 
HETATM    2  C2  UNL     1     -22.319  18.391  11.831  1.00 20.00     0.021 C 
HETATM    3  C3  UNL     1     -21.684  18.558  10.452  1.00 20.00     0.037 C 
HETATM    4  C4  UNL     1     -24.029  18.493  10.079  1.00 20.00     0.055 C 
HETATM    5  C5  UNL     1     -23.830  18.251  11.582  1.00 20.00     0.095 C 
HETATM    6  C6  UNL     1     -22.777  19.252   9.652  1.00 20.00     0.223 C 
HETATM    7  N9  UNL     1     -24.729  15.887  12.301  1.00 20.00    -0.197 NA
ENDROOT
BRANCH   6   8
HETATM    8  N10 UNL     1     -22.546  19.197   8.220  1.00 20.00     0.084 N 
HETATM    9  C7  UNL     1     -23.812  19.262   7.483  1.00 20.00     0.309 C 
HETATM   10  C8  UNL     1     -21.815  17.979   7.857  1.00 20.00     0.309 C 
ENDBRANCH   6   8
TORSDOF 1
ENDMDL
MODEL 9
REMARK VINA RESULT:      -3.5     17.697     18.830
REMARK  1 active torsions:
REMARK  status: ('A' for Active; 'I' for Inactive)
REMARK    1  A    between atoms: C6_6  and  N10_10 
ROOT
HETATM    1  C1  UNL     1     -34.696  18.241  -2.822  1.00 20.00     0.064 C 
HETATM    2  C2  UNL     1     -33.249  16.235  -3.128  1.00 20.00     0.021 C 
HETATM    3  C3  UNL     1     -33.841  15.062  -3.905  1.00 20.00     0.037 C 
HETATM    4  C4  UNL     1     -34.644  17.020  -4.984  1.00 20.00     0.055 C 
HETATM    5  C5  UNL     1     -33.845  17.502  -3.765  1.00 20.00     0.095 C 
HETATM    6  C6  UNL     1     -34.063  15.645  -5.294  1.00 20.00     0.223 C 
HETATM    7  N9  UNL     1     -35.368  18.824  -2.078  1.00 20.00    -0.197 NA
ENDROOT
BRANCH   6   8
HETATM    8  N10 UNL     1     -34.945  14.831  -6.111  1.00 20.00     0.084 N 
HETATM    9  C7  UNL     1     -35.480  15.607  -7.234  1.00 20.00     0.309 C 
HETATM   10  C8  UNL     1     -36.044  14.287  -5.307  1.00 20.00     0.309 C 
ENDBRANCH   6   8
TORSDOF 1
ENDMDL
