MODEL 1
REMARK VINA RESULT:      -4.0      0.000      0.000
REMARK  3 active torsions:
REMARK  status: ('A' for Active; 'I' for Inactive)
REMARK    1  A    between atoms: C7_7  and  C8_8 
REMARK    2  A    between atoms: C8_8  and  C9_9 
REMARK    3  A    between atoms: C9_9  and  N10_10 
ROOT
HETATM    1  C1  UNL     1     -32.888   9.536   1.043  1.00 20.00     0.012 C 
HETATM    2  C3  UNL     1     -32.566   8.932   2.029  1.00 20.00    -0.117 C 
HETATM    3  C7  UNL     1     -32.167   8.190   3.234  1.00 20.00     0.096 C 
ENDROOT
BRANCH   3   4
HETATM    4  C8  UNL     1     -33.304   8.088   4.259  1.00 20.00     0.061 C 
BRANCH   4   5
HETATM    5  C9  UNL     1     -33.991   6.710   4.320  1.00 20.00     0.300 C 
HETATM    6  C4  UNL     1     -33.380   5.758   3.376  1.00 20.00    -0.081 C 
HETATM    7  C2  UNL     1     -32.888   4.981   2.605  1.00 20.00     0.014 C 
BRANCH   5   8
HETATM    8  N10 UNL     1     -33.878   6.184   5.683  1.00 20.00     0.095 N 
HETATM    9  C5  UNL     1     -34.811   5.076   5.879  1.00 20.00     0.310 C 
HETATM   10  C6  UNL     1     -34.124   7.243   6.660  1.00 20.00     0.310 C 
ENDBRANCH   5   8
ENDBRANCH   4   5
ENDBRANCH   3   4
TORSDOF 3
ENDMDL
MODEL 2
REMARK VINA RESULT:      -4.0      9.435     10.356
REMARK  3 active torsions:
REMARK  status: ('A' for Active; 'I' for Inactive)
REMARK    1  A    between atoms: C7_7  and  C8_8 
REMARK    2  A    between atoms: C8_8  and  C9_9 
REMARK    3  A    between atoms: C9_9  and  N10_10 
ROOT
HETATM    1  C1  UNL     1     -38.933  11.728   3.384  1.00 20.00     0.012 C 
HETATM    2  C3  UNL     1     -39.203  11.744   4.554  1.00 20.00    -0.117 C 
HETATM    3  C7  UNL     1     -39.529  11.760   5.987  1.00 20.00     0.096 C 
ENDROOT
BRANCH   3   4
HETATM    4  C8  UNL     1     -40.938  12.302   6.259  1.00 20.00     0.061 C 
BRANCH   4   5
HETATM    5  C9  UNL     1     -41.066  13.834   6.163  1.00 20.00     0.300 C 
HETATM    6  C4  UNL     1     -41.948  14.237   5.055  1.00 20.00    -0.081 C 
HETATM    7  C2  UNL     1     -42.663  14.568   4.149  1.00 20.00     0.014 C 
BRANCH   5   8
HETATM    8  N10 UNL     1     -41.608  14.345   7.425  1.00 20.00     0.095 N 
HETATM    9  C5  UNL     1     -40.561  14.399   8.444  1.00 20.00     0.310 C 
HETATM   10  C6  UNL     1     -42.720  13.510   7.876  1.00 20.00     0.310 C 
ENDBRANCH   5   8
ENDBRANCH   4   5
ENDBRANCH   3   4
TORSDOF 3
ENDMDL
MODEL 3
REMARK VINA RESULT:      -3.8      1.649      4.101
REMARK  3 active torsions:
REMARK  status: ('A' for Active; 'I' for Inactive)
REMARK    1  A    between atoms: C7_7  and  C8_8 
REMARK    2  A    between atoms: C8_8  and  C9_9 
REMARK    3  A    between atoms: C9_9  and  N10_10 
ROOT
HETATM    1  C1  UNL     1     -34.454   5.538   6.392  1.00 20.00     0.012 C 
HETATM    2  C3  UNL     1     -34.267   6.541   5.760  1.00 20.00    -0.117 C 
HETATM    3  C7  UNL     1     -34.044   7.770   4.984  1.00 20.00     0.096 C 
ENDROOT
BRANCH   3   4
HETATM    4  C8  UNL     1     -32.565   7.979   4.635  1.00 20.00     0.061 C 
BRANCH   4   5
HETATM    5  C9  UNL     1     -32.179   7.562   3.202  1.00 20.00     0.300 C 
HETATM    6  C4  UNL     1     -32.633   6.194   2.895  1.00 20.00    -0.081 C 
HETATM    7  C2  UNL     1     -32.997   5.079   2.643  1.00 20.00     0.014 C 
BRANCH   5   8
HETATM    8  N10 UNL     1     -32.788   8.500   2.255  1.00 20.00     0.095 N 
HETATM    9  C5  UNL     1     -32.149   8.387   0.946  1.00 20.00     0.310 C 
HETATM   10  C6  UNL     1     -32.687   9.869   2.759  1.00 20.00     0.310 C 
ENDBRANCH   5   8
ENDBRANCH   4   5
ENDBRANCH   3   4
TORSDOF 3
ENDMDL
MODEL 4
REMARK VINA RESULT:      -3.8      9.630     10.664
REMARK  3 active torsions:
REMARK  status: ('A' for Active; 'I' for Inactive)
REMARK    1  A    between atoms: C7_7  and  C8_8 
REMARK    2  A    between atoms: C8_8  and  C9_9 
REMARK    3  A    between atoms: C9_9  and  N10_10 
ROOT
HETATM    1  C1  UNL     1     -38.928  11.719   3.600  1.00 20.00     0.012 C 
HETATM    2  C3  UNL     1     -39.430  11.744   4.691  1.00 20.00    -0.117 C 
HETATM    3  C7  UNL     1     -40.045  11.769   6.026  1.00 20.00     0.096 C 
ENDROOT
BRANCH   3   4
HETATM    4  C8  UNL     1     -40.164  13.191   6.587  1.00 20.00     0.061 C 
BRANCH   4   5
HETATM    5  C9  UNL     1     -41.602  13.744   6.636  1.00 20.00     0.300 C 
HETATM    6  C4  UNL     1     -42.570  12.701   7.015  1.00 20.00    -0.081 C 
HETATM    7  C2  UNL     1     -43.363  11.852   7.318  1.00 20.00     0.014 C 
BRANCH   5   8
HETATM    8  N10 UNL     1     -41.657  14.836   7.611  1.00 20.00     0.095 N 
HETATM    9  C5  UNL     1     -42.799  15.706   7.335  1.00 20.00     0.310 C 
HETATM   10  C6  UNL     1     -40.412  15.601   7.590  1.00 20.00     0.310 C 
ENDBRANCH   5   8
ENDBRANCH   4   5
ENDBRANCH   3   4
TORSDOF 3
ENDMDL
MODEL 5
REMARK VINA RESULT:      -3.8      9.678     10.871
REMARK  3 active torsions:
REMARK  status: ('A' for Active; 'I' for Inactive)
REMARK    1  A    between atoms: C7_7  and  C8_8 
REMARK    2  A    between atoms: C8_8  and  C9_9 
REMARK    3  A    between atoms: C9_9  and  N10_10 
ROOT
HETATM    1  C1  UNL     1     -38.964  11.645   3.862  1.00 20.00     0.012 C 
HETATM    2  C3  UNL     1     -39.350  11.939   4.960  1.00 20.00    -0.117 C 
HETATM    3  C7  UNL     1     -39.818  12.296   6.307  1.00 20.00     0.096 C 
ENDROOT
BRANCH   3   4
HETATM    4  C8  UNL     1     -41.338  12.496   6.363  1.00 20.00     0.061 C 
BRANCH   4   5
HETATM    5  C9  UNL     1     -41.785  13.850   6.948  1.00 20.00     0.300 C 
HETATM    6  C4  UNL     1     -40.927  14.265   8.071  1.00 20.00    -0.081 C 
HETATM    7  C2  UNL     1     -40.233  14.604   8.990  1.00 20.00     0.014 C 
BRANCH   5   8
HETATM    8  N10 UNL     1     -41.729  14.864   5.892  1.00 20.00     0.095 N 
HETATM    9  C5  UNL     1     -42.383  16.094   6.334  1.00 20.00     0.310 C 
HETATM   10  C6  UNL     1     -42.353  14.362   4.669  1.00 20.00     0.310 C 
ENDBRANCH   5   8
ENDBRANCH   4   5
ENDBRANCH   3   4
TORSDOF 3
ENDMDL
MODEL 6
REMARK VINA RESULT:      -3.8     11.799     12.946
REMARK  3 active torsions:
REMARK  status: ('A' for Active; 'I' for Inactive)
REMARK    1  A    between atoms: C7_7  and  C8_8 
REMARK    2  A    between atoms: C8_8  and  C9_9 
REMARK    3  A    between atoms: C9_9  and  N10_10 
ROOT
HETATM    1  C1  UNL     1     -30.689  18.202   1.890  1.00 20.00     0.012 C 
HETATM    2  C3  UNL     1     -31.030  18.494   0.776  1.00 20.00    -0.117 C 
HETATM    3  C7  UNL     1     -31.445  18.856  -0.587  1.00 20.00     0.096 C 
ENDROOT
BRANCH   3   4
HETATM    4  C8  UNL     1     -32.653  18.040  -1.065  1.00 20.00     0.061 C 
BRANCH   4   5
HETATM    5  C9  UNL     1     -32.890  18.078  -2.587  1.00 20.00     0.300 C 
HETATM    6  C4  UNL     1     -33.270  16.754  -3.110  1.00 20.00    -0.081 C 
HETATM    7  C2  UNL     1     -33.574  15.675  -3.540  1.00 20.00     0.014 C 
BRANCH   5   8
HETATM    8  N10 UNL     1     -33.958  19.039  -2.877  1.00 20.00     0.095 N 
HETATM    9  C5  UNL     1     -35.181  18.669  -2.166  1.00 20.00     0.310 C 
HETATM   10  C6  UNL     1     -34.203  19.110  -4.317  1.00 20.00     0.310 C 
ENDBRANCH   5   8
ENDBRANCH   4   5
ENDBRANCH   3   4
TORSDOF 3
ENDMDL
MODEL 7
REMARK VINA RESULT:      -3.7     11.748     13.123
REMARK  3 active torsions:
REMARK  status: ('A' for Active; 'I' for Inactive)
REMARK    1  A    between atoms: C7_7  and  C8_8 
REMARK    2  A    between atoms: C8_8  and  C9_9 
REMARK    3  A    between atoms: C9_9  and  N10_10 
ROOT
HETATM    1  C1  UNL     1     -33.685  17.676  -0.953  1.00 20.00     0.012 C 
HETATM    2  C3  UNL     1     -33.530  16.984  -1.922  1.00 20.00    -0.117 C 
HETATM    3  C7  UNL     1     -33.336  16.134  -3.105  1.00 20.00     0.096 C 
ENDROOT
BRANCH   3   4
HETATM    4  C8  UNL     1     -34.027  16.703  -4.352  1.00 20.00     0.061 C 
BRANCH   4   5
HETATM    5  C9  UNL     1     -34.251  15.681  -5.483  1.00 20.00     0.300 C 
HETATM    6  C4  UNL     1     -35.155  14.596  -5.062  1.00 20.00    -0.081 C 
HETATM    7  C2  UNL     1     -35.886  13.707  -4.720  1.00 20.00     0.014 C 
BRANCH   5   8
HETATM    8  N10 UNL     1     -34.829  16.372  -6.639  1.00 20.00     0.095 N 
HETATM    9  C5  UNL     1     -34.240  15.869  -7.878  1.00 20.00     0.310 C 
HETATM   10  C6  UNL     1     -34.625  17.815  -6.523  1.00 20.00     0.310 C 
ENDBRANCH   5   8
ENDBRANCH   4   5
ENDBRANCH   3   4
TORSDOF 3
ENDMDL
MODEL 8
REMARK VINA RESULT:      -3.7      1.122      2.353
REMARK  3 active torsions:
REMARK  status: ('A' for Active; 'I' for Inactive)
REMARK    1  A    between atoms: C7_7  and  C8_8 
REMARK    2  A    between atoms: C8_8  and  C9_9 
REMARK    3  A    between atoms: C9_9  and  N10_10 
ROOT
HETATM    1  C1  UNL     1     -32.687   9.153   0.436  1.00 20.00     0.012 C 
HETATM    2  C3  UNL     1     -32.335   8.312   1.218  1.00 20.00    -0.117 C 
HETATM    3  C7  UNL     1     -31.900   7.283   2.173  1.00 20.00     0.096 C 
ENDROOT
BRANCH   3   4
HETATM    4  C8  UNL     1     -33.077   6.652   2.927  1.00 20.00     0.061 C 
BRANCH   4   5
HETATM    5  C9  UNL     1     -33.028   6.830   4.457  1.00 20.00     0.300 C 
HETATM    6  C4  UNL     1     -32.647   8.203   4.831  1.00 20.00    -0.081 C 
HETATM    7  C2  UNL     1     -32.330   9.319   5.139  1.00 20.00     0.014 C 
BRANCH   5   8
HETATM    8  N10 UNL     1     -34.350   6.526   5.012  1.00 20.00     0.095 N 
HETATM    9  C5  UNL     1     -34.328   6.638   6.469  1.00 20.00     0.310 C 
HETATM   10  C6  UNL     1     -34.776   5.187   4.607  1.00 20.00     0.310 C 
ENDBRANCH   5   8
ENDBRANCH   4   5
ENDBRANCH   3   4
TORSDOF 3
ENDMDL
MODEL 9
REMARK VINA RESULT:      -3.6     11.601     13.162
REMARK  3 active torsions:
REMARK  status: ('A' for Active; 'I' for Inactive)
REMARK    1  A    between atoms: C7_7  and  C8_8 
REMARK    2  A    between atoms: C8_8  and  C9_9 
REMARK    3  A    between atoms: C9_9  and  N10_10 
ROOT
HETATM    1  C1  UNL     1     -31.576  18.754  -0.590  1.00 20.00     0.012 C 
HETATM    2  C3  UNL     1     -32.440  18.043  -1.025  1.00 20.00    -0.117 C 
HETATM    3  C7  UNL     1     -33.496  17.168  -1.555  1.00 20.00     0.096 C 
ENDROOT
BRANCH   3   4
HETATM    4  C8  UNL     1     -34.231  17.797  -2.746  1.00 20.00     0.061 C 
BRANCH   4   5
HETATM    5  C9  UNL     1     -33.827  17.230  -4.121  1.00 20.00     0.300 C 
HETATM    6  C4  UNL     1     -33.823  15.757  -4.120  1.00 20.00    -0.081 C 
HETATM    7  C2  UNL     1     -33.813  14.557  -4.121  1.00 20.00     0.014 C 
BRANCH   5   8
HETATM    8  N10 UNL     1     -34.774  17.713  -5.129  1.00 20.00     0.095 N 
HETATM    9  C5  UNL     1     -34.186  18.809  -5.896  1.00 20.00     0.310 C 
HETATM   10  C6  UNL     1     -36.020  18.141  -4.494  1.00 20.00     0.310 C 
ENDBRANCH   5   8
ENDBRANCH   4   5
ENDBRANCH   3   4
TORSDOF 3
ENDMDL
