MODEL 1
REMARK VINA RESULT:      -4.6      0.000      0.000
REMARK  1 active torsions:
REMARK  status: ('A' for Active; 'I' for Inactive)
REMARK    1  A    between atoms: C3_3  and  C7_7 
ROOT
HETATM    1  C1  UNL     1     -33.830   7.358   5.291  1.00 20.00    -0.019 C 
HETATM    2  C2  UNL     1     -34.065   6.039   5.190  1.00 20.00    -0.087 C 
HETATM    3  C4  UNL     1     -33.714   5.258   3.950  1.00 20.00     0.034 C 
HETATM    4  C5  UNL     1     -33.442   6.148   2.737  1.00 20.00     0.017 C 
HETATM    5  C6  UNL     1     -33.163   8.187   4.218  1.00 20.00     0.015 C 
HETATM    6  C7  UNL     1     -32.532   7.320   3.107  1.00 20.00     0.062 C 
HETATM    7  C8  UNL     1     -34.694   5.258   6.306  1.00 20.00     0.043 C 
HETATM    8  C10 UNL     1     -32.106   9.100   4.851  1.00 20.00     0.015 C 
ENDROOT
BRANCH   6   9
HETATM    9  C3  UNL     1     -32.292   8.151   1.880  1.00 20.00     0.127 C 
HETATM   10  C9  UNL     1     -32.971   9.492   1.828  1.00 20.00     0.091 C 
HETATM   11  O11 UNL     1     -31.575   7.754   0.963  1.00 20.00    -0.298 OA
ENDBRANCH   6   9
TORSDOF 1
ENDMDL
MODEL 2
REMARK VINA RESULT:      -4.5     11.610     12.308
REMARK  1 active torsions:
REMARK  status: ('A' for Active; 'I' for Inactive)
REMARK    1  A    between atoms: C3_3  and  C7_7 
ROOT
HETATM    1  C1  UNL     1     -33.461  18.717   1.109  1.00 20.00    -0.019 C 
HETATM    2  C2  UNL     1     -32.199  18.959   1.505  1.00 20.00    -0.087 C 
HETATM    3  C4  UNL     1     -31.042  18.939   0.541  1.00 20.00     0.034 C 
HETATM    4  C5  UNL     1     -31.379  18.263  -0.788  1.00 20.00     0.017 C 
HETATM    5  C6  UNL     1     -33.864  18.446  -0.322  1.00 20.00     0.015 C 
HETATM    6  C7  UNL     1     -32.728  18.743  -1.324  1.00 20.00     0.062 C 
HETATM    7  C8  UNL     1     -31.863  19.263   2.935  1.00 20.00     0.043 C 
HETATM    8  C10 UNL     1     -35.115  19.263  -0.671  1.00 20.00     0.015 C 
ENDROOT
BRANCH   6   9
HETATM    9  C3  UNL     1     -33.001  18.056  -2.630  1.00 20.00     0.127 C 
HETATM   10  C9  UNL     1     -33.322  16.588  -2.568  1.00 20.00     0.091 C 
HETATM   11  O11 UNL     1     -32.965  18.665  -3.699  1.00 20.00    -0.298 OA
ENDBRANCH   6   9
TORSDOF 1
ENDMDL
MODEL 3
REMARK VINA RESULT:      -4.5     10.782     12.788
REMARK  1 active torsions:
REMARK  status: ('A' for Active; 'I' for Inactive)
REMARK    1  A    between atoms: C3_3  and  C7_7 
ROOT
HETATM    1  C1  UNL     1     -33.350  15.930  -3.430  1.00 20.00    -0.019 C 
HETATM    2  C2  UNL     1     -33.527  17.251  -3.256  1.00 20.00    -0.087 C 
HETATM    3  C4  UNL     1     -34.260  18.098  -4.264  1.00 20.00     0.034 C 
HETATM    4  C5  UNL     1     -34.428  17.409  -5.618  1.00 20.00     0.017 C 
HETATM    5  C6  UNL     1     -33.890  15.148  -4.606  1.00 20.00     0.015 C 
HETATM    6  C7  UNL     1     -34.895  15.963  -5.448  1.00 20.00     0.062 C 
HETATM    7  C8  UNL     1     -33.003  17.968  -2.047  1.00 20.00     0.043 C 
HETATM    8  C10 UNL     1     -34.535  13.848  -4.111  1.00 20.00     0.015 C 
ENDROOT
BRANCH   6   9
HETATM    9  C3  UNL     1     -35.051  15.343  -6.805  1.00 20.00     0.127 C 
HETATM   10  C9  UNL     1     -34.024  15.711  -7.840  1.00 20.00     0.091 C 
HETATM   11  O11 UNL     1     -35.975  14.571  -7.058  1.00 20.00    -0.298 OA
ENDBRANCH   6   9
TORSDOF 1
ENDMDL
MODEL 4
REMARK VINA RESULT:      -4.4     11.387     12.712
REMARK  1 active torsions:
REMARK  status: ('A' for Active; 'I' for Inactive)
REMARK    1  A    between atoms: C3_3  and  C7_7 
ROOT
HETATM    1  C1  UNL     1     -34.977  18.080  -3.530  1.00 20.00    -0.019 C 
HETATM    2  C2  UNL     1     -34.131  17.743  -2.541  1.00 20.00    -0.087 C 
HETATM    3  C4  UNL     1     -33.288  16.496  -2.602  1.00 20.00     0.034 C 
HETATM    4  C5  UNL     1     -33.758  15.505  -3.665  1.00 20.00     0.017 C 
HETATM    5  C6  UNL     1     -35.145  17.292  -4.808  1.00 20.00     0.015 C 
HETATM    6  C7  UNL     1     -34.055  16.213  -4.987  1.00 20.00     0.062 C 
HETATM    7  C8  UNL     1     -33.976  18.587  -1.310  1.00 20.00     0.043 C 
HETATM    8  C10 UNL     1     -35.155  18.247  -6.008  1.00 20.00     0.015 C 
ENDROOT
BRANCH   6   9
HETATM    9  C3  UNL     1     -34.501  15.192  -5.993  1.00 20.00     0.127 C 
HETATM   10  C9  UNL     1     -35.813  14.506  -5.724  1.00 20.00     0.091 C 
HETATM   11  O11 UNL     1     -33.828  14.931  -6.988  1.00 20.00    -0.298 OA
ENDBRANCH   6   9
TORSDOF 1
ENDMDL
MODEL 5
REMARK VINA RESULT:      -4.4     11.280     12.752
REMARK  1 active torsions:
REMARK  status: ('A' for Active; 'I' for Inactive)
REMARK    1  A    between atoms: C3_3  and  C7_7 
ROOT
HETATM    1  C1  UNL     1     -33.316  16.447  -2.790  1.00 20.00    -0.019 C 
HETATM    2  C2  UNL     1     -33.835  17.493  -2.124  1.00 20.00    -0.087 C 
HETATM    3  C4  UNL     1     -34.878  18.391  -2.737  1.00 20.00     0.034 C 
HETATM    4  C5  UNL     1     -34.992  18.233  -4.253  1.00 20.00     0.017 C 
HETATM    5  C6  UNL     1     -33.739  16.030  -4.180  1.00 20.00     0.015 C 
HETATM    6  C7  UNL     1     -35.016  16.757  -4.654  1.00 20.00     0.062 C 
HETATM    7  C8  UNL     1     -33.406  17.836  -0.728  1.00 20.00     0.043 C 
HETATM    8  C10 UNL     1     -33.939  14.510  -4.226  1.00 20.00     0.015 C 
ENDROOT
BRANCH   6   9
HETATM    9  C3  UNL     1     -35.137  16.664  -6.146  1.00 20.00     0.127 C 
HETATM   10  C9  UNL     1     -36.341  15.940  -6.683  1.00 20.00     0.091 C 
HETATM   11  O11 UNL     1     -34.293  17.157  -6.894  1.00 20.00    -0.298 OA
ENDBRANCH   6   9
TORSDOF 1
ENDMDL
MODEL 6
REMARK VINA RESULT:      -4.3     11.478     12.586
REMARK  1 active torsions:
REMARK  status: ('A' for Active; 'I' for Inactive)
REMARK    1  A    between atoms: C3_3  and  C7_7 
ROOT
HETATM    1  C1  UNL     1     -35.106  17.231  -4.704  1.00 20.00    -0.019 C 
HETATM    2  C2  UNL     1     -34.734  15.952  -4.888  1.00 20.00    -0.087 C 
HETATM    3  C4  UNL     1     -33.739  15.273  -3.984  1.00 20.00     0.034 C 
HETATM    4  C5  UNL     1     -32.943  16.253  -3.122  1.00 20.00     0.017 C 
HETATM    5  C6  UNL     1     -34.616  18.104  -3.572  1.00 20.00     0.015 C 
HETATM    6  C7  UNL     1     -33.859  17.302  -2.491  1.00 20.00     0.062 C 
HETATM    7  C8  UNL     1     -35.285  15.120  -6.008  1.00 20.00     0.043 C 
HETATM    8  C10 UNL     1     -35.799  18.857  -2.950  1.00 20.00     0.015 C 
ENDROOT
BRANCH   6   9
HETATM    9  C3  UNL     1     -33.028  18.228  -1.652  1.00 20.00     0.127 C 
HETATM   10  C9  UNL     1     -33.278  18.206  -0.169  1.00 20.00     0.091 C 
HETATM   11  O11 UNL     1     -32.182  18.967  -2.153  1.00 20.00    -0.298 OA
ENDBRANCH   6   9
TORSDOF 1
ENDMDL
MODEL 7
REMARK VINA RESULT:      -4.0     11.032     12.018
REMARK  1 active torsions:
REMARK  status: ('A' for Active; 'I' for Inactive)
REMARK    1  A    between atoms: C3_3  and  C7_7 
ROOT
HETATM    1  C1  UNL     1     -42.316  16.103   6.232  1.00 20.00    -0.019 C 
HETATM    2  C2  UNL     1     -41.506  16.722   7.107  1.00 20.00    -0.087 C 
HETATM    3  C4  UNL     1     -40.410  15.990   7.836  1.00 20.00     0.034 C 
HETATM    4  C5  UNL     1     -40.561  14.471   7.778  1.00 20.00     0.017 C 
HETATM    5  C6  UNL     1     -42.200  14.645   5.852  1.00 20.00     0.015 C 
HETATM    6  C7  UNL     1     -40.891  14.003   6.360  1.00 20.00     0.062 C 
HETATM    7  C8  UNL     1     -41.643  18.185   7.415  1.00 20.00     0.043 C 
HETATM    8  C10 UNL     1     -42.315  14.496   4.330  1.00 20.00     0.015 C 
ENDROOT
BRANCH   6   9
HETATM    9  C3  UNL     1     -41.018  12.508   6.362  1.00 20.00     0.127 C 
HETATM   10  C9  UNL     1     -39.858  11.730   5.804  1.00 20.00     0.091 C 
HETATM   11  O11 UNL     1     -42.022  11.946   6.798  1.00 20.00    -0.298 OA
ENDBRANCH   6   9
TORSDOF 1
ENDMDL
MODEL 8
REMARK VINA RESULT:      -4.0      2.123      4.090
REMARK  1 active torsions:
REMARK  status: ('A' for Active; 'I' for Inactive)
REMARK    1  A    between atoms: C3_3  and  C7_7 
ROOT
HETATM    1  C1  UNL     1     -32.445   8.000   3.458  1.00 20.00    -0.019 C 
HETATM    2  C2  UNL     1     -32.389   7.575   2.184  1.00 20.00    -0.087 C 
HETATM    3  C4  UNL     1     -32.954   6.244   1.761  1.00 20.00     0.034 C 
HETATM    4  C5  UNL     1     -33.231   5.308   2.937  1.00 20.00     0.017 C 
HETATM    5  C6  UNL     1     -33.104   7.234   4.581  1.00 20.00     0.015 C 
HETATM    6  C7  UNL     1     -33.945   6.043   4.071  1.00 20.00     0.062 C 
HETATM    7  C8  UNL     1     -31.756   8.398   1.101  1.00 20.00     0.043 C 
HETATM    8  C10 UNL     1     -33.971   8.183   5.417  1.00 20.00     0.015 C 
ENDROOT
BRANCH   6   9
HETATM    9  C3  UNL     1     -34.198   5.075   5.190  1.00 20.00     0.127 C 
HETATM   10  C9  UNL     1     -34.708   5.653   6.482  1.00 20.00     0.091 C 
HETATM   11  O11 UNL     1     -33.998   3.869   5.057  1.00 20.00    -0.298 OA
ENDBRANCH   6   9
TORSDOF 1
ENDMDL
MODEL 9
REMARK VINA RESULT:      -3.8     10.649     11.516
REMARK  1 active torsions:
REMARK  status: ('A' for Active; 'I' for Inactive)
REMARK    1  A    between atoms: C3_3  and  C7_7 
ROOT
HETATM    1  C1  UNL     1     -41.076  13.337   4.805  1.00 20.00    -0.019 C 
HETATM    2  C2  UNL     1     -40.087  12.556   5.272  1.00 20.00    -0.087 C 
HETATM    3  C4  UNL     1     -39.697  12.546   6.727  1.00 20.00     0.034 C 
HETATM    4  C5  UNL     1     -40.248  13.741   7.505  1.00 20.00     0.017 C 
HETATM    5  C6  UNL     1     -41.923  14.242   5.669  1.00 20.00     0.015 C 
HETATM    6  C7  UNL     1     -41.722  13.979   7.177  1.00 20.00     0.062 C 
HETATM    7  C8  UNL     1     -39.305  11.645   4.372  1.00 20.00     0.043 C 
HETATM    8  C10 UNL     1     -43.401  14.087   5.290  1.00 20.00     0.015 C 
ENDROOT
BRANCH   6   9
HETATM    9  C3  UNL     1     -42.210  15.154   7.974  1.00 20.00     0.127 C 
HETATM   10  C9  UNL     1     -41.458  16.446   7.804  1.00 20.00     0.091 C 
HETATM   11  O11 UNL     1     -43.178  15.064   8.728  1.00 20.00    -0.298 OA
ENDBRANCH   6   9
TORSDOF 1
ENDMDL
