MODEL 1
REMARK VINA RESULT:      -4.7      0.000      0.000
REMARK  3 active torsions:
REMARK  status: ('A' for Active; 'I' for Inactive)
REMARK    1  A    between atoms: C1_1  and  C6_6 
REMARK    2  A    between atoms: C7_7  and  C8_8 
REMARK    3  A    between atoms: C8_8  and  O10_10 
ROOT
HETATM    1  C2  UNL     1     -33.056   5.621   2.605  1.00 20.00     0.001 C 
HETATM    2  C3  UNL     1     -33.670   4.986   3.850  1.00 20.00     0.011 C 
HETATM    3  C4  UNL     1     -32.263   6.880   2.948  1.00 20.00     0.007 C 
HETATM    4  C5  UNL     1     -33.724   7.247   4.978  1.00 20.00     0.018 C 
HETATM    5  C6  UNL     1     -34.516   5.994   4.620  1.00 20.00     0.047 C 
HETATM    6  C7  UNL     1     -33.112   7.893   3.726  1.00 20.00     0.010 C 
ENDROOT
BRANCH   6   7
HETATM    7  C8  UNL     1     -32.281   9.119   4.104  1.00 20.00     0.168 C 
BRANCH   7   8
HETATM    8  O10 UNL     1     -31.992   9.056   5.488  1.00 20.00    -0.400 OA
HETATM    9  H24 UNL     1     -32.810   8.787   5.938  1.00 20.00     0.209 HD
ENDBRANCH   7   8
ENDBRANCH   6   7
BRANCH   5  10
HETATM   10  C1  UNL     1     -34.945   5.335   5.917  1.00 20.00     0.235 C 
HETATM   11  O9  UNL     1     -34.172   5.084   6.836  1.00 20.00    -0.306 OA
ENDBRANCH   5  10
TORSDOF 3
ENDMDL
MODEL 2
REMARK VINA RESULT:      -4.7      1.853      4.349
REMARK  3 active torsions:
REMARK  status: ('A' for Active; 'I' for Inactive)
REMARK    1  A    between atoms: C1_1  and  C6_6 
REMARK    2  A    between atoms: C7_7  and  C8_8 
REMARK    3  A    between atoms: C8_8  and  O10_10 
ROOT
HETATM    1  C2  UNL     1     -33.477   8.548   5.881  1.00 20.00     0.001 C 
HETATM    2  C3  UNL     1     -32.488   8.585   4.719  1.00 20.00     0.011 C 
HETATM    3  C4  UNL     1     -33.876   7.117   6.235  1.00 20.00     0.007 C 
HETATM    4  C5  UNL     1     -33.422   6.401   3.854  1.00 20.00     0.018 C 
HETATM    5  C6  UNL     1     -33.035   7.836   3.508  1.00 20.00     0.047 C 
HETATM    6  C7  UNL     1     -34.423   6.361   5.017  1.00 20.00     0.010 C 
ENDROOT
BRANCH   6   7
HETATM    7  C8  UNL     1     -34.764   4.918   5.386  1.00 20.00     0.168 C 
BRANCH   7   8
HETATM    8  O10 UNL     1     -34.100   4.055   4.482  1.00 20.00    -0.400 OA
HETATM    9  H24 UNL     1     -34.635   4.026   3.670  1.00 20.00     0.209 HD
ENDBRANCH   7   8
ENDBRANCH   6   7
BRANCH   5  10
HETATM   10  C1  UNL     1     -31.931   7.777   2.469  1.00 20.00     0.235 C 
HETATM   11  O9  UNL     1     -32.114   7.996   1.276  1.00 20.00    -0.306 OA
ENDBRANCH   5  10
TORSDOF 3
ENDMDL
MODEL 3
REMARK VINA RESULT:      -4.6      1.825      3.990
REMARK  3 active torsions:
REMARK  status: ('A' for Active; 'I' for Inactive)
REMARK    1  A    between atoms: C1_1  and  C6_6 
REMARK    2  A    between atoms: C7_7  and  C8_8 
REMARK    3  A    between atoms: C8_8  and  O10_10 
ROOT
HETATM    1  C2  UNL     1     -34.825   6.096   6.535  1.00 20.00     0.001 C 
HETATM    2  C3  UNL     1     -33.864   7.281   6.500  1.00 20.00     0.011 C 
HETATM    3  C4  UNL     1     -34.402   4.999   5.561  1.00 20.00     0.007 C 
HETATM    4  C5  UNL     1     -33.268   6.727   4.107  1.00 20.00     0.018 C 
HETATM    5  C6  UNL     1     -33.705   7.817   5.082  1.00 20.00     0.047 C 
HETATM    6  C7  UNL     1     -34.238   5.538   4.134  1.00 20.00     0.010 C 
ENDROOT
BRANCH   6   7
HETATM    7  C8  UNL     1     -33.762   4.433   3.191  1.00 20.00     0.168 C 
BRANCH   7   8
HETATM    8  O10 UNL     1     -32.692   4.936   2.415  1.00 20.00    -0.400 OA
HETATM    9  H24 UNL     1     -32.867   5.880   2.263  1.00 20.00     0.209 HD
ENDBRANCH   7   8
ENDBRANCH   6   7
BRANCH   5  10
HETATM   10  C1  UNL     1     -32.615   8.872   5.111  1.00 20.00     0.235 C 
HETATM   11  O9  UNL     1     -32.181   9.424   4.105  1.00 20.00    -0.306 OA
ENDBRANCH   5  10
TORSDOF 3
ENDMDL
MODEL 4
REMARK VINA RESULT:      -4.2      1.401      3.884
REMARK  3 active torsions:
REMARK  status: ('A' for Active; 'I' for Inactive)
REMARK    1  A    between atoms: C1_1  and  C6_6 
REMARK    2  A    between atoms: C7_7  and  C8_8 
REMARK    3  A    between atoms: C8_8  and  O10_10 
ROOT
HETATM    1  C2  UNL     1     -32.885   5.380   2.882  1.00 20.00     0.001 C 
HETATM    2  C3  UNL     1     -32.705   6.822   2.415  1.00 20.00     0.011 C 
HETATM    3  C4  UNL     1     -33.960   5.266   3.959  1.00 20.00     0.007 C 
HETATM    4  C5  UNL     1     -33.503   7.650   4.666  1.00 20.00     0.018 C 
HETATM    5  C6  UNL     1     -32.423   7.749   3.593  1.00 20.00     0.047 C 
HETATM    6  C7  UNL     1     -33.680   6.202   5.143  1.00 20.00     0.010 C 
ENDROOT
BRANCH   6   7
HETATM    7  C8  UNL     1     -34.797   6.108   6.181  1.00 20.00     0.168 C 
BRANCH   7   8
HETATM    8  O10 UNL     1     -35.280   4.778   6.203  1.00 20.00    -0.400 OA
HETATM    9  H24 UNL     1     -34.670   4.244   5.665  1.00 20.00     0.209 HD
ENDBRANCH   7   8
ENDBRANCH   6   7
BRANCH   5  10
HETATM   10  C1  UNL     1     -32.426   9.172   3.066  1.00 20.00     0.235 C 
HETATM   11  O9  UNL     1     -32.780   9.471   1.929  1.00 20.00    -0.306 OA
ENDBRANCH   5  10
TORSDOF 3
ENDMDL
MODEL 5
REMARK VINA RESULT:      -4.2      1.777      2.677
REMARK  3 active torsions:
REMARK  status: ('A' for Active; 'I' for Inactive)
REMARK    1  A    between atoms: C1_1  and  C6_6 
REMARK    2  A    between atoms: C7_7  and  C8_8 
REMARK    3  A    between atoms: C8_8  and  O10_10 
ROOT
HETATM    1  C2  UNL     1     -32.672   8.853   5.243  1.00 20.00     0.001 C 
HETATM    2  C3  UNL     1     -33.787   7.878   5.614  1.00 20.00     0.011 C 
HETATM    3  C4  UNL     1     -32.479   8.939   3.731  1.00 20.00     0.007 C 
HETATM    4  C5  UNL     1     -33.363   6.584   3.485  1.00 20.00     0.018 C 
HETATM    5  C6  UNL     1     -33.542   6.505   4.998  1.00 20.00     0.047 C 
HETATM    6  C7  UNL     1     -32.237   7.557   3.109  1.00 20.00     0.010 C 
ENDROOT
BRANCH   6   7
HETATM    7  C8  UNL     1     -32.101   7.665   1.591  1.00 20.00     0.168 C 
BRANCH   7   8
HETATM    8  O10 UNL     1     -32.483   8.969   1.197  1.00 20.00    -0.400 OA
HETATM    9  H24 UNL     1     -33.444   8.953   1.049  1.00 20.00     0.209 HD
ENDBRANCH   7   8
ENDBRANCH   6   7
BRANCH   5  10
HETATM   10  C1  UNL     1     -34.768   5.655   5.273  1.00 20.00     0.235 C 
HETATM   11  O9  UNL     1     -34.889   4.497   4.886  1.00 20.00    -0.306 OA
ENDBRANCH   5  10
TORSDOF 3
ENDMDL
MODEL 6
REMARK VINA RESULT:      -4.0     11.857     13.544
REMARK  3 active torsions:
REMARK  status: ('A' for Active; 'I' for Inactive)
REMARK    1  A    between atoms: C1_1  and  C6_6 
REMARK    2  A    between atoms: C7_7  and  C8_8 
REMARK    3  A    between atoms: C8_8  and  O10_10 
ROOT
HETATM    1  C2  UNL     1     -34.532  18.291  -4.877  1.00 20.00     0.001 C 
HETATM    2  C3  UNL     1     -34.076  18.805  -3.514  1.00 20.00     0.011 C 
HETATM    3  C4  UNL     1     -34.895  16.809  -4.827  1.00 20.00     0.007 C 
HETATM    4  C5  UNL     1     -33.293  16.482  -2.899  1.00 20.00     0.018 C 
HETATM    5  C6  UNL     1     -32.930  17.962  -2.965  1.00 20.00     0.047 C 
HETATM    6  C7  UNL     1     -33.744  15.960  -4.270  1.00 20.00     0.010 C 
ENDROOT
BRANCH   6   7
HETATM    7  C8  UNL     1     -34.152  14.490  -4.180  1.00 20.00     0.168 C 
BRANCH   7   8
HETATM    8  O10 UNL     1     -33.069  13.696  -4.627  1.00 20.00    -0.400 OA
HETATM    9  H24 UNL     1     -32.686  14.144  -5.400  1.00 20.00     0.209 HD
ENDBRANCH   7   8
ENDBRANCH   6   7
BRANCH   5  10
HETATM   10  C1  UNL     1     -32.654  18.432  -1.549  1.00 20.00     0.235 C 
HETATM   11  O9  UNL     1     -31.628  19.019  -1.219  1.00 20.00    -0.306 OA
ENDBRANCH   5  10
TORSDOF 3
ENDMDL
MODEL 7
REMARK VINA RESULT:      -4.0      1.940      3.772
REMARK  3 active torsions:
REMARK  status: ('A' for Active; 'I' for Inactive)
REMARK    1  A    between atoms: C1_1  and  C6_6 
REMARK    2  A    between atoms: C7_7  and  C8_8 
REMARK    3  A    between atoms: C8_8  and  O10_10 
ROOT
HETATM    1  C2  UNL     1     -32.602   8.675   4.837  1.00 20.00     0.001 C 
HETATM    2  C3  UNL     1     -32.083   7.780   3.715  1.00 20.00     0.011 C 
HETATM    3  C4  UNL     1     -33.217   7.857   5.970  1.00 20.00     0.007 C 
HETATM    4  C5  UNL     1     -33.783   6.016   4.333  1.00 20.00     0.018 C 
HETATM    5  C6  UNL     1     -33.176   6.846   3.207  1.00 20.00     0.047 C 
HETATM    6  C7  UNL     1     -34.315   6.914   5.460  1.00 20.00     0.010 C 
ENDROOT
BRANCH   6   7
HETATM    7  C8  UNL     1     -34.875   6.069   6.603  1.00 20.00     0.168 C 
BRANCH   7   8
HETATM    8  O10 UNL     1     -35.225   4.796   6.092  1.00 20.00    -0.400 OA
HETATM    9  H24 UNL     1     -36.057   4.534   6.522  1.00 20.00     0.209 HD
ENDBRANCH   7   8
ENDBRANCH   6   7
BRANCH   5  10
HETATM   10  C1  UNL     1     -32.536   5.887   2.221  1.00 20.00     0.235 C 
HETATM   11  O9  UNL     1     -32.747   4.678   2.220  1.00 20.00    -0.306 OA
ENDBRANCH   5  10
TORSDOF 3
ENDMDL
MODEL 8
REMARK VINA RESULT:      -3.8      1.921      2.837
REMARK  3 active torsions:
REMARK  status: ('A' for Active; 'I' for Inactive)
REMARK    1  A    between atoms: C1_1  and  C6_6 
REMARK    2  A    between atoms: C7_7  and  C8_8 
REMARK    3  A    between atoms: C8_8  and  O10_10 
ROOT
HETATM    1  C2  UNL     1     -34.623   6.119   6.340  1.00 20.00     0.001 C 
HETATM    2  C3  UNL     1     -34.729   5.337   5.034  1.00 20.00     0.011 C 
HETATM    3  C4  UNL     1     -34.196   7.565   6.098  1.00 20.00     0.007 C 
HETATM    4  C5  UNL     1     -33.004   6.857   3.983  1.00 20.00     0.018 C 
HETATM    5  C6  UNL     1     -33.428   5.414   4.241  1.00 20.00     0.047 C 
HETATM    6  C7  UNL     1     -32.889   7.644   5.297  1.00 20.00     0.010 C 
ENDROOT
BRANCH   6   7
HETATM    7  C8  UNL     1     -32.512   9.100   5.022  1.00 20.00     0.168 C 
BRANCH   7   8
HETATM    8  O10 UNL     1     -32.407   9.279   3.622  1.00 20.00    -0.400 OA
HETATM    9  H24 UNL     1     -32.701  10.185   3.426  1.00 20.00     0.209 HD
ENDBRANCH   7   8
ENDBRANCH   6   7
BRANCH   5  10
HETATM   10  C1  UNL     1     -33.673   4.759   2.895  1.00 20.00     0.235 C 
HETATM   11  O9  UNL     1     -32.877   4.812   1.962  1.00 20.00    -0.306 OA
ENDBRANCH   5  10
TORSDOF 3
ENDMDL
MODEL 9
REMARK VINA RESULT:      -3.8     12.563     13.540
REMARK  3 active torsions:
REMARK  status: ('A' for Active; 'I' for Inactive)
REMARK    1  A    between atoms: C1_1  and  C6_6 
REMARK    2  A    between atoms: C7_7  and  C8_8 
REMARK    3  A    between atoms: C8_8  and  O10_10 
ROOT
HETATM    1  C2  UNL     1     -32.976  15.093  -4.126  1.00 20.00     0.001 C 
HETATM    2  C3  UNL     1     -34.084  14.677  -5.090  1.00 20.00     0.011 C 
HETATM    3  C4  UNL     1     -33.444  16.186  -3.168  1.00 20.00     0.007 C 
HETATM    4  C5  UNL     1     -35.124  16.972  -4.886  1.00 20.00     0.018 C 
HETATM    5  C6  UNL     1     -34.641  15.882  -5.840  1.00 20.00     0.047 C 
HETATM    6  C7  UNL     1     -34.008  17.398  -3.922  1.00 20.00     0.010 C 
ENDROOT
BRANCH   6   7
HETATM    7  C8  UNL     1     -34.518  18.454  -2.941  1.00 20.00     0.168 C 
BRANCH   7   8
HETATM    8  O10 UNL     1     -35.902  18.240  -2.731  1.00 20.00    -0.400 OA
HETATM    9  H24 UNL     1     -36.013  17.984  -1.800  1.00 20.00     0.209 HD
ENDBRANCH   7   8
ENDBRANCH   6   7
BRANCH   5  10
HETATM   10  C1  UNL     1     -35.839  15.409  -6.642  1.00 20.00     0.235 C 
HETATM   11  O9  UNL     1     -35.985  14.250  -7.017  1.00 20.00    -0.306 OA
ENDBRANCH   5  10
TORSDOF 3
ENDMDL
