MODEL 1
REMARK VINA RESULT:      -3.5      0.000      0.000
REMARK  2 active torsions:
REMARK  status: ('A' for Active; 'I' for Inactive)
REMARK    1  A    between atoms: C1_1  and  C5_5 
REMARK    2  A    between atoms: C5_5  and  O8_8 
ROOT
HETATM    1  C2  UNL     1     -40.949   8.616  -0.085  1.00 20.00     0.007 C 
HETATM    2  C3  UNL     1     -42.375   8.116  -0.371  1.00 20.00     0.047 C 
HETATM    3  C4  UNL     1     -40.864   7.571   1.040  1.00 20.00     0.047 C 
HETATM    4  C5  UNL     1     -41.995   6.770   0.321  1.00 20.00     0.136 C 
ENDROOT
BRANCH   4   5
HETATM    5  C1  UNL     1     -41.525   5.637  -0.630  1.00 20.00     0.253 C 
HETATM    6  O7  UNL     1     -40.338   5.357  -0.763  1.00 20.00    -0.276 OA
HETATM    7 CL9  UNL     1     -42.856   4.863  -1.435  1.00 20.00    -0.041 Cl
ENDBRANCH   4   5
BRANCH   4   8
HETATM    8  O8  UNL     1     -43.017   6.275   1.216  1.00 20.00    -0.376 OA
HETATM    9  C6  UNL     1     -42.654   5.013   1.736  1.00 20.00     0.203 C 
ENDBRANCH   4   8
TORSDOF 2
ENDMDL
MODEL 2
REMARK VINA RESULT:      -3.4      8.782      9.771
REMARK  2 active torsions:
REMARK  status: ('A' for Active; 'I' for Inactive)
REMARK    1  A    between atoms: C1_1  and  C5_5 
REMARK    2  A    between atoms: C5_5  and  O8_8 
ROOT
HETATM    1  C2  UNL     1     -34.613   5.184   5.715  1.00 20.00     0.007 C 
HETATM    2  C3  UNL     1     -33.565   6.253   6.068  1.00 20.00     0.047 C 
HETATM    3  C4  UNL     1     -35.213   6.180   4.708  1.00 20.00     0.047 C 
HETATM    4  C5  UNL     1     -33.835   6.914   4.680  1.00 20.00     0.136 C 
ENDROOT
BRANCH   4   5
HETATM    5  C1  UNL     1     -32.868   6.499   3.540  1.00 20.00     0.253 C 
HETATM    6  O7  UNL     1     -31.950   7.227   3.175  1.00 20.00    -0.276 OA
HETATM    7 CL9  UNL     1     -33.256   4.935   2.889  1.00 20.00    -0.041 Cl
ENDBRANCH   4   5
BRANCH   4   8
HETATM    8  O8  UNL     1     -33.942   8.355   4.742  1.00 20.00    -0.376 OA
HETATM    9  C6  UNL     1     -32.708   8.929   5.121  1.00 20.00     0.203 C 
ENDBRANCH   4   8
TORSDOF 2
ENDMDL
MODEL 3
REMARK VINA RESULT:      -3.4      8.720      9.699
REMARK  2 active torsions:
REMARK  status: ('A' for Active; 'I' for Inactive)
REMARK    1  A    between atoms: C1_1  and  C5_5 
REMARK    2  A    between atoms: C5_5  and  O8_8 
ROOT
HETATM    1  C2  UNL     1     -34.793   5.144   5.705  1.00 20.00     0.007 C 
HETATM    2  C3  UNL     1     -33.628   6.122   5.931  1.00 20.00     0.047 C 
HETATM    3  C4  UNL     1     -35.349   6.129   4.664  1.00 20.00     0.047 C 
HETATM    4  C5  UNL     1     -33.911   6.717   4.516  1.00 20.00     0.136 C 
ENDROOT
BRANCH   4   5
HETATM    5  C1  UNL     1     -33.055   6.134   3.360  1.00 20.00     0.253 C 
HETATM    6  O7  UNL     1     -33.049   4.934   3.103  1.00 20.00    -0.276 OA
HETATM    7 CL9  UNL     1     -32.156   7.365   2.526  1.00 20.00    -0.041 Cl
ENDBRANCH   4   5
BRANCH   4   8
HETATM    8  O8  UNL     1     -33.873   8.162   4.483  1.00 20.00    -0.376 OA
HETATM    9  C6  UNL     1     -32.662   8.640   5.032  1.00 20.00     0.203 C 
ENDBRANCH   4   8
TORSDOF 2
ENDMDL
MODEL 4
REMARK VINA RESULT:      -3.3      8.715      9.450
REMARK  2 active torsions:
REMARK  status: ('A' for Active; 'I' for Inactive)
REMARK    1  A    between atoms: C1_1  and  C5_5 
REMARK    2  A    between atoms: C5_5  and  O8_8 
ROOT
HETATM    1  C2  UNL     1     -32.880   8.749   3.669  1.00 20.00     0.007 C 
HETATM    2  C3  UNL     1     -33.977   8.616   4.737  1.00 20.00     0.047 C 
HETATM    3  C4  UNL     1     -32.166   7.557   4.328  1.00 20.00     0.047 C 
HETATM    4  C5  UNL     1     -33.537   7.133   4.943  1.00 20.00     0.136 C 
ENDROOT
BRANCH   4   5
HETATM    5  C1  UNL     1     -34.343   6.077   4.141  1.00 20.00     0.253 C 
HETATM    6  O7  UNL     1     -35.555   5.947   4.280  1.00 20.00    -0.276 OA
HETATM    7 CL9  UNL     1     -33.329   5.153   3.073  1.00 20.00    -0.041 Cl
ENDBRANCH   4   5
BRANCH   4   8
HETATM    8  O8  UNL     1     -33.456   6.745   6.334  1.00 20.00    -0.376 OA
HETATM    9  C6  UNL     1     -34.137   5.527   6.550  1.00 20.00     0.203 C 
ENDBRANCH   4   8
TORSDOF 2
ENDMDL
MODEL 5
REMARK VINA RESULT:      -3.2     11.094     12.547
REMARK  2 active torsions:
REMARK  status: ('A' for Active; 'I' for Inactive)
REMARK    1  A    between atoms: C1_1  and  C5_5 
REMARK    2  A    between atoms: C5_5  and  O8_8 
ROOT
HETATM    1  C2  UNL     1     -33.618  15.862  -3.568  1.00 20.00     0.007 C 
HETATM    2  C3  UNL     1     -33.369  14.576  -4.374  1.00 20.00     0.047 C 
HETATM    3  C4  UNL     1     -34.286  16.455  -4.820  1.00 20.00     0.047 C 
HETATM    4  C5  UNL     1     -34.533  14.998  -5.325  1.00 20.00     0.136 C 
ENDROOT
BRANCH   4   5
HETATM    5  C1  UNL     1     -35.923  14.392  -4.994  1.00 20.00     0.253 C 
HETATM    6  O7  UNL     1     -36.046  13.233  -4.609  1.00 20.00    -0.276 OA
HETATM    7 CL9  UNL     1     -37.210  15.534  -5.236  1.00 20.00    -0.041 Cl
ENDBRANCH   4   5
BRANCH   4   8
HETATM    8  O8  UNL     1     -34.228  14.808  -6.725  1.00 20.00    -0.376 OA
HETATM    9  C6  UNL     1     -35.154  15.502  -7.534  1.00 20.00     0.203 C 
ENDBRANCH   4   8
TORSDOF 2
ENDMDL
MODEL 6
REMARK VINA RESULT:      -3.2      9.076      9.941
REMARK  2 active torsions:
REMARK  status: ('A' for Active; 'I' for Inactive)
REMARK    1  A    between atoms: C1_1  and  C5_5 
REMARK    2  A    between atoms: C5_5  and  O8_8 
ROOT
HETATM    1  C2  UNL     1     -40.076  12.798   4.778  1.00 20.00     0.007 C 
HETATM    2  C3  UNL     1     -40.173  11.867   5.999  1.00 20.00     0.047 C 
HETATM    3  C4  UNL     1     -41.449  13.368   5.170  1.00 20.00     0.047 C 
HETATM    4  C5  UNL     1     -41.192  12.868   6.627  1.00 20.00     0.136 C 
ENDROOT
BRANCH   4   5
HETATM    5  C1  UNL     1     -40.592  13.911   7.606  1.00 20.00     0.253 C 
HETATM    6  O7  UNL     1     -39.997  13.573   8.624  1.00 20.00    -0.276 OA
HETATM    7 CL9  UNL     1     -40.873  15.543   7.078  1.00 20.00    -0.041 Cl
ENDBRANCH   4   5
BRANCH   4   8
HETATM    8  O8  UNL     1     -42.336  12.220   7.229  1.00 20.00    -0.376 OA
HETATM    9  C6  UNL     1     -43.177  13.172   7.848  1.00 20.00     0.203 C 
ENDBRANCH   4   8
TORSDOF 2
ENDMDL
MODEL 7
REMARK VINA RESULT:      -3.2      9.218      9.925
REMARK  2 active torsions:
REMARK  status: ('A' for Active; 'I' for Inactive)
REMARK    1  A    between atoms: C1_1  and  C5_5 
REMARK    2  A    between atoms: C5_5  and  O8_8 
ROOT
HETATM    1  C2  UNL     1     -40.740  15.753   7.494  1.00 20.00     0.007 C 
HETATM    2  C3  UNL     1     -42.096  15.105   7.167  1.00 20.00     0.047 C 
HETATM    3  C4  UNL     1     -40.299  14.406   8.090  1.00 20.00     0.047 C 
HETATM    4  C5  UNL     1     -41.393  13.712   7.219  1.00 20.00     0.136 C 
ENDROOT
BRANCH   4   5
HETATM    5  C1  UNL     1     -40.917  13.149   5.854  1.00 20.00     0.253 C 
HETATM    6  O7  UNL     1     -41.288  13.635   4.791  1.00 20.00    -0.276 OA
HETATM    7 CL9  UNL     1     -39.838  11.800   6.043  1.00 20.00    -0.041 Cl
ENDBRANCH   4   5
BRANCH   4   8
HETATM    8  O8  UNL     1     -42.155  12.711   7.932  1.00 20.00    -0.376 OA
HETATM    9  C6  UNL     1     -43.151  12.157   7.097  1.00 20.00     0.203 C 
ENDBRANCH   4   8
TORSDOF 2
ENDMDL
MODEL 8
REMARK VINA RESULT:      -3.1      8.529      9.509
REMARK  2 active torsions:
REMARK  status: ('A' for Active; 'I' for Inactive)
REMARK    1  A    between atoms: C1_1  and  C5_5 
REMARK    2  A    between atoms: C5_5  and  O8_8 
ROOT
HETATM    1  C2  UNL     1     -39.756  11.554   5.088  1.00 20.00     0.007 C 
HETATM    2  C3  UNL     1     -40.270  12.947   4.687  1.00 20.00     0.047 C 
HETATM    3  C4  UNL     1     -39.607  12.081   6.525  1.00 20.00     0.047 C 
HETATM    4  C5  UNL     1     -40.652  13.188   6.181  1.00 20.00     0.136 C 
ENDROOT
BRANCH   4   5
HETATM    5  C1  UNL     1     -42.124  12.873   6.557  1.00 20.00     0.253 C 
HETATM    6  O7  UNL     1     -42.416  11.931   7.287  1.00 20.00    -0.276 OA
HETATM    7 CL9  UNL     1     -43.238  13.991   5.832  1.00 20.00    -0.041 Cl
ENDBRANCH   4   5
BRANCH   4   8
HETATM    8  O8  UNL     1     -40.286  14.502   6.662  1.00 20.00    -0.376 OA
HETATM    9  C6  UNL     1     -40.571  14.624   8.040  1.00 20.00     0.203 C 
ENDBRANCH   4   8
TORSDOF 2
ENDMDL
MODEL 9
REMARK VINA RESULT:      -3.1      8.553      9.430
REMARK  2 active torsions:
REMARK  status: ('A' for Active; 'I' for Inactive)
REMARK    1  A    between atoms: C1_1  and  C5_5 
REMARK    2  A    between atoms: C5_5  and  O8_8 
ROOT
HETATM    1  C2  UNL     1     -33.768   8.750   5.632  1.00 20.00     0.007 C 
HETATM    2  C3  UNL     1     -32.870   7.503   5.686  1.00 20.00     0.047 C 
HETATM    3  C4  UNL     1     -34.060   8.413   4.161  1.00 20.00     0.047 C 
HETATM    4  C5  UNL     1     -33.662   6.935   4.466  1.00 20.00     0.136 C 
ENDROOT
BRANCH   4   5
HETATM    5  C1  UNL     1     -34.830   5.975   4.813  1.00 20.00     0.253 C 
HETATM    6  O7  UNL     1     -35.873   5.968   4.168  1.00 20.00    -0.276 OA
HETATM    7 CL9  UNL     1     -34.463   4.965   6.179  1.00 20.00    -0.041 Cl
ENDBRANCH   4   5
BRANCH   4   8
HETATM    8  O8  UNL     1     -32.813   6.341   3.457  1.00 20.00    -0.376 OA
HETATM    9  C6  UNL     1     -33.337   5.099   3.036  1.00 20.00     0.203 C 
ENDBRANCH   4   8
TORSDOF 2
ENDMDL
