MODEL 1
REMARK VINA RESULT:      -3.9      0.000      0.000
REMARK  3 active torsions:
REMARK  status: ('A' for Active; 'I' for Inactive)
REMARK    1  A    between atoms: C7_7  and  C8_8 
REMARK    2  A    between atoms: C8_8  and  N10_10 
REMARK    3  A    between atoms: C9_9  and  N10_10 
ROOT
HETATM    1  C1  UNL     1     -32.908   4.997   2.542  1.00 20.00     0.015 C 
HETATM    2  C2  UNL     1     -33.541   5.357   3.498  1.00 20.00    -0.076 C 
HETATM    3  C4  UNL     1     -35.709   6.264   4.221  1.00 20.00     0.063 C 
HETATM    4  C5  UNL     1     -34.457   4.643   5.668  1.00 20.00     0.063 C 
HETATM    5  C9  UNL     1     -34.320   5.799   4.672  1.00 20.00     0.213 C 
ENDROOT
BRANCH   5   6
HETATM    6  N10 UNL     1     -33.626   6.899   5.311  1.00 20.00     0.104 N 
HETATM    7  C6  UNL     1     -34.115   7.102   6.679  1.00 20.00     0.312 C 
BRANCH   6   8
HETATM    8  C8  UNL     1     -33.779   8.136   4.537  1.00 20.00     0.273 C 
BRANCH   8   9
HETATM    9  C7  UNL     1     -32.446   8.670   4.027  1.00 20.00     0.026 C 
HETATM   10  C3  UNL     1     -32.368   8.705   2.507  1.00 20.00     0.007 C 
ENDBRANCH   8   9
ENDBRANCH   6   8
ENDBRANCH   5   6
TORSDOF 3
ENDMDL
MODEL 2
REMARK VINA RESULT:      -3.4      9.487     10.783
REMARK  3 active torsions:
REMARK  status: ('A' for Active; 'I' for Inactive)
REMARK    1  A    between atoms: C7_7  and  C8_8 
REMARK    2  A    between atoms: C8_8  and  N10_10 
REMARK    3  A    between atoms: C9_9  and  N10_10 
ROOT
HETATM    1  C1  UNL     1     -40.212  14.693   9.074  1.00 20.00     0.015 C 
HETATM    2  C2  UNL     1     -40.949  14.423   8.165  1.00 20.00    -0.076 C 
HETATM    3  C4  UNL     1     -42.742  12.902   7.442  1.00 20.00     0.063 C 
HETATM    4  C5  UNL     1     -42.730  15.301   6.709  1.00 20.00     0.063 C 
HETATM    5  C9  UNL     1     -41.855  14.089   7.048  1.00 20.00     0.213 C 
ENDROOT
BRANCH   5   6
HETATM    6  N10 UNL     1     -41.063  13.735   5.886  1.00 20.00     0.104 N 
HETATM    7  C6  UNL     1     -41.790  14.031   4.647  1.00 20.00     0.312 C 
BRANCH   6   8
HETATM    8  C8  UNL     1     -40.690  12.316   5.920  1.00 20.00     0.273 C 
BRANCH   8   9
HETATM    9  C7  UNL     1     -39.213  12.098   5.614  1.00 20.00     0.026 C 
HETATM   10  C3  UNL     1     -38.968  11.653   4.179  1.00 20.00     0.007 C 
ENDBRANCH   8   9
ENDBRANCH   6   8
ENDBRANCH   5   6
TORSDOF 3
ENDMDL
MODEL 3
REMARK VINA RESULT:      -3.2      9.981     10.912
REMARK  3 active torsions:
REMARK  status: ('A' for Active; 'I' for Inactive)
REMARK    1  A    between atoms: C7_7  and  C8_8 
REMARK    2  A    between atoms: C8_8  and  N10_10 
REMARK    3  A    between atoms: C9_9  and  N10_10 
ROOT
HETATM    1  C1  UNL     1     -39.620  11.642   5.597  1.00 20.00     0.015 C 
HETATM    2  C2  UNL     1     -40.527  12.295   6.036  1.00 20.00    -0.076 C 
HETATM    3  C4  UNL     1     -42.126  14.088   5.509  1.00 20.00     0.063 C 
HETATM    4  C5  UNL     1     -42.794  12.175   6.989  1.00 20.00     0.063 C 
HETATM    5  C9  UNL     1     -41.642  13.098   6.576  1.00 20.00     0.213 C 
ENDROOT
BRANCH   5   6
HETATM    6  N10 UNL     1     -41.179  13.830   7.738  1.00 20.00     0.104 N 
HETATM    7  C6  UNL     1     -42.304  14.224   8.592  1.00 20.00     0.312 C 
BRANCH   6   8
HETATM    8  C8  UNL     1     -40.415  15.017   7.339  1.00 20.00     0.273 C 
BRANCH   8   9
HETATM    9  C7  UNL     1     -40.631  16.192   8.286  1.00 20.00     0.026 C 
HETATM   10  C3  UNL     1     -40.707  17.527   7.560  1.00 20.00     0.007 C 
ENDBRANCH   8   9
ENDBRANCH   6   8
ENDBRANCH   5   6
TORSDOF 3
ENDMDL
MODEL 4
REMARK VINA RESULT:      -3.2      1.284      3.642
REMARK  3 active torsions:
REMARK  status: ('A' for Active; 'I' for Inactive)
REMARK    1  A    between atoms: C7_7  and  C8_8 
REMARK    2  A    between atoms: C8_8  and  N10_10 
REMARK    3  A    between atoms: C9_9  and  N10_10 
ROOT
HETATM    1  C1  UNL     1     -32.633   9.135   0.897  1.00 20.00     0.015 C 
HETATM    2  C2  UNL     1     -32.550   8.444   1.876  1.00 20.00    -0.076 C 
HETATM    3  C4  UNL     1     -32.712   6.133   2.700  1.00 20.00     0.063 C 
HETATM    4  C5  UNL     1     -31.049   7.728   3.692  1.00 20.00     0.063 C 
HETATM    5  C9  UNL     1     -32.448   7.594   3.079  1.00 20.00     0.213 C 
ENDROOT
BRANCH   5   6
HETATM    6  N10 UNL     1     -33.435   8.027   4.049  1.00 20.00     0.104 N 
HETATM    7  C6  UNL     1     -32.796   8.708   5.179  1.00 20.00     0.312 C 
BRANCH   6   8
HETATM    8  C8  UNL     1     -34.227   6.891   4.532  1.00 20.00     0.273 C 
BRANCH   8   9
HETATM    9  C7  UNL     1     -34.127   6.715   6.043  1.00 20.00     0.026 C 
HETATM   10  C3  UNL     1     -34.514   5.316   6.500  1.00 20.00     0.007 C 
ENDBRANCH   8   9
ENDBRANCH   6   8
ENDBRANCH   5   6
TORSDOF 3
ENDMDL
MODEL 5
REMARK VINA RESULT:      -3.2     12.077     13.403
REMARK  3 active torsions:
REMARK  status: ('A' for Active; 'I' for Inactive)
REMARK    1  A    between atoms: C7_7  and  C8_8 
REMARK    2  A    between atoms: C8_8  and  N10_10 
REMARK    3  A    between atoms: C9_9  and  N10_10 
ROOT
HETATM    1  C1  UNL     1     -33.777  15.499  -7.721  1.00 20.00     0.015 C 
HETATM    2  C2  UNL     1     -34.210  15.346  -6.611  1.00 20.00    -0.076 C 
HETATM    3  C4  UNL     1     -35.998  14.279  -5.303  1.00 20.00     0.063 C 
HETATM    4  C5  UNL     1     -33.681  14.493  -4.363  1.00 20.00     0.063 C 
HETATM    5  C9  UNL     1     -34.742  15.157  -5.247  1.00 20.00     0.213 C 
ENDROOT
BRANCH   5   6
HETATM    6  N10 UNL     1     -35.084  16.451  -4.690  1.00 20.00     0.104 N 
HETATM    7  C6  UNL     1     -35.857  17.247  -5.650  1.00 20.00     0.312 C 
BRANCH   6   8
HETATM    8  C8  UNL     1     -33.878  17.184  -4.289  1.00 20.00     0.273 C 
BRANCH   8   9
HETATM    9  C7  UNL     1     -34.055  17.909  -2.960  1.00 20.00     0.026 C 
HETATM   10  C3  UNL     1     -33.523  17.111  -1.778  1.00 20.00     0.007 C 
ENDBRANCH   8   9
ENDBRANCH   6   8
ENDBRANCH   5   6
TORSDOF 3
ENDMDL
MODEL 6
REMARK VINA RESULT:      -3.2     12.082     13.725
REMARK  3 active torsions:
REMARK  status: ('A' for Active; 'I' for Inactive)
REMARK    1  A    between atoms: C7_7  and  C8_8 
REMARK    2  A    between atoms: C8_8  and  N10_10 
REMARK    3  A    between atoms: C9_9  and  N10_10 
ROOT
HETATM    1  C1  UNL     1     -34.384  17.510  -7.918  1.00 20.00     0.015 C 
HETATM    2  C2  UNL     1     -34.727  16.923  -6.927  1.00 20.00    -0.076 C 
HETATM    3  C4  UNL     1     -36.234  17.009  -4.987  1.00 20.00     0.063 C 
HETATM    4  C5  UNL     1     -35.693  14.821  -6.087  1.00 20.00     0.063 C 
HETATM    5  C9  UNL     1     -35.149  16.203  -5.710  1.00 20.00     0.213 C 
ENDROOT
BRANCH   5   6
HETATM    6  N10 UNL     1     -34.004  16.041  -4.835  1.00 20.00     0.104 N 
HETATM    7  C6  UNL     1     -33.995  14.707  -4.226  1.00 20.00     0.312 C 
BRANCH   6   8
HETATM    8  C8  UNL     1     -33.996  17.069  -3.788  1.00 20.00     0.273 C 
BRANCH   8   9
HETATM    9  C7  UNL     1     -33.315  16.591  -2.511  1.00 20.00     0.026 C 
HETATM   10  C3  UNL     1     -33.677  17.436  -1.298  1.00 20.00     0.007 C 
ENDBRANCH   8   9
ENDBRANCH   6   8
ENDBRANCH   5   6
TORSDOF 3
ENDMDL
MODEL 7
REMARK VINA RESULT:      -3.2     12.366     13.369
REMARK  3 active torsions:
REMARK  status: ('A' for Active; 'I' for Inactive)
REMARK    1  A    between atoms: C7_7  and  C8_8 
REMARK    2  A    between atoms: C8_8  and  N10_10 
REMARK    3  A    between atoms: C9_9  and  N10_10 
ROOT
HETATM    1  C1  UNL     1     -33.152  15.779  -3.602  1.00 20.00     0.015 C 
HETATM    2  C2  UNL     1     -33.353  16.885  -3.178  1.00 20.00    -0.076 C 
HETATM    3  C4  UNL     1     -32.698  19.246  -3.390  1.00 20.00     0.063 C 
HETATM    4  C5  UNL     1     -35.070  18.620  -2.865  1.00 20.00     0.063 C 
HETATM    5  C9  UNL     1     -33.600  18.244  -2.658  1.00 20.00     0.213 C 
ENDROOT
BRANCH   5   6
HETATM    6  N10 UNL     1     -33.297  18.270  -1.240  1.00 20.00     0.104 N 
HETATM    7  C6  UNL     1     -34.451  18.740  -0.467  1.00 20.00     0.312 C 
BRANCH   6   8
HETATM    8  C8  UNL     1     -32.132  19.120  -0.968  1.00 20.00     0.273 C 
BRANCH   8   9
HETATM    9  C7  UNL     1     -31.083  18.413  -0.119  1.00 20.00     0.026 C 
HETATM   10  C3  UNL     1     -30.646  19.236   1.084  1.00 20.00     0.007 C 
ENDBRANCH   8   9
ENDBRANCH   6   8
ENDBRANCH   5   6
TORSDOF 3
ENDMDL
MODEL 8
REMARK VINA RESULT:      -3.1      1.151      3.481
REMARK  3 active torsions:
REMARK  status: ('A' for Active; 'I' for Inactive)
REMARK    1  A    between atoms: C7_7  and  C8_8 
REMARK    2  A    between atoms: C8_8  and  N10_10 
REMARK    3  A    between atoms: C9_9  and  N10_10 
ROOT
HETATM    1  C1  UNL     1     -32.906   5.131   2.517  1.00 20.00     0.015 C 
HETATM    2  C2  UNL     1     -32.736   6.278   2.828  1.00 20.00    -0.076 C 
HETATM    3  C4  UNL     1     -31.129   7.855   3.817  1.00 20.00     0.063 C 
HETATM    4  C5  UNL     1     -32.668   8.587   1.977  1.00 20.00     0.063 C 
HETATM    5  C9  UNL     1     -32.527   7.689   3.210  1.00 20.00     0.213 C 
ENDROOT
BRANCH   5   6
HETATM    6  N10 UNL     1     -33.526   8.066   4.191  1.00 20.00     0.104 N 
HETATM    7  C6  UNL     1     -32.903   8.704   5.355  1.00 20.00     0.312 C 
BRANCH   6   8
HETATM    8  C8  UNL     1     -34.307   6.900   4.618  1.00 20.00     0.273 C 
BRANCH   8   9
HETATM    9  C7  UNL     1     -34.200   6.648   6.117  1.00 20.00     0.026 C 
HETATM   10  C3  UNL     1     -34.434   5.191   6.488  1.00 20.00     0.007 C 
ENDBRANCH   8   9
ENDBRANCH   6   8
ENDBRANCH   5   6
TORSDOF 3
ENDMDL
MODEL 9
REMARK VINA RESULT:      -3.1     11.969     13.202
REMARK  3 active torsions:
REMARK  status: ('A' for Active; 'I' for Inactive)
REMARK    1  A    between atoms: C7_7  and  C8_8 
REMARK    2  A    between atoms: C8_8  and  N10_10 
REMARK    3  A    between atoms: C9_9  and  N10_10 
ROOT
HETATM    1  C1  UNL     1     -36.219  13.669  -4.632  1.00 20.00     0.015 C 
HETATM    2  C2  UNL     1     -35.301  14.405  -4.873  1.00 20.00    -0.076 C 
HETATM    3  C4  UNL     1     -32.937  14.864  -4.378  1.00 20.00     0.063 C 
HETATM    4  C5  UNL     1     -33.866  15.282  -6.671  1.00 20.00     0.063 C 
HETATM    5  C9  UNL     1     -34.172  15.309  -5.170  1.00 20.00     0.213 C 
ENDROOT
BRANCH   5   6
HETATM    6  N10 UNL     1     -34.533  16.659  -4.782  1.00 20.00     0.104 N 
HETATM    7  C6  UNL     1     -34.649  17.528  -5.957  1.00 20.00     0.312 C 
BRANCH   6   8
HETATM    8  C8  UNL     1     -33.552  17.214  -3.843  1.00 20.00     0.273 C 
BRANCH   8   9
HETATM    9  C7  UNL     1     -34.211  17.849  -2.624  1.00 20.00     0.026 C 
HETATM   10  C3  UNL     1     -33.638  17.337  -1.311  1.00 20.00     0.007 C 
ENDBRANCH   8   9
ENDBRANCH   6   8
ENDBRANCH   5   6
TORSDOF 3
ENDMDL
