MODEL 1
REMARK VINA RESULT:      -3.9      0.000      0.000
REMARK  0 active torsions:
REMARK  status: ('A' for Active; 'I' for Inactive)
ROOT
HETATM    1  C1  UNL     1     -40.943  13.228   4.891  1.00 20.00     0.053 A 
HETATM    2  C2  UNL     1     -40.443  12.944   6.105  1.00 20.00    -0.070 A 
HETATM    3  C3  UNL     1     -42.108  14.112   5.115  1.00 20.00     0.155 A 
HETATM    4  C4  UNL     1     -42.253  14.383   6.572  1.00 20.00     0.082 A 
HETATM    5  C5  UNL     1     -41.115  13.618   7.257  1.00 20.00    -0.002 A 
HETATM    6  C6  UNL     1     -42.580  13.304   7.588  1.00 20.00    -0.024 A 
HETATM    7  C7  UNL     1     -39.311  12.001   6.344  1.00 20.00     0.044 C 
HETATM    8  C8  UNL     1     -40.232  14.340   8.236  1.00 20.00     0.021 C 
HETATM    9  C9  UNL     1     -43.152  13.763   8.911  1.00 20.00     0.016 C 
HETATM   10  C10 UNL     1     -43.186  11.991   7.140  1.00 20.00     0.016 C 
HETATM   11  O11 UNL     1     -42.846  14.558   4.255  1.00 20.00    -0.293 OA
ENDROOT
TORSDOF 0
ENDMDL
MODEL 2
REMARK VINA RESULT:      -3.6     12.973     14.194
REMARK  0 active torsions:
REMARK  status: ('A' for Active; 'I' for Inactive)
ROOT
HETATM    1  C1  UNL     1     -35.521  14.761  -6.687  1.00 20.00     0.053 A 
HETATM    2  C2  UNL     1     -34.675  15.805  -6.707  1.00 20.00    -0.070 A 
HETATM    3  C3  UNL     1     -35.963  14.610  -5.284  1.00 20.00     0.155 A 
HETATM    4  C4  UNL     1     -35.351  15.680  -4.451  1.00 20.00     0.082 A 
HETATM    5  C5  UNL     1     -34.492  16.517  -5.407  1.00 20.00    -0.002 A 
HETATM    6  C6  UNL     1     -33.856  15.793  -4.213  1.00 20.00    -0.024 A 
HETATM    7  C7  UNL     1     -33.919  16.247  -7.916  1.00 20.00     0.044 C 
HETATM    8  C8  UNL     1     -34.652  18.011  -5.417  1.00 20.00     0.021 C 
HETATM    9  C9  UNL     1     -33.415  16.599  -3.010  1.00 20.00     0.016 C 
HETATM   10  C10 UNL     1     -32.953  14.602  -4.451  1.00 20.00     0.016 C 
HETATM   11  O11 UNL     1     -36.713  13.749  -4.857  1.00 20.00    -0.293 OA
ENDROOT
TORSDOF 0
ENDMDL
MODEL 3
REMARK VINA RESULT:      -3.6     13.286     14.510
REMARK  0 active torsions:
REMARK  status: ('A' for Active; 'I' for Inactive)
ROOT
HETATM    1  C1  UNL     1     -33.811  16.104  -3.761  1.00 20.00     0.053 A 
HETATM    2  C2  UNL     1     -34.502  16.992  -4.497  1.00 20.00    -0.070 A 
HETATM    3  C3  UNL     1     -33.523  14.959  -4.651  1.00 20.00     0.155 A 
HETATM    4  C4  UNL     1     -34.057  15.240  -6.012  1.00 20.00     0.082 A 
HETATM    5  C5  UNL     1     -34.704  16.628  -5.931  1.00 20.00    -0.002 A 
HETATM    6  C6  UNL     1     -35.538  15.397  -6.306  1.00 20.00    -0.024 A 
HETATM    7  C7  UNL     1     -35.076  18.259  -3.956  1.00 20.00     0.044 C 
HETATM    8  C8  UNL     1     -34.341  17.665  -6.957  1.00 20.00     0.021 C 
HETATM    9  C9  UNL     1     -35.973  15.208  -7.743  1.00 20.00     0.016 C 
HETATM   10  C10 UNL     1     -36.570  14.865  -5.333  1.00 20.00     0.016 C 
HETATM   11  O11 UNL     1     -32.941  13.936  -4.338  1.00 20.00    -0.293 OA
ENDROOT
TORSDOF 0
ENDMDL
MODEL 4
REMARK VINA RESULT:      -3.5      1.803      3.063
REMARK  0 active torsions:
REMARK  status: ('A' for Active; 'I' for Inactive)
ROOT
HETATM    1  C1  UNL     1     -41.412  12.171   6.585  1.00 20.00     0.053 A 
HETATM    2  C2  UNL     1     -41.046  12.967   5.566  1.00 20.00    -0.070 A 
HETATM    3  C3  UNL     1     -42.454  12.905   7.335  1.00 20.00     0.155 A 
HETATM    4  C4  UNL     1     -42.730  14.204   6.662  1.00 20.00     0.082 A 
HETATM    5  C5  UNL     1     -41.799  14.251   5.444  1.00 20.00    -0.002 A 
HETATM    6  C6  UNL     1     -41.700  15.313   6.547  1.00 20.00    -0.024 A 
HETATM    7  C7  UNL     1     -39.945  12.649   4.610  1.00 20.00     0.044 C 
HETATM    8  C8  UNL     1     -42.375  14.580   4.095  1.00 20.00     0.021 C 
HETATM    9  C9  UNL     1     -42.225  16.707   6.279  1.00 20.00     0.016 C 
HETATM   10  C10 UNL     1     -40.494  15.334   7.462  1.00 20.00     0.016 C 
HETATM   11  O11 UNL     1     -43.012  12.523   8.349  1.00 20.00    -0.293 OA
ENDROOT
TORSDOF 0
ENDMDL
MODEL 5
REMARK VINA RESULT:      -3.5     12.850     14.196
REMARK  0 active torsions:
REMARK  status: ('A' for Active; 'I' for Inactive)
ROOT
HETATM    1  C1  UNL     1     -33.799  15.345  -4.488  1.00 20.00     0.053 A 
HETATM    2  C2  UNL     1     -33.811  16.512  -3.820  1.00 20.00    -0.070 A 
HETATM    3  C3  UNL     1     -34.217  15.652  -5.872  1.00 20.00     0.155 A 
HETATM    4  C4  UNL     1     -34.444  17.117  -6.010  1.00 20.00     0.082 A 
HETATM    5  C5  UNL     1     -34.148  17.719  -4.632  1.00 20.00    -0.002 A 
HETATM    6  C6  UNL     1     -35.538  17.861  -5.266  1.00 20.00    -0.024 A 
HETATM    7  C7  UNL     1     -33.541  16.642  -2.358  1.00 20.00     0.044 C 
HETATM    8  C8  UNL     1     -33.214  18.893  -4.531  1.00 20.00     0.021 C 
HETATM    9  C9  UNL     1     -35.959  19.200  -5.831  1.00 20.00     0.016 C 
HETATM   10  C10 UNL     1     -36.711  17.106  -4.678  1.00 20.00     0.016 C 
HETATM   11  O11 UNL     1     -34.360  14.845  -6.774  1.00 20.00    -0.293 OA
ENDROOT
TORSDOF 0
ENDMDL
MODEL 6
REMARK VINA RESULT:      -3.5     12.367     13.820
REMARK  0 active torsions:
REMARK  status: ('A' for Active; 'I' for Inactive)
ROOT
HETATM    1  C1  UNL     1     -33.612  16.858  -2.333  1.00 20.00     0.053 A 
HETATM    2  C2  UNL     1     -33.690  16.416  -3.600  1.00 20.00    -0.070 A 
HETATM    3  C3  UNL     1     -34.503  18.034  -2.245  1.00 20.00     0.155 A 
HETATM    4  C4  UNL     1     -35.172  18.251  -3.557  1.00 20.00     0.082 A 
HETATM    5  C5  UNL     1     -34.650  17.145  -4.482  1.00 20.00    -0.002 A 
HETATM    6  C6  UNL     1     -34.418  18.624  -4.821  1.00 20.00    -0.024 A 
HETATM    7  C7  UNL     1     -32.871  15.295  -4.148  1.00 20.00     0.044 C 
HETATM    8  C8  UNL     1     -35.633  16.314  -5.257  1.00 20.00     0.021 C 
HETATM    9  C9  UNL     1     -35.222  19.262  -5.933  1.00 20.00     0.016 C 
HETATM   10  C10 UNL     1     -33.022  19.204  -4.734  1.00 20.00     0.016 C 
HETATM   11  O11 UNL     1     -34.677  18.731  -1.261  1.00 20.00    -0.293 OA
ENDROOT
TORSDOF 0
ENDMDL
MODEL 7
REMARK VINA RESULT:      -3.4     12.808     14.226
REMARK  0 active torsions:
REMARK  status: ('A' for Active; 'I' for Inactive)
ROOT
HETATM    1  C1  UNL     1     -34.965  14.099  -4.246  1.00 20.00     0.053 A 
HETATM    2  C2  UNL     1     -34.008  14.786  -4.892  1.00 20.00    -0.070 A 
HETATM    3  C3  UNL     1     -36.226  14.350  -4.977  1.00 20.00     0.155 A 
HETATM    4  C4  UNL     1     -35.953  15.215  -6.157  1.00 20.00     0.082 A 
HETATM    5  C5  UNL     1     -34.446  15.501  -6.129  1.00 20.00    -0.002 A 
HETATM    6  C6  UNL     1     -35.462  16.647  -6.039  1.00 20.00    -0.024 A 
HETATM    7  C7  UNL     1     -32.592  14.885  -4.430  1.00 20.00     0.044 C 
HETATM    8  C8  UNL     1     -33.635  15.274  -7.373  1.00 20.00     0.021 C 
HETATM    9  C9  UNL     1     -35.673  17.542  -7.242  1.00 20.00     0.016 C 
HETATM   10  C10 UNL     1     -35.625  17.406  -4.740  1.00 20.00     0.016 C 
HETATM   11  O11 UNL     1     -37.327  13.923  -4.676  1.00 20.00    -0.293 OA
ENDROOT
TORSDOF 0
ENDMDL
MODEL 8
REMARK VINA RESULT:      -3.3      1.650      3.055
REMARK  0 active torsions:
REMARK  status: ('A' for Active; 'I' for Inactive)
ROOT
HETATM    1  C1  UNL     1     -41.148  13.418   4.971  1.00 20.00     0.053 A 
HETATM    2  C2  UNL     1     -42.164  13.809   5.759  1.00 20.00    -0.070 A 
HETATM    3  C3  UNL     1     -40.076  12.947   5.874  1.00 20.00     0.155 A 
HETATM    4  C4  UNL     1     -40.539  13.039   7.286  1.00 20.00     0.082 A 
HETATM    5  C5  UNL     1     -41.965  13.599   7.224  1.00 20.00    -0.002 A 
HETATM    6  C6  UNL     1     -40.858  14.356   7.969  1.00 20.00    -0.024 A 
HETATM    7  C7  UNL     1     -43.417  14.443   5.255  1.00 20.00     0.044 C 
HETATM    8  C8  UNL     1     -43.062  12.892   7.969  1.00 20.00     0.021 C 
HETATM    9  C9  UNL     1     -40.855  14.358   9.483  1.00 20.00     0.016 C 
HETATM   10  C10 UNL     1     -40.328  15.658   7.406  1.00 20.00     0.016 C 
HETATM   11  O11 UNL     1     -38.978  12.542   5.535  1.00 20.00    -0.293 OA
ENDROOT
TORSDOF 0
ENDMDL
MODEL 9
REMARK VINA RESULT:      -3.3      1.596      2.930
REMARK  0 active torsions:
REMARK  status: ('A' for Active; 'I' for Inactive)
ROOT
HETATM    1  C1  UNL     1     -42.036  12.532   6.702  1.00 20.00     0.053 A 
HETATM    2  C2  UNL     1     -42.284  13.217   7.831  1.00 20.00    -0.070 A 
HETATM    3  C3  UNL     1     -40.906  13.215   6.038  1.00 20.00     0.155 A 
HETATM    4  C4  UNL     1     -40.449  14.355   6.880  1.00 20.00     0.082 A 
HETATM    5  C5  UNL     1     -41.359  14.355   8.114  1.00 20.00    -0.002 A 
HETATM    6  C6  UNL     1     -41.314  15.567   7.175  1.00 20.00    -0.024 A 
HETATM    7  C7  UNL     1     -43.413  12.919   8.760  1.00 20.00     0.044 C 
HETATM    8  C8  UNL     1     -40.736  14.406   9.482  1.00 20.00     0.021 C 
HETATM    9  C9  UNL     1     -40.599  16.823   7.623  1.00 20.00     0.016 C 
HETATM   10  C10 UNL     1     -42.510  15.883   6.301  1.00 20.00     0.016 C 
HETATM   11  O11 UNL     1     -40.411  12.909   4.967  1.00 20.00    -0.293 OA
ENDROOT
TORSDOF 0
ENDMDL
