MODEL 1
REMARK VINA RESULT:      -3.8      0.000      0.000
REMARK  2 active torsions:
REMARK  status: ('A' for Active; 'I' for Inactive)
REMARK    1  A    between atoms: C7_7  and  O10_10 
REMARK    2  A    between atoms: C9_9  and  O10_10 
ROOT
HETATM    1  C1  UNL     1     -32.752   5.188   2.733  1.00 20.00     0.015 C 
HETATM    2  C2  UNL     1     -33.297   5.891   3.539  1.00 20.00    -0.079 C 
HETATM    3  C3  UNL     1     -35.186   5.163   5.888  1.00 20.00     0.004 C 
HETATM    4  C4  UNL     1     -33.838   5.434   6.556  1.00 20.00     0.004 C 
HETATM    5  C5  UNL     1     -35.377   6.270   4.853  1.00 20.00     0.051 C 
HETATM    6  C6  UNL     1     -33.279   6.690   5.891  1.00 20.00     0.051 C 
HETATM    7  C7  UNL     1     -33.964   6.752   4.528  1.00 20.00     0.122 C 
ENDROOT
BRANCH   7   8
HETATM    8  O10 UNL     1     -33.985   8.091   4.057  1.00 20.00    -0.368 OA
BRANCH   8   9
HETATM    9  C9  UNL     1     -32.673   8.588   3.829  1.00 20.00     0.165 C 
HETATM   10  C8  UNL     1     -32.589   9.131   2.419  1.00 20.00     0.033 C 
ENDBRANCH   8   9
ENDBRANCH   7   8
TORSDOF 2
ENDMDL
MODEL 2
REMARK VINA RESULT:      -3.8      9.398     10.548
REMARK  2 active torsions:
REMARK  status: ('A' for Active; 'I' for Inactive)
REMARK    1  A    between atoms: C7_7  and  O10_10 
REMARK    2  A    between atoms: C9_9  and  O10_10 
ROOT
HETATM    1  C1  UNL     1     -40.469  15.512   8.072  1.00 20.00     0.015 C 
HETATM    2  C2  UNL     1     -40.667  14.646   7.264  1.00 20.00    -0.079 C 
HETATM    3  C3  UNL     1     -43.256  13.078   6.592  1.00 20.00     0.004 C 
HETATM    4  C4  UNL     1     -43.132  14.106   5.467  1.00 20.00     0.004 C 
HETATM    5  C5  UNL     1     -41.854  12.508   6.802  1.00 20.00     0.051 C 
HETATM    6  C6  UNL     1     -41.661  14.108   5.053  1.00 20.00     0.051 C 
HETATM    7  C7  UNL     1     -40.908  13.586   6.274  1.00 20.00     0.122 C 
ENDROOT
BRANCH   7   8
HETATM    8  O10 UNL     1     -39.671  13.016   5.872  1.00 20.00    -0.368 OA
BRANCH   8   9
HETATM    9  C9  UNL     1     -39.849  11.728   5.299  1.00 20.00     0.165 C 
HETATM   10  C8  UNL     1     -39.008  11.626   4.045  1.00 20.00     0.033 C 
ENDBRANCH   8   9
ENDBRANCH   7   8
TORSDOF 2
ENDMDL
MODEL 3
REMARK VINA RESULT:      -3.7      9.335     10.368
REMARK  2 active torsions:
REMARK  status: ('A' for Active; 'I' for Inactive)
REMARK    1  A    between atoms: C7_7  and  O10_10 
REMARK    2  A    between atoms: C9_9  and  O10_10 
ROOT
HETATM    1  C1  UNL     1     -42.050  14.451   4.143  1.00 20.00     0.015 C 
HETATM    2  C2  UNL     1     -41.721  13.806   5.100  1.00 20.00    -0.079 C 
HETATM    3  C3  UNL     1     -41.570  14.589   8.096  1.00 20.00     0.004 C 
HETATM    4  C4  UNL     1     -42.858  13.774   7.982  1.00 20.00     0.004 C 
HETATM    5  C5  UNL     1     -40.520  13.838   7.279  1.00 20.00     0.051 C 
HETATM    6  C6  UNL     1     -42.525  12.572   7.101  1.00 20.00     0.051 C 
HETATM    7  C7  UNL     1     -41.320  13.014   6.273  1.00 20.00     0.122 C 
ENDROOT
BRANCH   7   8
HETATM    8  O10 UNL     1     -40.581  11.878   5.851  1.00 20.00    -0.368 OA
BRANCH   8   9
HETATM    9  C9  UNL     1     -39.244  12.220   5.509  1.00 20.00     0.165 C 
HETATM   10  C8  UNL     1     -38.924  11.650   4.143  1.00 20.00     0.033 C 
ENDBRANCH   8   9
ENDBRANCH   7   8
TORSDOF 2
ENDMDL
MODEL 4
REMARK VINA RESULT:      -3.7     15.201     16.634
REMARK  2 active torsions:
REMARK  status: ('A' for Active; 'I' for Inactive)
REMARK    1  A    between atoms: C7_7  and  O10_10 
REMARK    2  A    between atoms: C9_9  and  O10_10 
ROOT
HETATM    1  C1  UNL     1     -24.321  15.789  11.533  1.00 20.00     0.015 C 
HETATM    2  C2  UNL     1     -24.102  16.935  11.249  1.00 20.00    -0.079 C 
HETATM    3  C3  UNL     1     -21.713  18.210   9.739  1.00 20.00     0.004 C 
HETATM    4  C4  UNL     1     -22.835  18.162   8.701  1.00 20.00     0.004 C 
HETATM    5  C5  UNL     1     -22.356  18.696  11.036  1.00 20.00     0.051 C 
HETATM    6  C6  UNL     1     -24.101  18.619   9.423  1.00 20.00     0.051 C 
HETATM    7  C7  UNL     1     -23.835  18.339  10.900  1.00 20.00     0.122 C 
ENDROOT
BRANCH   7   8
HETATM    8  O10 UNL     1     -24.635  19.192  11.706  1.00 20.00    -0.368 OA
BRANCH   8   9
HETATM    9  C9  UNL     1     -25.972  19.263  11.228  1.00 20.00     0.165 C 
HETATM   10  C8  UNL     1     -26.913  18.828  12.331  1.00 20.00     0.033 C 
ENDBRANCH   8   9
ENDBRANCH   7   8
TORSDOF 2
ENDMDL
MODEL 5
REMARK VINA RESULT:      -3.7      9.588     10.667
REMARK  2 active torsions:
REMARK  status: ('A' for Active; 'I' for Inactive)
REMARK    1  A    between atoms: C7_7  and  O10_10 
REMARK    2  A    between atoms: C9_9  and  O10_10 
ROOT
HETATM    1  C1  UNL     1     -43.256  11.921   7.285  1.00 20.00     0.015 C 
HETATM    2  C2  UNL     1     -42.426  12.664   6.837  1.00 20.00    -0.079 C 
HETATM    3  C3  UNL     1     -41.958  15.689   7.333  1.00 20.00     0.004 C 
HETATM    4  C4  UNL     1     -40.890  14.996   8.179  1.00 20.00     0.004 C 
HETATM    5  C5  UNL     1     -41.974  14.960   5.990  1.00 20.00     0.051 C 
HETATM    6  C6  UNL     1     -40.313  13.882   7.308  1.00 20.00     0.051 C 
HETATM    7  C7  UNL     1     -41.408  13.573   6.289  1.00 20.00     0.122 C 
ENDROOT
BRANCH   7   8
HETATM    8  O10 UNL     1     -40.835  13.001   5.123  1.00 20.00    -0.368 OA
BRANCH   8   9
HETATM    9  C9  UNL     1     -39.912  11.968   5.444  1.00 20.00     0.165 C 
HETATM   10  C8  UNL     1     -39.060  11.673   4.228  1.00 20.00     0.033 C 
ENDBRANCH   8   9
ENDBRANCH   7   8
TORSDOF 2
ENDMDL
MODEL 6
REMARK VINA RESULT:      -3.6     11.990     13.435
REMARK  2 active torsions:
REMARK  status: ('A' for Active; 'I' for Inactive)
REMARK    1  A    between atoms: C7_7  and  O10_10 
REMARK    2  A    between atoms: C9_9  and  O10_10 
ROOT
HETATM    1  C1  UNL     1     -36.304  19.087  -2.579  1.00 20.00     0.015 C 
HETATM    2  C2  UNL     1     -35.253  18.518  -2.698  1.00 20.00    -0.079 C 
HETATM    3  C3  UNL     1     -32.438  19.249  -1.623  1.00 20.00     0.004 C 
HETATM    4  C4  UNL     1     -32.931  18.151  -0.680  1.00 20.00     0.004 C 
HETATM    5  C5  UNL     1     -32.802  18.791  -3.034  1.00 20.00     0.051 C 
HETATM    6  C6  UNL     1     -33.570  17.085  -1.566  1.00 20.00     0.051 C 
HETATM    7  C7  UNL     1     -33.967  17.820  -2.844  1.00 20.00     0.122 C 
ENDROOT
BRANCH   7   8
HETATM    8  O10 UNL     1     -34.040  16.904  -3.926  1.00 20.00    -0.368 OA
BRANCH   8   9
HETATM    9  C9  UNL     1     -33.217  15.766  -3.707  1.00 20.00     0.165 C 
HETATM   10  C8  UNL     1     -33.923  14.538  -4.240  1.00 20.00     0.033 C 
ENDBRANCH   8   9
ENDBRANCH   7   8
TORSDOF 2
ENDMDL
MODEL 7
REMARK VINA RESULT:      -3.6      9.833     10.886
REMARK  2 active torsions:
REMARK  status: ('A' for Active; 'I' for Inactive)
REMARK    1  A    between atoms: C7_7  and  O10_10 
REMARK    2  A    between atoms: C9_9  and  O10_10 
ROOT
HETATM    1  C1  UNL     1     -39.729  11.768   5.288  1.00 20.00     0.015 C 
HETATM    2  C2  UNL     1     -40.300  12.483   6.066  1.00 20.00    -0.079 C 
HETATM    3  C3  UNL     1     -42.551  14.564   5.604  1.00 20.00     0.004 C 
HETATM    4  C4  UNL     1     -43.273  13.347   6.183  1.00 20.00     0.004 C 
HETATM    5  C5  UNL     1     -41.282  14.740   6.435  1.00 20.00     0.051 C 
HETATM    6  C6  UNL     1     -42.404  12.846   7.335  1.00 20.00     0.051 C 
HETATM    7  C7  UNL     1     -41.000  13.357   7.019  1.00 20.00     0.122 C 
ENDROOT
BRANCH   7   8
HETATM    8  O10 UNL     1     -40.243  13.461   8.216  1.00 20.00    -0.368 OA
BRANCH   8   9
HETATM    9  C9  UNL     1     -40.301  14.773   8.760  1.00 20.00     0.165 C 
HETATM   10  C8  UNL     1     -40.547  14.678  10.251  1.00 20.00     0.033 C 
ENDBRANCH   8   9
ENDBRANCH   7   8
TORSDOF 2
ENDMDL
MODEL 8
REMARK VINA RESULT:      -3.6      9.510     10.551
REMARK  2 active torsions:
REMARK  status: ('A' for Active; 'I' for Inactive)
REMARK    1  A    between atoms: C7_7  and  O10_10 
REMARK    2  A    between atoms: C9_9  and  O10_10 
ROOT
HETATM    1  C1  UNL     1     -43.127  11.987   7.197  1.00 20.00     0.015 C 
HETATM    2  C2  UNL     1     -42.221  12.668   6.801  1.00 20.00    -0.079 C 
HETATM    3  C3  UNL     1     -39.263  11.939   6.222  1.00 20.00     0.004 C 
HETATM    4  C4  UNL     1     -39.917  11.995   4.841  1.00 20.00     0.004 C 
HETATM    5  C5  UNL     1     -39.787  13.151   6.989  1.00 20.00     0.051 C 
HETATM    6  C6  UNL     1     -40.804  13.238   4.842  1.00 20.00     0.051 C 
HETATM    7  C7  UNL     1     -41.112  13.502   6.314  1.00 20.00     0.122 C 
ENDROOT
BRANCH   7   8
HETATM    8  O10 UNL     1     -41.426  14.873   6.504  1.00 20.00    -0.368 OA
BRANCH   8   9
HETATM    9  C9  UNL     1     -40.694  15.434   7.586  1.00 20.00     0.165 C 
HETATM   10  C8  UNL     1     -40.741  16.944   7.483  1.00 20.00     0.033 C 
ENDBRANCH   8   9
ENDBRANCH   7   8
TORSDOF 2
ENDMDL
MODEL 9
REMARK VINA RESULT:      -3.5      9.100     10.546
REMARK  2 active torsions:
REMARK  status: ('A' for Active; 'I' for Inactive)
REMARK    1  A    between atoms: C7_7  and  O10_10 
REMARK    2  A    between atoms: C9_9  and  O10_10 
ROOT
HETATM    1  C1  UNL     1     -43.408   5.197   2.294  1.00 20.00     0.015 C 
HETATM    2  C2  UNL     1     -43.059   5.510   1.190  1.00 20.00    -0.079 C 
HETATM    3  C3  UNL     1     -41.453   7.976   0.213  1.00 20.00     0.004 C 
HETATM    4  C4  UNL     1     -40.433   6.837   0.218  1.00 20.00     0.004 C 
HETATM    5  C5  UNL     1     -42.729   7.400  -0.396  1.00 20.00     0.051 C 
HETATM    6  C6  UNL     1     -41.144   5.628  -0.388  1.00 20.00     0.051 C 
HETATM    7  C7  UNL     1     -42.630   5.893  -0.164  1.00 20.00     0.122 C 
ENDROOT
BRANCH   7   8
HETATM    8  O10 UNL     1     -43.398   5.185  -1.127  1.00 20.00    -0.368 OA
BRANCH   8   9
HETATM    9  C9  UNL     1     -42.584   4.329  -1.919  1.00 20.00     0.165 C 
HETATM   10  C8  UNL     1     -43.416   3.155  -2.390  1.00 20.00     0.033 C 
ENDBRANCH   8   9
ENDBRANCH   7   8
TORSDOF 2
ENDMDL
