MODEL 1
REMARK VINA RESULT:      -4.5      0.000      0.000
REMARK  3 active torsions:
REMARK  status: ('A' for Active; 'I' for Inactive)
REMARK    1  A    between atoms: C1_1  and  C7_7 
REMARK    2  A    between atoms: C1_1  and  O10_10 
REMARK    3  A    between atoms: C6_6  and  C7_7 
ROOT
HETATM    1  C4  UNL     1     -33.816   8.580   4.511  1.00 20.00     0.021 A 
HETATM    2  C5  UNL     1     -32.795   7.928   5.394  1.00 20.00     0.021 A 
HETATM    3  C7  UNL     1     -33.566   7.090   4.395  1.00 20.00     0.051 A 
ENDROOT
BRANCH   3   4
HETATM    4  C1  UNL     1     -32.819   6.638   3.193  1.00 20.00     0.267 C 
HETATM    5  O9  UNL     1     -32.976   5.549   2.660  1.00 20.00    -0.264 OA
BRANCH   4   6
HETATM    6  O10 UNL     1     -31.954   7.616   2.800  1.00 20.00    -0.326 OA
HETATM    7  C8  UNL     1     -32.116   8.075   1.454  1.00 20.00     0.213 C 
ENDBRANCH   4   6
ENDBRANCH   3   4
BRANCH   3   8
HETATM    8  C6  UNL     1     -34.630   6.088   4.884  1.00 20.00     0.004 A 
HETATM    9  C2  UNL     1     -34.275   4.736   5.439  1.00 20.00     0.006 A 
HETATM   10  C3  UNL     1     -34.855   5.790   6.341  1.00 20.00     0.006 A 
ENDBRANCH   3   8
TORSDOF 3
ENDMDL
MODEL 2
REMARK VINA RESULT:      -4.5      1.718      3.200
REMARK  3 active torsions:
REMARK  status: ('A' for Active; 'I' for Inactive)
REMARK    1  A    between atoms: C1_1  and  C7_7 
REMARK    2  A    between atoms: C1_1  and  O10_10 
REMARK    3  A    between atoms: C6_6  and  C7_7 
ROOT
HETATM    1  C4  UNL     1     -33.243   6.230   6.490  1.00 20.00     0.021 A 
HETATM    2  C5  UNL     1     -34.581   6.834   6.789  1.00 20.00     0.021 A 
HETATM    3  C7  UNL     1     -34.072   6.812   5.363  1.00 20.00     0.051 A 
ENDROOT
BRANCH   3   4
HETATM    4  C1  UNL     1     -34.715   5.837   4.444  1.00 20.00     0.267 C 
HETATM    5  O9  UNL     1     -35.884   5.899   4.090  1.00 20.00    -0.264 OA
BRANCH   4   6
HETATM    6  O10 UNL     1     -33.806   4.889   4.077  1.00 20.00    -0.326 OA
HETATM    7  C8  UNL     1     -33.276   5.025   2.755  1.00 20.00     0.213 C 
ENDBRANCH   4   6
ENDBRANCH   3   4
BRANCH   3   8
HETATM    8  C6  UNL     1     -33.633   8.121   4.678  1.00 20.00     0.004 A 
HETATM    9  C2  UNL     1     -32.292   8.754   4.923  1.00 20.00     0.006 A 
HETATM   10  C3  UNL     1     -32.608   8.158   3.579  1.00 20.00     0.006 A 
ENDBRANCH   3   8
TORSDOF 3
ENDMDL
MODEL 3
REMARK VINA RESULT:      -4.5      1.798      3.267
REMARK  3 active torsions:
REMARK  status: ('A' for Active; 'I' for Inactive)
REMARK    1  A    between atoms: C1_1  and  C7_7 
REMARK    2  A    between atoms: C1_1  and  O10_10 
REMARK    3  A    between atoms: C6_6  and  C7_7 
ROOT
HETATM    1  C4  UNL     1     -35.584   5.663   4.783  1.00 20.00     0.021 A 
HETATM    2  C5  UNL     1     -34.437   4.778   5.167  1.00 20.00     0.021 A 
HETATM    3  C7  UNL     1     -34.164   6.116   4.510  1.00 20.00     0.051 A 
ENDROOT
BRANCH   3   4
HETATM    4  C1  UNL     1     -33.633   7.190   5.389  1.00 20.00     0.267 C 
HETATM    5  O9  UNL     1     -33.321   7.024   6.559  1.00 20.00    -0.264 OA
BRANCH   4   6
HETATM    6  O10 UNL     1     -33.559   8.357   4.687  1.00 20.00    -0.326 OA
HETATM    7  C8  UNL     1     -32.352   9.105   4.865  1.00 20.00     0.213 C 
ENDBRANCH   4   6
ENDBRANCH   3   4
BRANCH   3   8
HETATM    8  C6  UNL     1     -33.635   6.172   3.064  1.00 20.00     0.004 A 
HETATM    9  C2  UNL     1     -32.173   6.318   2.740  1.00 20.00     0.006 A 
HETATM   10  C3  UNL     1     -32.889   5.033   2.427  1.00 20.00     0.006 A 
ENDBRANCH   3   8
TORSDOF 3
ENDMDL
MODEL 4
REMARK VINA RESULT:      -4.5      9.476     10.718
REMARK  3 active torsions:
REMARK  status: ('A' for Active; 'I' for Inactive)
REMARK    1  A    between atoms: C1_1  and  C7_7 
REMARK    2  A    between atoms: C1_1  and  O10_10 
REMARK    3  A    between atoms: C6_6  and  C7_7 
ROOT
HETATM    1  C4  UNL     1     -42.417  13.594   5.801  1.00 20.00     0.021 A 
HETATM    2  C5  UNL     1     -42.659  12.722   6.995  1.00 20.00     0.021 A 
HETATM    3  C7  UNL     1     -41.239  13.065   6.594  1.00 20.00     0.051 A 
ENDROOT
BRANCH   3   4
HETATM    4  C1  UNL     1     -40.526  14.047   7.452  1.00 20.00     0.267 C 
HETATM    5  O9  UNL     1     -40.158  15.149   7.069  1.00 20.00    -0.264 OA
BRANCH   4   6
HETATM    6  O10 UNL     1     -40.357  13.524   8.699  1.00 20.00    -0.326 OA
HETATM    7  C8  UNL     1     -40.522  14.447   9.780  1.00 20.00     0.213 C 
ENDBRANCH   4   6
ENDBRANCH   3   4
BRANCH   3   8
HETATM    8  C6  UNL     1     -40.324  11.983   5.989  1.00 20.00     0.004 A 
HETATM    9  C2  UNL     1     -39.672  12.132   4.642  1.00 20.00     0.006 A 
HETATM   10  C3  UNL     1     -38.832  12.144   5.889  1.00 20.00     0.006 A 
ENDBRANCH   3   8
TORSDOF 3
ENDMDL
MODEL 5
REMARK VINA RESULT:      -4.4      0.960      2.254
REMARK  3 active torsions:
REMARK  status: ('A' for Active; 'I' for Inactive)
REMARK    1  A    between atoms: C1_1  and  C7_7 
REMARK    2  A    between atoms: C1_1  and  O10_10 
REMARK    3  A    between atoms: C6_6  and  C7_7 
ROOT
HETATM    1  C4  UNL     1     -34.471   4.767   4.884  1.00 20.00     0.021 A 
HETATM    2  C5  UNL     1     -35.319   5.844   4.278  1.00 20.00     0.021 A 
HETATM    3  C7  UNL     1     -33.826   6.059   4.423  1.00 20.00     0.051 A 
ENDROOT
BRANCH   3   4
HETATM    4  C1  UNL     1     -33.021   5.987   3.177  1.00 20.00     0.267 C 
HETATM    5  O9  UNL     1     -33.109   5.083   2.357  1.00 20.00    -0.264 OA
BRANCH   4   6
HETATM    6  O10 UNL     1     -32.192   7.067   3.106  1.00 20.00    -0.326 OA
HETATM    7  C8  UNL     1     -32.251   7.808   1.883  1.00 20.00     0.213 C 
ENDBRANCH   4   6
ENDBRANCH   3   4
BRANCH   3   8
HETATM    8  C6  UNL     1     -33.287   7.065   5.459  1.00 20.00     0.004 A 
HETATM    9  C2  UNL     1     -33.769   8.487   5.534  1.00 20.00     0.006 A 
HETATM   10  C3  UNL     1     -34.094   7.523   6.641  1.00 20.00     0.006 A 
ENDBRANCH   3   8
TORSDOF 3
ENDMDL
MODEL 6
REMARK VINA RESULT:      -4.4      1.106      1.509
REMARK  3 active torsions:
REMARK  status: ('A' for Active; 'I' for Inactive)
REMARK    1  A    between atoms: C1_1  and  C7_7 
REMARK    2  A    between atoms: C1_1  and  O10_10 
REMARK    3  A    between atoms: C6_6  and  C7_7 
ROOT
HETATM    1  C4  UNL     1     -34.271   8.257   5.567  1.00 20.00     0.021 A 
HETATM    2  C5  UNL     1     -33.378   7.286   6.277  1.00 20.00     0.021 A 
HETATM    3  C7  UNL     1     -33.548   7.186   4.775  1.00 20.00     0.051 A 
ENDROOT
BRANCH   3   4
HETATM    4  C1  UNL     1     -32.401   7.639   3.947  1.00 20.00     0.267 C 
HETATM    5  O9  UNL     1     -31.533   8.406   4.340  1.00 20.00    -0.264 OA
BRANCH   4   6
HETATM    6  O10 UNL     1     -32.481   7.073   2.709  1.00 20.00    -0.326 OA
HETATM    7  C8  UNL     1     -32.190   7.946   1.613  1.00 20.00     0.213 C 
ENDBRANCH   4   6
ENDBRANCH   3   4
BRANCH   3   8
HETATM    8  C6  UNL     1     -34.337   6.013   4.163  1.00 20.00     0.004 A 
HETATM    9  C2  UNL     1     -33.979   4.575   4.418  1.00 20.00     0.006 A 
HETATM   10  C3  UNL     1     -35.256   5.141   4.974  1.00 20.00     0.006 A 
ENDBRANCH   3   8
TORSDOF 3
ENDMDL
MODEL 7
REMARK VINA RESULT:      -4.2      9.753     10.908
REMARK  3 active torsions:
REMARK  status: ('A' for Active; 'I' for Inactive)
REMARK    1  A    between atoms: C1_1  and  C7_7 
REMARK    2  A    between atoms: C1_1  and  O10_10 
REMARK    3  A    between atoms: C6_6  and  C7_7 
ROOT
HETATM    1  C4  UNL     1     -42.537  13.676   6.067  1.00 20.00     0.021 A 
HETATM    2  C5  UNL     1     -42.368  12.390   6.818  1.00 20.00     0.021 A 
HETATM    3  C7  UNL     1     -41.203  13.353   6.708  1.00 20.00     0.051 A 
ENDROOT
BRANCH   3   4
HETATM    4  C1  UNL     1     -40.858  14.118   7.934  1.00 20.00     0.267 C 
HETATM    5  O9  UNL     1     -41.170  13.773   9.066  1.00 20.00    -0.264 OA
BRANCH   4   6
HETATM    6  O10 UNL     1     -40.157  15.236   7.592  1.00 20.00    -0.326 OA
HETATM    7  C8  UNL     1     -40.748  16.477   7.990  1.00 20.00     0.213 C 
ENDBRANCH   4   6
ENDBRANCH   3   4
BRANCH   3   8
HETATM    8  C6  UNL     1     -39.988  13.000   5.829  1.00 20.00     0.004 A 
HETATM    9  C2  UNL     1     -38.919  12.040   6.272  1.00 20.00     0.006 A 
HETATM   10  C3  UNL     1     -39.841  11.670   5.143  1.00 20.00     0.006 A 
ENDBRANCH   3   8
TORSDOF 3
ENDMDL
MODEL 8
REMARK VINA RESULT:      -4.2      0.837      1.549
REMARK  3 active torsions:
REMARK  status: ('A' for Active; 'I' for Inactive)
REMARK    1  A    between atoms: C1_1  and  C7_7 
REMARK    2  A    between atoms: C1_1  and  O10_10 
REMARK    3  A    between atoms: C6_6  and  C7_7 
ROOT
HETATM    1  C4  UNL     1     -33.781   8.697   4.697  1.00 20.00     0.021 A 
HETATM    2  C5  UNL     1     -32.763   8.020   5.563  1.00 20.00     0.021 A 
HETATM    3  C7  UNL     1     -33.575   7.201   4.581  1.00 20.00     0.051 A 
ENDROOT
BRANCH   3   4
HETATM    4  C1  UNL     1     -32.863   6.725   3.367  1.00 20.00     0.267 C 
HETATM    5  O9  UNL     1     -31.823   7.213   2.948  1.00 20.00    -0.264 OA
BRANCH   4   6
HETATM    6  O10 UNL     1     -33.548   5.682   2.817  1.00 20.00    -0.326 OA
HETATM    7  C8  UNL     1     -32.741   4.609   2.322  1.00 20.00     0.213 C 
ENDBRANCH   4   6
ENDBRANCH   3   4
BRANCH   3   8
HETATM    8  C6  UNL     1     -34.656   6.230   5.093  1.00 20.00     0.004 A 
HETATM    9  C2  UNL     1     -34.327   4.878   5.664  1.00 20.00     0.006 A 
HETATM   10  C3  UNL     1     -34.876   5.957   6.555  1.00 20.00     0.006 A 
ENDBRANCH   3   8
TORSDOF 3
ENDMDL
MODEL 9
REMARK VINA RESULT:      -4.1     12.023     13.055
REMARK  3 active torsions:
REMARK  status: ('A' for Active; 'I' for Inactive)
REMARK    1  A    between atoms: C1_1  and  C7_7 
REMARK    2  A    between atoms: C1_1  and  O10_10 
REMARK    3  A    between atoms: C6_6  and  C7_7 
ROOT
HETATM    1  C4  UNL     1     -32.671  15.313  -4.214  1.00 20.00     0.021 A 
HETATM    2  C5  UNL     1     -34.045  14.793  -3.919  1.00 20.00     0.021 A 
HETATM    3  C7  UNL     1     -33.697  16.227  -3.577  1.00 20.00     0.051 A 
ENDROOT
BRANCH   3   4
HETATM    4  C1  UNL     1     -34.280  17.277  -4.453  1.00 20.00     0.267 C 
HETATM    5  O9  UNL     1     -33.658  18.246  -4.864  1.00 20.00    -0.264 OA
BRANCH   4   6
HETATM    6  O10 UNL     1     -35.586  16.983  -4.708  1.00 20.00    -0.326 OA
HETATM    7  C8  UNL     1     -36.512  18.052  -4.484  1.00 20.00     0.213 C 
ENDBRANCH   4   6
ENDBRANCH   3   4
BRANCH   3   8
HETATM    8  C6  UNL     1     -33.543  16.655  -2.105  1.00 20.00     0.004 A 
HETATM    9  C2  UNL     1     -32.630  17.771  -1.677  1.00 20.00     0.006 A 
HETATM   10  C3  UNL     1     -34.120  17.934  -1.566  1.00 20.00     0.006 A 
ENDBRANCH   3   8
TORSDOF 3
ENDMDL
