MODEL 1
REMARK VINA RESULT:      -4.8      0.000      0.000
REMARK  1 active torsions:
REMARK  status: ('A' for Active; 'I' for Inactive)
REMARK    1  A    between atoms: C1_1  and  C6_6 
ROOT
HETATM    1  C2  UNL     1     -34.676   6.393   6.560  1.00 20.00     0.002 C 
HETATM    2  C3  UNL     1     -33.743   7.524   6.135  1.00 20.00     0.013 C 
HETATM    3  C4  UNL     1     -34.310   5.074   5.880  1.00 20.00     0.020 C 
HETATM    4  C5  UNL     1     -33.321   6.351   3.933  1.00 20.00     0.033 C 
HETATM    5  C6  UNL     1     -33.692   7.671   4.613  1.00 20.00     0.073 C 
HETATM    6  C7  UNL     1     -34.268   5.228   4.360  1.00 20.00     0.083 C 
HETATM    7 CL10 UNL     1     -33.762   3.688   3.609  1.00 20.00    -0.125 Cl
ENDROOT
BRANCH   5   8
HETATM    8  C1  UNL     1     -32.695   8.728   4.253  1.00 20.00     0.223 C 
HETATM    9  O8  UNL     1     -32.052   9.328   5.109  1.00 20.00    -0.279 OA
HETATM   10 CL9  UNL     1     -32.586   8.967   2.535  1.00 20.00    -0.043 Cl
ENDBRANCH   5   8
TORSDOF 1
ENDMDL
MODEL 2
REMARK VINA RESULT:      -4.7      2.374      3.964
REMARK  1 active torsions:
REMARK  status: ('A' for Active; 'I' for Inactive)
REMARK    1  A    between atoms: C1_1  and  C6_6 
ROOT
HETATM    1  C2  UNL     1     -32.663   8.738   5.115  1.00 20.00     0.002 C 
HETATM    2  C3  UNL     1     -33.620   7.607   5.484  1.00 20.00     0.013 C 
HETATM    3  C4  UNL     1     -32.554   8.914   3.601  1.00 20.00     0.020 C 
HETATM    4  C5  UNL     1     -33.134   6.474   3.275  1.00 20.00     0.033 C 
HETATM    5  C6  UNL     1     -33.238   6.298   4.791  1.00 20.00     0.073 C 
HETATM    6  C7  UNL     1     -32.167   7.603   2.917  1.00 20.00     0.083 C 
HETATM    7 CL10 UNL     1     -32.126   7.832   1.146  1.00 20.00    -0.125 Cl
ENDROOT
BRANCH   5   8
HETATM    8  C1  UNL     1     -34.261   5.253   5.114  1.00 20.00     0.223 C 
HETATM    9  O8  UNL     1     -34.470   4.301   4.368  1.00 20.00    -0.279 OA
HETATM   10 CL9  UNL     1     -35.066   5.569   6.622  1.00 20.00    -0.043 Cl
ENDBRANCH   5   8
TORSDOF 1
ENDMDL
MODEL 3
REMARK VINA RESULT:      -4.6      2.570      4.512
REMARK  1 active torsions:
REMARK  status: ('A' for Active; 'I' for Inactive)
REMARK    1  A    between atoms: C1_1  and  C6_6 
ROOT
HETATM    1  C2  UNL     1     -32.424   6.891   2.251  1.00 20.00     0.002 C 
HETATM    2  C3  UNL     1     -32.956   5.715   3.067  1.00 20.00     0.013 C 
HETATM    3  C4  UNL     1     -31.818   7.971   3.145  1.00 20.00     0.020 C 
HETATM    4  C5  UNL     1     -33.336   7.255   5.038  1.00 20.00     0.033 C 
HETATM    5  C6  UNL     1     -33.945   6.176   4.139  1.00 20.00     0.073 C 
HETATM    6  C7  UNL     1     -32.814   8.430   4.210  1.00 20.00     0.083 C 
HETATM    7 CL10 UNL     1     -32.043   9.634   5.282  1.00 20.00    -0.125 Cl
ENDROOT
BRANCH   5   8
HETATM    8  C1  UNL     1     -34.360   4.998   4.966  1.00 20.00     0.223 C 
HETATM    9  O8  UNL     1     -34.299   3.851   4.532  1.00 20.00    -0.279 OA
HETATM   10 CL9  UNL     1     -34.910   5.469   6.546  1.00 20.00    -0.043 Cl
ENDBRANCH   5   8
TORSDOF 1
ENDMDL
MODEL 4
REMARK VINA RESULT:      -4.3      1.480      2.350
REMARK  1 active torsions:
REMARK  status: ('A' for Active; 'I' for Inactive)
REMARK    1  A    between atoms: C1_1  and  C6_6 
ROOT
HETATM    1  C2  UNL     1     -32.914   5.229   2.794  1.00 20.00     0.002 C 
HETATM    2  C3  UNL     1     -32.727   6.728   2.577  1.00 20.00     0.013 C 
HETATM    3  C4  UNL     1     -34.024   4.938   3.802  1.00 20.00     0.020 C 
HETATM    4  C5  UNL     1     -33.608   7.176   4.906  1.00 20.00     0.033 C 
HETATM    5  C6  UNL     1     -32.493   7.463   3.898  1.00 20.00     0.073 C 
HETATM    6  C7  UNL     1     -33.780   5.671   5.121  1.00 20.00     0.083 C 
HETATM    7 CL10 UNL     1     -35.137   5.369   6.243  1.00 20.00    -0.125 Cl
ENDROOT
BRANCH   5   8
HETATM    8  C1  UNL     1     -32.410   8.935   3.635  1.00 20.00     0.223 C 
HETATM    9  O8  UNL     1     -32.126   9.735   4.522  1.00 20.00    -0.279 OA
HETATM   10 CL9  UNL     1     -32.757   9.324   1.977  1.00 20.00    -0.043 Cl
ENDBRANCH   5   8
TORSDOF 1
ENDMDL
MODEL 5
REMARK VINA RESULT:      -4.0      2.035      2.736
REMARK  1 active torsions:
REMARK  status: ('A' for Active; 'I' for Inactive)
REMARK    1  A    between atoms: C1_1  and  C6_6 
ROOT
HETATM    1  C2  UNL     1     -33.284   8.634   5.676  1.00 20.00     0.002 C 
HETATM    2  C3  UNL     1     -32.556   8.197   4.407  1.00 20.00     0.013 C 
HETATM    3  C4  UNL     1     -33.719   7.436   6.518  1.00 20.00     0.020 C 
HETATM    4  C5  UNL     1     -33.823   6.008   4.433  1.00 20.00     0.033 C 
HETATM    5  C6  UNL     1     -33.391   7.210   3.590  1.00 20.00     0.073 C 
HETATM    6  C7  UNL     1     -34.559   6.458   5.696  1.00 20.00     0.083 C 
HETATM    7 CL10 UNL     1     -34.981   5.036   6.692  1.00 20.00    -0.125 Cl
ENDROOT
BRANCH   5   8
HETATM    8  C1  UNL     1     -32.592   6.746   2.411  1.00 20.00     0.223 C 
HETATM    9  O8  UNL     1     -31.958   7.530   1.711  1.00 20.00    -0.279 OA
HETATM   10 CL9  UNL     1     -32.689   5.025   2.192  1.00 20.00    -0.043 Cl
ENDBRANCH   5   8
TORSDOF 1
ENDMDL
MODEL 6
REMARK VINA RESULT:      -4.0     12.236     13.203
REMARK  1 active torsions:
REMARK  status: ('A' for Active; 'I' for Inactive)
REMARK    1  A    between atoms: C1_1  and  C6_6 
ROOT
HETATM    1  C2  UNL     1     -34.555  18.409  -4.546  1.00 20.00     0.002 C 
HETATM    2  C3  UNL     1     -34.068  18.826  -3.161  1.00 20.00     0.013 C 
HETATM    3  C4  UNL     1     -34.914  16.925  -4.596  1.00 20.00     0.020 C 
HETATM    4  C5  UNL     1     -33.269  16.464  -2.731  1.00 20.00     0.033 C 
HETATM    5  C6  UNL     1     -32.907  17.951  -2.686  1.00 20.00     0.073 C 
HETATM    6  C7  UNL     1     -33.747  16.057  -4.126  1.00 20.00     0.083 C 
HETATM    7 CL10 UNL     1     -34.232  14.338  -4.125  1.00 20.00    -0.125 Cl
ENDROOT
BRANCH   5   8
HETATM    8  C1  UNL     1     -32.534  18.342  -1.289  1.00 20.00     0.223 C 
HETATM    9  O8  UNL     1     -31.472  18.903  -1.037  1.00 20.00    -0.279 OA
HETATM   10 CL9  UNL     1     -33.762  17.909  -0.138  1.00 20.00    -0.043 Cl
ENDBRANCH   5   8
TORSDOF 1
ENDMDL
MODEL 7
REMARK VINA RESULT:      -3.9     12.998     13.930
REMARK  1 active torsions:
REMARK  status: ('A' for Active; 'I' for Inactive)
REMARK    1  A    between atoms: C1_1  and  C6_6 
ROOT
HETATM    1  C2  UNL     1     -32.999  15.139  -4.001  1.00 20.00     0.002 C 
HETATM    2  C3  UNL     1     -34.204  14.674  -4.815  1.00 20.00     0.013 C 
HETATM    3  C4  UNL     1     -33.333  16.362  -3.148  1.00 20.00     0.020 C 
HETATM    4  C5  UNL     1     -35.122  17.031  -4.807  1.00 20.00     0.033 C 
HETATM    5  C6  UNL     1     -34.783  15.808  -5.663  1.00 20.00     0.073 C 
HETATM    6  C7  UNL     1     -33.906  17.493  -4.003  1.00 20.00     0.083 C 
HETATM    7 CL10 UNL     1     -34.355  18.873  -2.961  1.00 20.00    -0.125 Cl
ENDROOT
BRANCH   5   8
HETATM    8  C1  UNL     1     -36.012  15.320  -6.365  1.00 20.00     0.223 C 
HETATM    9  O8  UNL     1     -36.003  14.305  -7.055  1.00 20.00    -0.279 OA
HETATM   10 CL9  UNL     1     -37.383  16.348  -6.074  1.00 20.00    -0.043 Cl
ENDBRANCH   5   8
TORSDOF 1
ENDMDL
MODEL 8
REMARK VINA RESULT:      -3.8     12.525     13.654
REMARK  1 active torsions:
REMARK  status: ('A' for Active; 'I' for Inactive)
REMARK    1  A    between atoms: C1_1  and  C6_6 
ROOT
HETATM    1  C2  UNL     1     -34.215  18.771  -4.535  1.00 20.00     0.002 C 
HETATM    2  C3  UNL     1     -34.149  17.366  -5.130  1.00 20.00     0.013 C 
HETATM    3  C4  UNL     1     -33.206  18.952  -3.403  1.00 20.00     0.020 C 
HETATM    4  C5  UNL     1     -33.298  16.470  -2.923  1.00 20.00     0.033 C 
HETATM    5  C6  UNL     1     -34.313  16.291  -4.055  1.00 20.00     0.073 C 
HETATM    6  C7  UNL     1     -33.379  17.878  -2.329  1.00 20.00     0.083 C 
HETATM    7 CL10 UNL     1     -32.133  18.077  -1.065  1.00 20.00    -0.125 Cl
ENDROOT
BRANCH   5   8
HETATM    8  C1  UNL     1     -34.147  14.940  -4.679  1.00 20.00     0.223 C 
HETATM    9  O8  UNL     1     -34.168  13.912  -4.009  1.00 20.00    -0.279 OA
HETATM   10 CL9  UNL     1     -33.932  15.038  -6.401  1.00 20.00    -0.043 Cl
ENDBRANCH   5   8
TORSDOF 1
ENDMDL
MODEL 9
REMARK VINA RESULT:      -3.8      9.935     10.892
REMARK  1 active torsions:
REMARK  status: ('A' for Active; 'I' for Inactive)
REMARK    1  A    between atoms: C1_1  and  C6_6 
ROOT
HETATM    1  C2  UNL     1     -42.491  14.431   4.944  1.00 20.00     0.002 C 
HETATM    2  C3  UNL     1     -41.281  13.506   4.848  1.00 20.00     0.013 C 
HETATM    3  C4  UNL     1     -42.250  15.576   5.926  1.00 20.00     0.020 C 
HETATM    4  C5  UNL     1     -40.611  14.135   7.205  1.00 20.00     0.033 C 
HETATM    5  C6  UNL     1     -40.858  12.987   6.223  1.00 20.00     0.073 C 
HETATM    6  C7  UNL     1     -41.834  15.050   7.299  1.00 20.00     0.083 C 
HETATM    7 CL10 UNL     1     -41.486  16.419   8.394  1.00 20.00    -0.125 Cl
ENDROOT
BRANCH   5   8
HETATM    8  C1  UNL     1     -39.615  12.165   6.079  1.00 20.00     0.223 C 
HETATM    9  O8  UNL     1     -38.914  11.877   7.045  1.00 20.00    -0.279 OA
HETATM   10 CL9  UNL     1     -39.326  11.701   4.429  1.00 20.00    -0.043 Cl
ENDBRANCH   5   8
TORSDOF 1
ENDMDL
