MODEL 1
REMARK VINA RESULT:      -4.4      0.000      0.000
REMARK  1 active torsions:
REMARK  status: ('A' for Active; 'I' for Inactive)
REMARK    1  A    between atoms: C2_2  and  C3_3 
ROOT
HETATM    1  C1  UNL     1     -33.231  17.121  -1.905  1.00 20.00    -0.010 A 
HETATM    2  C2  UNL     1     -32.543  18.245  -1.655  1.00 20.00    -0.016 A 
HETATM    3  C4  UNL     1     -32.652  19.197  -2.813  1.00 20.00     0.048 A 
HETATM    4  C5  UNL     1     -33.866  17.110  -3.235  1.00 20.00     0.022 A 
HETATM    5  C6  UNL     1     -33.497  18.463  -3.840  1.00 20.00     0.007 A 
HETATM    6  C7  UNL     1     -34.955  18.081  -3.643  1.00 20.00    -0.036 A 
HETATM    7  C9  UNL     1     -35.741  17.735  -4.886  1.00 20.00     0.016 C 
HETATM    8  C10 UNL     1     -35.790  18.777  -2.597  1.00 20.00     0.016 C 
ENDROOT
BRANCH   2   9
HETATM    9  C3  UNL     1     -31.821  18.514  -0.428  1.00 20.00     0.151 C 
HETATM   10  C8  UNL     1     -32.601  18.614   0.866  1.00 20.00     0.096 C 
HETATM   11  O11 UNL     1     -30.589  18.670  -0.428  1.00 20.00    -0.293 OA
ENDBRANCH   2   9
TORSDOF 1
ENDMDL
MODEL 2
REMARK VINA RESULT:      -4.3      0.835      1.773
REMARK  1 active torsions:
REMARK  status: ('A' for Active; 'I' for Inactive)
REMARK    1  A    between atoms: C2_2  and  C3_3 
ROOT
HETATM    1  C1  UNL     1     -32.448  18.889  -2.455  1.00 20.00    -0.010 A 
HETATM    2  C2  UNL     1     -32.646  18.479  -1.193  1.00 20.00    -0.016 A 
HETATM    3  C4  UNL     1     -34.005  17.855  -1.049  1.00 20.00     0.048 A 
HETATM    4  C5  UNL     1     -33.608  18.651  -3.333  1.00 20.00     0.022 A 
HETATM    5  C6  UNL     1     -34.633  17.973  -2.428  1.00 20.00     0.007 A 
HETATM    6  C7  UNL     1     -34.122  17.267  -3.672  1.00 20.00    -0.036 A 
HETATM    7  C9  UNL     1     -35.077  17.165  -4.838  1.00 20.00     0.016 C 
HETATM    8  C10 UNL     1     -33.219  16.064  -3.548  1.00 20.00     0.016 C 
ENDROOT
BRANCH   2   9
HETATM    9  C3  UNL     1     -31.673  18.598  -0.125  1.00 20.00     0.151 C 
HETATM   10  C8  UNL     1     -32.171  18.654   1.304  1.00 20.00     0.096 C 
HETATM   11  O11 UNL     1     -30.457  18.661  -0.366  1.00 20.00    -0.293 OA
ENDBRANCH   2   9
TORSDOF 1
ENDMDL
MODEL 3
REMARK VINA RESULT:      -4.1      2.199      4.367
REMARK  1 active torsions:
REMARK  status: ('A' for Active; 'I' for Inactive)
REMARK    1  A    between atoms: C2_2  and  C3_3 
ROOT
HETATM    1  C1  UNL     1     -33.672  16.988  -1.397  1.00 20.00    -0.010 A 
HETATM    2  C2  UNL     1     -33.639  17.687  -2.542  1.00 20.00    -0.016 A 
HETATM    3  C4  UNL     1     -33.548  19.159  -2.257  1.00 20.00     0.048 A 
HETATM    4  C5  UNL     1     -33.645  17.840  -0.194  1.00 20.00     0.022 A 
HETATM    5  C6  UNL     1     -33.561  19.263  -0.742  1.00 20.00     0.007 A 
HETATM    6  C7  UNL     1     -32.470  18.725   0.169  1.00 20.00    -0.036 A 
HETATM    7  C9  UNL     1     -32.437  19.262   1.581  1.00 20.00     0.016 C 
HETATM    8  C10 UNL     1     -31.095  18.435  -0.379  1.00 20.00     0.016 C 
ENDROOT
BRANCH   2   9
HETATM    9  C3  UNL     1     -33.661  17.100  -3.867  1.00 20.00     0.151 C 
HETATM   10  C8  UNL     1     -33.215  15.662  -4.029  1.00 20.00     0.096 C 
HETATM   11  O11 UNL     1     -34.028  17.756  -4.855  1.00 20.00    -0.293 OA
ENDBRANCH   2   9
TORSDOF 1
ENDMDL
MODEL 4
REMARK VINA RESULT:      -3.9     11.512     12.619
REMARK  1 active torsions:
REMARK  status: ('A' for Active; 'I' for Inactive)
REMARK    1  A    between atoms: C2_2  and  C3_3 
ROOT
HETATM    1  C1  UNL     1     -40.979  12.208   6.363  1.00 20.00    -0.010 A 
HETATM    2  C2  UNL     1     -40.541  12.666   5.180  1.00 20.00    -0.016 A 
HETATM    3  C4  UNL     1     -41.412  13.791   4.696  1.00 20.00     0.048 A 
HETATM    4  C5  UNL     1     -42.192  12.897   6.841  1.00 20.00     0.022 A 
HETATM    5  C6  UNL     1     -42.485  13.937   5.762  1.00 20.00     0.007 A 
HETATM    6  C7  UNL     1     -42.225  14.370   7.195  1.00 20.00    -0.036 A 
HETATM    7  C9  UNL     1     -43.417  14.849   7.988  1.00 20.00     0.016 C 
HETATM    8  C10 UNL     1     -40.953  15.100   7.550  1.00 20.00     0.016 C 
ENDROOT
BRANCH   2   9
HETATM    9  C3  UNL     1     -39.375  12.163   4.482  1.00 20.00     0.151 C 
HETATM   10  C8  UNL     1     -38.124  11.867   5.282  1.00 20.00     0.096 C 
HETATM   11  O11 UNL     1     -39.389  11.983   3.254  1.00 20.00    -0.293 OA
ENDBRANCH   2   9
TORSDOF 1
ENDMDL
MODEL 5
REMARK VINA RESULT:      -3.8      0.776      1.561
REMARK  1 active torsions:
REMARK  status: ('A' for Active; 'I' for Inactive)
REMARK    1  A    between atoms: C2_2  and  C3_3 
ROOT
HETATM    1  C1  UNL     1     -33.984  19.004  -1.414  1.00 20.00    -0.010 A 
HETATM    2  C2  UNL     1     -32.902  18.241  -1.196  1.00 20.00    -0.016 A 
HETATM    3  C4  UNL     1     -32.865  17.091  -2.162  1.00 20.00     0.048 A 
HETATM    4  C5  UNL     1     -34.844  18.498  -2.500  1.00 20.00     0.022 A 
HETATM    5  C6  UNL     1     -34.123  17.248  -3.000  1.00 20.00     0.007 A 
HETATM    6  C7  UNL     1     -34.393  18.408  -3.943  1.00 20.00    -0.036 A 
HETATM    7  C9  UNL     1     -35.473  18.206  -4.979  1.00 20.00     0.016 C 
HETATM    8  C10 UNL     1     -33.254  19.263  -4.443  1.00 20.00     0.016 C 
ENDROOT
BRANCH   2   9
HETATM    9  C3  UNL     1     -31.896  18.506  -0.187  1.00 20.00     0.151 C 
HETATM   10  C8  UNL     1     -32.332  18.614   1.259  1.00 20.00     0.096 C 
HETATM   11  O11 UNL     1     -30.702  18.652  -0.492  1.00 20.00    -0.293 OA
ENDBRANCH   2   9
TORSDOF 1
ENDMDL
MODEL 6
REMARK VINA RESULT:      -3.8     11.514     12.847
REMARK  1 active torsions:
REMARK  status: ('A' for Active; 'I' for Inactive)
REMARK    1  A    between atoms: C2_2  and  C3_3 
ROOT
HETATM    1  C1  UNL     1     -33.223   8.419   4.218  1.00 20.00    -0.010 A 
HETATM    2  C2  UNL     1     -32.837   7.980   3.010  1.00 20.00    -0.016 A 
HETATM    3  C4  UNL     1     -32.688   6.485   3.016  1.00 20.00     0.048 A 
HETATM    4  C5  UNL     1     -33.360   7.340   5.213  1.00 20.00     0.022 A 
HETATM    5  C6  UNL     1     -33.015   6.068   4.440  1.00 20.00     0.007 A 
HETATM    6  C7  UNL     1     -34.379   6.225   5.093  1.00 20.00    -0.036 A 
HETATM    7  C9  UNL     1     -34.636   5.406   6.336  1.00 20.00     0.016 C 
HETATM    8  C10 UNL     1     -35.613   6.404   4.244  1.00 20.00     0.016 C 
ENDROOT
BRANCH   2   9
HETATM    9  C3  UNL     1     -32.622   8.827   1.854  1.00 20.00     0.151 C 
HETATM   10  C8  UNL     1     -31.920   8.241   0.647  1.00 20.00     0.096 C 
HETATM   11  O11 UNL     1     -32.993  10.012   1.847  1.00 20.00    -0.293 OA
ENDBRANCH   2   9
TORSDOF 1
ENDMDL
MODEL 7
REMARK VINA RESULT:      -3.7      2.312      4.437
REMARK  1 active torsions:
REMARK  status: ('A' for Active; 'I' for Inactive)
REMARK    1  A    between atoms: C2_2  and  C3_3 
ROOT
HETATM    1  C1  UNL     1     -33.455  16.701  -2.934  1.00 20.00    -0.010 A 
HETATM    2  C2  UNL     1     -34.245  17.451  -3.718  1.00 20.00    -0.016 A 
HETATM    3  C4  UNL     1     -34.970  18.481  -2.900  1.00 20.00     0.048 A 
HETATM    4  C5  UNL     1     -33.537  17.062  -1.508  1.00 20.00     0.022 A 
HETATM    5  C6  UNL     1     -34.523  18.228  -1.470  1.00 20.00     0.007 A 
HETATM    6  C7  UNL     1     -33.101  18.408  -0.966  1.00 20.00    -0.036 A 
HETATM    7  C9  UNL     1     -32.917  18.510   0.530  1.00 20.00     0.016 C 
HETATM    8  C10 UNL     1     -32.123  19.263  -1.735  1.00 20.00     0.016 C 
ENDROOT
BRANCH   2   9
HETATM    9  C3  UNL     1     -34.360  17.304  -5.154  1.00 20.00     0.151 C 
HETATM   10  C8  UNL     1     -34.547  15.915  -5.728  1.00 20.00     0.096 C 
HETATM   11  O11 UNL     1     -34.300  18.288  -5.909  1.00 20.00    -0.293 OA
ENDBRANCH   2   9
TORSDOF 1
ENDMDL
MODEL 8
REMARK VINA RESULT:      -3.5      2.396      3.500
REMARK  1 active torsions:
REMARK  status: ('A' for Active; 'I' for Inactive)
REMARK    1  A    between atoms: C2_2  and  C3_3 
ROOT
HETATM    1  C1  UNL     1     -33.824  15.558  -4.535  1.00 20.00    -0.010 A 
HETATM    2  C2  UNL     1     -33.833  16.831  -4.110  1.00 20.00    -0.016 A 
HETATM    3  C4  UNL     1     -34.312  17.746  -5.201  1.00 20.00     0.048 A 
HETATM    4  C5  UNL     1     -34.245  15.410  -5.940  1.00 20.00     0.022 A 
HETATM    5  C6  UNL     1     -34.570  16.833  -6.388  1.00 20.00     0.007 A 
HETATM    6  C7  UNL     1     -35.637  15.753  -6.429  1.00 20.00    -0.036 A 
HETATM    7  C9  UNL     1     -36.024  15.230  -7.793  1.00 20.00     0.016 C 
HETATM    8  C10 UNL     1     -36.799  15.793  -5.467  1.00 20.00     0.016 C 
ENDROOT
BRANCH   2   9
HETATM    9  C3  UNL     1     -33.460  17.258  -2.777  1.00 20.00     0.151 C 
HETATM   10  C8  UNL     1     -32.855  18.635  -2.600  1.00 20.00     0.096 C 
HETATM   11  O11 UNL     1     -33.620  16.515  -1.795  1.00 20.00    -0.293 OA
ENDBRANCH   2   9
TORSDOF 1
ENDMDL
MODEL 9
REMARK VINA RESULT:      -3.4     12.372     13.717
REMARK  1 active torsions:
REMARK  status: ('A' for Active; 'I' for Inactive)
REMARK    1  A    between atoms: C2_2  and  C3_3 
ROOT
HETATM    1  C1  UNL     1     -40.525  14.056   7.371  1.00 20.00    -0.010 A 
HETATM    2  C2  UNL     1     -41.094  13.229   6.480  1.00 20.00    -0.016 A 
HETATM    3  C4  UNL     1     -42.447  12.787   6.962  1.00 20.00     0.048 A 
HETATM    4  C5  UNL     1     -41.351  14.276   8.572  1.00 20.00     0.022 A 
HETATM    5  C6  UNL     1     -42.612  13.453   8.317  1.00 20.00     0.007 A 
HETATM    6  C7  UNL     1     -42.704  14.955   8.536  1.00 20.00    -0.036 A 
HETATM    7  C9  UNL     1     -43.266  15.416   9.859  1.00 20.00     0.016 C 
HETATM    8  C10 UNL     1     -43.072  15.869   7.393  1.00 20.00     0.016 C 
ENDROOT
BRANCH   2   9
HETATM    9  C3  UNL     1     -40.498  12.839   5.218  1.00 20.00     0.151 C 
HETATM   10  C8  UNL     1     -39.376  11.821   5.231  1.00 20.00     0.096 C 
HETATM   11  O11 UNL     1     -40.884  13.329   4.145  1.00 20.00    -0.293 OA
ENDBRANCH   2   9
TORSDOF 1
ENDMDL
