MODEL 1
REMARK VINA RESULT:      -4.1      0.000      0.000
REMARK  2 active torsions:
REMARK  status: ('A' for Active; 'I' for Inactive)
REMARK    1  A    between atoms: C5_5  and  O10_10 
REMARK    2  A    between atoms: C9_9  and  O10_10 
ROOT
HETATM    1  C1  UNL     1     -32.537   9.138   0.756  1.00 20.00     0.012 C 
HETATM    2  C2  UNL     1     -32.725   8.977   1.931  1.00 20.00    -0.110 C 
HETATM    3  C3  UNL     1     -31.802   8.331   4.196  1.00 20.00     0.053 A 
HETATM    4  C4  UNL     1     -32.950   8.785   3.333  1.00 20.00     0.095 A 
HETATM    5  C5  UNL     1     -32.924   7.383   3.886  1.00 20.00     0.139 A 
ENDROOT
BRANCH   5   6
HETATM    6  O10 UNL     1     -33.824   7.117   4.950  1.00 20.00    -0.375 OA
BRANCH   6   7
HETATM    7  C9  UNL     1     -34.449   5.842   4.794  1.00 20.00     0.050 C 
HETATM    8  C6  UNL     1     -34.515   5.163   6.161  1.00 20.00     0.045 C 
HETATM    9  C7  UNL     1     -35.852   6.081   4.244  1.00 20.00     0.045 C 
HETATM   10  C8  UNL     1     -33.621   5.011   3.813  1.00 20.00     0.045 C 
ENDBRANCH   6   7
ENDBRANCH   5   6
TORSDOF 2
ENDMDL
MODEL 2
REMARK VINA RESULT:      -4.1      0.043      1.378
REMARK  2 active torsions:
REMARK  status: ('A' for Active; 'I' for Inactive)
REMARK    1  A    between atoms: C5_5  and  O10_10 
REMARK    2  A    between atoms: C9_9  and  O10_10 
ROOT
HETATM    1  C1  UNL     1     -32.565   9.139   0.718  1.00 20.00     0.012 C 
HETATM    2  C2  UNL     1     -32.725   8.973   1.896  1.00 20.00    -0.110 C 
HETATM    3  C3  UNL     1     -31.760   8.281   4.130  1.00 20.00     0.053 A 
HETATM    4  C4  UNL     1     -32.917   8.776   3.303  1.00 20.00     0.095 A 
HETATM    5  C5  UNL     1     -32.917   7.369   3.844  1.00 20.00     0.139 A 
ENDROOT
BRANCH   5   6
HETATM    6  O10 UNL     1     -33.796   7.120   4.930  1.00 20.00    -0.375 OA
BRANCH   6   7
HETATM    7  C9  UNL     1     -34.445   5.856   4.793  1.00 20.00     0.050 C 
HETATM    8  C6  UNL     1     -35.852   6.090   4.244  1.00 20.00     0.045 C 
HETATM    9  C7  UNL     1     -33.621   5.018   3.819  1.00 20.00     0.045 C 
HETATM   10  C8  UNL     1     -34.501   5.187   6.166  1.00 20.00     0.045 C 
ENDBRANCH   6   7
ENDBRANCH   5   6
TORSDOF 2
ENDMDL
MODEL 3
REMARK VINA RESULT:      -4.1      0.030      1.378
REMARK  2 active torsions:
REMARK  status: ('A' for Active; 'I' for Inactive)
REMARK    1  A    between atoms: C5_5  and  O10_10 
REMARK    2  A    between atoms: C9_9  and  O10_10 
ROOT
HETATM    1  C1  UNL     1     -32.563   9.127   0.726  1.00 20.00     0.012 C 
HETATM    2  C2  UNL     1     -32.734   8.966   1.903  1.00 20.00    -0.110 C 
HETATM    3  C3  UNL     1     -31.781   8.313   4.154  1.00 20.00     0.053 A 
HETATM    4  C4  UNL     1     -32.938   8.776   3.309  1.00 20.00     0.095 A 
HETATM    5  C5  UNL     1     -32.914   7.373   3.861  1.00 20.00     0.139 A 
ENDROOT
BRANCH   5   6
HETATM    6  O10 UNL     1     -33.799   7.113   4.938  1.00 20.00    -0.375 OA
BRANCH   6   7
HETATM    7  C9  UNL     1     -34.447   5.849   4.785  1.00 20.00     0.050 C 
HETATM    8  C6  UNL     1     -33.631   5.001   3.811  1.00 20.00     0.045 C 
HETATM    9  C7  UNL     1     -34.499   5.188   6.160  1.00 20.00     0.045 C 
HETATM   10  C8  UNL     1     -35.859   6.088   4.248  1.00 20.00     0.045 C 
ENDBRANCH   6   7
ENDBRANCH   5   6
TORSDOF 2
ENDMDL
MODEL 4
REMARK VINA RESULT:      -4.1      9.490     10.457
REMARK  2 active torsions:
REMARK  status: ('A' for Active; 'I' for Inactive)
REMARK    1  A    between atoms: C5_5  and  O10_10 
REMARK    2  A    between atoms: C9_9  and  O10_10 
ROOT
HETATM    1  C1  UNL     1     -38.907  11.756   3.857  1.00 20.00     0.012 C 
HETATM    2  C2  UNL     1     -39.432  11.855   4.932  1.00 20.00    -0.110 C 
HETATM    3  C3  UNL     1     -41.480  12.461   6.288  1.00 20.00     0.053 A 
HETATM    4  C4  UNL     1     -40.058  11.972   6.216  1.00 20.00     0.095 A 
HETATM    5  C5  UNL     1     -40.362  13.348   6.751  1.00 20.00     0.139 A 
ENDROOT
BRANCH   5   6
HETATM    6  O10 UNL     1     -40.239  13.511   8.155  1.00 20.00    -0.375 OA
BRANCH   6   7
HETATM    7  C9  UNL     1     -40.748  14.777   8.577  1.00 20.00     0.050 C 
HETATM    8  C6  UNL     1     -42.250  14.640   8.822  1.00 20.00     0.045 C 
HETATM    9  C7  UNL     1     -40.026  15.156   9.868  1.00 20.00     0.045 C 
HETATM   10  C8  UNL     1     -40.466  15.804   7.481  1.00 20.00     0.045 C 
ENDBRANCH   6   7
ENDBRANCH   5   6
TORSDOF 2
ENDMDL
MODEL 5
REMARK VINA RESULT:      -3.6     11.405     12.865
REMARK  2 active torsions:
REMARK  status: ('A' for Active; 'I' for Inactive)
REMARK    1  A    between atoms: C5_5  and  O10_10 
REMARK    2  A    between atoms: C9_9  and  O10_10 
ROOT
HETATM    1  C1  UNL     1     -32.882  17.733  -1.683  1.00 20.00     0.012 C 
HETATM    2  C2  UNL     1     -33.285  16.819  -2.349  1.00 20.00    -0.110 C 
HETATM    3  C3  UNL     1     -32.860  15.134  -4.188  1.00 20.00     0.053 A 
HETATM    4  C4  UNL     1     -33.768  15.728  -3.143  1.00 20.00     0.095 A 
HETATM    5  C5  UNL     1     -34.039  15.963  -4.608  1.00 20.00     0.139 A 
ENDROOT
BRANCH   5   6
HETATM    6  O10 UNL     1     -35.134  15.249  -5.160  1.00 20.00    -0.375 OA
BRANCH   6   7
HETATM    7  C9  UNL     1     -35.846  16.044  -6.109  1.00 20.00     0.050 C 
HETATM    8  C6  UNL     1     -37.266  16.263  -5.590  1.00 20.00     0.045 C 
HETATM    9  C7  UNL     1     -35.110  17.376  -6.239  1.00 20.00     0.045 C 
HETATM   10  C8  UNL     1     -35.862  15.306  -7.447  1.00 20.00     0.045 C 
ENDBRANCH   6   7
ENDBRANCH   5   6
TORSDOF 2
ENDMDL
MODEL 6
REMARK VINA RESULT:      -3.6      9.917     10.923
REMARK  2 active torsions:
REMARK  status: ('A' for Active; 'I' for Inactive)
REMARK    1  A    between atoms: C5_5  and  O10_10 
REMARK    2  A    between atoms: C9_9  and  O10_10 
ROOT
HETATM    1  C1  UNL     1     -38.969  11.615   3.932  1.00 20.00     0.012 C 
HETATM    2  C2  UNL     1     -39.422  11.990   4.978  1.00 20.00    -0.110 C 
HETATM    3  C3  UNL     1     -41.452  12.388   6.434  1.00 20.00     0.053 A 
HETATM    4  C4  UNL     1     -39.961  12.439   6.228  1.00 20.00     0.095 A 
HETATM    5  C5  UNL     1     -40.768  13.713   6.254  1.00 20.00     0.139 A 
ENDROOT
BRANCH   5   6
HETATM    6  O10 UNL     1     -40.637  14.508   7.421  1.00 20.00    -0.375 OA
BRANCH   6   7
HETATM    7  C9  UNL     1     -41.538  15.615   7.398  1.00 20.00     0.050 C 
HETATM    8  C6  UNL     1     -42.649  15.359   8.415  1.00 20.00     0.045 C 
HETATM    9  C7  UNL     1     -40.744  16.864   7.773  1.00 20.00     0.045 C 
HETATM   10  C8  UNL     1     -42.112  15.746   5.986  1.00 20.00     0.045 C 
ENDBRANCH   6   7
ENDBRANCH   5   6
TORSDOF 2
ENDMDL
MODEL 7
REMARK VINA RESULT:      -3.4     11.717     12.757
REMARK  2 active torsions:
REMARK  status: ('A' for Active; 'I' for Inactive)
REMARK    1  A    between atoms: C5_5  and  O10_10 
REMARK    2  A    between atoms: C9_9  and  O10_10 
ROOT
HETATM    1  C1  UNL     1     -33.932  17.799  -0.260  1.00 20.00     0.012 C 
HETATM    2  C2  UNL     1     -33.585  17.442  -1.352  1.00 20.00    -0.110 C 
HETATM    3  C3  UNL     1     -33.125  18.026  -3.770  1.00 20.00     0.053 A 
HETATM    4  C4  UNL     1     -33.171  17.014  -2.656  1.00 20.00     0.095 A 
HETATM    5  C5  UNL     1     -34.193  16.971  -3.763  1.00 20.00     0.139 A 
ENDROOT
BRANCH   5   6
HETATM    6  O10 UNL     1     -34.040  15.926  -4.710  1.00 20.00    -0.375 OA
BRANCH   6   7
HETATM    7  C9  UNL     1     -35.188  15.818  -5.554  1.00 20.00     0.050 C 
HETATM    8  C6  UNL     1     -36.157  16.945  -5.202  1.00 20.00     0.045 C 
HETATM    9  C7  UNL     1     -34.712  15.949  -6.998  1.00 20.00     0.045 C 
HETATM   10  C8  UNL     1     -35.834  14.452  -5.322  1.00 20.00     0.045 C 
ENDBRANCH   6   7
ENDBRANCH   5   6
TORSDOF 2
ENDMDL
MODEL 8
REMARK VINA RESULT:      -3.4     11.697     12.700
REMARK  2 active torsions:
REMARK  status: ('A' for Active; 'I' for Inactive)
REMARK    1  A    between atoms: C5_5  and  O10_10 
REMARK    2  A    between atoms: C9_9  and  O10_10 
ROOT
HETATM    1  C1  UNL     1     -30.607  18.274   1.458  1.00 20.00     0.012 C 
HETATM    2  C2  UNL     1     -31.647  18.578   0.940  1.00 20.00    -0.110 C 
HETATM    3  C3  UNL     1     -34.111  18.112   0.610  1.00 20.00     0.053 A 
HETATM    4  C4  UNL     1     -32.887  18.941   0.322  1.00 20.00     0.095 A 
HETATM    5  C5  UNL     1     -33.459  18.037  -0.741  1.00 20.00     0.139 A 
ENDROOT
BRANCH   5   6
HETATM    6  O10 UNL     1     -34.149  18.681  -1.799  1.00 20.00    -0.375 OA
BRANCH   6   7
HETATM    7  C9  UNL     1     -33.899  18.037  -3.049  1.00 20.00     0.050 C 
HETATM    8  C6  UNL     1     -35.222  17.909  -3.803  1.00 20.00     0.045 C 
HETATM    9  C7  UNL     1     -32.918  18.910  -3.829  1.00 20.00     0.045 C 
HETATM   10  C8  UNL     1     -33.293  16.661  -2.774  1.00 20.00     0.045 C 
ENDBRANCH   6   7
ENDBRANCH   5   6
TORSDOF 2
ENDMDL
MODEL 9
REMARK VINA RESULT:      -3.4     12.431     14.051
REMARK  2 active torsions:
REMARK  status: ('A' for Active; 'I' for Inactive)
REMARK    1  A    between atoms: C5_5  and  O10_10 
REMARK    2  A    between atoms: C9_9  and  O10_10 
ROOT
HETATM    1  C1  UNL     1     -23.187  -3.287   7.807  1.00 20.00     0.012 C 
HETATM    2  C2  UNL     1     -23.715  -3.161   8.879  1.00 20.00    -0.110 C 
HETATM    3  C3  UNL     1     -25.114  -4.172  10.728  1.00 20.00     0.053 A 
HETATM    4  C4  UNL     1     -24.344  -3.011  10.157  1.00 20.00     0.095 A 
HETATM    5  C5  UNL     1     -25.850  -2.964  10.223  1.00 20.00     0.139 A 
ENDROOT
BRANCH   5   6
HETATM    6  O10 UNL     1     -26.402  -2.115  11.216  1.00 20.00    -0.375 OA
BRANCH   6   7
HETATM    7  C9  UNL     1     -27.723  -1.699  10.866  1.00 20.00     0.050 C 
HETATM    8  C6  UNL     1     -28.557  -1.606  12.143  1.00 20.00     0.045 C 
HETATM    9  C7  UNL     1     -27.614  -0.333  10.194  1.00 20.00     0.045 C 
HETATM   10  C8  UNL     1     -28.317  -2.727   9.901  1.00 20.00     0.045 C 
ENDBRANCH   6   7
ENDBRANCH   5   6
TORSDOF 2
ENDMDL
