MODEL 1
REMARK VINA RESULT:      -4.1      0.000      0.000
REMARK  0 active torsions:
REMARK  status: ('A' for Active; 'I' for Inactive)
ROOT
HETATM    1  C1  UNL     1     -32.342   7.899   2.126  1.00 20.00     0.095 C 
HETATM    2  C2  UNL     1     -33.923   7.045   6.163  1.00 20.00     0.007 C 
HETATM    3  C3  UNL     1     -34.155   6.073   5.001  1.00 20.00     0.008 C 
HETATM    4  C4  UNL     1     -32.515   8.945   5.056  1.00 20.00     0.276 C 
HETATM    5  C5  UNL     1     -32.371   7.250   3.447  1.00 20.00     0.330 C 
HETATM    6  C6  UNL     1     -33.839   8.209   5.148  1.00 20.00     0.021 C 
HETATM    7  C7  UNL     1     -33.798   7.193   3.998  1.00 20.00     0.038 C 
HETATM    8  N8  UNL     1     -32.321   8.411   1.085  1.00 20.00    -0.195 NA
HETATM    9  N9  UNL     1     -31.568   8.028   4.407  1.00 20.00     0.102 N 
HETATM   10  H19 UNL     1     -30.810   8.534   3.955  1.00 20.00     0.317 HD
ENDROOT
TORSDOF 0
ENDMDL
MODEL 2
REMARK VINA RESULT:      -4.0      1.303      1.684
REMARK  0 active torsions:
REMARK  status: ('A' for Active; 'I' for Inactive)
ROOT
HETATM    1  C1  UNL     1     -32.738   8.238   3.287  1.00 20.00     0.095 C 
HETATM    2  C2  UNL     1     -34.585   5.046   5.721  1.00 20.00     0.007 C 
HETATM    3  C3  UNL     1     -33.973   4.740   4.350  1.00 20.00     0.008 C 
HETATM    4  C4  UNL     1     -34.159   7.608   5.987  1.00 20.00     0.276 C 
HETATM    5  C5  UNL     1     -32.751   7.078   4.194  1.00 20.00     0.330 C 
HETATM    6  C6  UNL     1     -34.873   6.490   5.250  1.00 20.00     0.021 C 
HETATM    7  C7  UNL     1     -34.020   6.244   3.998  1.00 20.00     0.038 C 
HETATM    8  N8  UNL     1     -32.729   9.152   2.572  1.00 20.00    -0.195 NA
HETATM    9  N9  UNL     1     -32.746   7.535   5.595  1.00 20.00     0.102 N 
HETATM   10  H19 UNL     1     -32.282   8.434   5.706  1.00 20.00     0.317 HD
ENDROOT
TORSDOF 0
ENDMDL
MODEL 3
REMARK VINA RESULT:      -4.0     10.913     12.002
REMARK  0 active torsions:
REMARK  status: ('A' for Active; 'I' for Inactive)
ROOT
HETATM    1  C1  UNL     1     -33.738  15.073  -3.820  1.00 20.00     0.095 C 
HETATM    2  C2  UNL     1     -33.349  19.023  -1.878  1.00 20.00     0.007 C 
HETATM    3  C3  UNL     1     -32.587  17.803  -1.348  1.00 20.00     0.008 C 
HETATM    4  C4  UNL     1     -34.637  18.054  -3.931  1.00 20.00     0.276 C 
HETATM    5  C5  UNL     1     -33.086  16.354  -3.501  1.00 20.00     0.330 C 
HETATM    6  C6  UNL     1     -34.443  18.078  -2.427  1.00 20.00     0.021 C 
HETATM    7  C7  UNL     1     -33.538  16.873  -2.133  1.00 20.00     0.038 C 
HETATM    8  N8  UNL     1     -34.252  14.064  -4.070  1.00 20.00    -0.195 NA
HETATM    9  N9  UNL     1     -33.465  17.373  -4.496  1.00 20.00     0.102 N 
HETATM   10  H19 UNL     1     -33.673  16.965  -5.405  1.00 20.00     0.317 HD
ENDROOT
TORSDOF 0
ENDMDL
MODEL 4
REMARK VINA RESULT:      -3.9     10.875     12.105
REMARK  0 active torsions:
REMARK  status: ('A' for Active; 'I' for Inactive)
ROOT
HETATM    1  C1  UNL     1     -35.693  14.783  -6.365  1.00 20.00     0.095 C 
HETATM    2  C2  UNL     1     -33.380  16.475  -3.002  1.00 20.00     0.007 C 
HETATM    3  C3  UNL     1     -34.530  17.258  -3.643  1.00 20.00     0.008 C 
HETATM    4  C4  UNL     1     -33.369  14.245  -4.361  1.00 20.00     0.276 C 
HETATM    5  C5  UNL     1     -35.440  15.157  -4.964  1.00 20.00     0.330 C 
HETATM    6  C6  UNL     1     -33.151  15.747  -4.347  1.00 20.00     0.021 C 
HETATM    7  C7  UNL     1     -34.465  16.335  -4.880  1.00 20.00     0.038 C 
HETATM    8  N8  UNL     1     -35.893  14.488  -7.469  1.00 20.00    -0.195 NA
HETATM    9  N9  UNL     1     -34.817  14.030  -4.247  1.00 20.00     0.102 N 
HETATM   10  H19 UNL     1     -35.092  13.129  -4.633  1.00 20.00     0.317 HD
ENDROOT
TORSDOF 0
ENDMDL
MODEL 5
REMARK VINA RESULT:      -3.9     14.654     16.122
REMARK  0 active torsions:
REMARK  status: ('A' for Active; 'I' for Inactive)
ROOT
HETATM    1  C1  UNL     1     -24.298  16.837  11.398  1.00 20.00     0.095 C 
HETATM    2  C2  UNL     1     -21.537  19.263   8.946  1.00 20.00     0.007 C 
HETATM    3  C3  UNL     1     -22.794  18.637   8.334  1.00 20.00     0.008 C 
HETATM    4  C4  UNL     1     -21.675  18.518  11.444  1.00 20.00     0.276 C 
HETATM    5  C5  UNL     1     -23.839  18.043  10.688  1.00 20.00     0.330 C 
HETATM    6  C6  UNL     1     -21.499  18.123   9.990  1.00 20.00     0.021 C 
HETATM    7  C7  UNL     1     -22.897  17.675   9.538  1.00 20.00     0.038 C 
HETATM    8  N8  UNL     1     -24.659  15.887  11.957  1.00 20.00    -0.195 NA
HETATM    9  N9  UNL     1     -23.081  18.910  11.607  1.00 20.00     0.102 N 
HETATM   10  H19 UNL     1     -23.387  18.809  12.572  1.00 20.00     0.317 HD
ENDROOT
TORSDOF 0
ENDMDL
MODEL 6
REMARK VINA RESULT:      -3.8      2.367      3.003
REMARK  0 active torsions:
REMARK  status: ('A' for Active; 'I' for Inactive)
ROOT
HETATM    1  C1  UNL     1     -33.432   5.340   3.134  1.00 20.00     0.095 C 
HETATM    2  C2  UNL     1     -34.264   7.719   6.763  1.00 20.00     0.007 C 
HETATM    3  C3  UNL     1     -33.688   8.374   5.503  1.00 20.00     0.008 C 
HETATM    4  C4  UNL     1     -34.526   5.222   6.049  1.00 20.00     0.276 C 
HETATM    5  C5  UNL     1     -34.192   6.272   3.983  1.00 20.00     0.330 C 
HETATM    6  C6  UNL     1     -33.600   6.385   6.351  1.00 20.00     0.021 C 
HETATM    7  C7  UNL     1     -33.269   6.984   4.976  1.00 20.00     0.038 C 
HETATM    8  N8  UNL     1     -32.833   4.605   2.465  1.00 20.00    -0.195 NA
HETATM    9  N9  UNL     1     -35.190   5.532   4.776  1.00 20.00     0.102 N 
HETATM   10  H19 UNL     1     -35.506   4.686   4.305  1.00 20.00     0.317 HD
ENDROOT
TORSDOF 0
ENDMDL
MODEL 7
REMARK VINA RESULT:      -3.7     11.059     12.392
REMARK  0 active torsions:
REMARK  status: ('A' for Active; 'I' for Inactive)
ROOT
HETATM    1  C1  UNL     1     -33.537  15.984  -3.377  1.00 20.00     0.095 C 
HETATM    2  C2  UNL     1     -35.696  14.880  -7.071  1.00 20.00     0.007 C 
HETATM    3  C3  UNL     1     -34.720  16.061  -7.049  1.00 20.00     0.008 C 
HETATM    4  C4  UNL     1     -35.568  13.978  -4.624  1.00 20.00     0.276 C 
HETATM    5  C5  UNL     1     -33.695  15.380  -4.710  1.00 20.00     0.330 C 
HETATM    6  C6  UNL     1     -35.966  15.100  -5.564  1.00 20.00     0.021 C 
HETATM    7  C7  UNL     1     -34.793  16.089  -5.506  1.00 20.00     0.038 C 
HETATM    8  N8  UNL     1     -33.413  16.461  -2.327  1.00 20.00    -0.195 NA
HETATM    9  N9  UNL     1     -34.100  13.969  -4.578  1.00 20.00     0.102 N 
HETATM   10  H19 UNL     1     -33.757  13.548  -3.717  1.00 20.00     0.317 HD
ENDROOT
TORSDOF 0
ENDMDL
MODEL 8
REMARK VINA RESULT:      -3.7     14.573     15.510
REMARK  0 active torsions:
REMARK  status: ('A' for Active; 'I' for Inactive)
ROOT
HETATM    1  C1  UNL     1     -25.984  18.768  12.026  1.00 20.00     0.095 C 
HETATM    2  C2  UNL     1     -22.456  17.425   9.731  1.00 20.00     0.007 C 
HETATM    3  C3  UNL     1     -22.851  18.904   9.779  1.00 20.00     0.008 C 
HETATM    4  C4  UNL     1     -24.267  16.293  11.233  1.00 20.00     0.276 C 
HETATM    5  C5  UNL     1     -24.549  18.553  11.772  1.00 20.00     0.330 C 
HETATM    6  C6  UNL     1     -23.937  17.041   9.954  1.00 20.00     0.021 C 
HETATM    7  C7  UNL     1     -24.262  18.508  10.269  1.00 20.00     0.038 C 
HETATM    8  N8  UNL     1     -27.114  18.938  12.226  1.00 20.00    -0.195 NA
HETATM    9  N9  UNL     1     -24.128  17.257  12.332  1.00 20.00     0.102 N 
HETATM   10  H19 UNL     1     -24.687  16.985  13.138  1.00 20.00     0.317 HD
ENDROOT
TORSDOF 0
ENDMDL
MODEL 9
REMARK VINA RESULT:      -3.7     11.359     12.266
REMARK  0 active torsions:
REMARK  status: ('A' for Active; 'I' for Inactive)
ROOT
HETATM    1  C1  UNL     1     -32.540  17.987  -1.577  1.00 20.00     0.095 C 
HETATM    2  C2  UNL     1     -34.726  15.841  -4.761  1.00 20.00     0.007 C 
HETATM    3  C3  UNL     1     -33.685  15.123  -3.895  1.00 20.00     0.008 C 
HETATM    4  C4  UNL     1     -34.711  18.266  -3.794  1.00 20.00     0.276 C 
HETATM    5  C5  UNL     1     -33.565  17.085  -2.129  1.00 20.00     0.330 C 
HETATM    6  C6  UNL     1     -33.969  17.170  -4.537  1.00 20.00     0.021 C 
HETATM    7  C7  UNL     1     -33.108  16.489  -3.463  1.00 20.00     0.038 C 
HETATM    8  N8  UNL     1     -31.732  18.697  -1.143  1.00 20.00    -0.195 NA
HETATM    9  N9  UNL     1     -34.805  17.835  -2.393  1.00 20.00     0.102 N 
HETATM   10  H19 UNL     1     -34.917  18.629  -1.766  1.00 20.00     0.317 HD
ENDROOT
TORSDOF 0
ENDMDL
