MODEL 1
REMARK VINA RESULT:      -4.0      0.000      0.000
REMARK  1 active torsions:
REMARK  status: ('A' for Active; 'I' for Inactive)
REMARK    1  A    between atoms: C1_1  and  C3_3 
ROOT
HETATM    1  C2  UNL     1     -35.382   6.020   4.413  1.00 20.00     0.103 A 
HETATM    2  C3  UNL     1     -34.119   6.499   5.086  1.00 20.00     0.073 A 
HETATM    3  C5  UNL     1     -34.216   6.921   6.528  1.00 20.00     0.036 C 
HETATM    4  S7  UNL     1     -34.251   4.783   4.793  1.00 20.00    -0.149 SA
ENDROOT
BRANCH   2   5
HETATM    5  C1  UNL     1     -33.111   7.171   4.241  1.00 20.00     0.142 C 
HETATM    6  C4  UNL     1     -32.566   8.479   4.748  1.00 20.00     0.092 C 
HETATM    7  O6  UNL     1     -32.732   6.684   3.178  1.00 20.00    -0.297 OA
ENDBRANCH   2   5
TORSDOF 1
ENDMDL
MODEL 2
REMARK VINA RESULT:      -3.6      1.742      2.169
REMARK  1 active torsions:
REMARK  status: ('A' for Active; 'I' for Inactive)
REMARK    1  A    between atoms: C1_1  and  C3_3 
ROOT
HETATM    1  C2  UNL     1     -34.369   4.990   5.202  1.00 20.00     0.103 A 
HETATM    2  C3  UNL     1     -33.789   6.013   4.257  1.00 20.00     0.073 A 
HETATM    3  C5  UNL     1     -33.181   5.511   2.975  1.00 20.00     0.036 C 
HETATM    4  S7  UNL     1     -35.530   5.929   4.349  1.00 20.00    -0.149 SA
ENDROOT
BRANCH   2   5
HETATM    5  C1  UNL     1     -33.220   7.241   4.851  1.00 20.00     0.142 C 
HETATM    6  C4  UNL     1     -32.606   8.232   3.899  1.00 20.00     0.092 C 
HETATM    7  O6  UNL     1     -33.250   7.446   6.063  1.00 20.00    -0.297 OA
ENDBRANCH   2   5
TORSDOF 1
ENDMDL
MODEL 3
REMARK VINA RESULT:      -3.5     15.742     16.500
REMARK  1 active torsions:
REMARK  status: ('A' for Active; 'I' for Inactive)
REMARK    1  A    between atoms: C1_1  and  C3_3 
ROOT
HETATM    1  C2  UNL     1     -24.042  16.852  10.758  1.00 20.00     0.103 A 
HETATM    2  C3  UNL     1     -23.509  18.045  10.004  1.00 20.00     0.073 A 
HETATM    3  C5  UNL     1     -24.498  19.092   9.568  1.00 20.00     0.036 C 
HETATM    4  S7  UNL     1     -23.178  17.987  11.717  1.00 20.00    -0.149 SA
ENDROOT
BRANCH   2   5
HETATM    5  C1  UNL     1     -22.314  17.836   9.159  1.00 20.00     0.142 C 
HETATM    6  C4  UNL     1     -21.431  19.033   8.929  1.00 20.00     0.092 C 
HETATM    7  O6  UNL     1     -22.052  16.738   8.672  1.00 20.00    -0.297 OA
ENDBRANCH   2   5
TORSDOF 1
ENDMDL
MODEL 4
REMARK VINA RESULT:      -3.4     15.875     16.797
REMARK  1 active torsions:
REMARK  status: ('A' for Active; 'I' for Inactive)
REMARK    1  A    between atoms: C1_1  and  C3_3 
ROOT
HETATM    1  C2  UNL     1     -21.874  18.921   9.692  1.00 20.00     0.103 A 
HETATM    2  C3  UNL     1     -23.192  18.268  10.030  1.00 20.00     0.073 A 
HETATM    3  C5  UNL     1     -24.438  18.866   9.434  1.00 20.00     0.036 C 
HETATM    4  S7  UNL     1     -22.157  17.414   8.914  1.00 20.00    -0.149 SA
ENDROOT
BRANCH   2   5
HETATM    5  C1  UNL     1     -23.308  17.616  11.352  1.00 20.00     0.142 C 
HETATM    6  C4  UNL     1     -24.337  16.525  11.480  1.00 20.00     0.092 C 
HETATM    7  O6  UNL     1     -22.597  17.947  12.299  1.00 20.00    -0.297 OA
ENDBRANCH   2   5
TORSDOF 1
ENDMDL
MODEL 5
REMARK VINA RESULT:      -3.4      2.249      2.732
REMARK  1 active torsions:
REMARK  status: ('A' for Active; 'I' for Inactive)
REMARK    1  A    between atoms: C1_1  and  C3_3 
ROOT
HETATM    1  C2  UNL     1     -34.506   6.090   6.240  1.00 20.00     0.103 A 
HETATM    2  C3  UNL     1     -34.653   5.959   4.744  1.00 20.00     0.073 A 
HETATM    3  C5  UNL     1     -35.978   6.336   4.139  1.00 20.00     0.036 C 
HETATM    4  S7  UNL     1     -33.682   7.289   5.323  1.00 20.00    -0.149 SA
ENDROOT
BRANCH   2   5
HETATM    5  C1  UNL     1     -33.870   4.899   4.074  1.00 20.00     0.142 C 
HETATM    6  C4  UNL     1     -33.103   5.299   2.843  1.00 20.00     0.092 C 
HETATM    7  O6  UNL     1     -33.844   3.747   4.504  1.00 20.00    -0.297 OA
ENDBRANCH   2   5
TORSDOF 1
ENDMDL
MODEL 6
REMARK VINA RESULT:      -3.4      9.367      9.603
REMARK  1 active torsions:
REMARK  status: ('A' for Active; 'I' for Inactive)
REMARK    1  A    between atoms: C1_1  and  C3_3 
ROOT
HETATM    1  C2  UNL     1     -41.794  13.730   5.443  1.00 20.00     0.103 A 
HETATM    2  C3  UNL     1     -40.759  13.438   6.501  1.00 20.00     0.073 A 
HETATM    3  C5  UNL     1     -40.371  14.562   7.425  1.00 20.00     0.036 C 
HETATM    4  S7  UNL     1     -42.352  12.770   6.755  1.00 20.00    -0.149 SA
ENDROOT
BRANCH   2   5
HETATM    5  C1  UNL     1     -39.731  12.424   6.187  1.00 20.00     0.142 C 
HETATM    6  C4  UNL     1     -39.587  12.032   4.741  1.00 20.00     0.092 C 
HETATM    7  O6  UNL     1     -39.025  11.928   7.063  1.00 20.00    -0.297 OA
ENDBRANCH   2   5
TORSDOF 1
ENDMDL
MODEL 7
REMARK VINA RESULT:      -3.3      1.607      1.983
REMARK  1 active torsions:
REMARK  status: ('A' for Active; 'I' for Inactive)
REMARK    1  A    between atoms: C1_1  and  C3_3 
ROOT
HETATM    1  C2  UNL     1     -34.036   4.681   4.759  1.00 20.00     0.103 A 
HETATM    2  C3  UNL     1     -34.575   6.088   4.689  1.00 20.00     0.073 A 
HETATM    3  C5  UNL     1     -35.953   6.278   4.114  1.00 20.00     0.036 C 
HETATM    4  S7  UNL     1     -34.513   5.349   6.270  1.00 20.00    -0.149 SA
ENDROOT
BRANCH   2   5
HETATM    5  C1  UNL     1     -33.599   7.182   4.505  1.00 20.00     0.142 C 
HETATM    6  C4  UNL     1     -32.569   6.996   3.424  1.00 20.00     0.092 C 
HETATM    7  O6  UNL     1     -33.629   8.197   5.199  1.00 20.00    -0.297 OA
ENDBRANCH   2   5
TORSDOF 1
ENDMDL
MODEL 8
REMARK VINA RESULT:      -3.3     12.661     13.252
REMARK  1 active torsions:
REMARK  status: ('A' for Active; 'I' for Inactive)
REMARK    1  A    between atoms: C1_1  and  C3_3 
ROOT
HETATM    1  C2  UNL     1     -32.851  18.816  -2.416  1.00 20.00     0.103 A 
HETATM    2  C3  UNL     1     -33.006  18.673  -0.922  1.00 20.00     0.073 A 
HETATM    3  C5  UNL     1     -34.238  19.262  -0.289  1.00 20.00     0.036 C 
HETATM    4  S7  UNL     1     -33.263  17.236  -1.879  1.00 20.00    -0.149 SA
ENDROOT
BRANCH   2   5
HETATM    5  C1  UNL     1     -31.771  18.634  -0.110  1.00 20.00     0.142 C 
HETATM    6  C4  UNL     1     -31.943  18.533   1.381  1.00 20.00     0.092 C 
HETATM    7  O6  UNL     1     -30.657  18.678  -0.629  1.00 20.00    -0.297 OA
ENDBRANCH   2   5
TORSDOF 1
ENDMDL
MODEL 9
REMARK VINA RESULT:      -3.3      2.366      3.181
REMARK  1 active torsions:
REMARK  status: ('A' for Active; 'I' for Inactive)
REMARK    1  A    between atoms: C1_1  and  C3_3 
ROOT
HETATM    1  C2  UNL     1     -33.943   8.363   4.067  1.00 20.00     0.103 A 
HETATM    2  C3  UNL     1     -33.638   6.963   4.541  1.00 20.00     0.073 A 
HETATM    3  C5  UNL     1     -33.494   5.890   3.495  1.00 20.00     0.036 C 
HETATM    4  S7  UNL     1     -32.333   8.120   4.618  1.00 20.00    -0.149 SA
ENDROOT
BRANCH   2   5
HETATM    5  C1  UNL     1     -34.160   6.565   5.865  1.00 20.00     0.142 C 
HETATM    6  C4  UNL     1     -34.499   5.110   6.049  1.00 20.00     0.092 C 
HETATM    7  O6  UNL     1     -34.305   7.381   6.773  1.00 20.00    -0.297 OA
ENDBRANCH   2   5
TORSDOF 1
ENDMDL
