MODEL 1
REMARK VINA RESULT:      -4.7      0.000      0.000
REMARK  2 active torsions:
REMARK  status: ('A' for Active; 'I' for Inactive)
REMARK    1  A    between atoms: C1_1  and  C4_4 
REMARK    2  A    between atoms: C2_2  and  N10_10 
ROOT
HETATM    1  C5  UNL     1     -34.871   5.843   6.362  1.00 20.00     0.003 C 
HETATM    2  C6  UNL     1     -34.447   4.869   5.267  1.00 20.00     0.029 C 
HETATM    3  C7  UNL     1     -33.829   6.940   6.564  1.00 20.00     0.029 C 
HETATM    4  C8  UNL     1     -34.118   5.591   3.967  1.00 20.00     0.251 C 
HETATM    5  C9  UNL     1     -33.502   7.654   5.259  1.00 20.00     0.251 C 
HETATM    6  N10 UNL     1     -33.070   6.639   4.235  1.00 20.00    -0.006 N 
HETATM    7  H24 UNL     1     -32.229   6.164   4.591  1.00 20.00     0.297 HD
ENDROOT
BRANCH   6   8
HETATM    8  C2  UNL     1     -32.653   7.299   2.983  1.00 20.00     0.118 C 
HETATM    9  C1  UNL     1     -32.313   7.836   1.964  1.00 20.00    -0.049 C 
BRANCH   9  10
HETATM   10  C4  UNL     1     -31.918   8.474   0.759  1.00 20.00     0.056 C 
HETATM   11  C3  UNL     1     -32.751   9.262   0.071  1.00 20.00     0.021 C 
ENDBRANCH   9  10
ENDBRANCH   6   8
TORSDOF 2
ENDMDL
MODEL 2
REMARK VINA RESULT:      -4.0     11.709     12.700
REMARK  2 active torsions:
REMARK  status: ('A' for Active; 'I' for Inactive)
REMARK    1  A    between atoms: C1_1  and  C4_4 
REMARK    2  A    between atoms: C2_2  and  N10_10 
ROOT
HETATM    1  C5  UNL     1     -34.473  15.582  -6.011  1.00 20.00     0.003 C 
HETATM    2  C6  UNL     1     -33.821  14.681  -4.967  1.00 20.00     0.029 C 
HETATM    3  C7  UNL     1     -35.420  16.589  -5.363  1.00 20.00     0.029 C 
HETATM    4  C8  UNL     1     -33.134  15.491  -3.875  1.00 20.00     0.251 C 
HETATM    5  C9  UNL     1     -34.726  17.391  -4.270  1.00 20.00     0.251 C 
HETATM    6  N10 UNL     1     -34.128  16.443  -3.265  1.00 20.00    -0.006 N 
HETATM    7  H24 UNL     1     -34.892  15.887  -2.857  1.00 20.00     0.297 HD
ENDROOT
BRANCH   6   8
HETATM    8  C2  UNL     1     -33.527  17.181  -2.137  1.00 20.00     0.118 C 
HETATM    9  C1  UNL     1     -33.039  17.782  -1.220  1.00 20.00    -0.049 C 
BRANCH   9  10
HETATM   10  C4  UNL     1     -32.465  18.488  -0.130  1.00 20.00     0.056 C 
HETATM   11  C3  UNL     1     -31.142  18.548   0.054  1.00 20.00     0.021 C 
ENDBRANCH   9  10
ENDBRANCH   6   8
TORSDOF 2
ENDMDL
MODEL 3
REMARK VINA RESULT:      -3.9     12.171     12.782
REMARK  2 active torsions:
REMARK  status: ('A' for Active; 'I' for Inactive)
REMARK    1  A    between atoms: C1_1  and  C4_4 
REMARK    2  A    between atoms: C2_2  and  N10_10 
ROOT
HETATM    1  C5  UNL     1     -33.526  18.963  -0.521  1.00 20.00     0.003 C 
HETATM    2  C6  UNL     1     -32.296  18.140  -0.890  1.00 20.00     0.029 C 
HETATM    3  C7  UNL     1     -33.822  18.881   0.974  1.00 20.00     0.029 C 
HETATM    4  C8  UNL     1     -31.087  18.524  -0.047  1.00 20.00     0.251 C 
HETATM    5  C9  UNL     1     -32.608  19.263   1.810  1.00 20.00     0.251 C 
HETATM    6  N10 UNL     1     -31.441  18.399   1.411  1.00 20.00    -0.006 N 
HETATM    7  H24 UNL     1     -31.694  17.418   1.594  1.00 20.00     0.297 HD
ENDROOT
BRANCH   6   8
HETATM    8  C2  UNL     1     -30.268  18.671   2.264  1.00 20.00     0.118 C 
HETATM    9  C1  UNL     1     -29.313  18.893   2.958  1.00 20.00    -0.049 C 
BRANCH   9  10
HETATM   10  C4  UNL     1     -28.180  19.154   3.772  1.00 20.00     0.056 C 
HETATM   11  C3  UNL     1     -27.604  18.198   4.508  1.00 20.00     0.021 C 
ENDBRANCH   9  10
ENDBRANCH   6   8
TORSDOF 2
ENDMDL
MODEL 4
REMARK VINA RESULT:      -3.8     11.764     12.996
REMARK  2 active torsions:
REMARK  status: ('A' for Active; 'I' for Inactive)
REMARK    1  A    between atoms: C1_1  and  C4_4 
REMARK    2  A    between atoms: C2_2  and  N10_10 
ROOT
HETATM    1  C5  UNL     1     -35.057  15.468  -5.945  1.00 20.00     0.003 C 
HETATM    2  C6  UNL     1     -34.970  16.990  -5.924  1.00 20.00     0.029 C 
HETATM    3  C7  UNL     1     -33.810  14.831  -5.338  1.00 20.00     0.029 C 
HETATM    4  C8  UNL     1     -34.683  17.519  -4.524  1.00 20.00     0.251 C 
HETATM    5  C9  UNL     1     -33.528  15.368  -3.940  1.00 20.00     0.251 C 
HETATM    6  N10 UNL     1     -33.431  16.869  -3.997  1.00 20.00    -0.006 N 
HETATM    7  H24 UNL     1     -32.655  17.115  -4.627  1.00 20.00     0.297 HD
ENDROOT
BRANCH   6   8
HETATM    8  C2  UNL     1     -33.064  17.424  -2.680  1.00 20.00     0.118 C 
HETATM    9  C1  UNL     1     -32.765  17.875  -1.608  1.00 20.00    -0.049 C 
BRANCH   9  10
HETATM   10  C4  UNL     1     -32.406  18.412  -0.344  1.00 20.00     0.056 C 
HETATM   11  C3  UNL     1     -31.131  18.518   0.042  1.00 20.00     0.021 C 
ENDBRANCH   9  10
ENDBRANCH   6   8
TORSDOF 2
ENDMDL
MODEL 5
REMARK VINA RESULT:      -3.6     10.254     11.182
REMARK  2 active torsions:
REMARK  status: ('A' for Active; 'I' for Inactive)
REMARK    1  A    between atoms: C1_1  and  C4_4 
REMARK    2  A    between atoms: C2_2  and  N10_10 
ROOT
HETATM    1  C5  UNL     1     -41.471  16.569   9.501  1.00 20.00     0.003 C 
HETATM    2  C6  UNL     1     -40.414  15.572   9.963  1.00 20.00     0.029 C 
HETATM    3  C7  UNL     1     -41.271  16.952   8.037  1.00 20.00     0.029 C 
HETATM    4  C8  UNL     1     -40.357  14.349   9.056  1.00 20.00     0.251 C 
HETATM    5  C9  UNL     1     -41.212  15.724   7.137  1.00 20.00     0.251 C 
HETATM    6  N10 UNL     1     -40.135  14.797   7.636  1.00 20.00    -0.006 N 
HETATM    7  H24 UNL     1     -39.238  15.300   7.597  1.00 20.00     0.297 HD
ENDROOT
BRANCH   6   8
HETATM    8  C2  UNL     1     -39.980  13.638   6.736  1.00 20.00     0.118 C 
HETATM    9  C1  UNL     1     -39.853  12.695   6.004  1.00 20.00    -0.049 C 
BRANCH   9  10
HETATM   10  C4  UNL     1     -39.702  11.584   5.133  1.00 20.00     0.056 C 
HETATM   11  C3  UNL     1     -38.985  11.662   4.007  1.00 20.00     0.021 C 
ENDBRANCH   9  10
ENDBRANCH   6   8
TORSDOF 2
ENDMDL
MODEL 6
REMARK VINA RESULT:      -3.5     11.779     13.224
REMARK  2 active torsions:
REMARK  status: ('A' for Active; 'I' for Inactive)
REMARK    1  A    between atoms: C1_1  and  C4_4 
REMARK    2  A    between atoms: C2_2  and  N10_10 
ROOT
HETATM    1  C5  UNL     1     -34.828  17.156  -4.515  1.00 20.00     0.003 C 
HETATM    2  C6  UNL     1     -34.289  18.583  -4.525  1.00 20.00     0.029 C 
HETATM    3  C7  UNL     1     -33.801  16.177  -3.954  1.00 20.00     0.029 C 
HETATM    4  C8  UNL     1     -33.789  19.005  -3.149  1.00 20.00     0.251 C 
HETATM    5  C9  UNL     1     -33.304  16.608  -2.580  1.00 20.00     0.251 C 
HETATM    6  N10 UNL     1     -32.765  18.012  -2.668  1.00 20.00    -0.006 N 
HETATM    7  H24 UNL     1     -31.983  18.012  -3.336  1.00 20.00     0.297 HD
ENDROOT
BRANCH   6   8
HETATM    8  C2  UNL     1     -32.186  18.435  -1.378  1.00 20.00     0.118 C 
HETATM    9  C1  UNL     1     -31.714  18.779  -0.329  1.00 20.00    -0.049 C 
BRANCH   9  10
HETATM   10  C4  UNL     1     -31.151  19.189   0.908  1.00 20.00     0.056 C 
HETATM   11  C3  UNL     1     -30.724  18.305   1.816  1.00 20.00     0.021 C 
ENDBRANCH   9  10
ENDBRANCH   6   8
TORSDOF 2
ENDMDL
MODEL 7
REMARK VINA RESULT:      -3.4     10.334     11.247
REMARK  2 active torsions:
REMARK  status: ('A' for Active; 'I' for Inactive)
REMARK    1  A    between atoms: C1_1  and  C4_4 
REMARK    2  A    between atoms: C2_2  and  N10_10 
ROOT
HETATM    1  C5  UNL     1     -41.161  16.834   9.137  1.00 20.00     0.003 C 
HETATM    2  C6  UNL     1     -41.988  16.622   7.874  1.00 20.00     0.029 C 
HETATM    3  C7  UNL     1     -40.865  15.510   9.836  1.00 20.00     0.029 C 
HETATM    4  C8  UNL     1     -41.336  15.615   6.935  1.00 20.00     0.251 C 
HETATM    5  C9  UNL     1     -40.216  14.507   8.891  1.00 20.00     0.251 C 
HETATM    6  N10 UNL     1     -41.095  14.329   7.681  1.00 20.00    -0.006 N 
HETATM    7  H24 UNL     1     -42.005  13.969   7.998  1.00 20.00     0.297 HD
ENDROOT
BRANCH   6   8
HETATM    8  C2  UNL     1     -40.550  13.293   6.782  1.00 20.00     0.118 C 
HETATM    9  C1  UNL     1     -40.106  12.450   6.051  1.00 20.00    -0.049 C 
BRANCH   9  10
HETATM   10  C4  UNL     1     -39.588  11.452   5.184  1.00 20.00     0.056 C 
HETATM   11  C3  UNL     1     -38.959  11.763   4.046  1.00 20.00     0.021 C 
ENDBRANCH   9  10
ENDBRANCH   6   8
TORSDOF 2
ENDMDL
MODEL 8
REMARK VINA RESULT:      -3.3     10.152     11.026
REMARK  2 active torsions:
REMARK  status: ('A' for Active; 'I' for Inactive)
REMARK    1  A    between atoms: C1_1  and  C4_4 
REMARK    2  A    between atoms: C2_2  and  N10_10 
ROOT
HETATM    1  C5  UNL     1     -42.560  14.867  10.002  1.00 20.00     0.003 C 
HETATM    2  C6  UNL     1     -41.224  15.516   9.657  1.00 20.00     0.029 C 
HETATM    3  C7  UNL     1     -43.280  14.375   8.750  1.00 20.00     0.029 C 
HETATM    4  C8  UNL     1     -40.348  14.591   8.822  1.00 20.00     0.251 C 
HETATM    5  C9  UNL     1     -42.397  13.454   7.918  1.00 20.00     0.251 C 
HETATM    6  N10 UNL     1     -41.109  14.164   7.594  1.00 20.00    -0.006 N 
HETATM    7  H24 UNL     1     -41.338  15.008   7.052  1.00 20.00     0.297 HD
ENDROOT
BRANCH   6   8
HETATM    8  C2  UNL     1     -40.262  13.341   6.709  1.00 20.00     0.118 C 
HETATM    9  C1  UNL     1     -39.573  12.672   5.988  1.00 20.00    -0.049 C 
BRANCH   9  10
HETATM   10  C4  UNL     1     -38.757  11.876   5.142  1.00 20.00     0.056 C 
HETATM   11  C3  UNL     1     -39.072  11.657   3.861  1.00 20.00     0.021 C 
ENDBRANCH   9  10
ENDBRANCH   6   8
TORSDOF 2
ENDMDL
MODEL 9
REMARK VINA RESULT:      -3.3     10.076     10.809
REMARK  2 active torsions:
REMARK  status: ('A' for Active; 'I' for Inactive)
REMARK    1  A    between atoms: C1_1  and  C4_4 
REMARK    2  A    between atoms: C2_2  and  N10_10 
ROOT
HETATM    1  C5  UNL     1     -42.054   7.391   1.027  1.00 20.00     0.003 C 
HETATM    2  C6  UNL     1     -43.302   6.520   0.931  1.00 20.00     0.029 C 
HETATM    3  C7  UNL     1     -40.793   6.592   0.707  1.00 20.00     0.029 C 
HETATM    4  C8  UNL     1     -43.398   5.818  -0.418  1.00 20.00     0.251 C 
HETATM    5  C9  UNL     1     -40.898   5.891  -0.641  1.00 20.00     0.251 C 
HETATM    6  N10 UNL     1     -42.135   5.033  -0.657  1.00 20.00    -0.006 N 
HETATM    7  H24 UNL     1     -42.049   4.333   0.092  1.00 20.00     0.297 HD
ENDROOT
BRANCH   6   8
HETATM    8  C2  UNL     1     -42.225   4.261  -1.912  1.00 20.00     0.118 C 
HETATM    9  C1  UNL     1     -42.297   3.633  -2.933  1.00 20.00    -0.049 C 
BRANCH   9  10
HETATM   10  C4  UNL     1     -42.383   2.885  -4.136  1.00 20.00     0.056 C 
HETATM   11  C3  UNL     1     -42.146   1.570  -4.168  1.00 20.00     0.021 C 
ENDBRANCH   9  10
ENDBRANCH   6   8
TORSDOF 2
ENDMDL
