MODEL 1
REMARK VINA RESULT:      -3.8      0.000      0.000
REMARK  1 active torsions:
REMARK  status: ('A' for Active; 'I' for Inactive)
REMARK    1  A    between atoms: C4_4  and  C7_7 
ROOT
HETATM    1  C1  UNL     1     -42.143  12.298   6.775  1.00 20.00    -0.024 C 
HETATM    2  C2  UNL     1     -42.939  13.334   6.456  1.00 20.00    -0.013 C 
HETATM    3  C3  UNL     1     -41.514  13.905   4.644  1.00 20.00     0.140 C 
HETATM    4  C5  UNL     1     -40.546  12.755   4.942  1.00 20.00     0.088 C 
HETATM    5  C6  UNL     1     -40.711  12.714   6.481  1.00 20.00     0.027 C 
HETATM    6  C7  UNL     1     -40.783  14.217   6.815  1.00 20.00     0.074 C 
HETATM    7  C8  UNL     1     -42.048  14.457   5.973  1.00 20.00     0.045 C 
HETATM    8  C9  UNL     1     -42.604  15.855   5.951  1.00 20.00     0.029 C 
HETATM    9  O10 UNL     1     -41.824  14.290   3.527  1.00 20.00    -0.297 OA
ENDROOT
BRANCH   6  10
HETATM   10  C4  UNL     1     -40.881  14.504   8.287  1.00 20.00     0.237 C 
HETATM   11  O11 UNL     1     -40.239  13.900   9.139  1.00 20.00    -0.306 OA
ENDBRANCH   6  10
TORSDOF 1
ENDMDL
MODEL 2
REMARK VINA RESULT:      -3.7      0.831      3.629
REMARK  1 active torsions:
REMARK  status: ('A' for Active; 'I' for Inactive)
REMARK    1  A    between atoms: C4_4  and  C7_7 
ROOT
HETATM    1  C1  UNL     1     -43.417  13.547   7.052  1.00 20.00    -0.024 C 
HETATM    2  C2  UNL     1     -42.532  12.558   6.844  1.00 20.00    -0.013 C 
HETATM    3  C3  UNL     1     -40.795  13.878   7.783  1.00 20.00     0.140 C 
HETATM    4  C5  UNL     1     -41.733  15.061   8.048  1.00 20.00     0.088 C 
HETATM    5  C6  UNL     1     -42.689  14.865   6.845  1.00 20.00     0.027 C 
HETATM    6  C7  UNL     1     -41.696  14.464   5.736  1.00 20.00     0.074 C 
HETATM    7  C8  UNL     1     -41.214  13.200   6.471  1.00 20.00     0.045 C 
HETATM    8  C9  UNL     1     -40.174  12.359   5.781  1.00 20.00     0.029 C 
HETATM    9  O10 UNL     1     -39.887  13.525   8.519  1.00 20.00    -0.297 OA
ENDROOT
BRANCH   6  10
HETATM   10  C4  UNL     1     -42.341  14.264   4.393  1.00 20.00     0.237 C 
HETATM   11  O11 UNL     1     -41.714  14.240   3.338  1.00 20.00    -0.306 OA
ENDBRANCH   6  10
TORSDOF 1
ENDMDL
MODEL 3
REMARK VINA RESULT:      -3.7     12.678     13.710
REMARK  1 active torsions:
REMARK  status: ('A' for Active; 'I' for Inactive)
REMARK    1  A    between atoms: C4_4  and  C7_7 
ROOT
HETATM    1  C1  UNL     1     -35.104  15.814  -7.098  1.00 20.00    -0.024 C 
HETATM    2  C2  UNL     1     -34.125  15.092  -6.526  1.00 20.00    -0.013 C 
HETATM    3  C3  UNL     1     -35.647  14.265  -4.901  1.00 20.00     0.140 C 
HETATM    4  C5  UNL     1     -36.819  15.062  -5.481  1.00 20.00     0.088 C 
HETATM    5  C6  UNL     1     -36.027  16.292  -5.989  1.00 20.00     0.027 C 
HETATM    6  C7  UNL     1     -35.012  16.487  -4.845  1.00 20.00     0.074 C 
HETATM    7  C8  UNL     1     -34.367  15.102  -5.033  1.00 20.00     0.045 C 
HETATM    8  C9  UNL     1     -33.227  14.745  -4.118  1.00 20.00     0.029 C 
HETATM    9  O10 UNL     1     -35.725  13.137  -4.440  1.00 20.00    -0.297 OA
ENDROOT
BRANCH   6  10
HETATM   10  C4  UNL     1     -34.119  17.682  -5.028  1.00 20.00     0.237 C 
HETATM   11  O11 UNL     1     -33.518  18.226  -4.107  1.00 20.00    -0.306 OA
ENDBRANCH   6  10
TORSDOF 1
ENDMDL
MODEL 4
REMARK VINA RESULT:      -3.6      9.946     11.326
REMARK  1 active torsions:
REMARK  status: ('A' for Active; 'I' for Inactive)
REMARK    1  A    between atoms: C4_4  and  C7_7 
ROOT
HETATM    1  C1  UNL     1     -35.609   6.635   4.902  1.00 20.00    -0.024 C 
HETATM    2  C2  UNL     1     -35.189   6.132   3.729  1.00 20.00    -0.013 C 
HETATM    3  C3  UNL     1     -33.867   4.518   4.864  1.00 20.00     0.140 C 
HETATM    4  C5  UNL     1     -34.284   5.034   6.245  1.00 20.00     0.088 C 
HETATM    5  C6  UNL     1     -34.454   6.531   5.885  1.00 20.00     0.027 C 
HETATM    6  C7  UNL     1     -33.259   6.747   4.935  1.00 20.00     0.074 C 
HETATM    7  C8  UNL     1     -33.747   5.712   3.906  1.00 20.00     0.045 C 
HETATM    8  C9  UNL     1     -32.900   5.513   2.678  1.00 20.00     0.029 C 
HETATM    9  O10 UNL     1     -33.691   3.344   4.577  1.00 20.00    -0.297 OA
ENDROOT
BRANCH   6  10
HETATM   10  C4  UNL     1     -33.118   8.165   4.457  1.00 20.00     0.237 C 
HETATM   11  O11 UNL     1     -32.184   8.896   4.772  1.00 20.00    -0.306 OA
ENDBRANCH   6  10
TORSDOF 1
ENDMDL
MODEL 5
REMARK VINA RESULT:      -3.4      8.217      9.765
REMARK  1 active torsions:
REMARK  status: ('A' for Active; 'I' for Inactive)
REMARK    1  A    between atoms: C4_4  and  C7_7 
ROOT
HETATM    1  C1  UNL     1     -43.401   7.486   0.006  1.00 20.00    -0.024 C 
HETATM    2  C2  UNL     1     -42.876   6.511  -0.756  1.00 20.00    -0.013 C 
HETATM    3  C3  UNL     1     -42.475   5.183   1.171  1.00 20.00     0.140 C 
HETATM    4  C5  UNL     1     -43.048   6.244   2.116  1.00 20.00     0.088 C 
HETATM    5  C6  UNL     1     -42.634   7.505   1.318  1.00 20.00     0.027 C 
HETATM    6  C7  UNL     1     -41.230   7.100   0.826  1.00 20.00     0.074 C 
HETATM    7  C8  UNL     1     -41.739   5.889   0.024  1.00 20.00     0.045 C 
HETATM    8  C9  UNL     1     -40.713   5.079  -0.723  1.00 20.00     0.029 C 
HETATM    9  O10 UNL     1     -42.614   3.977   1.304  1.00 20.00    -0.297 OA
ENDROOT
BRANCH   6  10
HETATM   10  C4  UNL     1     -40.527   8.180   0.053  1.00 20.00     0.237 C 
HETATM   11  O11 UNL     1     -40.485   9.352   0.413  1.00 20.00    -0.306 OA
ENDBRANCH   6  10
TORSDOF 1
ENDMDL
MODEL 6
REMARK VINA RESULT:      -3.4      1.431      3.639
REMARK  1 active torsions:
REMARK  status: ('A' for Active; 'I' for Inactive)
REMARK    1  A    between atoms: C4_4  and  C7_7 
ROOT
HETATM    1  C1  UNL     1     -41.646  15.477   6.695  1.00 20.00    -0.024 C 
HETATM    2  C2  UNL     1     -42.702  14.655   6.811  1.00 20.00    -0.013 C 
HETATM    3  C3  UNL     1     -41.775  13.697   8.777  1.00 20.00     0.140 C 
HETATM    4  C5  UNL     1     -40.530  14.588   8.716  1.00 20.00     0.088 C 
HETATM    5  C6  UNL     1     -40.420  14.719   7.177  1.00 20.00     0.027 C 
HETATM    6  C7  UNL     1     -40.783  13.289   6.729  1.00 20.00     0.074 C 
HETATM    7  C8  UNL     1     -42.193  13.335   7.345  1.00 20.00     0.045 C 
HETATM    8  C9  UNL     1     -43.055  12.112   7.180  1.00 20.00     0.029 C 
HETATM    9  O10 UNL     1     -42.349  13.362   9.801  1.00 20.00    -0.297 OA
ENDROOT
BRANCH   6  10
HETATM   10  C4  UNL     1     -40.697  13.083   5.242  1.00 20.00     0.237 C 
HETATM   11  O11 UNL     1     -39.977  12.241   4.716  1.00 20.00    -0.306 OA
ENDBRANCH   6  10
TORSDOF 1
ENDMDL
MODEL 7
REMARK VINA RESULT:      -3.4      1.483      2.763
REMARK  1 active torsions:
REMARK  status: ('A' for Active; 'I' for Inactive)
REMARK    1  A    between atoms: C4_4  and  C7_7 
ROOT
HETATM    1  C1  UNL     1     -41.937  15.594   7.171  1.00 20.00    -0.024 C 
HETATM    2  C2  UNL     1     -40.936  14.757   6.847  1.00 20.00    -0.013 C 
HETATM    3  C3  UNL     1     -42.018  14.211   4.804  1.00 20.00     0.140 C 
HETATM    4  C5  UNL     1     -43.205  15.133   5.098  1.00 20.00     0.088 C 
HETATM    5  C6  UNL     1     -43.227  14.991   6.640  1.00 20.00     0.027 C 
HETATM    6  C7  UNL     1     -42.923  13.489   6.805  1.00 20.00     0.074 C 
HETATM    7  C8  UNL     1     -41.547  13.579   6.122  1.00 20.00     0.045 C 
HETATM    8  C9  UNL     1     -40.748  12.308   6.016  1.00 20.00     0.029 C 
HETATM    9  O10 UNL     1     -41.518  14.039   3.704  1.00 20.00    -0.297 OA
ENDROOT
BRANCH   6  10
HETATM   10  C4  UNL     1     -42.942  13.024   8.235  1.00 20.00     0.237 C 
HETATM   11  O11 UNL     1     -43.213  11.876   8.570  1.00 20.00    -0.306 OA
ENDBRANCH   6  10
TORSDOF 1
ENDMDL
MODEL 8
REMARK VINA RESULT:      -3.4      1.920      2.812
REMARK  1 active torsions:
REMARK  status: ('A' for Active; 'I' for Inactive)
REMARK    1  A    between atoms: C4_4  and  C7_7 
ROOT
HETATM    1  C1  UNL     1     -43.143  13.264   6.391  1.00 20.00    -0.024 C 
HETATM    2  C2  UNL     1     -42.633  13.523   7.607  1.00 20.00    -0.013 C 
HETATM    3  C3  UNL     1     -41.767  15.595   6.831  1.00 20.00     0.140 C 
HETATM    4  C5  UNL     1     -42.305  15.376   5.413  1.00 20.00     0.088 C 
HETATM    5  C6  UNL     1     -42.183  13.833   5.360  1.00 20.00     0.027 C 
HETATM    6  C7  UNL     1     -40.838  13.615   6.082  1.00 20.00     0.074 C 
HETATM    7  C8  UNL     1     -41.318  14.242   7.402  1.00 20.00     0.045 C 
HETATM    8  C9  UNL     1     -40.335  14.281   8.542  1.00 20.00     0.029 C 
HETATM    9  O10 UNL     1     -41.735  16.668   7.412  1.00 20.00    -0.297 OA
ENDROOT
BRANCH   6  10
HETATM   10  C4  UNL     1     -40.406  12.176   6.130  1.00 20.00     0.237 C 
HETATM   11  O11 UNL     1     -39.309  11.812   6.539  1.00 20.00    -0.306 OA
ENDBRANCH   6  10
TORSDOF 1
ENDMDL
MODEL 9
REMARK VINA RESULT:      -3.3     20.558     21.999
REMARK  1 active torsions:
REMARK  status: ('A' for Active; 'I' for Inactive)
REMARK    1  A    between atoms: C4_4  and  C7_7 
ROOT
HETATM    1  C1  UNL     1     -27.285  -0.572  10.150  1.00 20.00    -0.024 C 
HETATM    2  C2  UNL     1     -27.499  -1.888   9.984  1.00 20.00    -0.013 C 
HETATM    3  C3  UNL     1     -28.657  -1.988  12.055  1.00 20.00     0.140 C 
HETATM    4  C5  UNL     1     -28.450  -0.496  12.331  1.00 20.00     0.088 C 
HETATM    5  C6  UNL     1     -27.077  -0.325  11.635  1.00 20.00     0.027 C 
HETATM    6  C7  UNL     1     -26.372  -1.635  12.039  1.00 20.00     0.074 C 
HETATM    7  C8  UNL     1     -27.410  -2.537  11.347  1.00 20.00     0.045 C 
HETATM    8  C9  UNL     1     -27.187  -4.024  11.422  1.00 20.00     0.029 C 
HETATM    9  O10 UNL     1     -29.665  -2.620  12.331  1.00 20.00    -0.297 OA
ENDROOT
BRANCH   6  10
HETATM   10  C4  UNL     1     -24.954  -1.733  11.550  1.00 20.00     0.237 C 
HETATM   11  O11 UNL     1     -24.056  -0.986  11.925  1.00 20.00    -0.306 OA
ENDBRANCH   6  10
TORSDOF 1
ENDMDL
