MODEL 1
REMARK VINA RESULT:      -4.4      0.000      0.000
REMARK  6 active torsions:
REMARK  status: ('A' for Active; 'I' for Inactive)
REMARK    1  A    between atoms: C2_2  and  C5_5 
REMARK    2  A    between atoms: C5_5  and  C8_8 
REMARK    3  A    between atoms: C6_6  and  C8_8 
REMARK    4  A    between atoms: C7_7  and  C9_9 
REMARK    5  A    between atoms: C9_9  and  C10_10 
REMARK    6  A    between atoms: C10_10  and  N11_11 
ROOT
HETATM    1  C1  UNL     1     -32.619   9.023   5.212  1.00 20.00     0.308 A 
HETATM    2  C2  UNL     1     -32.973   7.591   5.533  1.00 20.00     0.251 A 
HETATM    3  N11 UNL     1     -33.080   8.105   4.174  1.00 20.00     0.097 N 
ENDROOT
BRANCH   2   4
HETATM    4  C5  UNL     1     -34.219   7.277   6.283  1.00 20.00     0.037 C 
BRANCH   4   5
HETATM    5  C8  UNL     1     -34.502   5.775   6.299  1.00 20.00     0.002 C 
BRANCH   5   6
HETATM    6  C6  UNL     1     -35.036   5.295   4.950  1.00 20.00    -0.004 C 
HETATM    7  C3  UNL     1     -34.009   4.450   4.213  1.00 20.00     0.005 C 
ENDBRANCH   5   6
ENDBRANCH   4   5
ENDBRANCH   2   4
BRANCH   3   8
HETATM    8  C10 UNL     1     -32.005   7.644   3.302  1.00 20.00     0.273 C 
BRANCH   8   9
HETATM    9  C9  UNL     1     -32.494   7.332   1.892  1.00 20.00     0.030 C 
BRANCH   9  10
HETATM   10  C7  UNL     1     -31.926   8.295   0.847  1.00 20.00    -0.003 C 
HETATM   11  C4  UNL     1     -32.827   9.507   0.660  1.00 20.00     0.005 C 
ENDBRANCH   9  10
ENDBRANCH   8   9
ENDBRANCH   3   8
TORSDOF 6
ENDMDL
MODEL 2
REMARK VINA RESULT:      -4.3      0.612      4.638
REMARK  6 active torsions:
REMARK  status: ('A' for Active; 'I' for Inactive)
REMARK    1  A    between atoms: C2_2  and  C5_5 
REMARK    2  A    between atoms: C5_5  and  C8_8 
REMARK    3  A    between atoms: C6_6  and  C8_8 
REMARK    4  A    between atoms: C7_7  and  C9_9 
REMARK    5  A    between atoms: C9_9  and  C10_10 
REMARK    6  A    between atoms: C10_10  and  N11_11 
ROOT
HETATM    1  C1  UNL     1     -32.590   9.020   5.289  1.00 20.00     0.308 A 
HETATM    2  C2  UNL     1     -32.940   8.071   4.168  1.00 20.00     0.251 A 
HETATM    3  N11 UNL     1     -32.851   7.607   5.546  1.00 20.00     0.097 N 
ENDROOT
BRANCH   2   4
HETATM    4  C5  UNL     1     -31.898   7.641   3.197  1.00 20.00     0.037 C 
BRANCH   4   5
HETATM    5  C8  UNL     1     -32.497   7.354   1.820  1.00 20.00     0.002 C 
BRANCH   5   6
HETATM    6  C6  UNL     1     -31.973   8.334   0.771  1.00 20.00    -0.004 C 
HETATM    7  C3  UNL     1     -32.837   9.582   0.692  1.00 20.00     0.005 C 
ENDBRANCH   5   6
ENDBRANCH   4   5
ENDBRANCH   2   4
BRANCH   3   8
HETATM    8  C10 UNL     1     -34.156   7.369   6.154  1.00 20.00     0.273 C 
BRANCH   8   9
HETATM    9  C9  UNL     1     -34.464   5.883   6.307  1.00 20.00     0.030 C 
BRANCH   9  10
HETATM   10  C7  UNL     1     -35.061   5.274   5.036  1.00 20.00    -0.003 C 
HETATM   11  C4  UNL     1     -34.022   4.479   4.260  1.00 20.00     0.005 C 
ENDBRANCH   9  10
ENDBRANCH   8   9
ENDBRANCH   3   8
TORSDOF 6
ENDMDL
MODEL 3
REMARK VINA RESULT:      -3.8      1.233      2.014
REMARK  6 active torsions:
REMARK  status: ('A' for Active; 'I' for Inactive)
REMARK    1  A    between atoms: C2_2  and  C5_5 
REMARK    2  A    between atoms: C5_5  and  C8_8 
REMARK    3  A    between atoms: C6_6  and  C8_8 
REMARK    4  A    between atoms: C7_7  and  C9_9 
REMARK    5  A    between atoms: C9_9  and  C10_10 
REMARK    6  A    between atoms: C10_10  and  N11_11 
ROOT
HETATM    1  C1  UNL     1     -32.383   9.083   5.241  1.00 20.00     0.308 A 
HETATM    2  C2  UNL     1     -33.011   7.710   5.230  1.00 20.00     0.251 A 
HETATM    3  N11 UNL     1     -33.259   8.659   4.153  1.00 20.00     0.097 N 
ENDROOT
BRANCH   2   4
HETATM    4  C5  UNL     1     -34.118   7.385   6.170  1.00 20.00     0.037 C 
BRANCH   4   5
HETATM    5  C8  UNL     1     -34.132   5.899   6.529  1.00 20.00     0.002 C 
BRANCH   5   6
HETATM    6  C6  UNL     1     -34.659   5.052   5.371  1.00 20.00    -0.004 C 
HETATM    7  C3  UNL     1     -35.631   5.837   4.504  1.00 20.00     0.005 C 
ENDBRANCH   5   6
ENDBRANCH   4   5
ENDBRANCH   2   4
BRANCH   3   8
HETATM    8  C10 UNL     1     -32.533   8.336   2.929  1.00 20.00     0.273 C 
BRANCH   8   9
HETATM    9  C9  UNL     1     -32.035   6.895   2.911  1.00 20.00     0.030 C 
BRANCH   9  10
HETATM   10  C7  UNL     1     -32.953   5.966   2.112  1.00 20.00    -0.003 C 
HETATM   11  C4  UNL     1     -32.782   4.516   2.538  1.00 20.00     0.005 C 
ENDBRANCH   9  10
ENDBRANCH   8   9
ENDBRANCH   3   8
TORSDOF 6
ENDMDL
MODEL 4
REMARK VINA RESULT:      -3.8     11.175     12.314
REMARK  6 active torsions:
REMARK  status: ('A' for Active; 'I' for Inactive)
REMARK    1  A    between atoms: C2_2  and  C5_5 
REMARK    2  A    between atoms: C5_5  and  C8_8 
REMARK    3  A    between atoms: C6_6  and  C8_8 
REMARK    4  A    between atoms: C7_7  and  C9_9 
REMARK    5  A    between atoms: C9_9  and  C10_10 
REMARK    6  A    between atoms: C10_10  and  N11_11 
ROOT
HETATM    1  C1  UNL     1     -33.264  18.068  -3.279  1.00 20.00     0.308 A 
HETATM    2  C2  UNL     1     -33.672  16.627  -3.092  1.00 20.00     0.251 A 
HETATM    3  N11 UNL     1     -32.901  17.329  -2.074  1.00 20.00     0.097 N 
ENDROOT
BRANCH   2   4
HETATM    4  C5  UNL     1     -33.011  15.552  -3.880  1.00 20.00     0.037 C 
BRANCH   4   5
HETATM    5  C8  UNL     1     -33.991  14.435  -4.239  1.00 20.00     0.002 C 
BRANCH   5   6
HETATM    6  C6  UNL     1     -34.925  14.859  -5.372  1.00 20.00    -0.004 C 
HETATM    7  C3  UNL     1     -34.148  15.244  -6.621  1.00 20.00     0.005 C 
ENDBRANCH   5   6
ENDBRANCH   4   5
ENDBRANCH   2   4
BRANCH   3   8
HETATM    8  C10 UNL     1     -33.698  17.706  -0.912  1.00 20.00     0.273 C 
BRANCH   8   9
HETATM    9  C9  UNL     1     -32.935  18.615   0.046  1.00 20.00     0.030 C 
BRANCH   9  10
HETATM   10  C7  UNL     1     -31.418  18.463  -0.082  1.00 20.00    -0.003 C 
HETATM   11  C4  UNL     1     -30.747  18.420   1.283  1.00 20.00     0.005 C 
ENDBRANCH   9  10
ENDBRANCH   8   9
ENDBRANCH   3   8
TORSDOF 6
ENDMDL
MODEL 5
REMARK VINA RESULT:      -3.7      1.390      4.936
REMARK  6 active torsions:
REMARK  status: ('A' for Active; 'I' for Inactive)
REMARK    1  A    between atoms: C2_2  and  C5_5 
REMARK    2  A    between atoms: C5_5  and  C8_8 
REMARK    3  A    between atoms: C6_6  and  C8_8 
REMARK    4  A    between atoms: C7_7  and  C9_9 
REMARK    5  A    between atoms: C9_9  and  C10_10 
REMARK    6  A    between atoms: C10_10  and  N11_11 
ROOT
HETATM    1  C1  UNL     1     -32.841   4.785   2.306  1.00 20.00     0.308 A 
HETATM    2  C2  UNL     1     -32.464   6.038   3.060  1.00 20.00     0.251 A 
HETATM    3  N11 UNL     1     -33.827   5.525   3.088  1.00 20.00     0.097 N 
ENDROOT
BRANCH   2   4
HETATM    4  C5  UNL     1     -32.186   7.301   2.324  1.00 20.00     0.037 C 
BRANCH   4   5
HETATM    5  C8  UNL     1     -32.598   8.528   3.137  1.00 20.00     0.002 C 
BRANCH   5   6
HETATM    6  C6  UNL     1     -33.019   9.681   2.227  1.00 20.00    -0.004 C 
HETATM    7  C3  UNL     1     -32.712   9.382   0.769  1.00 20.00     0.005 C 
ENDBRANCH   5   6
ENDBRANCH   4   5
ENDBRANCH   2   4
BRANCH   3   8
HETATM    8  C10 UNL     1     -34.166   4.870   4.347  1.00 20.00     0.273 C 
BRANCH   8   9
HETATM    9  C9  UNL     1     -35.137   5.693   5.187  1.00 20.00     0.030 C 
BRANCH   9  10
HETATM   10  C7  UNL     1     -34.525   6.153   6.512  1.00 20.00    -0.003 C 
HETATM   11  C4  UNL     1     -33.733   7.441   6.339  1.00 20.00     0.005 C 
ENDBRANCH   9  10
ENDBRANCH   8   9
ENDBRANCH   3   8
TORSDOF 6
ENDMDL
MODEL 6
REMARK VINA RESULT:      -3.7     11.291     12.347
REMARK  6 active torsions:
REMARK  status: ('A' for Active; 'I' for Inactive)
REMARK    1  A    between atoms: C2_2  and  C5_5 
REMARK    2  A    between atoms: C5_5  and  C8_8 
REMARK    3  A    between atoms: C6_6  and  C8_8 
REMARK    4  A    between atoms: C7_7  and  C9_9 
REMARK    5  A    between atoms: C9_9  and  C10_10 
REMARK    6  A    between atoms: C10_10  and  N11_11 
ROOT
HETATM    1  C1  UNL     1     -33.709  18.166  -0.039  1.00 20.00     0.308 A 
HETATM    2  C2  UNL     1     -33.394  17.719  -1.446  1.00 20.00     0.251 A 
HETATM    3  N11 UNL     1     -32.682  18.832  -0.833  1.00 20.00     0.097 N 
ENDROOT
BRANCH   2   4
HETATM    4  C5  UNL     1     -34.349  17.999  -2.553  1.00 20.00     0.037 C 
BRANCH   4   5
HETATM    5  C8  UNL     1     -34.029  17.167  -3.795  1.00 20.00     0.002 C 
BRANCH   5   6
HETATM    6  C6  UNL     1     -33.258  15.899  -3.431  1.00 20.00    -0.004 C 
HETATM    7  C3  UNL     1     -33.628  14.740  -4.343  1.00 20.00     0.005 C 
ENDBRANCH   5   6
ENDBRANCH   4   5
ENDBRANCH   2   4
BRANCH   3   8
HETATM    8  C10 UNL     1     -31.326  18.485  -0.420  1.00 20.00     0.273 C 
BRANCH   8   9
HETATM    9  C9  UNL     1     -30.896  19.223   0.843  1.00 20.00     0.030 C 
BRANCH   9  10
HETATM   10  C7  UNL     1     -30.593  18.273   2.004  1.00 20.00    -0.003 C 
HETATM   11  C4  UNL     1     -29.519  18.841   2.920  1.00 20.00     0.005 C 
ENDBRANCH   9  10
ENDBRANCH   8   9
ENDBRANCH   3   8
TORSDOF 6
ENDMDL
MODEL 7
REMARK VINA RESULT:      -3.6     11.050     12.139
REMARK  6 active torsions:
REMARK  status: ('A' for Active; 'I' for Inactive)
REMARK    1  A    between atoms: C2_2  and  C5_5 
REMARK    2  A    between atoms: C5_5  and  C8_8 
REMARK    3  A    between atoms: C6_6  and  C8_8 
REMARK    4  A    between atoms: C7_7  and  C9_9 
REMARK    5  A    between atoms: C9_9  and  C10_10 
REMARK    6  A    between atoms: C10_10  and  N11_11 
ROOT
HETATM    1  C1  UNL     1     -33.984  18.577  -1.799  1.00 20.00     0.308 A 
HETATM    2  C2  UNL     1     -32.671  18.215  -1.147  1.00 20.00     0.251 A 
HETATM    3  N11 UNL     1     -33.642  17.189  -1.506  1.00 20.00     0.097 N 
ENDROOT
BRANCH   2   4
HETATM    4  C5  UNL     1     -32.442  18.515   0.292  1.00 20.00     0.037 C 
BRANCH   4   5
HETATM    5  C8  UNL     1     -30.961  18.752   0.588  1.00 20.00     0.002 C 
BRANCH   5   6
HETATM    6  C6  UNL     1     -30.614  18.375   2.028  1.00 20.00    -0.004 C 
HETATM    7  C3  UNL     1     -29.512  19.261   2.586  1.00 20.00     0.005 C 
ENDBRANCH   5   6
ENDBRANCH   4   5
ENDBRANCH   2   4
BRANCH   3   8
HETATM    8  C10 UNL     1     -33.260  16.432  -2.692  1.00 20.00     0.273 C 
BRANCH   8   9
HETATM    9  C9  UNL     1     -34.022  16.877  -3.936  1.00 20.00     0.030 C 
BRANCH   9  10
HETATM   10  C7  UNL     1     -34.259  15.731  -4.922  1.00 20.00    -0.003 C 
HETATM   11  C4  UNL     1     -34.052  14.377  -4.260  1.00 20.00     0.005 C 
ENDBRANCH   9  10
ENDBRANCH   8   9
ENDBRANCH   3   8
TORSDOF 6
ENDMDL
MODEL 8
REMARK VINA RESULT:      -3.6     11.216     12.183
REMARK  6 active torsions:
REMARK  status: ('A' for Active; 'I' for Inactive)
REMARK    1  A    between atoms: C2_2  and  C5_5 
REMARK    2  A    between atoms: C5_5  and  C8_8 
REMARK    3  A    between atoms: C6_6  and  C8_8 
REMARK    4  A    between atoms: C7_7  and  C9_9 
REMARK    5  A    between atoms: C9_9  and  C10_10 
REMARK    6  A    between atoms: C10_10  and  N11_11 
ROOT
HETATM    1  C1  UNL     1     -33.091  18.068  -3.557  1.00 20.00     0.308 A 
HETATM    2  C2  UNL     1     -33.181  17.426  -2.193  1.00 20.00     0.251 A 
HETATM    3  N11 UNL     1     -33.831  16.826  -3.351  1.00 20.00     0.097 N 
ENDROOT
BRANCH   2   4
HETATM    4  C5  UNL     1     -34.026  18.036  -1.131  1.00 20.00     0.037 C 
BRANCH   4   5
HETATM    5  C8  UNL     1     -33.265  18.166   0.188  1.00 20.00     0.002 C 
BRANCH   5   6
HETATM    6  C6  UNL     1     -31.944  18.911  -0.004  1.00 20.00    -0.004 C 
HETATM    7  C3  UNL     1     -30.890  18.440   0.986  1.00 20.00     0.005 C 
ENDBRANCH   5   6
ENDBRANCH   4   5
ENDBRANCH   2   4
BRANCH   3   8
HETATM    8  C10 UNL     1     -33.128  15.653  -3.857  1.00 20.00     0.273 C 
BRANCH   8   9
HETATM    9  C9  UNL     1     -34.076  14.505  -4.188  1.00 20.00     0.030 C 
BRANCH   9  10
HETATM   10  C7  UNL     1     -34.956  14.802  -5.404  1.00 20.00    -0.003 C 
HETATM   11  C4  UNL     1     -34.124  15.243  -6.598  1.00 20.00     0.005 C 
ENDBRANCH   9  10
ENDBRANCH   8   9
ENDBRANCH   3   8
TORSDOF 6
ENDMDL
MODEL 9
REMARK VINA RESULT:      -3.6      1.081      2.743
REMARK  6 active torsions:
REMARK  status: ('A' for Active; 'I' for Inactive)
REMARK    1  A    between atoms: C2_2  and  C5_5 
REMARK    2  A    between atoms: C5_5  and  C8_8 
REMARK    3  A    between atoms: C6_6  and  C8_8 
REMARK    4  A    between atoms: C7_7  and  C9_9 
REMARK    5  A    between atoms: C9_9  and  C10_10 
REMARK    6  A    between atoms: C10_10  and  N11_11 
ROOT
HETATM    1  C1  UNL     1     -33.958   4.326   3.923  1.00 20.00     0.308 A 
HETATM    2  C2  UNL     1     -34.501   5.663   4.368  1.00 20.00     0.251 A 
HETATM    3  N11 UNL     1     -33.139   5.533   3.866  1.00 20.00     0.097 N 
ENDROOT
BRANCH   2   4
HETATM    4  C5  UNL     1     -34.709   5.943   5.815  1.00 20.00     0.037 C 
BRANCH   4   5
HETATM    5  C8  UNL     1     -33.734   7.002   6.328  1.00 20.00     0.002 C 
BRANCH   5   6
HETATM    6  C6  UNL     1     -33.877   8.311   5.553  1.00 20.00    -0.004 C 
HETATM    7  C3  UNL     1     -32.522   8.886   5.175  1.00 20.00     0.005 C 
ENDBRANCH   5   6
ENDBRANCH   4   5
ENDBRANCH   2   4
BRANCH   3   8
HETATM    8  C10 UNL     1     -32.978   6.050   2.512  1.00 20.00     0.273 C 
BRANCH   8   9
HETATM    9  C9  UNL     1     -32.102   7.298   2.466  1.00 20.00     0.030 C 
BRANCH   9  10
HETATM   10  C7  UNL     1     -32.165   8.011   1.113  1.00 20.00    -0.003 C 
HETATM   11  C4  UNL     1     -32.818   9.379   1.236  1.00 20.00     0.005 C 
ENDBRANCH   9  10
ENDBRANCH   8   9
ENDBRANCH   3   8
TORSDOF 6
ENDMDL
