MODEL 1
REMARK VINA RESULT:      -4.3      0.000      0.000
REMARK  5 active torsions:
REMARK  status: ('A' for Active; 'I' for Inactive)
REMARK    1  A    between atoms: C1_1  and  C7_7 
REMARK    2  A    between atoms: C2_2  and  C9_9 
REMARK    3  A    between atoms: C4_4  and  C8_8 
REMARK    4  A    between atoms: C8_8  and  C9_9 
REMARK    5  A    between atoms: C9_9  and  O10_10 
ROOT
HETATM    1  C9  UNL     1     -33.926  14.566  -4.465  1.00 20.00     0.200 C 
ENDROOT
BRANCH   1   2
HETATM    2  C2  UNL     1     -33.592  15.652  -3.533  1.00 20.00    -0.074 C 
HETATM    3  C1  UNL     1     -33.319  16.538  -2.769  1.00 20.00    -0.099 C 
BRANCH   3   4
HETATM    4  C7  UNL     1     -32.991  17.602  -1.855  1.00 20.00     0.065 A 
HETATM    5  C5  UNL     1     -33.752  17.700  -0.564  1.00 20.00     0.018 A 
HETATM    6  C6  UNL     1     -33.986  18.707  -1.650  1.00 20.00     0.018 A 
ENDBRANCH   3   4
ENDBRANCH   1   2
BRANCH   1   7
HETATM    7  C8  UNL     1     -34.170  15.119  -5.874  1.00 20.00     0.071 C 
BRANCH   7   8
HETATM    8  C4  UNL     1     -35.609  14.983  -6.285  1.00 20.00    -0.033 C 
HETATM    9  C3  UNL     1     -36.609  15.703  -5.764  1.00 20.00     0.007 C 
ENDBRANCH   7   8
ENDBRANCH   1   7
BRANCH   1  10
HETATM   10  O10 UNL     1     -32.844  13.638  -4.519  1.00 20.00    -0.383 OA
HETATM   11  H22 UNL     1     -32.583  13.466  -3.602  1.00 20.00     0.211 HD
ENDBRANCH   1  10
TORSDOF 5
ENDMDL
MODEL 2
REMARK VINA RESULT:      -4.2      1.159      1.566
REMARK  5 active torsions:
REMARK  status: ('A' for Active; 'I' for Inactive)
REMARK    1  A    between atoms: C1_1  and  C7_7 
REMARK    2  A    between atoms: C2_2  and  C9_9 
REMARK    3  A    between atoms: C4_4  and  C8_8 
REMARK    4  A    between atoms: C8_8  and  C9_9 
REMARK    5  A    between atoms: C9_9  and  O10_10 
ROOT
HETATM    1  C9  UNL     1     -33.496  15.103  -3.972  1.00 20.00     0.200 C 
ENDROOT
BRANCH   1   2
HETATM    2  C2  UNL     1     -33.321  16.266  -3.090  1.00 20.00    -0.074 C 
HETATM    3  C1  UNL     1     -33.180  17.217  -2.371  1.00 20.00    -0.099 C 
BRANCH   3   4
HETATM    4  C7  UNL     1     -33.009  18.357  -1.507  1.00 20.00     0.065 A 
HETATM    5  C5  UNL     1     -31.796  18.415  -0.624  1.00 20.00     0.018 A 
HETATM    6  C6  UNL     1     -33.148  18.164  -0.025  1.00 20.00     0.018 A 
ENDBRANCH   3   4
ENDBRANCH   1   2
BRANCH   1   7
HETATM    7  C8  UNL     1     -34.527  15.403  -5.066  1.00 20.00     0.071 C 
BRANCH   7   8
HETATM    8  C4  UNL     1     -33.986  15.110  -6.438  1.00 20.00    -0.033 C 
HETATM    9  C3  UNL     1     -34.258  15.843  -7.523  1.00 20.00     0.007 C 
ENDBRANCH   7   8
ENDBRANCH   1   7
BRANCH   1  10
HETATM   10  O10 UNL     1     -32.251  14.788  -4.593  1.00 20.00    -0.383 OA
HETATM   11  H22 UNL     1     -31.863  14.063  -4.079  1.00 20.00     0.211 HD
ENDBRANCH   1  10
TORSDOF 5
ENDMDL
MODEL 3
REMARK VINA RESULT:      -4.1      2.552      5.780
REMARK  5 active torsions:
REMARK  status: ('A' for Active; 'I' for Inactive)
REMARK    1  A    between atoms: C1_1  and  C7_7 
REMARK    2  A    between atoms: C2_2  and  C9_9 
REMARK    3  A    between atoms: C4_4  and  C8_8 
REMARK    4  A    between atoms: C8_8  and  C9_9 
REMARK    5  A    between atoms: C9_9  and  O10_10 
ROOT
HETATM    1  C9  UNL     1     -33.343  17.908  -0.895  1.00 20.00     0.200 C 
ENDROOT
BRANCH   1   2
HETATM    2  C2  UNL     1     -33.319  16.987  -2.041  1.00 20.00    -0.074 C 
HETATM    3  C1  UNL     1     -33.299  16.233  -2.975  1.00 20.00    -0.099 C 
BRANCH   3   4
HETATM    4  C7  UNL     1     -33.275  15.330  -4.097  1.00 20.00     0.065 A 
HETATM    5  C5  UNL     1     -34.352  15.446  -5.137  1.00 20.00     0.018 A 
HETATM    6  C6  UNL     1     -34.341  14.278  -4.197  1.00 20.00     0.018 A 
ENDBRANCH   3   4
ENDBRANCH   1   2
BRANCH   1   7
HETATM    7  C8  UNL     1     -32.159  18.880  -0.958  1.00 20.00     0.071 C 
BRANCH   7   8
HETATM    8  C4  UNL     1     -31.078  18.504   0.017  1.00 20.00    -0.033 C 
HETATM    9  C3  UNL     1     -31.254  18.431   1.341  1.00 20.00     0.007 C 
ENDBRANCH   7   8
ENDBRANCH   1   7
BRANCH   1  10
HETATM   10  O10 UNL     1     -34.554  18.661  -0.919  1.00 20.00    -0.383 OA
HETATM   11  H22 UNL     1     -34.686  18.998  -0.020  1.00 20.00     0.211 HD
ENDBRANCH   1  10
TORSDOF 5
ENDMDL
MODEL 4
REMARK VINA RESULT:      -3.9      2.701      3.811
REMARK  5 active torsions:
REMARK  status: ('A' for Active; 'I' for Inactive)
REMARK    1  A    between atoms: C1_1  and  C7_7 
REMARK    2  A    between atoms: C2_2  and  C9_9 
REMARK    3  A    between atoms: C4_4  and  C8_8 
REMARK    4  A    between atoms: C8_8  and  C9_9 
REMARK    5  A    between atoms: C9_9  and  O10_10 
ROOT
HETATM    1  C9  UNL     1     -33.499  17.762  -2.488  1.00 20.00     0.200 C 
ENDROOT
BRANCH   1   2
HETATM    2  C2  UNL     1     -32.632  18.241  -1.401  1.00 20.00    -0.074 C 
HETATM    3  C1  UNL     1     -31.925  18.632  -0.513  1.00 20.00    -0.099 C 
BRANCH   3   4
HETATM    4  C7  UNL     1     -31.076  19.101   0.552  1.00 20.00     0.065 A 
HETATM    5  C5  UNL     1     -30.705  18.145   1.650  1.00 20.00     0.018 A 
HETATM    6  C6  UNL     1     -31.666  19.263   1.924  1.00 20.00     0.018 A 
ENDBRANCH   3   4
ENDBRANCH   1   2
BRANCH   1   7
HETATM    7  C8  UNL     1     -33.384  16.241  -2.642  1.00 20.00     0.071 C 
BRANCH   7   8
HETATM    8  C4  UNL     1     -33.776  15.789  -4.020  1.00 20.00    -0.033 C 
HETATM    9  C3  UNL     1     -33.598  14.545  -4.480  1.00 20.00     0.007 C 
ENDBRANCH   7   8
ENDBRANCH   1   7
BRANCH   1  10
HETATM   10  O10 UNL     1     -34.855  18.089  -2.191  1.00 20.00    -0.383 OA
HETATM   11  H22 UNL     1     -35.404  17.459  -2.682  1.00 20.00     0.211 HD
ENDBRANCH   1  10
TORSDOF 5
ENDMDL
MODEL 5
REMARK VINA RESULT:      -3.9     11.411     12.371
REMARK  5 active torsions:
REMARK  status: ('A' for Active; 'I' for Inactive)
REMARK    1  A    between atoms: C1_1  and  C7_7 
REMARK    2  A    between atoms: C2_2  and  C9_9 
REMARK    3  A    between atoms: C4_4  and  C8_8 
REMARK    4  A    between atoms: C8_8  and  C9_9 
REMARK    5  A    between atoms: C9_9  and  O10_10 
ROOT
HETATM    1  C9  UNL     1     -34.032   7.372   5.779  1.00 20.00     0.200 C 
ENDROOT
BRANCH   1   2
HETATM    2  C2  UNL     1     -33.345   7.913   4.597  1.00 20.00    -0.074 C 
HETATM    3  C1  UNL     1     -32.784   8.353   3.631  1.00 20.00    -0.099 C 
BRANCH   3   4
HETATM    4  C7  UNL     1     -32.110   8.883   2.473  1.00 20.00     0.065 A 
HETATM    5  C5  UNL     1     -32.936   9.498   1.380  1.00 20.00     0.018 A 
HETATM    6  C6  UNL     1     -32.271   8.172   1.160  1.00 20.00     0.018 A 
ENDBRANCH   3   4
ENDBRANCH   1   2
BRANCH   1   7
HETATM    7  C8  UNL     1     -35.032   6.284   5.373  1.00 20.00     0.071 C 
BRANCH   7   8
HETATM    8  C4  UNL     1     -34.390   4.925   5.329  1.00 20.00    -0.033 C 
HETATM    9  C3  UNL     1     -33.959   4.335   4.207  1.00 20.00     0.007 C 
ENDBRANCH   7   8
ENDBRANCH   1   7
BRANCH   1  10
HETATM   10  O10 UNL     1     -33.071   6.802   6.665  1.00 20.00    -0.383 OA
HETATM   11  H22 UNL     1     -32.443   6.313   6.112  1.00 20.00     0.211 HD
ENDBRANCH   1  10
TORSDOF 5
ENDMDL
MODEL 6
REMARK VINA RESULT:      -3.9     11.098     12.542
REMARK  5 active torsions:
REMARK  status: ('A' for Active; 'I' for Inactive)
REMARK    1  A    between atoms: C1_1  and  C7_7 
REMARK    2  A    between atoms: C2_2  and  C9_9 
REMARK    3  A    between atoms: C4_4  and  C8_8 
REMARK    4  A    between atoms: C8_8  and  C9_9 
REMARK    5  A    between atoms: C9_9  and  O10_10 
ROOT
HETATM    1  C9  UNL     1     -40.751  12.614   6.173  1.00 20.00     0.200 C 
ENDROOT
BRANCH   1   2
HETATM    2  C2  UNL     1     -40.622  13.893   6.886  1.00 20.00    -0.074 C 
HETATM    3  C1  UNL     1     -40.517  14.939   7.466  1.00 20.00    -0.099 C 
BRANCH   3   4
HETATM    4  C7  UNL     1     -40.392  16.193   8.164  1.00 20.00     0.065 A 
HETATM    5  C5  UNL     1     -41.642  16.940   8.531  1.00 20.00     0.018 A 
HETATM    6  C6  UNL     1     -40.752  17.458   7.441  1.00 20.00     0.018 A 
ENDBRANCH   3   4
ENDBRANCH   1   2
BRANCH   1   7
HETATM    7  C8  UNL     1     -39.451  11.808   6.270  1.00 20.00     0.071 C 
BRANCH   7   8
HETATM    8  C4  UNL     1     -38.603  11.967   5.038  1.00 20.00    -0.033 C 
HETATM    9  C3  UNL     1     -39.027  11.704   3.797  1.00 20.00     0.007 C 
ENDBRANCH   7   8
ENDBRANCH   1   7
BRANCH   1  10
HETATM   10  O10 UNL     1     -41.806  11.851   6.755  1.00 20.00    -0.383 OA
HETATM   11  H22 UNL     1     -41.607  11.786   7.702  1.00 20.00     0.211 HD
ENDBRANCH   1  10
TORSDOF 5
ENDMDL
MODEL 7
REMARK VINA RESULT:      -3.8     11.108     11.950
REMARK  5 active torsions:
REMARK  status: ('A' for Active; 'I' for Inactive)
REMARK    1  A    between atoms: C1_1  and  C7_7 
REMARK    2  A    between atoms: C2_2  and  C9_9 
REMARK    3  A    between atoms: C4_4  and  C8_8 
REMARK    4  A    between atoms: C8_8  and  C9_9 
REMARK    5  A    between atoms: C9_9  and  O10_10 
ROOT
HETATM    1  C9  UNL     1     -32.203   8.740   3.811  1.00 20.00     0.200 C 
ENDROOT
BRANCH   1   2
HETATM    2  C2  UNL     1     -33.172   7.744   4.291  1.00 20.00    -0.074 C 
HETATM    3  C1  UNL     1     -33.963   6.929   4.682  1.00 20.00    -0.099 C 
BRANCH   3   4
HETATM    4  C7  UNL     1     -34.912   5.952   5.152  1.00 20.00     0.065 A 
HETATM    5  C5  UNL     1     -34.550   5.114   6.345  1.00 20.00     0.018 A 
HETATM    6  C6  UNL     1     -34.591   4.496   4.979  1.00 20.00     0.018 A 
ENDBRANCH   3   4
ENDBRANCH   1   2
BRANCH   1   7
HETATM    7  C8  UNL     1     -32.734   9.455   2.564  1.00 20.00     0.071 C 
BRANCH   7   8
HETATM    8  C4  UNL     1     -32.374   8.719   1.303  1.00 20.00    -0.033 C 
HETATM    9  C3  UNL     1     -32.761   9.095   0.079  1.00 20.00     0.007 C 
ENDBRANCH   7   8
ENDBRANCH   1   7
BRANCH   1  10
HETATM   10  O10 UNL     1     -31.976   9.710   4.832  1.00 20.00    -0.383 OA
HETATM   11  H22 UNL     1     -31.268  10.288   4.509  1.00 20.00     0.211 HD
ENDBRANCH   1  10
TORSDOF 5
ENDMDL
MODEL 8
REMARK VINA RESULT:      -3.8     11.615     13.056
REMARK  5 active torsions:
REMARK  status: ('A' for Active; 'I' for Inactive)
REMARK    1  A    between atoms: C1_1  and  C7_7 
REMARK    2  A    between atoms: C2_2  and  C9_9 
REMARK    3  A    between atoms: C4_4  and  C8_8 
REMARK    4  A    between atoms: C8_8  and  C9_9 
REMARK    5  A    between atoms: C9_9  and  O10_10 
ROOT
HETATM    1  C9  UNL     1     -40.730  12.643   6.307  1.00 20.00     0.200 C 
ENDROOT
BRANCH   1   2
HETATM    2  C2  UNL     1     -40.567  13.732   7.281  1.00 20.00    -0.074 C 
HETATM    3  C1  UNL     1     -40.432  14.621   8.077  1.00 20.00    -0.099 C 
BRANCH   3   4
HETATM    4  C7  UNL     1     -40.272  15.688   9.032  1.00 20.00     0.065 A 
HETATM    5  C5  UNL     1     -40.245  15.346  10.494  1.00 20.00     0.018 A 
HETATM    6  C6  UNL     1     -41.435  16.047   9.911  1.00 20.00     0.018 A 
ENDBRANCH   3   4
ENDBRANCH   1   2
BRANCH   1   7
HETATM    7  C8  UNL     1     -39.475  11.764   6.263  1.00 20.00     0.071 C 
BRANCH   7   8
HETATM    8  C4  UNL     1     -38.656  12.024   5.029  1.00 20.00    -0.033 C 
HETATM    9  C3  UNL     1     -39.035  11.683   3.792  1.00 20.00     0.007 C 
ENDBRANCH   7   8
ENDBRANCH   1   7
BRANCH   1  10
HETATM   10  O10 UNL     1     -41.841  11.832   6.685  1.00 20.00    -0.383 OA
HETATM   11  H22 UNL     1     -42.575  12.082   6.102  1.00 20.00     0.211 HD
ENDBRANCH   1  10
TORSDOF 5
ENDMDL
MODEL 9
REMARK VINA RESULT:      -3.8      5.643      7.567
REMARK  5 active torsions:
REMARK  status: ('A' for Active; 'I' for Inactive)
REMARK    1  A    between atoms: C1_1  and  C7_7 
REMARK    2  A    between atoms: C2_2  and  C9_9 
REMARK    3  A    between atoms: C4_4  and  C8_8 
REMARK    4  A    between atoms: C8_8  and  C9_9 
REMARK    5  A    between atoms: C9_9  and  O10_10 
ROOT
HETATM    1  C9  UNL     1     -31.450  19.056   1.310  1.00 20.00     0.200 C 
ENDROOT
BRANCH   1   2
HETATM    2  C2  UNL     1     -30.240  19.130   2.142  1.00 20.00    -0.074 C 
HETATM    3  C1  UNL     1     -29.251  19.190   2.821  1.00 20.00    -0.099 C 
BRANCH   3   4
HETATM    4  C7  UNL     1     -28.066  19.262   3.636  1.00 20.00     0.065 A 
HETATM    5  C5  UNL     1     -27.666  18.054   4.434  1.00 20.00     0.018 A 
HETATM    6  C6  UNL     1     -28.218  19.263   5.129  1.00 20.00     0.018 A 
ENDBRANCH   3   4
ENDBRANCH   1   2
BRANCH   1   7
HETATM    7  C8  UNL     1     -31.114  18.524  -0.088  1.00 20.00     0.071 C 
BRANCH   7   8
HETATM    8  C4  UNL     1     -32.280  18.654  -1.028  1.00 20.00    -0.033 C 
HETATM    9  C3  UNL     1     -32.926  17.615  -1.569  1.00 20.00     0.007 C 
ENDBRANCH   7   8
ENDBRANCH   1   7
BRANCH   1  10
HETATM   10  O10 UNL     1     -32.390  18.173   1.921  1.00 20.00    -0.383 OA
HETATM   11  H22 UNL     1     -33.217  18.266   1.424  1.00 20.00     0.211 HD
ENDBRANCH   1  10
TORSDOF 5
ENDMDL
