MODEL 1
REMARK VINA RESULT:      -3.6      0.000      0.000
REMARK  4 active torsions:
REMARK  status: ('A' for Active; 'I' for Inactive)
REMARK    1  A    between atoms: C1_1  and  C7_7 
REMARK    2  A    between atoms: C6_6  and  O10_10 
REMARK    3  A    between atoms: C7_7  and  C8_8 
REMARK    4  A    between atoms: C7_7  and  O10_10 
ROOT
HETATM    1  C7  UNL     1     -40.592  13.447   6.525  1.00 20.00     0.193 C 
ENDROOT
BRANCH   1   2
HETATM    2  C1  UNL     1     -39.580  12.355   6.189  1.00 20.00     0.152 C 
HETATM    3  C2  UNL     1     -39.501  11.904   4.754  1.00 20.00     0.093 C 
HETATM    4  O9  UNL     1     -38.850  11.856   7.046  1.00 20.00    -0.296 OA
ENDBRANCH   1   2
BRANCH   1   5
HETATM    5  C8  UNL     1     -42.011  13.111   6.034  1.00 20.00     0.014 C 
HETATM    6  C4  UNL     1     -42.856  12.419   7.110  1.00 20.00     0.012 C 
HETATM    7  C5  UNL     1     -42.731  14.378   5.563  1.00 20.00     0.012 C 
ENDBRANCH   1   5
BRANCH   1   8
HETATM    8  O10 UNL     1     -40.599  13.649   7.931  1.00 20.00    -0.378 OA
BRANCH   8   9
HETATM    9  C6  UNL     1     -40.317  15.001   8.267  1.00 20.00     0.164 C 
HETATM   10  C3  UNL     1     -40.192  15.121   9.771  1.00 20.00     0.033 C 
ENDBRANCH   8   9
ENDBRANCH   1   8
TORSDOF 4
ENDMDL
MODEL 2
REMARK VINA RESULT:      -3.4      9.137     10.463
REMARK  4 active torsions:
REMARK  status: ('A' for Active; 'I' for Inactive)
REMARK    1  A    between atoms: C1_1  and  C7_7 
REMARK    2  A    between atoms: C6_6  and  O10_10 
REMARK    3  A    between atoms: C7_7  and  C8_8 
REMARK    4  A    between atoms: C7_7  and  O10_10 
ROOT
HETATM    1  C7  UNL     1     -33.600   6.706   4.327  1.00 20.00     0.193 C 
ENDROOT
BRANCH   1   2
HETATM    2  C1  UNL     1     -34.748   5.879   4.897  1.00 20.00     0.152 C 
HETATM    3  C2  UNL     1     -34.514   5.189   6.217  1.00 20.00     0.093 C 
HETATM    4  O9  UNL     1     -35.828   5.772   4.315  1.00 20.00    -0.296 OA
ENDBRANCH   1   2
BRANCH   1   5
HETATM    5  C8  UNL     1     -33.251   6.316   2.879  1.00 20.00     0.014 C 
HETATM    6  C4  UNL     1     -32.135   7.187   2.291  1.00 20.00     0.012 C 
HETATM    7  C5  UNL     1     -32.836   4.843   2.805  1.00 20.00     0.012 C 
ENDBRANCH   1   5
BRANCH   1   8
HETATM    8  O10 UNL     1     -33.950   8.081   4.390  1.00 20.00    -0.378 OA
BRANCH   8   9
HETATM    9  C6  UNL     1     -33.330   8.728   5.494  1.00 20.00     0.164 C 
HETATM   10  C3  UNL     1     -31.968   9.234   5.068  1.00 20.00     0.033 C 
ENDBRANCH   8   9
ENDBRANCH   1   8
TORSDOF 4
ENDMDL
MODEL 3
REMARK VINA RESULT:      -3.4      1.156      3.444
REMARK  4 active torsions:
REMARK  status: ('A' for Active; 'I' for Inactive)
REMARK    1  A    between atoms: C1_1  and  C7_7 
REMARK    2  A    between atoms: C6_6  and  O10_10 
REMARK    3  A    between atoms: C7_7  and  C8_8 
REMARK    4  A    between atoms: C7_7  and  O10_10 
ROOT
HETATM    1  C7  UNL     1     -40.994  13.391   7.079  1.00 20.00     0.193 C 
ENDROOT
BRANCH   1   2
HETATM    2  C1  UNL     1     -40.504  14.301   8.200  1.00 20.00     0.152 C 
HETATM    3  C2  UNL     1     -40.345  15.766   7.882  1.00 20.00     0.093 C 
HETATM    4  O9  UNL     1     -40.247  13.871   9.325  1.00 20.00    -0.296 OA
ENDBRANCH   1   2
BRANCH   1   5
HETATM    5  C8  UNL     1     -42.311  13.882   6.450  1.00 20.00     0.014 C 
HETATM    6  C4  UNL     1     -42.157  14.230   4.965  1.00 20.00     0.012 C 
HETATM    7  C5  UNL     1     -43.410  12.827   6.610  1.00 20.00     0.012 C 
ENDBRANCH   1   5
BRANCH   1   8
HETATM    8  O10 UNL     1     -39.984  13.302   6.085  1.00 20.00    -0.378 OA
BRANCH   8   9
HETATM    9  C6  UNL     1     -39.501  11.972   5.947  1.00 20.00     0.164 C 
HETATM   10  C3  UNL     1     -39.181  11.712   4.490  1.00 20.00     0.033 C 
ENDBRANCH   8   9
ENDBRANCH   1   8
TORSDOF 4
ENDMDL
MODEL 4
REMARK VINA RESULT:      -3.3      8.778     10.527
REMARK  4 active torsions:
REMARK  status: ('A' for Active; 'I' for Inactive)
REMARK    1  A    between atoms: C1_1  and  C7_7 
REMARK    2  A    between atoms: C6_6  and  O10_10 
REMARK    3  A    between atoms: C7_7  and  C8_8 
REMARK    4  A    between atoms: C7_7  and  O10_10 
ROOT
HETATM    1  C7  UNL     1     -33.352   6.743   4.273  1.00 20.00     0.193 C 
ENDROOT
BRANCH   1   2
HETATM    2  C1  UNL     1     -32.770   6.416   2.901  1.00 20.00     0.152 C 
HETATM    3  C2  UNL     1     -32.834   4.981   2.447  1.00 20.00     0.093 C 
HETATM    4  O9  UNL     1     -32.267   7.281   2.183  1.00 20.00    -0.296 OA
ENDBRANCH   1   2
BRANCH   1   5
HETATM    5  C8  UNL     1     -33.335   8.252   4.579  1.00 20.00     0.014 C 
HETATM    6  C4  UNL     1     -34.138   8.603   5.837  1.00 20.00     0.012 C 
HETATM    7  C5  UNL     1     -31.895   8.750   4.743  1.00 20.00     0.012 C 
ENDBRANCH   1   5
BRANCH   1   8
HETATM    8  O10 UNL     1     -34.682   6.249   4.336  1.00 20.00    -0.378 OA
BRANCH   8   9
HETATM    9  C6  UNL     1     -34.750   5.019   5.045  1.00 20.00     0.164 C 
HETATM   10  C3  UNL     1     -34.418   5.270   6.501  1.00 20.00     0.033 C 
ENDBRANCH   8   9
ENDBRANCH   1   8
TORSDOF 4
ENDMDL
MODEL 5
REMARK VINA RESULT:      -3.3      9.313     10.266
REMARK  4 active torsions:
REMARK  status: ('A' for Active; 'I' for Inactive)
REMARK    1  A    between atoms: C1_1  and  C7_7 
REMARK    2  A    between atoms: C6_6  and  O10_10 
REMARK    3  A    between atoms: C7_7  and  C8_8 
REMARK    4  A    between atoms: C7_7  and  O10_10 
ROOT
HETATM    1  C7  UNL     1     -33.734   6.774   4.188  1.00 20.00     0.193 C 
ENDROOT
BRANCH   1   2
HETATM    2  C1  UNL     1     -32.816   6.381   3.035  1.00 20.00     0.152 C 
HETATM    3  C2  UNL     1     -32.836   4.940   2.595  1.00 20.00     0.093 C 
HETATM    4  O9  UNL     1     -32.085   7.199   2.475  1.00 20.00    -0.296 OA
ENDBRANCH   1   2
BRANCH   1   5
HETATM    5  C8  UNL     1     -34.611   5.605   4.671  1.00 20.00     0.014 C 
HETATM    6  C4  UNL     1     -34.554   5.418   6.191  1.00 20.00     0.012 C 
HETATM    7  C5  UNL     1     -36.067   5.813   4.241  1.00 20.00     0.012 C 
ENDBRANCH   1   5
BRANCH   1   8
HETATM    8  O10 UNL     1     -32.940   7.262   5.260  1.00 20.00    -0.378 OA
BRANCH   8   9
HETATM    9  C6  UNL     1     -33.173   8.644   5.497  1.00 20.00     0.164 C 
HETATM   10  C3  UNL     1     -32.018   9.443   4.932  1.00 20.00     0.033 C 
ENDBRANCH   8   9
ENDBRANCH   1   8
TORSDOF 4
ENDMDL
MODEL 6
REMARK VINA RESULT:      -3.3      9.105     10.512
REMARK  4 active torsions:
REMARK  status: ('A' for Active; 'I' for Inactive)
REMARK    1  A    between atoms: C1_1  and  C7_7 
REMARK    2  A    between atoms: C6_6  and  O10_10 
REMARK    3  A    between atoms: C7_7  and  C8_8 
REMARK    4  A    between atoms: C7_7  and  O10_10 
ROOT
HETATM    1  C7  UNL     1     -33.430   6.975   4.841  1.00 20.00     0.193 C 
ENDROOT
BRANCH   1   2
HETATM    2  C1  UNL     1     -33.246   8.427   5.273  1.00 20.00     0.152 C 
HETATM    3  C2  UNL     1     -32.038   9.157   4.745  1.00 20.00     0.093 C 
HETATM    4  O9  UNL     1     -34.046   8.992   6.020  1.00 20.00    -0.296 OA
ENDBRANCH   1   2
BRANCH   1   5
HETATM    5  C8  UNL     1     -34.653   6.312   5.499  1.00 20.00     0.014 C 
HETATM    6  C4  UNL     1     -35.659   5.785   4.470  1.00 20.00     0.012 C 
HETATM    7  C5  UNL     1     -34.215   5.162   6.412  1.00 20.00     0.012 C 
ENDBRANCH   1   5
BRANCH   1   8
HETATM    8  O10 UNL     1     -33.553   6.929   3.427  1.00 20.00    -0.378 OA
BRANCH   8   9
HETATM    9  C6  UNL     1     -32.453   6.258   2.827  1.00 20.00     0.164 C 
HETATM   10  C3  UNL     1     -32.857   4.834   2.509  1.00 20.00     0.033 C 
ENDBRANCH   8   9
ENDBRANCH   1   8
TORSDOF 4
ENDMDL
MODEL 7
REMARK VINA RESULT:      -3.2      1.848      4.133
REMARK  4 active torsions:
REMARK  status: ('A' for Active; 'I' for Inactive)
REMARK    1  A    between atoms: C1_1  and  C7_7 
REMARK    2  A    between atoms: C6_6  and  O10_10 
REMARK    3  A    between atoms: C7_7  and  C8_8 
REMARK    4  A    between atoms: C7_7  and  O10_10 
ROOT
HETATM    1  C7  UNL     1     -40.687  13.209   5.608  1.00 20.00     0.193 C 
ENDROOT
BRANCH   1   2
HETATM    2  C1  UNL     1     -41.603  13.075   6.821  1.00 20.00     0.152 C 
HETATM    3  C2  UNL     1     -41.543  14.168   7.857  1.00 20.00     0.093 C 
HETATM    4  O9  UNL     1     -42.366  12.118   6.960  1.00 20.00    -0.296 OA
ENDBRANCH   1   2
BRANCH   1   5
HETATM    5  C8  UNL     1     -39.769  11.988   5.421  1.00 20.00     0.014 C 
HETATM    6  C4  UNL     1     -39.202  11.893   4.000  1.00 20.00     0.012 C 
HETATM    7  C5  UNL     1     -38.612  12.027   6.426  1.00 20.00     0.012 C 
ENDBRANCH   1   5
BRANCH   1   8
HETATM    8  O10 UNL     1     -41.486  13.399   4.449  1.00 20.00    -0.378 OA
BRANCH   8   9
HETATM    9  C6  UNL     1     -42.193  14.631   4.497  1.00 20.00     0.164 C 
HETATM   10  C3  UNL     1     -42.380  15.147   3.086  1.00 20.00     0.033 C 
ENDBRANCH   8   9
ENDBRANCH   1   8
TORSDOF 4
ENDMDL
MODEL 8
REMARK VINA RESULT:      -3.2     13.307     14.328
REMARK  4 active torsions:
REMARK  status: ('A' for Active; 'I' for Inactive)
REMARK    1  A    between atoms: C1_1  and  C7_7 
REMARK    2  A    between atoms: C6_6  and  O10_10 
REMARK    3  A    between atoms: C7_7  and  C8_8 
REMARK    4  A    between atoms: C7_7  and  O10_10 
ROOT
HETATM    1  C7  UNL     1     -34.968  16.092  -5.460  1.00 20.00     0.193 C 
ENDROOT
BRANCH   1   2
HETATM    2  C1  UNL     1     -35.021  15.308  -6.768  1.00 20.00     0.152 C 
HETATM    3  C2  UNL     1     -33.939  15.579  -7.780  1.00 20.00     0.093 C 
HETATM    4  O9  UNL     1     -35.906  14.483  -6.998  1.00 20.00    -0.296 OA
ENDBRANCH   1   2
BRANCH   1   5
HETATM    5  C8  UNL     1     -33.792  15.665  -4.561  1.00 20.00     0.014 C 
HETATM    6  C4  UNL     1     -33.567  16.632  -3.393  1.00 20.00     0.012 C 
HETATM    7  C5  UNL     1     -34.020  14.253  -4.013  1.00 20.00     0.012 C 
ENDBRANCH   1   5
BRANCH   1   8
HETATM    8  O10 UNL     1     -34.875  17.477  -5.758  1.00 20.00    -0.378 OA
BRANCH   8   9
HETATM    9  C6  UNL     1     -36.158  18.061  -5.939  1.00 20.00     0.164 C 
HETATM   10  C3  UNL     1     -37.023  17.733  -4.741  1.00 20.00     0.033 C 
ENDBRANCH   8   9
ENDBRANCH   1   8
TORSDOF 4
ENDMDL
MODEL 9
REMARK VINA RESULT:      -3.2      1.419      3.543
REMARK  4 active torsions:
REMARK  status: ('A' for Active; 'I' for Inactive)
REMARK    1  A    between atoms: C1_1  and  C7_7 
REMARK    2  A    between atoms: C6_6  and  O10_10 
REMARK    3  A    between atoms: C7_7  and  C8_8 
REMARK    4  A    between atoms: C7_7  and  O10_10 
ROOT
HETATM    1  C7  UNL     1     -40.901  13.983   6.586  1.00 20.00     0.193 C 
ENDROOT
BRANCH   1   2
HETATM    2  C1  UNL     1     -42.201  13.863   5.795  1.00 20.00     0.152 C 
HETATM    3  C2  UNL     1     -42.222  14.446   4.406  1.00 20.00     0.093 C 
HETATM    4  O9  UNL     1     -43.199  13.311   6.261  1.00 20.00    -0.296 OA
ENDBRANCH   1   2
BRANCH   1   5
HETATM    5  C8  UNL     1     -41.038  14.901   7.814  1.00 20.00     0.014 C 
HETATM    6  C4  UNL     1     -40.233  14.394   9.016  1.00 20.00     0.012 C 
HETATM    7  C5  UNL     1     -40.593  16.326   7.472  1.00 20.00     0.012 C 
ENDBRANCH   1   5
BRANCH   1   8
HETATM    8  O10 UNL     1     -40.489  12.686   6.991  1.00 20.00    -0.378 OA
BRANCH   8   9
HETATM    9  C6  UNL     1     -40.126  11.881   5.877  1.00 20.00     0.164 C 
HETATM   10  C3  UNL     1     -38.681  12.156   5.518  1.00 20.00     0.033 C 
ENDBRANCH   8   9
ENDBRANCH   1   8
TORSDOF 4
ENDMDL
