MODEL 1
REMARK VINA RESULT:      -5.0      0.000      0.000
REMARK  1 active torsions:
REMARK  status: ('A' for Active; 'I' for Inactive)
REMARK    1  A    between atoms: C3_3  and  C7_7 
ROOT
HETATM    1  C1  UNL     1     -34.281   4.942   4.104  1.00 20.00    -0.020 C 
HETATM    2  C2  UNL     1     -33.326   5.260   3.212  1.00 20.00    -0.086 C 
HETATM    3  C4  UNL     1     -32.631   6.598   3.222  1.00 20.00     0.045 C 
HETATM    4  C5  UNL     1     -34.335   7.329   4.937  1.00 20.00     0.020 C 
HETATM    5  C6  UNL     1     -34.782   5.876   5.174  1.00 20.00     0.005 C 
HETATM    6  C7  UNL     1     -32.873   7.413   4.499  1.00 20.00     0.059 C 
HETATM    7  C8  UNL     1     -32.893   4.301   2.141  1.00 20.00     0.043 C 
HETATM    8  C10 UNL     1     -34.343   5.369   6.550  1.00 20.00     0.014 C 
ENDROOT
BRANCH   6   9
HETATM    9  C3  UNL     1     -32.482   8.844   4.274  1.00 20.00     0.127 C 
HETATM   10  C9  UNL     1     -32.660   9.383   2.880  1.00 20.00     0.091 C 
HETATM   11  O11 UNL     1     -32.040   9.543   5.184  1.00 20.00    -0.298 OA
ENDBRANCH   6   9
TORSDOF 1
ENDMDL
MODEL 2
REMARK VINA RESULT:      -4.8      1.333      3.371
REMARK  1 active torsions:
REMARK  status: ('A' for Active; 'I' for Inactive)
REMARK    1  A    between atoms: C3_3  and  C7_7 
ROOT
HETATM    1  C1  UNL     1     -32.200   6.946   2.461  1.00 20.00    -0.020 C 
HETATM    2  C2  UNL     1     -32.881   5.827   2.761  1.00 20.00    -0.086 C 
HETATM    3  C4  UNL     1     -33.673   5.686   4.037  1.00 20.00     0.045 C 
HETATM    4  C5  UNL     1     -32.614   7.854   4.784  1.00 20.00     0.020 C 
HETATM    5  C6  UNL     1     -32.120   8.154   3.358  1.00 20.00     0.005 C 
HETATM    6  C7  UNL     1     -33.889   7.009   4.782  1.00 20.00     0.059 C 
HETATM    7  C8  UNL     1     -32.894   4.639   1.843  1.00 20.00     0.043 C 
HETATM    8  C10 UNL     1     -32.888   9.318   2.729  1.00 20.00     0.014 C 
ENDROOT
BRANCH   6   9
HETATM    9  C3  UNL     1     -34.331   6.737   6.189  1.00 20.00     0.127 C 
HETATM   10  C9  UNL     1     -34.719   5.320   6.515  1.00 20.00     0.091 C 
HETATM   11  O11 UNL     1     -34.373   7.628   7.036  1.00 20.00    -0.298 OA
ENDBRANCH   6   9
TORSDOF 1
ENDMDL
MODEL 3
REMARK VINA RESULT:      -4.2     11.826     12.961
REMARK  1 active torsions:
REMARK  status: ('A' for Active; 'I' for Inactive)
REMARK    1  A    between atoms: C3_3  and  C7_7 
ROOT
HETATM    1  C1  UNL     1     -34.455  17.214  -4.399  1.00 20.00    -0.020 C 
HETATM    2  C2  UNL     1     -33.721  16.324  -3.710  1.00 20.00    -0.086 C 
HETATM    3  C4  UNL     1     -33.265  16.581  -2.296  1.00 20.00     0.045 C 
HETATM    4  C5  UNL     1     -34.102  18.946  -2.591  1.00 20.00     0.020 C 
HETATM    5  C6  UNL     1     -34.873  18.559  -3.865  1.00 20.00     0.005 C 
HETATM    6  C7  UNL     1     -33.967  17.768  -1.625  1.00 20.00     0.059 C 
HETATM    7  C8  UNL     1     -33.301  15.012  -4.309  1.00 20.00     0.043 C 
HETATM    8  C10 UNL     1     -36.386  18.577  -3.635  1.00 20.00     0.014 C 
ENDROOT
BRANCH   6   9
HETATM    9  C3  UNL     1     -33.205  18.188  -0.402  1.00 20.00     0.127 C 
HETATM   10  C9  UNL     1     -31.746  18.503  -0.589  1.00 20.00     0.091 C 
HETATM   11  O11 UNL     1     -33.747  18.272   0.699  1.00 20.00    -0.298 OA
ENDBRANCH   6   9
TORSDOF 1
ENDMDL
MODEL 4
REMARK VINA RESULT:      -4.1     11.866     13.290
REMARK  1 active torsions:
REMARK  status: ('A' for Active; 'I' for Inactive)
REMARK    1  A    between atoms: C3_3  and  C7_7 
ROOT
HETATM    1  C1  UNL     1     -34.210  16.955  -4.628  1.00 20.00    -0.020 C 
HETATM    2  C2  UNL     1     -33.984  18.273  -4.490  1.00 20.00    -0.086 C 
HETATM    3  C4  UNL     1     -33.284  18.847  -3.284  1.00 20.00     0.045 C 
HETATM    4  C5  UNL     1     -33.459  16.551  -2.247  1.00 20.00     0.020 C 
HETATM    5  C6  UNL     1     -33.827  15.920  -3.601  1.00 20.00     0.005 C 
HETATM    6  C7  UNL     1     -32.586  17.794  -2.414  1.00 20.00     0.059 C 
HETATM    7  C8  UNL     1     -34.423  19.263  -5.531  1.00 20.00     0.043 C 
HETATM    8  C10 UNL     1     -32.692  15.048  -4.144  1.00 20.00     0.014 C 
ENDROOT
BRANCH   6   9
HETATM    9  C3  UNL     1     -32.256  18.378  -1.071  1.00 20.00     0.127 C 
HETATM   10  C9  UNL     1     -33.358  18.385  -0.047  1.00 20.00     0.091 C 
HETATM   11  O11 UNL     1     -31.140  18.829  -0.820  1.00 20.00    -0.298 OA
ENDBRANCH   6   9
TORSDOF 1
ENDMDL
MODEL 5
REMARK VINA RESULT:      -4.0      9.735     11.071
REMARK  1 active torsions:
REMARK  status: ('A' for Active; 'I' for Inactive)
REMARK    1  A    between atoms: C3_3  and  C7_7 
ROOT
HETATM    1  C1  UNL     1     -42.600  15.208   6.232  1.00 20.00    -0.020 C 
HETATM    2  C2  UNL     1     -42.320  14.689   5.024  1.00 20.00    -0.086 C 
HETATM    3  C4  UNL     1     -41.310  13.585   4.837  1.00 20.00     0.045 C 
HETATM    4  C5  UNL     1     -40.668  13.936   7.255  1.00 20.00     0.020 C 
HETATM    5  C6  UNL     1     -41.929  14.780   7.511  1.00 20.00     0.005 C 
HETATM    6  C7  UNL     1     -40.885  12.906   6.146  1.00 20.00     0.059 C 
HETATM    7  C8  UNL     1     -42.994  15.182   3.776  1.00 20.00     0.043 C 
HETATM    8  C10 UNL     1     -42.931  14.039   8.399  1.00 20.00     0.014 C 
ENDROOT
BRANCH   6   9
HETATM    9  C3  UNL     1     -39.632  12.111   5.925  1.00 20.00     0.127 C 
HETATM   10  C9  UNL     1     -39.292  11.763   4.501  1.00 20.00     0.091 C 
HETATM   11  O11 UNL     1     -38.915  11.763   6.863  1.00 20.00    -0.298 OA
ENDBRANCH   6   9
TORSDOF 1
ENDMDL
MODEL 6
REMARK VINA RESULT:      -4.0     11.861     13.493
REMARK  1 active torsions:
REMARK  status: ('A' for Active; 'I' for Inactive)
REMARK    1  A    between atoms: C3_3  and  C7_7 
ROOT
HETATM    1  C1  UNL     1     -33.897  18.831  -2.922  1.00 20.00    -0.020 C 
HETATM    2  C2  UNL     1     -33.357  17.847  -2.182  1.00 20.00    -0.086 C 
HETATM    3  C4  UNL     1     -33.335  16.413  -2.645  1.00 20.00     0.045 C 
HETATM    4  C5  UNL     1     -34.850  17.132  -4.534  1.00 20.00     0.020 C 
HETATM    5  C6  UNL     1     -34.559  18.617  -4.258  1.00 20.00     0.005 C 
HETATM    6  C7  UNL     1     -33.679  16.235  -4.129  1.00 20.00     0.059 C 
HETATM    7  C8  UNL     1     -32.744  18.115  -0.837  1.00 20.00     0.043 C 
HETATM    8  C10 UNL     1     -33.704  19.239  -5.365  1.00 20.00     0.014 C 
ENDROOT
BRANCH   6   9
HETATM    9  C3  UNL     1     -34.007  14.798  -4.410  1.00 20.00     0.127 C 
HETATM   10  C9  UNL     1     -35.352  14.518  -5.024  1.00 20.00     0.091 C 
HETATM   11  O11 UNL     1     -33.215  13.893  -4.151  1.00 20.00    -0.298 OA
ENDBRANCH   6   9
TORSDOF 1
ENDMDL
MODEL 7
REMARK VINA RESULT:      -3.7     12.111     13.801
REMARK  1 active torsions:
REMARK  status: ('A' for Active; 'I' for Inactive)
REMARK    1  A    between atoms: C3_3  and  C7_7 
ROOT
HETATM    1  C1  UNL     1     -33.759  15.167  -3.641  1.00 20.00    -0.020 C 
HETATM    2  C2  UNL     1     -33.689  16.490  -3.413  1.00 20.00    -0.086 C 
HETATM    3  C4  UNL     1     -34.140  17.506  -4.432  1.00 20.00     0.045 C 
HETATM    4  C5  UNL     1     -34.356  15.589  -6.062  1.00 20.00     0.020 C 
HETATM    5  C6  UNL     1     -34.254  14.556  -4.926  1.00 20.00     0.005 C 
HETATM    6  C7  UNL     1     -34.960  16.909  -5.582  1.00 20.00     0.059 C 
HETATM    7  C8  UNL     1     -33.150  17.042  -2.125  1.00 20.00     0.043 C 
HETATM    8  C10 UNL     1     -35.592  13.853  -4.683  1.00 20.00     0.014 C 
ENDROOT
BRANCH   6   9
HETATM    9  C3  UNL     1     -35.035  17.887  -6.717  1.00 20.00     0.127 C 
HETATM   10  C9  UNL     1     -34.163  17.607  -7.911  1.00 20.00     0.091 C 
HETATM   11  O11 UNL     1     -35.775  18.869  -6.675  1.00 20.00    -0.298 OA
ENDBRANCH   6   9
TORSDOF 1
ENDMDL
MODEL 8
REMARK VINA RESULT:      -3.6     11.956     13.448
REMARK  1 active torsions:
REMARK  status: ('A' for Active; 'I' for Inactive)
REMARK    1  A    between atoms: C3_3  and  C7_7 
ROOT
HETATM    1  C1  UNL     1     -34.483  18.743  -2.983  1.00 20.00    -0.020 C 
HETATM    2  C2  UNL     1     -35.254  18.364  -4.016  1.00 20.00    -0.086 C 
HETATM    3  C4  UNL     1     -35.092  17.025  -4.691  1.00 20.00     0.045 C 
HETATM    4  C5  UNL     1     -32.986  16.734  -3.328  1.00 20.00     0.020 C 
HETATM    5  C6  UNL     1     -33.368  17.907  -2.409  1.00 20.00     0.005 C 
HETATM    6  C7  UNL     1     -34.217  16.038  -3.909  1.00 20.00     0.059 C 
HETATM    7  C8  UNL     1     -36.327  19.256  -4.571  1.00 20.00     0.043 C 
HETATM    8  C10 UNL     1     -33.752  17.423  -1.009  1.00 20.00     0.014 C 
ENDROOT
BRANCH   6   9
HETATM    9  C3  UNL     1     -33.798  14.907  -4.802  1.00 20.00     0.127 C 
HETATM   10  C9  UNL     1     -34.019  15.093  -6.278  1.00 20.00     0.091 C 
HETATM   11  O11 UNL     1     -33.298  13.879  -4.349  1.00 20.00    -0.298 OA
ENDBRANCH   6   9
TORSDOF 1
ENDMDL
MODEL 9
REMARK VINA RESULT:      -3.5     12.037     13.789
REMARK  1 active torsions:
REMARK  status: ('A' for Active; 'I' for Inactive)
REMARK    1  A    between atoms: C3_3  and  C7_7 
ROOT
HETATM    1  C1  UNL     1     -33.280  16.186  -2.944  1.00 20.00    -0.020 C 
HETATM    2  C2  UNL     1     -33.798  17.298  -2.396  1.00 20.00    -0.086 C 
HETATM    3  C4  UNL     1     -34.793  18.165  -3.125  1.00 20.00     0.045 C 
HETATM    4  C5  UNL     1     -34.310  16.774  -5.177  1.00 20.00     0.020 C 
HETATM    5  C6  UNL     1     -33.599  15.701  -4.335  1.00 20.00     0.005 C 
HETATM    6  C7  UNL     1     -35.387  17.508  -4.377  1.00 20.00     0.059 C 
HETATM    7  C8  UNL     1     -33.413  17.753  -1.017  1.00 20.00     0.043 C 
HETATM    8  C10 UNL     1     -34.418  14.411  -4.258  1.00 20.00     0.014 C 
ENDROOT
BRANCH   6   9
HETATM    9  C3  UNL     1     -36.049  18.547  -5.234  1.00 20.00     0.127 C 
HETATM   10  C9  UNL     1     -35.296  18.998  -6.456  1.00 20.00     0.091 C 
HETATM   11  O11 UNL     1     -37.155  19.007  -4.952  1.00 20.00    -0.298 OA
ENDBRANCH   6   9
TORSDOF 1
ENDMDL
