MODEL 1
REMARK VINA RESULT:      -4.7      0.000      0.000
REMARK  2 active torsions:
REMARK  status: ('A' for Active; 'I' for Inactive)
REMARK    1  A    between atoms: C1_1  and  C6_6 
REMARK    2  A    between atoms: C7_7  and  C9_9 
ROOT
HETATM    1  C2  UNL     1     -32.187   8.389   4.507  1.00 20.00     0.012 C 
HETATM    2  C3  UNL     1     -32.860   6.227   3.327  1.00 20.00     0.012 C 
HETATM    3  C4  UNL     1     -33.625   8.547   5.004  1.00 20.00     0.005 C 
HETATM    4  C5  UNL     1     -34.290   6.415   3.835  1.00 20.00     0.005 C 
HETATM    5  C6  UNL     1     -32.062   7.525   3.256  1.00 20.00     0.047 C 
HETATM    6  C7  UNL     1     -34.368   7.212   5.143  1.00 20.00    -0.015 C 
ENDROOT
BRANCH   5   7
HETATM    7  C1  UNL     1     -32.523   8.319   2.044  1.00 20.00     0.235 C 
HETATM    8  O10 UNL     1     -32.067   8.155   0.916  1.00 20.00    -0.306 OA
ENDBRANCH   5   7
BRANCH   6   9
HETATM    9  C9  UNL     1     -33.858   6.399   6.336  1.00 20.00     0.000 C 
HETATM   10  C8  UNL     1     -34.528   5.068   6.421  1.00 20.00     0.005 C 
ENDBRANCH   6   9
TORSDOF 2
ENDMDL
MODEL 2
REMARK VINA RESULT:      -4.5      2.187      4.094
REMARK  2 active torsions:
REMARK  status: ('A' for Active; 'I' for Inactive)
REMARK    1  A    between atoms: C1_1  and  C6_6 
REMARK    2  A    between atoms: C7_7  and  C9_9 
ROOT
HETATM    1  C2  UNL     1     -33.710   8.391   5.243  1.00 20.00     0.012 C 
HETATM    2  C3  UNL     1     -34.208   6.321   3.835  1.00 20.00     0.012 C 
HETATM    3  C4  UNL     1     -32.268   8.373   4.731  1.00 20.00     0.005 C 
HETATM    4  C5  UNL     1     -32.759   6.326   3.345  1.00 20.00     0.005 C 
HETATM    5  C6  UNL     1     -34.403   7.035   5.168  1.00 20.00     0.047 C 
HETATM    6  C7  UNL     1     -32.124   7.722   3.350  1.00 20.00    -0.015 C 
ENDROOT
BRANCH   5   7
HETATM    7  C1  UNL     1     -33.890   6.140   6.285  1.00 20.00     0.235 C 
HETATM    8  O10 UNL     1     -34.287   4.993   6.468  1.00 20.00    -0.306 OA
ENDBRANCH   5   7
BRANCH   6   9
HETATM    9  C9  UNL     1     -32.694   8.610   2.241  1.00 20.00     0.000 C 
HETATM   10  C8  UNL     1     -32.062   8.315   0.921  1.00 20.00     0.005 C 
ENDBRANCH   6   9
TORSDOF 2
ENDMDL
MODEL 3
REMARK VINA RESULT:      -4.1     11.574     12.634
REMARK  2 active torsions:
REMARK  status: ('A' for Active; 'I' for Inactive)
REMARK    1  A    between atoms: C1_1  and  C6_6 
REMARK    2  A    between atoms: C7_7  and  C9_9 
ROOT
HETATM    1  C2  UNL     1     -34.726  14.336  -4.454  1.00 20.00     0.012 C 
HETATM    2  C3  UNL     1     -35.559  16.711  -4.877  1.00 20.00     0.012 C 
HETATM    3  C4  UNL     1     -33.299  14.875  -4.334  1.00 20.00     0.005 C 
HETATM    4  C5  UNL     1     -34.122  17.219  -4.757  1.00 20.00     0.005 C 
HETATM    5  C6  UNL     1     -35.656  15.238  -5.258  1.00 20.00     0.047 C 
HETATM    6  C7  UNL     1     -33.239  16.334  -3.868  1.00 20.00    -0.015 C 
ENDROOT
BRANCH   5   7
HETATM    7  C1  UNL     1     -35.348  15.092  -6.739  1.00 20.00     0.235 C 
HETATM    8  O10 UNL     1     -35.989  14.367  -7.494  1.00 20.00    -0.306 OA
ENDBRANCH   5   7
BRANCH   6   9
HETATM    9  C9  UNL     1     -33.604  16.473  -2.388  1.00 20.00     0.000 C 
HETATM   10  C8  UNL     1     -32.925  17.646  -1.761  1.00 20.00     0.005 C 
ENDBRANCH   6   9
TORSDOF 2
ENDMDL
MODEL 4
REMARK VINA RESULT:      -3.5     11.757     12.814
REMARK  2 active torsions:
REMARK  status: ('A' for Active; 'I' for Inactive)
REMARK    1  A    between atoms: C1_1  and  C6_6 
REMARK    2  A    between atoms: C7_7  and  C9_9 
ROOT
HETATM    1  C2  UNL     1     -35.044  17.664  -4.161  1.00 20.00     0.012 C 
HETATM    2  C3  UNL     1     -33.444  16.473  -2.568  1.00 20.00     0.012 C 
HETATM    3  C4  UNL     1     -34.454  16.865  -5.325  1.00 20.00     0.005 C 
HETATM    4  C5  UNL     1     -32.872  15.694  -3.752  1.00 20.00     0.005 C 
HETATM    5  C6  UNL     1     -34.106  17.788  -2.965  1.00 20.00     0.047 C 
HETATM    6  C7  UNL     1     -33.874  15.512  -4.899  1.00 20.00    -0.015 C 
ENDROOT
BRANCH   5   7
HETATM    7  C1  UNL     1     -33.022  18.809  -3.275  1.00 20.00     0.235 C 
HETATM    8  O10 UNL     1     -32.236  19.236  -2.435  1.00 20.00    -0.306 OA
ENDBRANCH   5   7
BRANCH   6   9
HETATM    9  C9  UNL     1     -34.974  14.510  -4.538  1.00 20.00     0.000 C 
HETATM   10  C8  UNL     1     -36.008  14.418  -5.610  1.00 20.00     0.005 C 
ENDBRANCH   6   9
TORSDOF 2
ENDMDL
MODEL 5
REMARK VINA RESULT:      -3.4     11.990     13.289
REMARK  2 active torsions:
REMARK  status: ('A' for Active; 'I' for Inactive)
REMARK    1  A    between atoms: C1_1  and  C6_6 
REMARK    2  A    between atoms: C7_7  and  C9_9 
ROOT
HETATM    1  C2  UNL     1     -34.771  17.412  -6.287  1.00 20.00     0.012 C 
HETATM    2  C3  UNL     1     -33.898  15.014  -6.348  1.00 20.00     0.012 C 
HETATM    3  C4  UNL     1     -35.359  17.145  -4.899  1.00 20.00     0.005 C 
HETATM    4  C5  UNL     1     -34.502  14.776  -4.964  1.00 20.00     0.005 C 
HETATM    5  C6  UNL     1     -34.563  16.150  -7.117  1.00 20.00     0.047 C 
HETATM    6  C7  UNL     1     -34.611  16.054  -4.124  1.00 20.00    -0.015 C 
ENDROOT
BRANCH   5   7
HETATM    7  C1  UNL     1     -35.904  15.666  -7.647  1.00 20.00     0.235 C 
HETATM    8  O10 UNL     1     -36.140  14.492  -7.914  1.00 20.00    -0.306 OA
ENDBRANCH   5   7
BRANCH   6   9
HETATM    9  C9  UNL     1     -33.240  16.538  -3.643  1.00 20.00     0.000 C 
HETATM   10  C8  UNL     1     -33.279  16.971  -2.215  1.00 20.00     0.005 C 
ENDBRANCH   6   9
TORSDOF 2
ENDMDL
MODEL 6
REMARK VINA RESULT:      -3.4     11.418     12.887
REMARK  2 active torsions:
REMARK  status: ('A' for Active; 'I' for Inactive)
REMARK    1  A    between atoms: C1_1  and  C6_6 
REMARK    2  A    between atoms: C7_7  and  C9_9 
ROOT
HETATM    1  C2  UNL     1     -32.978  15.148  -4.020  1.00 20.00     0.012 C 
HETATM    2  C3  UNL     1     -34.048  17.417  -4.495  1.00 20.00     0.012 C 
HETATM    3  C4  UNL     1     -34.312  14.470  -4.339  1.00 20.00     0.005 C 
HETATM    4  C5  UNL     1     -35.369  16.711  -4.801  1.00 20.00     0.005 C 
HETATM    5  C6  UNL     1     -33.117  16.607  -3.598  1.00 20.00     0.047 C 
HETATM    6  C7  UNL     1     -35.185  15.276  -5.309  1.00 20.00    -0.015 C 
ENDROOT
BRANCH   5   7
HETATM    7  C1  UNL     1     -33.631  16.674  -2.169  1.00 20.00     0.235 C 
HETATM    8  O10 UNL     1     -33.191  17.454  -1.329  1.00 20.00    -0.306 OA
ENDBRANCH   5   7
BRANCH   6   9
HETATM    9  C9  UNL     1     -34.627  15.244  -6.735  1.00 20.00     0.000 C 
HETATM   10  C8  UNL     1     -35.672  15.589  -7.743  1.00 20.00     0.005 C 
ENDBRANCH   6   9
TORSDOF 2
ENDMDL
MODEL 7
REMARK VINA RESULT:      -3.4     11.577     12.861
REMARK  2 active torsions:
REMARK  status: ('A' for Active; 'I' for Inactive)
REMARK    1  A    between atoms: C1_1  and  C6_6 
REMARK    2  A    between atoms: C7_7  and  C9_9 
ROOT
HETATM    1  C2  UNL     1     -33.282  18.936  -3.663  1.00 20.00     0.012 C 
HETATM    2  C3  UNL     1     -33.195  16.463  -3.035  1.00 20.00     0.012 C 
HETATM    3  C4  UNL     1     -33.755  19.263  -2.245  1.00 20.00     0.005 C 
HETATM    4  C5  UNL     1     -33.674  16.821  -1.628  1.00 20.00     0.005 C 
HETATM    5  C6  UNL     1     -33.569  17.499  -4.088  1.00 20.00     0.047 C 
HETATM    6  C7  UNL     1     -33.289  18.242  -1.200  1.00 20.00    -0.015 C 
ENDROOT
BRANCH   5   7
HETATM    7  C1  UNL     1     -35.046  17.354  -4.418  1.00 20.00     0.235 C 
HETATM    8  O10 UNL     1     -35.461  16.804  -5.434  1.00 20.00    -0.306 OA
ENDBRANCH   5   7
BRANCH   6   9
HETATM    9  C9  UNL     1     -31.789  18.364  -0.917  1.00 20.00     0.000 C 
HETATM   10  C8  UNL     1     -31.519  19.258   0.247  1.00 20.00     0.005 C 
ENDBRANCH   6   9
TORSDOF 2
ENDMDL
MODEL 8
REMARK VINA RESULT:      -3.4     11.451     12.686
REMARK  2 active torsions:
REMARK  status: ('A' for Active; 'I' for Inactive)
REMARK    1  A    between atoms: C1_1  and  C6_6 
REMARK    2  A    between atoms: C7_7  and  C9_9 
ROOT
HETATM    1  C2  UNL     1     -34.538  17.037  -5.303  1.00 20.00     0.012 C 
HETATM    2  C3  UNL     1     -33.010  15.684  -3.769  1.00 20.00     0.012 C 
HETATM    3  C4  UNL     1     -35.139  17.722  -4.073  1.00 20.00     0.005 C 
HETATM    4  C5  UNL     1     -33.634  16.382  -2.560  1.00 20.00     0.005 C 
HETATM    5  C6  UNL     1     -33.908  15.681  -5.001  1.00 20.00     0.047 C 
HETATM    6  C7  UNL     1     -34.177  17.780  -2.881  1.00 20.00    -0.015 C 
ENDROOT
BRANCH   5   7
HETATM    7  C1  UNL     1     -35.003  14.644  -4.808  1.00 20.00     0.235 C 
HETATM    8  O10 UNL     1     -34.848  13.608  -4.169  1.00 20.00    -0.306 OA
ENDBRANCH   5   7
BRANCH   6   9
HETATM    9  C9  UNL     1     -33.048  18.789  -3.111  1.00 20.00     0.000 C 
HETATM   10  C8  UNL     1     -32.291  19.064  -1.854  1.00 20.00     0.005 C 
ENDBRANCH   6   9
TORSDOF 2
ENDMDL
MODEL 9
REMARK VINA RESULT:      -3.3     11.792     12.931
REMARK  2 active torsions:
REMARK  status: ('A' for Active; 'I' for Inactive)
REMARK    1  A    between atoms: C1_1  and  C6_6 
REMARK    2  A    between atoms: C7_7  and  C9_9 
ROOT
HETATM    1  C2  UNL     1     -34.409  15.202  -4.509  1.00 20.00     0.012 C 
HETATM    2  C3  UNL     1     -35.045  17.670  -4.655  1.00 20.00     0.012 C 
HETATM    3  C4  UNL     1     -33.029  15.606  -3.983  1.00 20.00     0.005 C 
HETATM    4  C5  UNL     1     -33.658  18.042  -4.133  1.00 20.00     0.005 C 
HETATM    5  C6  UNL     1     -35.101  16.297  -5.315  1.00 20.00     0.047 C 
HETATM    6  C7  UNL     1     -33.030  16.954  -3.252  1.00 20.00    -0.015 C 
ENDROOT
BRANCH   5   7
HETATM    7  C1  UNL     1     -34.467  16.388  -6.694  1.00 20.00     0.235 C 
HETATM    8  O10 UNL     1     -34.923  15.826  -7.685  1.00 20.00    -0.306 OA
ENDBRANCH   5   7
BRANCH   6   9
HETATM    9  C9  UNL     1     -33.719  16.860  -1.888  1.00 20.00     0.000 C 
HETATM   10  C8  UNL     1     -33.189  17.878  -0.933  1.00 20.00     0.005 C 
ENDBRANCH   6   9
TORSDOF 2
ENDMDL
