MODEL 1
REMARK VINA RESULT:      -5.4      0.000      0.000
REMARK  1 active torsions:
REMARK  status: ('A' for Active; 'I' for Inactive)
REMARK    1  A    between atoms: C8_8  and  C9_9 
ROOT
HETATM    1  C1  UNL     1     -32.744   9.127   1.515  1.00 20.00     0.218 C 
HETATM    2  C8  UNL     1     -32.938   8.976   2.793  1.00 20.00     0.044 C 
HETATM    3  O10 UNL     1     -32.569   9.264   0.360  1.00 20.00    -0.284 OA
ENDROOT
BRANCH   2   4
HETATM    4  C9  UNL     1     -32.304   7.907   3.636  1.00 20.00     0.057 C 
HETATM    5  C6  UNL     1     -32.731   8.026   5.077  1.00 20.00    -0.014 C 
HETATM    6  C4  UNL     1     -33.675   7.353   5.748  1.00 20.00    -0.003 C 
HETATM    7  C2  UNL     1     -34.591   6.372   5.229  1.00 20.00    -0.000 C 
HETATM    8  C3  UNL     1     -34.440   5.605   4.143  1.00 20.00    -0.000 C 
HETATM    9  C5  UNL     1     -33.325   5.575   3.232  1.00 20.00    -0.003 C 
HETATM   10  C7  UNL     1     -32.439   6.553   2.992  1.00 20.00    -0.014 C 
ENDBRANCH   2   4
TORSDOF 1
ENDMDL
MODEL 2
REMARK VINA RESULT:      -4.7      1.264      2.461
REMARK  1 active torsions:
REMARK  status: ('A' for Active; 'I' for Inactive)
REMARK    1  A    between atoms: C8_8  and  C9_9 
ROOT
HETATM    1  C1  UNL     1     -32.168   7.830   2.318  1.00 20.00     0.218 C 
HETATM    2  C8  UNL     1     -32.453   7.628   3.571  1.00 20.00     0.044 C 
HETATM    3  O10 UNL     1     -31.910   8.013   1.185  1.00 20.00    -0.284 OA
ENDROOT
BRANCH   2   4
HETATM    4  C9  UNL     1     -33.831   7.707   4.161  1.00 20.00     0.057 C 
HETATM    5  C6  UNL     1     -34.662   6.512   3.769  1.00 20.00    -0.014 C 
HETATM    6  C4  UNL     1     -34.931   5.394   4.456  1.00 20.00    -0.003 C 
HETATM    7  C2  UNL     1     -34.422   5.013   5.747  1.00 20.00    -0.000 C 
HETATM    8  C3  UNL     1     -33.960   5.814   6.715  1.00 20.00    -0.000 C 
HETATM    9  C5  UNL     1     -33.863   7.251   6.698  1.00 20.00    -0.003 C 
HETATM   10  C7  UNL     1     -33.778   8.052   5.626  1.00 20.00    -0.014 C 
ENDBRANCH   2   4
TORSDOF 1
ENDMDL
MODEL 3
REMARK VINA RESULT:      -4.4      2.075      3.021
REMARK  1 active torsions:
REMARK  status: ('A' for Active; 'I' for Inactive)
REMARK    1  A    between atoms: C8_8  and  C9_9 
ROOT
HETATM    1  C1  UNL     1     -32.621   5.726   2.684  1.00 20.00     0.218 C 
HETATM    2  C8  UNL     1     -32.647   6.919   3.203  1.00 20.00     0.044 C 
HETATM    3  O10 UNL     1     -32.599   4.648   2.215  1.00 20.00    -0.284 OA
ENDROOT
BRANCH   2   4
HETATM    4  C9  UNL     1     -33.784   7.481   4.005  1.00 20.00     0.057 C 
HETATM    5  C6  UNL     1     -35.006   6.604   3.909  1.00 20.00    -0.014 C 
HETATM    6  C4  UNL     1     -35.465   5.680   4.763  1.00 20.00    -0.003 C 
HETATM    7  C2  UNL     1     -34.851   5.231   5.985  1.00 20.00    -0.000 C 
HETATM    8  C3  UNL     1     -33.979   5.893   6.755  1.00 20.00    -0.000 C 
HETATM    9  C5  UNL     1     -33.446   7.215   6.546  1.00 20.00    -0.003 C 
HETATM   10  C7  UNL     1     -33.333   7.878   5.387  1.00 20.00    -0.014 C 
ENDBRANCH   2   4
TORSDOF 1
ENDMDL
MODEL 4
REMARK VINA RESULT:      -4.2     11.095     12.383
REMARK  1 active torsions:
REMARK  status: ('A' for Active; 'I' for Inactive)
REMARK    1  A    between atoms: C8_8  and  C9_9 
ROOT
HETATM    1  C1  UNL     1     -31.616  18.822  -0.868  1.00 20.00     0.218 C 
HETATM    2  C8  UNL     1     -32.771  19.043  -1.424  1.00 20.00     0.044 C 
HETATM    3  O10 UNL     1     -30.571  18.623  -0.365  1.00 20.00    -0.284 OA
ENDROOT
BRANCH   2   4
HETATM    4  C9  UNL     1     -33.900  18.055  -1.478  1.00 20.00     0.057 C 
HETATM    5  C6  UNL     1     -35.112  18.649  -2.148  1.00 20.00    -0.014 C 
HETATM    6  C4  UNL     1     -35.545  18.515  -3.409  1.00 20.00    -0.003 C 
HETATM    7  C2  UNL     1     -34.903  17.810  -4.487  1.00 20.00    -0.000 C 
HETATM    8  C3  UNL     1     -34.026  16.803  -4.400  1.00 20.00    -0.000 C 
HETATM    9  C5  UNL     1     -33.513  16.182  -3.206  1.00 20.00    -0.003 C 
HETATM   10  C7  UNL     1     -33.430  16.715  -1.978  1.00 20.00    -0.014 C 
ENDBRANCH   2   4
TORSDOF 1
ENDMDL
MODEL 5
REMARK VINA RESULT:      -4.0     10.917     12.102
REMARK  1 active torsions:
REMARK  status: ('A' for Active; 'I' for Inactive)
REMARK    1  A    between atoms: C8_8  and  C9_9 
ROOT
HETATM    1  C1  UNL     1     -35.937  13.917  -4.911  1.00 20.00     0.218 C 
HETATM    2  C8  UNL     1     -35.842  15.014  -5.604  1.00 20.00     0.044 C 
HETATM    3  O10 UNL     1     -36.023  12.925  -4.285  1.00 20.00    -0.284 OA
ENDROOT
BRANCH   2   4
HETATM    4  C9  UNL     1     -34.588  15.824  -5.760  1.00 20.00     0.057 C 
HETATM    5  C6  UNL     1     -34.850  17.287  -5.509  1.00 20.00    -0.014 C 
HETATM    6  C4  UNL     1     -34.637  18.018  -4.407  1.00 20.00    -0.003 C 
HETATM    7  C2  UNL     1     -34.159  17.561  -3.129  1.00 20.00    -0.000 C 
HETATM    8  C3  UNL     1     -33.423  16.472  -2.871  1.00 20.00    -0.000 C 
HETATM    9  C5  UNL     1     -32.934  15.497  -3.811  1.00 20.00    -0.003 C 
HETATM   10  C7  UNL     1     -33.437  15.198  -5.017  1.00 20.00    -0.014 C 
ENDBRANCH   2   4
TORSDOF 1
ENDMDL
MODEL 6
REMARK VINA RESULT:      -4.0      2.119      3.120
REMARK  1 active torsions:
REMARK  status: ('A' for Active; 'I' for Inactive)
REMARK    1  A    between atoms: C8_8  and  C9_9 
ROOT
HETATM    1  C1  UNL     1     -32.091   8.832   4.750  1.00 20.00     0.218 C 
HETATM    2  C8  UNL     1     -32.527   7.805   4.081  1.00 20.00     0.044 C 
HETATM    3  O10 UNL     1     -31.698   9.761   5.355  1.00 20.00    -0.284 OA
ENDROOT
BRANCH   2   4
HETATM    4  C9  UNL     1     -33.927   7.270   4.145  1.00 20.00     0.057 C 
HETATM    5  C6  UNL     1     -34.019   5.906   3.509  1.00 20.00    -0.014 C 
HETATM    6  C4  UNL     1     -34.020   4.694   4.080  1.00 20.00    -0.003 C 
HETATM    7  C2  UNL     1     -33.857   4.381   5.475  1.00 20.00    -0.000 C 
HETATM    8  C3  UNL     1     -34.110   5.169   6.527  1.00 20.00    -0.000 C 
HETATM    9  C5  UNL     1     -34.606   6.521   6.516  1.00 20.00    -0.003 C 
HETATM   10  C7  UNL     1     -34.506   7.421   5.527  1.00 20.00    -0.014 C 
ENDBRANCH   2   4
TORSDOF 1
ENDMDL
MODEL 7
REMARK VINA RESULT:      -3.9      9.430     10.623
REMARK  1 active torsions:
REMARK  status: ('A' for Active; 'I' for Inactive)
REMARK    1  A    between atoms: C8_8  and  C9_9 
ROOT
HETATM    1  C1  UNL     1     -43.410   4.427  -0.680  1.00 20.00     0.218 C 
HETATM    2  C8  UNL     1     -43.417   4.547   0.615  1.00 20.00     0.044 C 
HETATM    3  O10 UNL     1     -43.403   4.320  -1.851  1.00 20.00    -0.284 OA
ENDROOT
BRANCH   2   4
HETATM    4  C9  UNL     1     -42.627   5.563   1.387  1.00 20.00     0.057 C 
HETATM    5  C6  UNL     1     -41.233   5.707   0.833  1.00 20.00    -0.014 C 
HETATM    6  C4  UNL     1     -40.734   6.630  -0.001  1.00 20.00    -0.003 C 
HETATM    7  C2  UNL     1     -41.443   7.702  -0.649  1.00 20.00    -0.000 C 
HETATM    8  C3  UNL     1     -42.581   8.287  -0.257  1.00 20.00    -0.000 C 
HETATM    9  C5  UNL     1     -43.371   7.984   0.909  1.00 20.00    -0.003 C 
HETATM   10  C7  UNL     1     -43.417   6.830   1.589  1.00 20.00    -0.014 C 
ENDBRANCH   2   4
TORSDOF 1
ENDMDL
MODEL 8
REMARK VINA RESULT:      -3.8     11.040     12.034
REMARK  1 active torsions:
REMARK  status: ('A' for Active; 'I' for Inactive)
REMARK    1  A    between atoms: C8_8  and  C9_9 
ROOT
HETATM    1  C1  UNL     1     -33.304  17.766  -1.027  1.00 20.00     0.218 C 
HETATM    2  C8  UNL     1     -33.670  16.903  -1.929  1.00 20.00     0.044 C 
HETATM    3  O10 UNL     1     -32.973  18.546  -0.212  1.00 20.00    -0.284 OA
ENDROOT
BRANCH   2   4
HETATM    4  C9  UNL     1     -33.155  16.864  -3.339  1.00 20.00     0.057 C 
HETATM    5  C6  UNL     1     -32.917  15.447  -3.794  1.00 20.00    -0.014 C 
HETATM    6  C4  UNL     1     -33.690  14.648  -4.542  1.00 20.00    -0.003 C 
HETATM    7  C2  UNL     1     -35.007  14.926  -5.051  1.00 20.00    -0.000 C 
HETATM    8  C3  UNL     1     -35.559  16.122  -5.285  1.00 20.00    -0.000 C 
HETATM    9  C5  UNL     1     -34.969  17.420  -5.084  1.00 20.00    -0.003 C 
HETATM   10  C7  UNL     1     -33.976  17.745  -4.244  1.00 20.00    -0.014 C 
ENDBRANCH   2   4
TORSDOF 1
ENDMDL
MODEL 9
REMARK VINA RESULT:      -3.8     11.215     12.557
REMARK  1 active torsions:
REMARK  status: ('A' for Active; 'I' for Inactive)
REMARK    1  A    between atoms: C8_8  and  C9_9 
ROOT
HETATM    1  C1  UNL     1     -35.722  14.864  -6.162  1.00 20.00     0.218 C 
HETATM    2  C8  UNL     1     -35.413  15.584  -5.124  1.00 20.00     0.044 C 
HETATM    3  O10 UNL     1     -36.001  14.214  -7.102  1.00 20.00    -0.284 OA
ENDROOT
BRANCH   2   4
HETATM    4  C9  UNL     1     -34.144  16.371  -4.971  1.00 20.00     0.057 C 
HETATM    5  C6  UNL     1     -34.391  17.846  -5.154  1.00 20.00    -0.014 C 
HETATM    6  C4  UNL     1     -34.555  18.807  -4.234  1.00 20.00    -0.003 C 
HETATM    7  C2  UNL     1     -34.607  18.653  -2.804  1.00 20.00    -0.000 C 
HETATM    8  C3  UNL     1     -34.085  17.666  -2.066  1.00 20.00    -0.000 C 
HETATM    9  C5  UNL     1     -33.344  16.520  -2.526  1.00 20.00    -0.003 C 
HETATM   10  C7  UNL     1     -33.386  15.951  -3.739  1.00 20.00    -0.014 C 
ENDBRANCH   2   4
TORSDOF 1
ENDMDL
