MODEL 1
REMARK VINA RESULT:      -3.3      0.000      0.000
REMARK  1 active torsions:
REMARK  status: ('A' for Active; 'I' for Inactive)
REMARK    1  A    between atoms: C3_3  and  C7_7 
ROOT
HETATM    1  C1  UNL     1     -35.228  17.847  -5.168  1.00 20.00     0.346 C 
HETATM    2  C2  UNL     1     -33.984  15.894  -4.680  1.00 20.00     0.233 C 
HETATM    3  C3  UNL     1     -33.245  16.858  -3.724  1.00 20.00     0.081 C 
HETATM    4  C4  UNL     1     -33.955  14.448  -4.182  1.00 20.00     0.044 C 
HETATM    5  C6  UNL     1     -36.158  15.723  -5.821  1.00 20.00     0.311 C 
HETATM    6  N8  UNL     1     -35.356  16.426  -4.827  1.00 20.00     0.098 N 
HETATM    7  S9  UNL     1     -33.776  18.502  -4.302  1.00 20.00    -0.132 SA
ENDROOT
BRANCH   3   8
HETATM    8  C7  UNL     1     -33.603  16.722  -2.246  1.00 20.00     0.013 C 
HETATM    9  C5  UNL     1     -32.925  17.761  -1.415  1.00 20.00     0.006 C 
ENDBRANCH   3   8
TORSDOF 1
ENDMDL
MODEL 2
REMARK VINA RESULT:      -3.2     12.438     13.445
REMARK  1 active torsions:
REMARK  status: ('A' for Active; 'I' for Inactive)
REMARK    1  A    between atoms: C3_3  and  C7_7 
ROOT
HETATM    1  C1  UNL     1     -33.729   5.788   3.154  1.00 20.00     0.346 C 
HETATM    2  C2  UNL     1     -33.460   7.861   4.260  1.00 20.00     0.233 C 
HETATM    3  C3  UNL     1     -34.411   7.200   5.283  1.00 20.00     0.081 C 
HETATM    4  C4  UNL     1     -32.534   8.890   4.911  1.00 20.00     0.044 C 
HETATM    5  C6  UNL     1     -31.886   7.190   2.491  1.00 20.00     0.311 C 
HETATM    6  N8  UNL     1     -32.727   6.759   3.603  1.00 20.00     0.098 N 
HETATM    7  S9  UNL     1     -35.077   5.773   4.367  1.00 20.00    -0.132 SA
ENDROOT
BRANCH   3   8
HETATM    8  C7  UNL     1     -33.751   6.692   6.563  1.00 20.00     0.013 C 
HETATM    9  C5  UNL     1     -34.016   5.238   6.782  1.00 20.00     0.006 C 
ENDBRANCH   3   8
TORSDOF 1
ENDMDL
MODEL 3
REMARK VINA RESULT:      -3.1     11.488     12.660
REMARK  1 active torsions:
REMARK  status: ('A' for Active; 'I' for Inactive)
REMARK    1  A    between atoms: C3_3  and  C7_7 
ROOT
HETATM    1  C1  UNL     1     -33.985   5.791   4.222  1.00 20.00     0.346 C 
HETATM    2  C2  UNL     1     -32.509   7.604   4.582  1.00 20.00     0.233 C 
HETATM    3  C3  UNL     1     -32.221   7.394   3.078  1.00 20.00     0.081 C 
HETATM    4  C4  UNL     1     -32.295   9.055   5.016  1.00 20.00     0.044 C 
HETATM    5  C6  UNL     1     -34.284   7.112   6.214  1.00 20.00     0.311 C 
HETATM    6  N8  UNL     1     -33.891   7.131   4.809  1.00 20.00     0.098 N 
HETATM    7  S9  UNL     1     -32.934   5.752   2.744  1.00 20.00    -0.132 SA
ENDROOT
BRANCH   3   8
HETATM    8  C7  UNL     1     -32.868   8.407   2.136  1.00 20.00     0.013 C 
HETATM    9  C5  UNL     1     -32.151   8.481   0.828  1.00 20.00     0.006 C 
ENDBRANCH   3   8
TORSDOF 1
ENDMDL
MODEL 4
REMARK VINA RESULT:      -3.1      1.030      1.057
REMARK  1 active torsions:
REMARK  status: ('A' for Active; 'I' for Inactive)
REMARK    1  A    between atoms: C3_3  and  C7_7 
ROOT
HETATM    1  C1  UNL     1     -36.201  17.927  -4.560  1.00 20.00     0.346 C 
HETATM    2  C2  UNL     1     -34.506  16.517  -5.414  1.00 20.00     0.233 C 
HETATM    3  C3  UNL     1     -33.692  17.148  -4.261  1.00 20.00     0.081 C 
HETATM    4  C4  UNL     1     -34.023  15.107  -5.759  1.00 20.00     0.044 C 
HETATM    5  C6  UNL     1     -36.857  16.134  -6.028  1.00 20.00     0.311 C 
HETATM    6  N8  UNL     1     -35.921  16.554  -4.992  1.00 20.00     0.098 N 
HETATM    7  S9  UNL     1     -34.702  18.586  -3.782  1.00 20.00    -0.132 SA
ENDROOT
BRANCH   3   8
HETATM    8  C7  UNL     1     -33.492  16.262  -3.034  1.00 20.00     0.013 C 
HETATM    9  C5  UNL     1     -33.530  17.055  -1.768  1.00 20.00     0.006 C 
ENDBRANCH   3   8
TORSDOF 1
ENDMDL
MODEL 5
REMARK VINA RESULT:      -3.0     13.669     14.628
REMARK  1 active torsions:
REMARK  status: ('A' for Active; 'I' for Inactive)
REMARK    1  A    between atoms: C3_3  and  C7_7 
ROOT
HETATM    1  C1  UNL     1     -43.417   5.583   2.027  1.00 20.00     0.346 C 
HETATM    2  C2  UNL     1     -43.300   5.329  -0.322  1.00 20.00     0.233 C 
HETATM    3  C3  UNL     1     -42.847   6.805  -0.248  1.00 20.00     0.081 C 
HETATM    4  C4  UNL     1     -42.715   4.603  -1.535  1.00 20.00     0.044 C 
HETATM    5  C6  UNL     1     -43.399   3.346   1.133  1.00 20.00     0.311 C 
HETATM    6  N8  UNL     1     -42.911   4.710   0.963  1.00 20.00     0.098 N 
HETATM    7  S9  UNL     1     -43.313   7.297   1.442  1.00 20.00    -0.132 SA
ENDROOT
BRANCH   3   8
HETATM    8  C7  UNL     1     -41.350   7.044  -0.430  1.00 20.00     0.013 C 
HETATM    9  C5  UNL     1     -40.774   7.825   0.706  1.00 20.00     0.006 C 
ENDBRANCH   3   8
TORSDOF 1
ENDMDL
MODEL 6
REMARK VINA RESULT:      -3.0     11.553     12.602
REMARK  1 active torsions:
REMARK  status: ('A' for Active; 'I' for Inactive)
REMARK    1  A    between atoms: C3_3  and  C7_7 
ROOT
HETATM    1  C1  UNL     1     -32.549   9.006   3.504  1.00 20.00     0.346 C 
HETATM    2  C2  UNL     1     -32.466   6.650   3.303  1.00 20.00     0.233 C 
HETATM    3  C3  UNL     1     -33.157   6.719   4.684  1.00 20.00     0.081 C 
HETATM    4  C4  UNL     1     -32.842   5.386   2.529  1.00 20.00     0.044 C 
HETATM    5  C6  UNL     1     -32.143   8.072   1.321  1.00 20.00     0.311 C 
HETATM    6  N8  UNL     1     -32.834   7.893   2.593  1.00 20.00     0.098 N 
HETATM    7  S9  UNL     1     -32.892   8.447   5.195  1.00 20.00    -0.132 SA
ENDROOT
BRANCH   3   8
HETATM    8  C7  UNL     1     -34.658   6.436   4.683  1.00 20.00     0.013 C 
HETATM    9  C5  UNL     1     -35.010   5.318   5.609  1.00 20.00     0.006 C 
ENDBRANCH   3   8
TORSDOF 1
ENDMDL
MODEL 7
REMARK VINA RESULT:      -2.9      1.892      3.711
REMARK  1 active torsions:
REMARK  status: ('A' for Active; 'I' for Inactive)
REMARK    1  A    between atoms: C3_3  and  C7_7 
ROOT
HETATM    1  C1  UNL     1     -33.476  16.271  -3.445  1.00 20.00     0.346 C 
HETATM    2  C2  UNL     1     -34.461  16.987  -5.473  1.00 20.00     0.233 C 
HETATM    3  C3  UNL     1     -34.541  15.464  -5.727  1.00 20.00     0.081 C 
HETATM    4  C4  UNL     1     -35.572  17.753  -6.194  1.00 20.00     0.044 C 
HETATM    5  C6  UNL     1     -34.273  18.541  -3.575  1.00 20.00     0.311 C 
HETATM    6  N8  UNL     1     -34.494  17.165  -4.007  1.00 20.00     0.098 N 
HETATM    7  S9  UNL     1     -33.419  14.775  -4.468  1.00 20.00    -0.132 SA
ENDROOT
BRANCH   3   8
HETATM    8  C7  UNL     1     -35.921  14.838  -5.544  1.00 20.00     0.013 C 
HETATM    9  C5  UNL     1     -35.878  13.664  -4.622  1.00 20.00     0.006 C 
ENDBRANCH   3   8
TORSDOF 1
ENDMDL
MODEL 8
REMARK VINA RESULT:      -2.8      1.815      2.535
REMARK  1 active torsions:
REMARK  status: ('A' for Active; 'I' for Inactive)
REMARK    1  A    between atoms: C3_3  and  C7_7 
ROOT
HETATM    1  C1  UNL     1     -34.028  15.130  -6.309  1.00 20.00     0.346 C 
HETATM    2  C2  UNL     1     -35.258  16.744  -5.094  1.00 20.00     0.233 C 
HETATM    3  C3  UNL     1     -34.421  16.190  -3.918  1.00 20.00     0.081 C 
HETATM    4  C4  UNL     1     -35.654  18.207  -4.884  1.00 20.00     0.044 C 
HETATM    5  C6  UNL     1     -35.153  16.862  -7.549  1.00 20.00     0.311 C 
HETATM    6  N8  UNL     1     -34.450  16.534  -6.313  1.00 20.00     0.098 N 
HETATM    7  S9  UNL     1     -33.746  14.636  -4.587  1.00 20.00    -0.132 SA
ENDROOT
BRANCH   3   8
HETATM    8  C7  UNL     1     -33.258  17.071  -3.466  1.00 20.00     0.013 C 
HETATM    9  C5  UNL     1     -33.204  17.191  -1.978  1.00 20.00     0.006 C 
ENDBRANCH   3   8
TORSDOF 1
ENDMDL
MODEL 9
REMARK VINA RESULT:      -2.8      1.394      2.708
REMARK  1 active torsions:
REMARK  status: ('A' for Active; 'I' for Inactive)
REMARK    1  A    between atoms: C3_3  and  C7_7 
ROOT
HETATM    1  C1  UNL     1     -34.556  16.229  -5.860  1.00 20.00     0.346 C 
HETATM    2  C2  UNL     1     -33.577  16.967  -3.837  1.00 20.00     0.233 C 
HETATM    3  C3  UNL     1     -34.376  18.250  -4.164  1.00 20.00     0.081 C 
HETATM    4  C4  UNL     1     -33.375  16.779  -2.333  1.00 20.00     0.044 C 
HETATM    5  C6  UNL     1     -33.617  14.569  -4.389  1.00 20.00     0.311 C 
HETATM    6  N8  UNL     1     -34.313  15.849  -4.465  1.00 20.00     0.098 N 
HETATM    7  S9  UNL     1     -34.829  18.021  -5.913  1.00 20.00    -0.132 SA
ENDROOT
BRANCH   3   8
HETATM    8  C7  UNL     1     -35.654  18.454  -3.353  1.00 20.00     0.013 C 
HETATM    9  C5  UNL     1     -36.853  18.582  -4.234  1.00 20.00     0.006 C 
ENDBRANCH   3   8
TORSDOF 1
ENDMDL
