MODEL 1
REMARK VINA RESULT:      -4.3      0.000      0.000
REMARK  1 active torsions:
REMARK  status: ('A' for Active; 'I' for Inactive)
REMARK    1  A    between atoms: C1_1  and  C3_3 
ROOT
HETATM    1  C1  UNL     1     -33.771   6.103   4.331  1.00 20.00    -0.007 C 
HETATM    2  C2  UNL     1     -33.598   7.168   5.129  1.00 20.00    -0.016 C 
HETATM    3  C4  UNL     1     -33.177   6.206   2.958  1.00 20.00     0.058 C 
HETATM    4  C5  UNL     1     -32.136   7.328   2.998  1.00 20.00     0.052 C 
HETATM    5  C6  UNL     1     -34.075   7.390   6.526  1.00 20.00     0.056 C 
HETATM    6  C7  UNL     1     -32.008   8.068   1.678  1.00 20.00     0.022 C 
HETATM    7  S9  UNL     1     -32.686   8.439   4.343  1.00 20.00    -0.129 SA
ENDROOT
BRANCH   1   8
HETATM    8  C3  UNL     1     -34.492   4.889   4.706  1.00 20.00     0.266 C 
HETATM    9  O8  UNL     1     -34.032   3.765   4.533  1.00 20.00    -0.302 OA
ENDBRANCH   1   8
TORSDOF 1
ENDMDL
MODEL 2
REMARK VINA RESULT:      -4.0      1.494      2.587
REMARK  1 active torsions:
REMARK  status: ('A' for Active; 'I' for Inactive)
REMARK    1  A    between atoms: C1_1  and  C3_3 
ROOT
HETATM    1  C1  UNL     1     -33.870   6.126   4.421  1.00 20.00    -0.007 C 
HETATM    2  C2  UNL     1     -33.119   6.013   3.316  1.00 20.00    -0.016 C 
HETATM    3  C4  UNL     1     -33.695   7.391   5.209  1.00 20.00     0.058 C 
HETATM    4  C5  UNL     1     -33.032   8.414   4.283  1.00 20.00     0.052 C 
HETATM    5  C6  UNL     1     -33.041   4.889   2.337  1.00 20.00     0.056 C 
HETATM    6  C7  UNL     1     -32.125   9.384   5.020  1.00 20.00     0.022 C 
HETATM    7  S9  UNL     1     -32.104   7.417   3.062  1.00 20.00    -0.129 SA
ENDROOT
BRANCH   1   8
HETATM    8  C3  UNL     1     -34.812   5.117   4.896  1.00 20.00     0.266 C 
HETATM    9  O8  UNL     1     -34.856   4.747   6.066  1.00 20.00    -0.302 OA
ENDBRANCH   1   8
TORSDOF 1
ENDMDL
MODEL 3
REMARK VINA RESULT:      -3.9      2.326      3.583
REMARK  1 active torsions:
REMARK  status: ('A' for Active; 'I' for Inactive)
REMARK    1  A    between atoms: C1_1  and  C3_3 
ROOT
HETATM    1  C1  UNL     1     -32.764   7.139   3.615  1.00 20.00    -0.007 C 
HETATM    2  C2  UNL     1     -32.755   8.000   4.644  1.00 20.00    -0.016 C 
HETATM    3  C4  UNL     1     -33.582   5.896   3.805  1.00 20.00     0.058 C 
HETATM    4  C5  UNL     1     -34.555   6.166   4.956  1.00 20.00     0.052 C 
HETATM    5  C6  UNL     1     -32.035   9.301   4.782  1.00 20.00     0.056 C 
HETATM    6  C7  UNL     1     -34.880   4.921   5.764  1.00 20.00     0.022 C 
HETATM    7  S9  UNL     1     -33.737   7.441   5.981  1.00 20.00    -0.129 SA
ENDROOT
BRANCH   1   8
HETATM    8  C3  UNL     1     -32.038   7.329   2.362  1.00 20.00     0.266 C 
HETATM    9  O8  UNL     1     -32.351   8.182   1.537  1.00 20.00    -0.302 OA
ENDBRANCH   1   8
TORSDOF 1
ENDMDL
MODEL 4
REMARK VINA RESULT:      -3.6     16.056     16.874
REMARK  1 active torsions:
REMARK  status: ('A' for Active; 'I' for Inactive)
REMARK    1  A    between atoms: C1_1  and  C3_3 
ROOT
HETATM    1  C1  UNL     1     -23.753  18.868   9.630  1.00 20.00    -0.007 C 
HETATM    2  C2  UNL     1     -22.797  18.514  10.502  1.00 20.00    -0.016 C 
HETATM    3  C4  UNL     1     -25.161  18.835  10.146  1.00 20.00     0.058 C 
HETATM    4  C5  UNL     1     -25.083  18.840  11.675  1.00 20.00     0.052 C 
HETATM    5  C6  UNL     1     -21.321  18.423  10.301  1.00 20.00     0.056 C 
HETATM    6  C7  UNL     1     -26.220  18.077  12.332  1.00 20.00     0.022 C 
HETATM    7  S9  UNL     1     -23.457  18.100  12.071  1.00 20.00    -0.129 SA
ENDROOT
BRANCH   1   8
HETATM    8  C3  UNL     1     -23.512  19.263   8.244  1.00 20.00     0.266 C 
HETATM    9  O8  UNL     1     -24.385  19.223   7.382  1.00 20.00    -0.302 OA
ENDBRANCH   1   8
TORSDOF 1
ENDMDL
MODEL 5
REMARK VINA RESULT:      -3.6      1.763      2.311
REMARK  1 active torsions:
REMARK  status: ('A' for Active; 'I' for Inactive)
REMARK    1  A    between atoms: C1_1  and  C3_3 
ROOT
HETATM    1  C1  UNL     1     -33.691   6.742   4.891  1.00 20.00    -0.007 C 
HETATM    2  C2  UNL     1     -32.871   7.668   4.373  1.00 20.00    -0.016 C 
HETATM    3  C4  UNL     1     -33.926   5.523   4.048  1.00 20.00     0.058 C 
HETATM    4  C5  UNL     1     -32.799   5.465   3.013  1.00 20.00     0.052 C 
HETATM    5  C6  UNL     1     -32.453   8.984   4.939  1.00 20.00     0.056 C 
HETATM    6  C7  UNL     1     -33.232   4.847   1.695  1.00 20.00     0.022 C 
HETATM    7  S9  UNL     1     -32.258   7.199   2.800  1.00 20.00    -0.129 SA
ENDROOT
BRANCH   1   8
HETATM    8  C3  UNL     1     -34.358   6.850   6.186  1.00 20.00     0.266 C 
HETATM    9  O8  UNL     1     -34.835   5.881   6.770  1.00 20.00    -0.302 OA
ENDBRANCH   1   8
TORSDOF 1
ENDMDL
MODEL 6
REMARK VINA RESULT:      -3.5     12.079     13.109
REMARK  1 active torsions:
REMARK  status: ('A' for Active; 'I' for Inactive)
REMARK    1  A    between atoms: C1_1  and  C3_3 
ROOT
HETATM    1  C1  UNL     1     -33.696  16.279  -3.706  1.00 20.00    -0.007 C 
HETATM    2  C2  UNL     1     -34.315  17.206  -4.451  1.00 20.00    -0.016 C 
HETATM    3  C4  UNL     1     -33.320  16.695  -2.315  1.00 20.00     0.058 C 
HETATM    4  C5  UNL     1     -34.157  17.930  -1.970  1.00 20.00     0.052 C 
HETATM    5  C6  UNL     1     -34.796  17.120  -5.862  1.00 20.00     0.056 C 
HETATM    6  C7  UNL     1     -33.441  18.893  -1.039  1.00 20.00     0.022 C 
HETATM    7  S9  UNL     1     -34.542  18.708  -3.579  1.00 20.00    -0.129 SA
ENDROOT
BRANCH   1   8
HETATM    8  C3  UNL     1     -33.367  14.930  -4.158  1.00 20.00     0.266 C 
HETATM    9  O8  UNL     1     -34.155  13.992  -4.079  1.00 20.00    -0.302 OA
ENDBRANCH   1   8
TORSDOF 1
ENDMDL
MODEL 7
REMARK VINA RESULT:      -3.5      2.620      3.181
REMARK  1 active torsions:
REMARK  status: ('A' for Active; 'I' for Inactive)
REMARK    1  A    between atoms: C1_1  and  C3_3 
ROOT
HETATM    1  C1  UNL     1     -33.024   7.392   4.576  1.00 20.00    -0.007 C 
HETATM    2  C2  UNL     1     -33.836   6.618   5.312  1.00 20.00    -0.016 C 
HETATM    3  C4  UNL     1     -32.559   6.809   3.274  1.00 20.00     0.058 C 
HETATM    4  C5  UNL     1     -33.510   5.659   2.929  1.00 20.00     0.052 C 
HETATM    5  C6  UNL     1     -34.449   6.890   6.645  1.00 20.00     0.056 C 
HETATM    6  C7  UNL     1     -32.831   4.535   2.164  1.00 20.00     0.022 C 
HETATM    7  S9  UNL     1     -34.163   5.082   4.537  1.00 20.00    -0.129 SA
ENDROOT
BRANCH   1   8
HETATM    8  C3  UNL     1     -32.571   8.726   4.960  1.00 20.00     0.266 C 
HETATM    9  O8  UNL     1     -32.198   9.561   4.142  1.00 20.00    -0.302 OA
ENDBRANCH   1   8
TORSDOF 1
ENDMDL
MODEL 8
REMARK VINA RESULT:      -3.5     16.076     16.161
REMARK  1 active torsions:
REMARK  status: ('A' for Active; 'I' for Inactive)
REMARK    1  A    between atoms: C1_1  and  C3_3 
ROOT
HETATM    1  C1  UNL     1     -23.580  17.762  10.497  1.00 20.00    -0.007 C 
HETATM    2  C2  UNL     1     -24.399  18.693   9.986  1.00 20.00    -0.016 C 
HETATM    3  C4  UNL     1     -22.398  17.390   9.651  1.00 20.00     0.058 C 
HETATM    4  C5  UNL     1     -22.202  18.512   8.628  1.00 20.00     0.052 C 
HETATM    5  C6  UNL     1     -25.655  19.262  10.557  1.00 20.00     0.056 C 
HETATM    6  C7  UNL     1     -21.640  18.020   7.306  1.00 20.00     0.022 C 
HETATM    7  S9  UNL     1     -23.858  19.261   8.421  1.00 20.00    -0.129 SA
ENDROOT
BRANCH   1   8
HETATM    8  C3  UNL     1     -23.770  17.100  11.785  1.00 20.00     0.266 C 
HETATM    9  O8  UNL     1     -24.472  16.102  11.921  1.00 20.00    -0.302 OA
ENDBRANCH   1   8
TORSDOF 1
ENDMDL
MODEL 9
REMARK VINA RESULT:      -3.3      1.743      2.083
REMARK  1 active torsions:
REMARK  status: ('A' for Active; 'I' for Inactive)
REMARK    1  A    between atoms: C1_1  and  C3_3 
ROOT
HETATM    1  C1  UNL     1     -33.455   6.124   3.964  1.00 20.00    -0.007 C 
HETATM    2  C2  UNL     1     -34.068   6.234   5.153  1.00 20.00    -0.016 C 
HETATM    3  C4  UNL     1     -32.640   7.307   3.532  1.00 20.00     0.058 C 
HETATM    4  C5  UNL     1     -32.361   8.146   4.782  1.00 20.00     0.052 C 
HETATM    5  C6  UNL     1     -34.957   5.260   5.852  1.00 20.00     0.056 C 
HETATM    6  C7  UNL     1     -32.262   9.633   4.491  1.00 20.00     0.022 C 
HETATM    7  S9  UNL     1     -33.741   7.773   5.923  1.00 20.00    -0.129 SA
ENDROOT
BRANCH   1   8
HETATM    8  C3  UNL     1     -33.541   4.960   3.087  1.00 20.00     0.266 C 
HETATM    9  O8  UNL     1     -32.749   4.760   2.171  1.00 20.00    -0.302 OA
ENDBRANCH   1   8
TORSDOF 1
ENDMDL
