MODEL 1
REMARK VINA RESULT:      -3.6      0.000      0.000
REMARK  1 active torsions:
REMARK  status: ('A' for Active; 'I' for Inactive)
REMARK    1  A    between atoms: C1_1  and  C4_4 
ROOT
HETATM    1  C2  UNL     1     -41.492  13.867   5.246  1.00 20.00     0.038 C 
HETATM    2  C3  UNL     1     -41.912  12.923   7.120  1.00 20.00     0.038 C 
HETATM    3  C4  UNL     1     -41.170  12.474   5.839  1.00 20.00     0.076 C 
HETATM    4  C5  UNL     1     -41.704  14.401   6.688  1.00 20.00     0.035 C 
HETATM    5  C6  UNL     1     -42.960  15.257   6.839  1.00 20.00     0.032 C 
HETATM    6 CL9  UNL     1     -40.282  15.229   7.424  1.00 20.00    -0.120 Cl
ENDROOT
BRANCH   3   7
HETATM    7  C1  UNL     1     -39.693  12.080   5.971  1.00 20.00     0.223 C 
HETATM    8  O7  UNL     1     -39.143  11.994   7.065  1.00 20.00    -0.279 OA
HETATM    9 CL8  UNL     1     -38.952  11.789   4.426  1.00 20.00    -0.043 Cl
ENDBRANCH   3   7
TORSDOF 1
ENDMDL
MODEL 2
REMARK VINA RESULT:      -3.6      9.199     10.021
REMARK  1 active torsions:
REMARK  status: ('A' for Active; 'I' for Inactive)
REMARK    1  A    between atoms: C1_1  and  C4_4 
ROOT
HETATM    1  C2  UNL     1     -34.444   8.105   4.465  1.00 20.00     0.038 C 
HETATM    2  C3  UNL     1     -32.658   7.763   5.593  1.00 20.00     0.038 C 
HETATM    3  C4  UNL     1     -34.142   7.378   5.798  1.00 20.00     0.076 C 
HETATM    4  C5  UNL     1     -32.947   7.959   4.079  1.00 20.00     0.035 C 
HETATM    5  C6  UNL     1     -32.341   9.239   3.508  1.00 20.00     0.032 C 
HETATM    6 CL9  UNL     1     -32.554   6.549   3.027  1.00 20.00    -0.120 Cl
ENDROOT
BRANCH   3   7
HETATM    7  C1  UNL     1     -34.487   5.886   5.890  1.00 20.00     0.223 C 
HETATM    8  O7  UNL     1     -34.069   5.182   6.805  1.00 20.00    -0.279 OA
HETATM    9 CL8  UNL     1     -35.502   5.366   4.579  1.00 20.00    -0.043 Cl
ENDBRANCH   3   7
TORSDOF 1
ENDMDL
MODEL 3
REMARK VINA RESULT:      -3.4     11.709     12.499
REMARK  1 active torsions:
REMARK  status: ('A' for Active; 'I' for Inactive)
REMARK    1  A    between atoms: C1_1  and  C4_4 
ROOT
HETATM    1  C2  UNL     1     -33.163  16.810  -2.459  1.00 20.00     0.038 C 
HETATM    2  C3  UNL     1     -34.624  18.281  -1.930  1.00 20.00     0.038 C 
HETATM    3  C4  UNL     1     -33.522  17.535  -1.140  1.00 20.00     0.076 C 
HETATM    4  C5  UNL     1     -33.866  17.950  -3.245  1.00 20.00     0.035 C 
HETATM    5  C6  UNL     1     -34.780  17.444  -4.359  1.00 20.00     0.032 C 
HETATM    6 CL9  UNL     1     -32.779  19.250  -3.859  1.00 20.00    -0.120 Cl
ENDROOT
BRANCH   3   7
HETATM    7  C1  UNL     1     -32.430  18.378  -0.470  1.00 20.00     0.223 C 
HETATM    8  O7  UNL     1     -31.332  18.546  -0.993  1.00 20.00    -0.279 OA
HETATM    9 CL8  UNL     1     -32.946  19.025   1.058  1.00 20.00    -0.043 Cl
ENDBRANCH   3   7
TORSDOF 1
ENDMDL
MODEL 4
REMARK VINA RESULT:      -3.4      1.652      1.911
REMARK  1 active torsions:
REMARK  status: ('A' for Active; 'I' for Inactive)
REMARK    1  A    between atoms: C1_1  and  C4_4 
ROOT
HETATM    1  C2  UNL     1     -40.959  13.979   7.752  1.00 20.00     0.038 C 
HETATM    2  C3  UNL     1     -41.609  14.059   5.715  1.00 20.00     0.038 C 
HETATM    3  C4  UNL     1     -40.246  13.784   6.393  1.00 20.00     0.076 C 
HETATM    4  C5  UNL     1     -42.315  13.694   7.050  1.00 20.00     0.035 C 
HETATM    5  C6  UNL     1     -43.417  14.676   7.439  1.00 20.00     0.032 C 
HETATM    6 CL9  UNL     1     -42.907  11.996   7.172  1.00 20.00    -0.120 Cl
ENDROOT
BRANCH   3   7
HETATM    7  C1  UNL     1     -39.576  12.430   6.127  1.00 20.00     0.223 C 
HETATM    8  O7  UNL     1     -39.060  11.777   7.029  1.00 20.00    -0.279 OA
HETATM    9 CL8  UNL     1     -39.653  11.979   4.450  1.00 20.00    -0.043 Cl
ENDBRANCH   3   7
TORSDOF 1
ENDMDL
MODEL 5
REMARK VINA RESULT:      -3.3      9.153     10.113
REMARK  1 active torsions:
REMARK  status: ('A' for Active; 'I' for Inactive)
REMARK    1  A    between atoms: C1_1  and  C4_4 
ROOT
HETATM    1  C2  UNL     1     -33.387   6.768   5.934  1.00 20.00     0.038 C 
HETATM    2  C3  UNL     1     -34.756   7.556   4.491  1.00 20.00     0.038 C 
HETATM    3  C4  UNL     1     -33.659   8.187   5.381  1.00 20.00     0.076 C 
HETATM    4  C5  UNL     1     -34.067   6.175   4.670  1.00 20.00     0.035 C 
HETATM    5  C6  UNL     1     -35.048   5.047   4.983  1.00 20.00     0.032 C 
HETATM    6 CL9  UNL     1     -32.948   5.691   3.343  1.00 20.00    -0.120 Cl
ENDROOT
BRANCH   3   7
HETATM    7  C1  UNL     1     -32.503   8.914   4.682  1.00 20.00     0.223 C 
HETATM    8  O7  UNL     1     -31.592   9.437   5.316  1.00 20.00    -0.279 OA
HETATM    9 CL8  UNL     1     -32.664   8.888   2.951  1.00 20.00    -0.043 Cl
ENDBRANCH   3   7
TORSDOF 1
ENDMDL
MODEL 6
REMARK VINA RESULT:      -3.3     11.765     12.656
REMARK  1 active torsions:
REMARK  status: ('A' for Active; 'I' for Inactive)
REMARK    1  A    between atoms: C1_1  and  C4_4 
ROOT
HETATM    1  C2  UNL     1     -34.523  18.615  -1.976  1.00 20.00     0.038 C 
HETATM    2  C3  UNL     1     -32.813  18.890  -3.232  1.00 20.00     0.038 C 
HETATM    3  C4  UNL     1     -33.134  19.263  -1.766  1.00 20.00     0.076 C 
HETATM    4  C5  UNL     1     -33.940  17.822  -3.177  1.00 20.00     0.035 C 
HETATM    5  C6  UNL     1     -34.845  17.835  -4.408  1.00 20.00     0.032 C 
HETATM    6 CL9  UNL     1     -33.399  16.143  -2.808  1.00 20.00    -0.120 Cl
ENDROOT
BRANCH   3   7
HETATM    7  C1  UNL     1     -32.234  18.681  -0.668  1.00 20.00     0.223 C 
HETATM    8  O7  UNL     1     -31.016  18.614  -0.799  1.00 20.00    -0.279 OA
HETATM    9 CL8  UNL     1     -33.146  18.156   0.716  1.00 20.00    -0.043 Cl
ENDBRANCH   3   7
TORSDOF 1
ENDMDL
MODEL 7
REMARK VINA RESULT:      -3.3      9.177     10.131
REMARK  1 active torsions:
REMARK  status: ('A' for Active; 'I' for Inactive)
REMARK    1  A    between atoms: C1_1  and  C4_4 
ROOT
HETATM    1  C2  UNL     1     -32.943   7.254   5.632  1.00 20.00     0.038 C 
HETATM    2  C3  UNL     1     -34.750   7.722   4.585  1.00 20.00     0.038 C 
HETATM    3  C4  UNL     1     -33.313   8.295   4.549  1.00 20.00     0.076 C 
HETATM    4  C5  UNL     1     -34.183   6.419   5.213  1.00 20.00     0.035 C 
HETATM    5  C6  UNL     1     -35.003   5.913   6.399  1.00 20.00     0.032 C 
HETATM    6 CL9  UNL     1     -33.857   5.079   4.052  1.00 20.00    -0.120 Cl
ENDROOT
BRANCH   3   7
HETATM    7  C1  UNL     1     -32.555   8.238   3.217  1.00 20.00     0.223 C 
HETATM    8  O7  UNL     1     -31.767   7.333   2.961  1.00 20.00    -0.279 OA
HETATM    9 CL8  UNL     1     -32.955   9.572   2.177  1.00 20.00    -0.043 Cl
ENDBRANCH   3   7
TORSDOF 1
ENDMDL
MODEL 8
REMARK VINA RESULT:      -3.3     13.124     14.140
REMARK  1 active torsions:
REMARK  status: ('A' for Active; 'I' for Inactive)
REMARK    1  A    between atoms: C1_1  and  C4_4 
ROOT
HETATM    1  C2  UNL     1     -33.897  15.119  -6.361  1.00 20.00     0.038 C 
HETATM    2  C3  UNL     1     -35.201  16.473  -5.339  1.00 20.00     0.038 C 
HETATM    3  C4  UNL     1     -35.006  16.094  -6.826  1.00 20.00     0.076 C 
HETATM    4  C5  UNL     1     -34.517  15.137  -4.938  1.00 20.00     0.035 C 
HETATM    5  C6  UNL     1     -33.480  15.298  -3.828  1.00 20.00     0.032 C 
HETATM    6 CL9  UNL     1     -35.637  13.775  -4.564  1.00 20.00    -0.120 Cl
ENDROOT
BRANCH   3   7
HETATM    7  C1  UNL     1     -36.206  15.502  -7.576  1.00 20.00     0.223 C 
HETATM    8  O7  UNL     1     -36.237  14.324  -7.917  1.00 20.00    -0.279 OA
HETATM    9 CL8  UNL     1     -37.451  16.683  -7.855  1.00 20.00    -0.043 Cl
ENDBRANCH   3   7
TORSDOF 1
ENDMDL
MODEL 9
REMARK VINA RESULT:      -3.3     11.937     12.500
REMARK  1 active torsions:
REMARK  status: ('A' for Active; 'I' for Inactive)
REMARK    1  A    between atoms: C1_1  and  C4_4 
ROOT
HETATM    1  C2  UNL     1     -33.591  16.844  -1.863  1.00 20.00     0.038 C 
HETATM    2  C3  UNL     1     -33.025  18.313  -3.313  1.00 20.00     0.038 C 
HETATM    3  C4  UNL     1     -33.109  16.768  -3.332  1.00 20.00     0.076 C 
HETATM    4  C5  UNL     1     -34.000  18.323  -2.103  1.00 20.00     0.035 C 
HETATM    5  C6  UNL     1     -33.562  19.262  -0.981  1.00 20.00     0.032 C 
HETATM    6 CL9  UNL     1     -35.735  18.590  -2.510  1.00 20.00    -0.120 Cl
ENDROOT
BRANCH   3   7
HETATM    7  C1  UNL     1     -34.047  16.117  -4.357  1.00 20.00     0.223 C 
HETATM    8  O7  UNL     1     -34.613  16.776  -5.224  1.00 20.00    -0.279 OA
HETATM    9 CL8  UNL     1     -34.183  14.400  -4.123  1.00 20.00    -0.043 Cl
ENDBRANCH   3   7
TORSDOF 1
ENDMDL
