MODEL 1
REMARK VINA RESULT:      -5.4      0.000      0.000
REMARK  1 active torsions:
REMARK  status: ('A' for Active; 'I' for Inactive)
REMARK    1  A    between atoms: C4_4  and  C5_5 
ROOT
HETATM    1  C1  UNL     1     -33.240   5.377   2.828  1.00 20.00     0.014 C 
HETATM    2  C2  UNL     1     -33.782   4.830   4.141  1.00 20.00     0.062 C 
HETATM    3  C3  UNL     1     -32.518   6.672   3.164  1.00 20.00     0.077 C 
HETATM    4  C4  UNL     1     -34.538   5.981   4.794  1.00 20.00     0.209 C 
HETATM    5  F6  UNL     1     -35.740   6.123   4.171  1.00 20.00    -0.225 F 
HETATM    6  S9  UNL     1     -33.523   7.452   4.457  1.00 20.00    -0.121 SA
ENDROOT
BRANCH   4   7
HETATM    7  C5  UNL     1     -34.783   5.778   6.276  1.00 20.00     0.403 C 
HETATM    8  F7  UNL     1     -34.572   6.945   6.926  1.00 20.00    -0.210 F 
HETATM    9  F8  UNL     1     -33.887   4.886   6.757  1.00 20.00    -0.210 F 
ENDBRANCH   4   7
TORSDOF 1
ENDMDL
MODEL 2
REMARK VINA RESULT:      -5.2      2.509      3.450
REMARK  1 active torsions:
REMARK  status: ('A' for Active; 'I' for Inactive)
REMARK    1  A    between atoms: C4_4  and  C5_5 
ROOT
HETATM    1  C1  UNL     1     -34.717   6.067   6.333  1.00 20.00     0.014 C 
HETATM    2  C2  UNL     1     -33.548   7.031   6.177  1.00 20.00     0.062 C 
HETATM    3  C3  UNL     1     -34.520   4.978   5.291  1.00 20.00     0.077 C 
HETATM    4  C4  UNL     1     -33.494   7.388   4.697  1.00 20.00     0.209 C 
HETATM    5  F6  UNL     1     -34.480   8.287   4.429  1.00 20.00    -0.225 F 
HETATM    6  S9  UNL     1     -33.865   5.832   3.831  1.00 20.00    -0.121 SA
ENDROOT
BRANCH   4   7
HETATM    7  C5  UNL     1     -32.168   7.984   4.268  1.00 20.00     0.403 C 
HETATM    8  F7  UNL     1     -32.278   9.331   4.222  1.00 20.00    -0.210 F 
HETATM    9  F8  UNL     1     -31.876   7.564   3.016  1.00 20.00    -0.210 F 
ENDBRANCH   4   7
TORSDOF 1
ENDMDL
MODEL 3
REMARK VINA RESULT:      -4.9      1.375      1.776
REMARK  1 active torsions:
REMARK  status: ('A' for Active; 'I' for Inactive)
REMARK    1  A    between atoms: C4_4  and  C5_5 
ROOT
HETATM    1  C1  UNL     1     -32.754   7.674   3.465  1.00 20.00     0.014 C 
HETATM    2  C2  UNL     1     -33.184   6.224   3.640  1.00 20.00     0.062 C 
HETATM    3  C3  UNL     1     -32.477   8.214   4.859  1.00 20.00     0.077 C 
HETATM    4  C4  UNL     1     -34.289   6.238   4.689  1.00 20.00     0.209 C 
HETATM    5  F6  UNL     1     -35.438   6.677   4.107  1.00 20.00    -0.225 F 
HETATM    6  S9  UNL     1     -33.745   7.465   5.917  1.00 20.00    -0.121 SA
ENDROOT
BRANCH   4   7
HETATM    7  C5  UNL     1     -34.549   4.880   5.309  1.00 20.00     0.403 C 
HETATM    8  F7  UNL     1     -34.073   4.869   6.575  1.00 20.00    -0.210 F 
HETATM    9  F8  UNL     1     -33.868   3.937   4.618  1.00 20.00    -0.210 F 
ENDBRANCH   4   7
TORSDOF 1
ENDMDL
MODEL 4
REMARK VINA RESULT:      -4.9      2.407      3.550
REMARK  1 active torsions:
REMARK  status: ('A' for Active; 'I' for Inactive)
REMARK    1  A    between atoms: C4_4  and  C5_5 
ROOT
HETATM    1  C1  UNL     1     -34.437   6.535   6.669  1.00 20.00     0.014 C 
HETATM    2  C2  UNL     1     -33.322   7.323   5.994  1.00 20.00     0.062 C 
HETATM    3  C3  UNL     1     -34.575   5.233   5.897  1.00 20.00     0.077 C 
HETATM    4  C4  UNL     1     -33.665   7.346   4.510  1.00 20.00     0.209 C 
HETATM    5  F6  UNL     1     -34.654   8.258   4.305  1.00 20.00    -0.225 F 
HETATM    6  S9  UNL     1     -34.316   5.684   4.159  1.00 20.00    -0.121 SA
ENDROOT
BRANCH   4   7
HETATM    7  C5  UNL     1     -32.488   7.701   3.624  1.00 20.00     0.403 C 
HETATM    8  F7  UNL     1     -32.059   6.589   2.986  1.00 20.00    -0.210 F 
HETATM    9  F8  UNL     1     -31.466   8.138   4.396  1.00 20.00    -0.210 F 
ENDBRANCH   4   7
TORSDOF 1
ENDMDL
MODEL 5
REMARK VINA RESULT:      -4.8      0.623      1.075
REMARK  1 active torsions:
REMARK  status: ('A' for Active; 'I' for Inactive)
REMARK    1  A    between atoms: C4_4  and  C5_5 
ROOT
HETATM    1  C1  UNL     1     -33.512   5.086   2.727  1.00 20.00     0.014 C 
HETATM    2  C2  UNL     1     -33.835   4.733   4.173  1.00 20.00     0.062 C 
HETATM    3  C3  UNL     1     -32.612   6.310   2.772  1.00 20.00     0.077 C 
HETATM    4  C4  UNL     1     -34.326   6.021   4.820  1.00 20.00     0.209 C 
HETATM    5  F6  UNL     1     -35.607   6.249   4.421  1.00 20.00    -0.225 F 
HETATM    6  S9  UNL     1     -33.256   7.322   4.133  1.00 20.00    -0.121 SA
ENDROOT
BRANCH   4   7
HETATM    7  C5  UNL     1     -34.290   5.988   6.335  1.00 20.00     0.403 C 
HETATM    8  F7  UNL     1     -35.342   5.269   6.789  1.00 20.00    -0.210 F 
HETATM    9  F8  UNL     1     -34.431   7.246   6.811  1.00 20.00    -0.210 F 
ENDBRANCH   4   7
TORSDOF 1
ENDMDL
MODEL 6
REMARK VINA RESULT:      -4.7      1.967      2.977
REMARK  1 active torsions:
REMARK  status: ('A' for Active; 'I' for Inactive)
REMARK    1  A    between atoms: C4_4  and  C5_5 
ROOT
HETATM    1  C1  UNL     1     -33.905   8.035   5.293  1.00 20.00     0.014 C 
HETATM    2  C2  UNL     1     -33.589   7.010   4.212  1.00 20.00     0.062 C 
HETATM    3  C3  UNL     1     -33.826   7.300   6.621  1.00 20.00     0.077 C 
HETATM    4  C4  UNL     1     -34.502   5.820   4.483  1.00 20.00     0.209 C 
HETATM    5  F6  UNL     1     -35.757   6.125   4.054  1.00 20.00    -0.225 F 
HETATM    6  S9  UNL     1     -34.523   5.657   6.295  1.00 20.00    -0.121 SA
ENDROOT
BRANCH   4   7
HETATM    7  C5  UNL     1     -34.052   4.546   3.796  1.00 20.00     0.403 C 
HETATM    8  F7  UNL     1     -33.632   3.661   4.729  1.00 20.00    -0.210 F 
HETATM    9  F8  UNL     1     -32.993   4.819   3.000  1.00 20.00    -0.210 F 
ENDBRANCH   4   7
TORSDOF 1
ENDMDL
MODEL 7
REMARK VINA RESULT:      -4.3      1.614      2.604
REMARK  1 active torsions:
REMARK  status: ('A' for Active; 'I' for Inactive)
REMARK    1  A    between atoms: C4_4  and  C5_5 
ROOT
HETATM    1  C1  UNL     1     -32.476   8.738   4.589  1.00 20.00     0.014 C 
HETATM    2  C2  UNL     1     -33.782   8.321   5.252  1.00 20.00     0.062 C 
HETATM    3  C3  UNL     1     -32.342   7.897   3.331  1.00 20.00     0.077 C 
HETATM    4  C4  UNL     1     -33.736   6.801   5.349  1.00 20.00     0.209 C 
HETATM    5  F6  UNL     1     -32.916   6.454   6.378  1.00 20.00    -0.225 F 
HETATM    6  S9  UNL     1     -32.980   6.260   3.785  1.00 20.00    -0.121 SA
ENDROOT
BRANCH   4   7
HETATM    7  C5  UNL     1     -35.095   6.170   5.579  1.00 20.00     0.403 C 
HETATM    8  F7  UNL     1     -34.944   5.045   6.315  1.00 20.00    -0.210 F 
HETATM    9  F8  UNL     1     -35.622   5.800   4.389  1.00 20.00    -0.210 F 
ENDBRANCH   4   7
TORSDOF 1
ENDMDL
MODEL 8
REMARK VINA RESULT:      -3.8      2.431      3.354
REMARK  1 active torsions:
REMARK  status: ('A' for Active; 'I' for Inactive)
REMARK    1  A    between atoms: C4_4  and  C5_5 
ROOT
HETATM    1  C1  UNL     1     -34.854   5.102   4.844  1.00 20.00     0.014 C 
HETATM    2  C2  UNL     1     -34.787   6.422   4.089  1.00 20.00     0.062 C 
HETATM    3  C3  UNL     1     -34.657   5.434   6.314  1.00 20.00     0.077 C 
HETATM    4  C4  UNL     1     -33.507   7.106   4.554  1.00 20.00     0.209 C 
HETATM    5  F6  UNL     1     -32.447   6.515   3.939  1.00 20.00    -0.225 F 
HETATM    6  S9  UNL     1     -33.420   6.760   6.338  1.00 20.00    -0.121 SA
ENDROOT
BRANCH   4   7
HETATM    7  C5  UNL     1     -33.474   8.592   4.255  1.00 20.00     0.403 C 
HETATM    8  F7  UNL     1     -32.846   8.794   3.074  1.00 20.00    -0.210 F 
HETATM    9  F8  UNL     1     -32.747   9.222   5.206  1.00 20.00    -0.210 F 
ENDBRANCH   4   7
TORSDOF 1
ENDMDL
MODEL 9
REMARK VINA RESULT:      -3.8     16.662     17.390
REMARK  1 active torsions:
REMARK  status: ('A' for Active; 'I' for Inactive)
REMARK    1  A    between atoms: C4_4  and  C5_5 
ROOT
HETATM    1  C1  UNL     1     -22.277  18.176   8.277  1.00 20.00     0.014 C 
HETATM    2  C2  UNL     1     -21.915  18.016   9.748  1.00 20.00     0.062 C 
HETATM    3  C3  UNL     1     -23.376  19.224   8.215  1.00 20.00     0.077 C 
HETATM    4  C4  UNL     1     -23.231  17.789  10.481  1.00 20.00     0.209 C 
HETATM    5  F6  UNL     1     -23.631  16.504  10.273  1.00 20.00    -0.225 F 
HETATM    6  S9  UNL     1     -24.411  18.911   9.671  1.00 20.00    -0.121 SA
ENDROOT
BRANCH   4   7
HETATM    7  C5  UNL     1     -23.139  18.030  11.974  1.00 20.00     0.403 C 
HETATM    8  F7  UNL     1     -24.050  18.964  12.332  1.00 20.00    -0.210 F 
HETATM    9  F8  UNL     1     -21.918  18.532  12.270  1.00 20.00    -0.210 F 
ENDBRANCH   4   7
TORSDOF 1
ENDMDL
