MODEL 1
REMARK VINA RESULT:      -4.7      0.000      0.000
REMARK  4 active torsions:
REMARK  status: ('A' for Active; 'I' for Inactive)
REMARK    1  A    between atoms: C1_1  and  C2_2 
REMARK    2  A    between atoms: C1_1  and  C3_3 
REMARK    3  A    between atoms: C2_2  and  C8_8 
REMARK    4  A    between atoms: C3_3  and  C6_6 
ROOT
HETATM    1  C1  UNL     1     -32.838   7.060   3.327  1.00 20.00     0.125 C 
HETATM    2 CL11 UNL     1     -32.729   5.488   2.605  1.00 20.00    -0.076 Cl
ENDROOT
BRANCH   1   3
HETATM    3  C2  UNL     1     -32.528   8.213   2.681  1.00 20.00     0.174 C 
HETATM    4  O9  UNL     1     -32.516   9.409   3.096  1.00 20.00    -0.291 OA
BRANCH   3   5
HETATM    5  C8  UNL     1     -32.069   8.167   1.215  1.00 20.00     0.080 C 
HETATM    6  C7  UNL     1     -32.697   9.269   0.363  1.00 20.00     0.013 C 
ENDBRANCH   3   5
ENDBRANCH   1   3
BRANCH   1   7
HETATM    7  C3  UNL     1     -33.371   7.092   4.727  1.00 20.00     0.178 C 
HETATM    8  O10 UNL     1     -32.838   7.723   5.631  1.00 20.00    -0.291 OA
BRANCH   7   9
HETATM    9  C6  UNL     1     -34.626   6.331   4.995  1.00 20.00     0.061 A 
HETATM   10  C4  UNL     1     -34.538   4.853   5.185  1.00 20.00     0.013 A 
HETATM   11  C5  UNL     1     -34.827   5.747   6.354  1.00 20.00     0.013 A 
ENDBRANCH   7   9
ENDBRANCH   1   7
TORSDOF 4
ENDMDL
MODEL 2
REMARK VINA RESULT:      -4.7      1.909      4.131
REMARK  4 active torsions:
REMARK  status: ('A' for Active; 'I' for Inactive)
REMARK    1  A    between atoms: C1_1  and  C2_2 
REMARK    2  A    between atoms: C1_1  and  C3_3 
REMARK    3  A    between atoms: C2_2  and  C8_8 
REMARK    4  A    between atoms: C3_3  and  C6_6 
ROOT
HETATM    1  C1  UNL     1     -33.439   5.818   3.383  1.00 20.00     0.125 C 
HETATM    2 CL11 UNL     1     -32.797   4.611   2.318  1.00 20.00    -0.076 Cl
ENDROOT
BRANCH   1   3
HETATM    3  C2  UNL     1     -34.516   5.623   4.186  1.00 20.00     0.174 C 
HETATM    4  O9  UNL     1     -35.709   6.031   4.073  1.00 20.00    -0.291 OA
BRANCH   3   5
HETATM    5  C8  UNL     1     -34.384   4.747   5.442  1.00 20.00     0.080 C 
HETATM    6  C7  UNL     1     -34.615   5.527   6.735  1.00 20.00     0.013 C 
ENDBRANCH   3   5
ENDBRANCH   1   3
BRANCH   1   7
HETATM    7  C3  UNL     1     -32.683   7.111   3.425  1.00 20.00     0.178 C 
HETATM    8  O10 UNL     1     -32.204   7.638   2.430  1.00 20.00    -0.291 OA
BRANCH   7   9
HETATM    9  C6  UNL     1     -32.547   7.777   4.754  1.00 20.00     0.061 A 
HETATM   10  C4  UNL     1     -32.194   9.226   4.793  1.00 20.00     0.013 A 
HETATM   11  C5  UNL     1     -33.579   8.778   5.156  1.00 20.00     0.013 A 
ENDBRANCH   7   9
ENDBRANCH   1   7
TORSDOF 4
ENDMDL
MODEL 3
REMARK VINA RESULT:      -4.5      9.972     10.697
REMARK  4 active torsions:
REMARK  status: ('A' for Active; 'I' for Inactive)
REMARK    1  A    between atoms: C1_1  and  C2_2 
REMARK    2  A    between atoms: C1_1  and  C3_3 
REMARK    3  A    between atoms: C2_2  and  C8_8 
REMARK    4  A    between atoms: C3_3  and  C6_6 
ROOT
HETATM    1  C1  UNL     1     -41.428  13.308   6.926  1.00 20.00     0.125 C 
HETATM    2 CL11 UNL     1     -42.972  12.619   7.305  1.00 20.00    -0.076 Cl
ENDROOT
BRANCH   1   3
HETATM    3  C2  UNL     1     -40.697  14.052   7.796  1.00 20.00     0.174 C 
HETATM    4  O9  UNL     1     -40.112  13.720   8.869  1.00 20.00    -0.291 OA
BRANCH   3   5
HETATM    5  C8  UNL     1     -40.444  15.539   7.505  1.00 20.00     0.080 C 
HETATM    6  C7  UNL     1     -41.711  16.284   7.090  1.00 20.00     0.013 C 
ENDBRANCH   3   5
ENDBRANCH   1   3
BRANCH   1   7
HETATM    7  C3  UNL     1     -40.888  12.978   5.568  1.00 20.00     0.178 C 
HETATM    8  O10 UNL     1     -41.171  13.617   4.562  1.00 20.00    -0.291 OA
BRANCH   7   9
HETATM    9  C6  UNL     1     -39.944  11.826   5.472  1.00 20.00     0.061 A 
HETATM   10  C4  UNL     1     -39.119  11.680   4.237  1.00 20.00     0.013 A 
HETATM   11  C5  UNL     1     -38.478  12.101   5.526  1.00 20.00     0.013 A 
ENDBRANCH   7   9
ENDBRANCH   1   7
TORSDOF 4
ENDMDL
MODEL 4
REMARK VINA RESULT:      -4.5      1.892      1.912
REMARK  4 active torsions:
REMARK  status: ('A' for Active; 'I' for Inactive)
REMARK    1  A    between atoms: C1_1  and  C2_2 
REMARK    2  A    between atoms: C1_1  and  C3_3 
REMARK    3  A    between atoms: C2_2  and  C8_8 
REMARK    4  A    between atoms: C3_3  and  C6_6 
ROOT
HETATM    1  C1  UNL     1     -32.796   7.825   3.668  1.00 20.00     0.125 C 
HETATM    2 CL11 UNL     1     -32.357   8.790   5.039  1.00 20.00    -0.076 Cl
ENDROOT
BRANCH   1   3
HETATM    3  C2  UNL     1     -32.474   8.139   2.387  1.00 20.00     0.174 C 
HETATM    4  O9  UNL     1     -31.872   7.462   1.503  1.00 20.00    -0.291 OA
BRANCH   3   5
HETATM    5  C8  UNL     1     -32.898   9.495   1.804  1.00 20.00     0.080 C 
HETATM    6  C7  UNL     1     -32.784   9.546   0.281  1.00 20.00     0.013 C 
ENDBRANCH   3   5
ENDBRANCH   1   3
BRANCH   1   7
HETATM    7  C3  UNL     1     -33.516   6.548   3.981  1.00 20.00     0.178 C 
HETATM    8  O10 UNL     1     -33.287   5.493   3.405  1.00 20.00    -0.291 OA
BRANCH   7   9
HETATM    9  C6  UNL     1     -34.537   6.592   5.069  1.00 20.00     0.061 A 
HETATM   10  C4  UNL     1     -34.854   5.331   5.801  1.00 20.00     0.013 A 
HETATM   11  C5  UNL     1     -34.081   6.422   6.480  1.00 20.00     0.013 A 
ENDBRANCH   7   9
ENDBRANCH   1   7
TORSDOF 4
ENDMDL
MODEL 5
REMARK VINA RESULT:      -4.4      2.019      4.790
REMARK  4 active torsions:
REMARK  status: ('A' for Active; 'I' for Inactive)
REMARK    1  A    between atoms: C1_1  and  C2_2 
REMARK    2  A    between atoms: C1_1  and  C3_3 
REMARK    3  A    between atoms: C2_2  and  C8_8 
REMARK    4  A    between atoms: C3_3  and  C6_6 
ROOT
HETATM    1  C1  UNL     1     -33.049   7.621   4.269  1.00 20.00     0.125 C 
HETATM    2 CL11 UNL     1     -32.351   9.019   5.018  1.00 20.00    -0.076 Cl
ENDROOT
BRANCH   1   3
HETATM    3  C2  UNL     1     -34.071   6.906   4.804  1.00 20.00     0.174 C 
HETATM    4  O9  UNL     1     -35.069   6.360   4.249  1.00 20.00    -0.291 OA
BRANCH   3   5
HETATM    5  C8  UNL     1     -34.097   6.623   6.314  1.00 20.00     0.080 C 
HETATM    6  C7  UNL     1     -34.537   5.197   6.641  1.00 20.00     0.013 C 
ENDBRANCH   3   5
ENDBRANCH   1   3
BRANCH   1   7
HETATM    7  C3  UNL     1     -32.494   7.264   2.923  1.00 20.00     0.178 C 
HETATM    8  O10 UNL     1     -32.486   6.122   2.485  1.00 20.00    -0.291 OA
BRANCH   7   9
HETATM    9  C6  UNL     1     -31.957   8.381   2.091  1.00 20.00     0.061 A 
HETATM   10  C4  UNL     1     -32.219   8.366   0.622  1.00 20.00     0.013 A 
HETATM   11  C5  UNL     1     -32.920   9.357   1.502  1.00 20.00     0.013 A 
ENDBRANCH   7   9
ENDBRANCH   1   7
TORSDOF 4
ENDMDL
MODEL 6
REMARK VINA RESULT:      -4.3     11.406     12.570
REMARK  4 active torsions:
REMARK  status: ('A' for Active; 'I' for Inactive)
REMARK    1  A    between atoms: C1_1  and  C2_2 
REMARK    2  A    between atoms: C1_1  and  C3_3 
REMARK    3  A    between atoms: C2_2  and  C8_8 
REMARK    4  A    between atoms: C3_3  and  C6_6 
ROOT
HETATM    1  C1  UNL     1     -34.804  15.270  -5.644  1.00 20.00     0.125 C 
HETATM    2 CL11 UNL     1     -33.821  15.325  -7.070  1.00 20.00    -0.076 Cl
ENDROOT
BRANCH   1   3
HETATM    3  C2  UNL     1     -36.135  15.537  -5.631  1.00 20.00     0.174 C 
HETATM    4  O9  UNL     1     -37.119  14.792  -5.347  1.00 20.00    -0.291 OA
BRANCH   3   5
HETATM    5  C8  UNL     1     -36.633  16.953  -5.960  1.00 20.00     0.080 C 
HETATM    6  C7  UNL     1     -37.077  17.727  -4.721  1.00 20.00     0.013 C 
ENDBRANCH   3   5
ENDBRANCH   1   3
BRANCH   1   7
HETATM    7  C3  UNL     1     -34.104  14.834  -4.393  1.00 20.00     0.178 C 
HETATM    8  O10 UNL     1     -34.278  13.738  -3.876  1.00 20.00    -0.291 OA
BRANCH   7   9
HETATM    9  C6  UNL     1     -33.134  15.793  -3.786  1.00 20.00     0.061 A 
HETATM   10  C4  UNL     1     -33.472  17.246  -3.786  1.00 20.00     0.013 A 
HETATM   11  C5  UNL     1     -33.504  16.465  -2.506  1.00 20.00     0.013 A 
ENDBRANCH   7   9
ENDBRANCH   1   7
TORSDOF 4
ENDMDL
MODEL 7
REMARK VINA RESULT:      -4.3     10.277     10.811
REMARK  4 active torsions:
REMARK  status: ('A' for Active; 'I' for Inactive)
REMARK    1  A    between atoms: C1_1  and  C2_2 
REMARK    2  A    between atoms: C1_1  and  C3_3 
REMARK    3  A    between atoms: C2_2  and  C8_8 
REMARK    4  A    between atoms: C3_3  and  C6_6 
ROOT
HETATM    1  C1  UNL     1     -41.204  13.127   6.734  1.00 20.00     0.125 C 
HETATM    2 CL11 UNL     1     -42.740  12.453   7.170  1.00 20.00    -0.076 Cl
ENDROOT
BRANCH   1   3
HETATM    3  C2  UNL     1     -40.607  12.934   5.530  1.00 20.00     0.174 C 
HETATM    4  O9  UNL     1     -40.944  13.327   4.375  1.00 20.00    -0.291 OA
BRANCH   3   5
HETATM    5  C8  UNL     1     -39.282  12.162   5.450  1.00 20.00     0.080 C 
HETATM    6  C7  UNL     1     -38.975  11.656   4.041  1.00 20.00     0.013 C 
ENDBRANCH   3   5
ENDBRANCH   1   3
BRANCH   1   7
HETATM    7  C3  UNL     1     -40.575  14.018   7.762  1.00 20.00     0.178 C 
HETATM    8  O10 UNL     1     -40.211  13.619   8.860  1.00 20.00    -0.291 OA
BRANCH   7   9
HETATM    9  C6  UNL     1     -40.370  15.448   7.389  1.00 20.00     0.061 A 
HETATM   10  C4  UNL     1     -41.567  16.280   7.067  1.00 20.00     0.013 A 
HETATM   11  C5  UNL     1     -40.816  16.503   8.346  1.00 20.00     0.013 A 
ENDBRANCH   7   9
ENDBRANCH   1   7
TORSDOF 4
ENDMDL
MODEL 8
REMARK VINA RESULT:      -4.3     11.437     12.840
REMARK  4 active torsions:
REMARK  status: ('A' for Active; 'I' for Inactive)
REMARK    1  A    between atoms: C1_1  and  C2_2 
REMARK    2  A    between atoms: C1_1  and  C3_3 
REMARK    3  A    between atoms: C2_2  and  C8_8 
REMARK    4  A    between atoms: C3_3  and  C6_6 
ROOT
HETATM    1  C1  UNL     1     -34.953  15.432  -5.666  1.00 20.00     0.125 C 
HETATM    2 CL11 UNL     1     -36.611  15.845  -5.377  1.00 20.00    -0.076 Cl
ENDROOT
BRANCH   1   3
HETATM    3  C2  UNL     1     -34.332  15.589  -6.863  1.00 20.00     0.174 C 
HETATM    4  O9  UNL     1     -33.424  14.898  -7.413  1.00 20.00    -0.291 OA
BRANCH   3   5
HETATM    5  C8  UNL     1     -34.751  16.734  -7.797  1.00 20.00     0.080 C 
HETATM    6  C7  UNL     1     -34.344  18.108  -7.268  1.00 20.00     0.013 C 
ENDBRANCH   3   5
ENDBRANCH   1   3
BRANCH   1   7
HETATM    7  C3  UNL     1     -34.193  14.937  -4.474  1.00 20.00     0.178 C 
HETATM    8  O10 UNL     1     -34.340  13.816  -4.005  1.00 20.00    -0.291 OA
BRANCH   7   9
HETATM    9  C6  UNL     1     -33.198  15.869  -3.866  1.00 20.00     0.061 A 
HETATM   10  C4  UNL     1     -33.560  17.311  -3.732  1.00 20.00     0.013 A 
HETATM   11  C5  UNL     1     -33.486  16.436  -2.516  1.00 20.00     0.013 A 
ENDBRANCH   7   9
ENDBRANCH   1   7
TORSDOF 4
ENDMDL
MODEL 9
REMARK VINA RESULT:      -4.2      1.421      1.619
REMARK  4 active torsions:
REMARK  status: ('A' for Active; 'I' for Inactive)
REMARK    1  A    between atoms: C1_1  and  C2_2 
REMARK    2  A    between atoms: C1_1  and  C3_3 
REMARK    3  A    between atoms: C2_2  and  C8_8 
REMARK    4  A    between atoms: C3_3  and  C6_6 
ROOT
HETATM    1  C1  UNL     1     -33.074   6.236   3.301  1.00 20.00     0.125 C 
HETATM    2 CL11 UNL     1     -32.768   4.859   2.294  1.00 20.00    -0.076 Cl
ENDROOT
BRANCH   1   3
HETATM    3  C2  UNL     1     -32.421   7.420   3.183  1.00 20.00     0.174 C 
HETATM    4  O9  UNL     1     -31.945   8.186   4.072  1.00 20.00    -0.291 OA
BRANCH   3   5
HETATM    5  C8  UNL     1     -32.126   7.995   1.790  1.00 20.00     0.080 C 
HETATM    6  C7  UNL     1     -32.819   9.333   1.541  1.00 20.00     0.013 C 
ENDBRANCH   3   5
ENDBRANCH   1   3
BRANCH   1   7
HETATM    7  C3  UNL     1     -34.179   6.072   4.300  1.00 20.00     0.178 C 
HETATM    8  O10 UNL     1     -35.362   6.025   3.988  1.00 20.00    -0.291 OA
BRANCH   7   9
HETATM    9  C6  UNL     1     -33.786   5.938   5.734  1.00 20.00     0.061 A 
HETATM   10  C4  UNL     1     -34.302   6.939   6.712  1.00 20.00     0.013 A 
HETATM   11  C5  UNL     1     -34.829   5.534   6.722  1.00 20.00     0.013 A 
ENDBRANCH   7   9
ENDBRANCH   1   7
TORSDOF 4
ENDMDL
