MODEL 1
REMARK VINA RESULT:      -4.2      0.000      0.000
REMARK  2 active torsions:
REMARK  status: ('A' for Active; 'I' for Inactive)
REMARK    1  A    between atoms: C3_3  and  C7_7 
REMARK    2  A    between atoms: C6_6  and  O11_11 
ROOT
HETATM    1  C1  UNL     1     -32.826   5.351   2.489  1.00 20.00    -0.028 C 
HETATM    2  C2  UNL     1     -32.610   6.515   3.117  1.00 20.00     0.002 C 
HETATM    3  C4  UNL     1     -33.648   4.242   3.072  1.00 20.00     0.028 C 
HETATM    4  C5  UNL     1     -33.961   4.442   4.558  1.00 20.00     0.023 C 
HETATM    5  C6  UNL     1     -33.188   6.845   4.465  1.00 20.00     0.158 C 
HETATM    6  C7  UNL     1     -34.342   5.899   4.893  1.00 20.00     0.039 C 
HETATM    7  C8  UNL     1     -35.690   6.276   4.254  1.00 20.00     0.026 C 
ENDROOT
BRANCH   6   8
HETATM    8  C3  UNL     1     -34.512   5.977   6.390  1.00 20.00     0.243 C 
HETATM    9  O10 UNL     1     -34.468   7.027   7.022  1.00 20.00    -0.306 OA
ENDBRANCH   6   8
BRANCH   5  10
HETATM   10  O11 UNL     1     -33.635   8.200   4.428  1.00 20.00    -0.386 OA
HETATM   11  C9  UNL     1     -32.552   9.104   4.582  1.00 20.00     0.202 C 
ENDBRANCH   5  10
TORSDOF 2
ENDMDL
MODEL 2
REMARK VINA RESULT:      -3.9     12.817     14.246
REMARK  2 active torsions:
REMARK  status: ('A' for Active; 'I' for Inactive)
REMARK    1  A    between atoms: C3_3  and  C7_7 
REMARK    2  A    between atoms: C6_6  and  O11_11 
ROOT
HETATM    1  C1  UNL     1     -33.394  16.875  -3.674  1.00 20.00    -0.028 C 
HETATM    2  C2  UNL     1     -34.420  17.452  -4.315  1.00 20.00     0.002 C 
HETATM    3  C4  UNL     1     -33.069  15.417  -3.788  1.00 20.00     0.028 C 
HETATM    4  C5  UNL     1     -34.181  14.602  -4.455  1.00 20.00     0.023 C 
HETATM    5  C6  UNL     1     -35.343  16.704  -5.237  1.00 20.00     0.158 C 
HETATM    6  C7  UNL     1     -34.793  15.320  -5.676  1.00 20.00     0.039 C 
HETATM    7  C8  UNL     1     -33.772  15.420  -6.823  1.00 20.00     0.026 C 
ENDROOT
BRANCH   6   8
HETATM    8  C3  UNL     1     -35.939  14.466  -6.160  1.00 20.00     0.243 C 
HETATM    9  O10 UNL     1     -36.181  14.270  -7.347  1.00 20.00    -0.306 OA
ENDBRANCH   6   8
BRANCH   5  10
HETATM   10  O11 UNL     1     -35.588  17.532  -6.375  1.00 20.00    -0.386 OA
HETATM   11  C9  UNL     1     -36.894  18.086  -6.336  1.00 20.00     0.202 C 
ENDBRANCH   5  10
TORSDOF 2
ENDMDL
MODEL 3
REMARK VINA RESULT:      -3.9      9.810     11.199
REMARK  2 active torsions:
REMARK  status: ('A' for Active; 'I' for Inactive)
REMARK    1  A    between atoms: C3_3  and  C7_7 
REMARK    2  A    between atoms: C6_6  and  O11_11 
ROOT
HETATM    1  C1  UNL     1     -42.320  15.935   6.360  1.00 20.00    -0.028 C 
HETATM    2  C2  UNL     1     -41.299  15.596   7.159  1.00 20.00     0.002 C 
HETATM    3  C4  UNL     1     -42.765  15.104   5.196  1.00 20.00     0.028 C 
HETATM    4  C5  UNL     1     -41.767  14.002   4.826  1.00 20.00     0.023 C 
HETATM    5  C6  UNL     1     -40.502  14.332   6.988  1.00 20.00     0.158 C 
HETATM    6  C7  UNL     1     -41.186  13.288   6.064  1.00 20.00     0.039 C 
HETATM    7  C8  UNL     1     -42.271  12.473   6.789  1.00 20.00     0.026 C 
ENDROOT
BRANCH   6   8
HETATM    8  C3  UNL     1     -40.146  12.316   5.565  1.00 20.00     0.243 C 
HETATM    9  O10 UNL     1     -39.661  11.429   6.260  1.00 20.00    -0.306 OA
ENDBRANCH   6   8
BRANCH   5  10
HETATM   10  O11 UNL     1     -40.271  13.783   8.285  1.00 20.00    -0.386 OA
HETATM   11  C9  UNL     1     -40.236  14.799   9.275  1.00 20.00     0.202 C 
ENDBRANCH   5  10
TORSDOF 2
ENDMDL
MODEL 4
REMARK VINA RESULT:      -3.8     12.711     14.294
REMARK  2 active torsions:
REMARK  status: ('A' for Active; 'I' for Inactive)
REMARK    1  A    between atoms: C3_3  and  C7_7 
REMARK    2  A    between atoms: C6_6  and  O11_11 
ROOT
HETATM    1  C1  UNL     1     -33.428  15.973  -3.558  1.00 20.00    -0.028 C 
HETATM    2  C2  UNL     1     -33.949  17.033  -4.190  1.00 20.00     0.002 C 
HETATM    3  C4  UNL     1     -33.725  14.556  -3.946  1.00 20.00     0.028 C 
HETATM    4  C5  UNL     1     -34.899  14.432  -4.922  1.00 20.00     0.023 C 
HETATM    5  C6  UNL     1     -34.872  16.918  -5.372  1.00 20.00     0.158 C 
HETATM    6  C7  UNL     1     -34.869  15.510  -6.026  1.00 20.00     0.039 C 
HETATM    7  C8  UNL     1     -33.674  15.295  -6.972  1.00 20.00     0.026 C 
ENDROOT
BRANCH   6   8
HETATM    8  C3  UNL     1     -36.128  15.343  -6.839  1.00 20.00     0.243 C 
HETATM    9  O10 UNL     1     -36.258  14.497  -7.719  1.00 20.00    -0.306 OA
ENDBRANCH   6   8
BRANCH   5  10
HETATM   10  O11 UNL     1     -34.491  17.915  -6.320  1.00 20.00    -0.386 OA
HETATM   11  C9  UNL     1     -34.198  19.148  -5.682  1.00 20.00     0.202 C 
ENDBRANCH   5  10
TORSDOF 2
ENDMDL
MODEL 5
REMARK VINA RESULT:      -3.6      1.682      3.296
REMARK  2 active torsions:
REMARK  status: ('A' for Active; 'I' for Inactive)
REMARK    1  A    between atoms: C3_3  and  C7_7 
REMARK    2  A    between atoms: C6_6  and  O11_11 
ROOT
HETATM    1  C1  UNL     1     -34.832   5.059   5.654  1.00 20.00    -0.028 C 
HETATM    2  C2  UNL     1     -34.077   4.951   4.552  1.00 20.00     0.002 C 
HETATM    3  C4  UNL     1     -34.796   6.249   6.563  1.00 20.00     0.028 C 
HETATM    4  C5  UNL     1     -33.613   7.183   6.286  1.00 20.00     0.023 C 
HETATM    5  C6  UNL     1     -33.127   6.024   4.095  1.00 20.00     0.158 C 
HETATM    6  C7  UNL     1     -33.367   7.397   4.778  1.00 20.00     0.039 C 
HETATM    7  C8  UNL     1     -34.523   8.187   4.139  1.00 20.00     0.026 C 
ENDROOT
BRANCH   6   8
HETATM    8  C3  UNL     1     -32.119   8.235   4.650  1.00 20.00     0.243 C 
HETATM    9  O10 UNL     1     -32.080   9.434   4.907  1.00 20.00    -0.306 OA
ENDBRANCH   6   8
BRANCH   5  10
HETATM   10  O11 UNL     1     -33.249   6.138   2.677  1.00 20.00    -0.386 OA
HETATM   11  C9  UNL     1     -32.950   4.909   2.034  1.00 20.00     0.202 C 
ENDBRANCH   5  10
TORSDOF 2
ENDMDL
MODEL 6
REMARK VINA RESULT:      -3.5     10.001     11.355
REMARK  2 active torsions:
REMARK  status: ('A' for Active; 'I' for Inactive)
REMARK    1  A    between atoms: C3_3  and  C7_7 
REMARK    2  A    between atoms: C6_6  and  O11_11 
ROOT
HETATM    1  C1  UNL     1     -41.921  14.305   4.682  1.00 20.00    -0.028 C 
HETATM    2  C2  UNL     1     -41.293  13.291   5.292  1.00 20.00     0.002 C 
HETATM    3  C4  UNL     1     -42.634  15.395   5.421  1.00 20.00     0.028 C 
HETATM    4  C5  UNL     1     -42.833  15.085   6.908  1.00 20.00     0.023 C 
HETATM    5  C6  UNL     1     -41.214  13.150   6.788  1.00 20.00     0.158 C 
HETATM    6  C7  UNL     1     -41.585  14.448   7.553  1.00 20.00     0.039 C 
HETATM    7  C8  UNL     1     -40.423  15.455   7.615  1.00 20.00     0.026 C 
ENDROOT
BRANCH   6   8
HETATM    8  C3  UNL     1     -41.955  14.094   8.972  1.00 20.00     0.243 C 
HETATM    9  O10 UNL     1     -42.471  13.027   9.291  1.00 20.00    -0.306 OA
ENDBRANCH   6   8
BRANCH   5  10
HETATM   10  O11 UNL     1     -39.889  12.731   7.117  1.00 20.00    -0.386 OA
HETATM   11  C9  UNL     1     -39.324  11.947   6.078  1.00 20.00     0.202 C 
ENDBRANCH   5  10
TORSDOF 2
ENDMDL
MODEL 7
REMARK VINA RESULT:      -3.4     12.771     14.662
REMARK  2 active torsions:
REMARK  status: ('A' for Active; 'I' for Inactive)
REMARK    1  A    between atoms: C3_3  and  C7_7 
REMARK    2  A    between atoms: C6_6  and  O11_11 
ROOT
HETATM    1  C1  UNL     1     -33.230  16.693  -2.319  1.00 20.00    -0.028 C 
HETATM    2  C2  UNL     1     -33.667  15.948  -3.343  1.00 20.00     0.002 C 
HETATM    3  C4  UNL     1     -33.097  18.184  -2.384  1.00 20.00     0.028 C 
HETATM    4  C5  UNL     1     -33.217  18.738  -3.808  1.00 20.00     0.023 C 
HETATM    5  C6  UNL     1     -34.095  16.529  -4.663  1.00 20.00     0.158 C 
HETATM    6  C7  UNL     1     -34.344  18.061  -4.614  1.00 20.00     0.039 C 
HETATM    7  C8  UNL     1     -35.726  18.421  -4.040  1.00 20.00     0.026 C 
ENDROOT
BRANCH   6   8
HETATM    8  C3  UNL     1     -34.277  18.615  -6.016  1.00 20.00     0.243 C 
HETATM    9  O10 UNL     1     -35.263  18.769  -6.730  1.00 20.00    -0.306 OA
ENDBRANCH   6   8
BRANCH   5  10
HETATM   10  O11 UNL     1     -35.273  15.840  -5.082  1.00 20.00    -0.386 OA
HETATM   11  C9  UNL     1     -35.003  14.978  -6.176  1.00 20.00     0.202 C 
ENDBRANCH   5  10
TORSDOF 2
ENDMDL
MODEL 8
REMARK VINA RESULT:      -3.4     10.155     11.666
REMARK  2 active torsions:
REMARK  status: ('A' for Active; 'I' for Inactive)
REMARK    1  A    between atoms: C3_3  and  C7_7 
REMARK    2  A    between atoms: C6_6  and  O11_11 
ROOT
HETATM    1  C1  UNL     1     -40.751  14.908   8.413  1.00 20.00    -0.028 C 
HETATM    2  C2  UNL     1     -40.304  13.932   7.611  1.00 20.00     0.002 C 
HETATM    3  C4  UNL     1     -41.849  15.851   8.028  1.00 20.00     0.028 C 
HETATM    4  C5  UNL     1     -42.200  15.790   6.538  1.00 20.00     0.023 C 
HETATM    5  C6  UNL     1     -40.871  13.662   6.245  1.00 20.00     0.158 C 
HETATM    6  C7  UNL     1     -42.242  14.346   5.997  1.00 20.00     0.039 C 
HETATM    7  C8  UNL     1     -43.417  13.564   6.609  1.00 20.00     0.026 C 
ENDROOT
BRANCH   6   8
HETATM    8  C3  UNL     1     -42.484  14.439   4.511  1.00 20.00     0.243 C 
HETATM    9  O10 UNL     1     -41.651  14.118   3.669  1.00 20.00    -0.306 OA
ENDBRANCH   6   8
BRANCH   5  10
HETATM   10  O11 UNL     1     -40.978  12.247   6.089  1.00 20.00    -0.386 OA
HETATM   11  C9  UNL     1     -39.718  11.665   5.795  1.00 20.00     0.202 C 
ENDBRANCH   5  10
TORSDOF 2
ENDMDL
MODEL 9
REMARK VINA RESULT:      -3.3     12.844     13.984
REMARK  2 active torsions:
REMARK  status: ('A' for Active; 'I' for Inactive)
REMARK    1  A    between atoms: C3_3  and  C7_7 
REMARK    2  A    between atoms: C6_6  and  O11_11 
ROOT
HETATM    1  C1  UNL     1     -33.637  14.767  -4.586  1.00 20.00    -0.028 C 
HETATM    2  C2  UNL     1     -33.277  15.785  -3.792  1.00 20.00     0.002 C 
HETATM    3  C4  UNL     1     -34.844  14.802  -5.473  1.00 20.00     0.028 C 
HETATM    4  C5  UNL     1     -35.783  15.974  -5.167  1.00 20.00     0.023 C 
HETATM    5  C6  UNL     1     -34.032  17.084  -3.723  1.00 20.00     0.158 C 
HETATM    6  C7  UNL     1     -35.022  17.289  -4.902  1.00 20.00     0.039 C 
HETATM    7  C8  UNL     1     -34.329  17.792  -6.180  1.00 20.00     0.026 C 
ENDROOT
BRANCH   6   8
HETATM    8  C3  UNL     1     -36.049  18.321  -4.507  1.00 20.00     0.243 C 
HETATM    9  O10 UNL     1     -36.422  18.497  -3.351  1.00 20.00    -0.306 OA
ENDBRANCH   6   8
BRANCH   5  10
HETATM   10  O11 UNL     1     -33.075  18.142  -3.678  1.00 20.00    -0.386 OA
HETATM   11  C9  UNL     1     -32.830  18.559  -2.344  1.00 20.00     0.202 C 
ENDBRANCH   5  10
TORSDOF 2
ENDMDL
