MODEL 1
REMARK VINA RESULT:      -4.2      0.000      0.000
REMARK  2 active torsions:
REMARK  status: ('A' for Active; 'I' for Inactive)
REMARK    1  A    between atoms: C3_3  and  C7_7 
REMARK    2  A    between atoms: C8_8  and  C10_10 
ROOT
HETATM    1  C1  UNL     1     -33.714  14.768  -4.566  1.00 20.00     0.012 C 
HETATM    2  C2  UNL     1     -33.506  15.538  -3.669  1.00 20.00    -0.117 C 
HETATM    3  C10 UNL     1     -33.251  16.474  -2.567  1.00 20.00     0.098 C 
ENDROOT
BRANCH   3   4
HETATM    4  C8  UNL     1     -33.191  17.918  -3.070  1.00 20.00     0.008 C 
HETATM    5  C6  UNL     1     -34.489  18.321  -3.771  1.00 20.00     0.006 C 
HETATM    6  C4  UNL     1     -35.425  18.709  -2.634  1.00 20.00     0.001 C 
HETATM    7  C5  UNL     1     -34.522  19.263  -1.532  1.00 20.00     0.013 C 
HETATM    8  C7  UNL     1     -33.084  18.977  -1.968  1.00 20.00     0.060 C 
BRANCH   8   9
HETATM    9  C3  UNL     1     -32.224  18.584  -0.784  1.00 20.00     0.127 C 
HETATM   10  C9  UNL     1     -32.943  18.263   0.498  1.00 20.00     0.091 C 
HETATM   11  O11 UNL     1     -30.998  18.528  -0.869  1.00 20.00    -0.298 OA
ENDBRANCH   8   9
ENDBRANCH   3   4
TORSDOF 2
ENDMDL
MODEL 2
REMARK VINA RESULT:      -4.1     12.065     13.101
REMARK  2 active torsions:
REMARK  status: ('A' for Active; 'I' for Inactive)
REMARK    1  A    between atoms: C3_3  and  C7_7 
REMARK    2  A    between atoms: C8_8  and  C10_10 
ROOT
HETATM    1  C1  UNL     1     -32.931   4.347   1.468  1.00 20.00     0.012 C 
HETATM    2  C2  UNL     1     -32.924   4.870   2.549  1.00 20.00    -0.117 C 
HETATM    3  C10 UNL     1     -32.908   5.506   3.871  1.00 20.00     0.098 C 
ENDROOT
BRANCH   3   4
HETATM    4  C8  UNL     1     -34.216   6.251   4.143  1.00 20.00     0.008 C 
HETATM    5  C6  UNL     1     -35.104   5.484   5.124  1.00 20.00     0.006 C 
HETATM    6  C4  UNL     1     -34.555   5.856   6.496  1.00 20.00     0.001 C 
HETATM    7  C5  UNL     1     -34.007   7.275   6.346  1.00 20.00     0.013 C 
HETATM    8  C7  UNL     1     -34.050   7.599   4.852  1.00 20.00     0.060 C 
BRANCH   8   9
HETATM    9  C3  UNL     1     -32.834   8.398   4.432  1.00 20.00     0.127 C 
HETATM   10  C9  UNL     1     -32.731   8.760   2.976  1.00 20.00     0.091 C 
HETATM   11  O11 UNL     1     -31.974   8.737   5.244  1.00 20.00    -0.298 OA
ENDBRANCH   8   9
ENDBRANCH   3   4
TORSDOF 2
ENDMDL
MODEL 3
REMARK VINA RESULT:      -3.9     11.946     12.803
REMARK  2 active torsions:
REMARK  status: ('A' for Active; 'I' for Inactive)
REMARK    1  A    between atoms: C3_3  and  C7_7 
REMARK    2  A    between atoms: C8_8  and  C10_10 
ROOT
HETATM    1  C1  UNL     1     -39.113  11.721   4.316  1.00 20.00     0.012 C 
HETATM    2  C2  UNL     1     -39.838  12.106   5.191  1.00 20.00    -0.117 C 
HETATM    3  C10 UNL     1     -40.725  12.570   6.265  1.00 20.00     0.098 C 
ENDROOT
BRANCH   3   4
HETATM    4  C8  UNL     1     -41.090  14.045   6.084  1.00 20.00     0.008 C 
HETATM    5  C6  UNL     1     -42.041  14.246   4.903  1.00 20.00     0.006 C 
HETATM    6  C4  UNL     1     -43.417  13.930   5.473  1.00 20.00     0.001 C 
HETATM    7  C5  UNL     1     -43.352  14.329   6.946  1.00 20.00     0.013 C 
HETATM    8  C7  UNL     1     -41.888  14.655   7.241  1.00 20.00     0.060 C 
BRANCH   8   9
HETATM    9  C3  UNL     1     -41.489  14.170   8.619  1.00 20.00     0.127 C 
HETATM   10  C9  UNL     1     -40.246  14.773   9.215  1.00 20.00     0.091 C 
HETATM   11  O11 UNL     1     -42.151  13.327   9.223  1.00 20.00    -0.298 OA
ENDBRANCH   8   9
ENDBRANCH   3   4
TORSDOF 2
ENDMDL
MODEL 4
REMARK VINA RESULT:      -3.9      2.377      4.426
REMARK  2 active torsions:
REMARK  status: ('A' for Active; 'I' for Inactive)
REMARK    1  A    between atoms: C3_3  and  C7_7 
REMARK    2  A    between atoms: C8_8  and  C10_10 
ROOT
HETATM    1  C1  UNL     1     -32.167  18.506  -1.193  1.00 20.00     0.012 C 
HETATM    2  C2  UNL     1     -32.853  17.684  -1.736  1.00 20.00    -0.117 C 
HETATM    3  C10 UNL     1     -33.695  16.678  -2.394  1.00 20.00     0.098 C 
ENDROOT
BRANCH   3   4
HETATM    4  C8  UNL     1     -33.255  16.447  -3.841  1.00 20.00     0.008 C 
HETATM    5  C6  UNL     1     -32.927  14.976  -4.099  1.00 20.00     0.006 C 
HETATM    6  C4  UNL     1     -34.281  14.330  -4.361  1.00 20.00     0.001 C 
HETATM    7  C5  UNL     1     -35.137  15.422  -5.003  1.00 20.00     0.013 C 
HETATM    8  C7  UNL     1     -34.336  16.719  -4.892  1.00 20.00     0.060 C 
BRANCH   8   9
HETATM    9  C3  UNL     1     -35.243  17.895  -4.588  1.00 20.00     0.127 C 
HETATM   10  C9  UNL     1     -34.621  19.263  -4.649  1.00 20.00     0.091 C 
HETATM   11  O11 UNL     1     -36.430  17.737  -4.307  1.00 20.00    -0.298 OA
ENDBRANCH   8   9
ENDBRANCH   3   4
TORSDOF 2
ENDMDL
MODEL 5
REMARK VINA RESULT:      -3.8     11.509     12.966
REMARK  2 active torsions:
REMARK  status: ('A' for Active; 'I' for Inactive)
REMARK    1  A    between atoms: C3_3  and  C7_7 
REMARK    2  A    between atoms: C8_8  and  C10_10 
ROOT
HETATM    1  C1  UNL     1     -40.380  14.974  10.343  1.00 20.00     0.012 C 
HETATM    2  C2  UNL     1     -40.342  14.763   9.162  1.00 20.00    -0.117 C 
HETATM    3  C10 UNL     1     -40.291  14.509   7.717  1.00 20.00     0.098 C 
ENDROOT
BRANCH   3   4
HETATM    4  C8  UNL     1     -41.419  13.574   7.278  1.00 20.00     0.008 C 
HETATM    5  C6  UNL     1     -42.623  14.357   6.753  1.00 20.00     0.006 C 
HETATM    6  C4  UNL     1     -42.263  14.673   5.307  1.00 20.00     0.001 C 
HETATM    7  C5  UNL     1     -41.385  13.512   4.842  1.00 20.00     0.013 C 
HETATM    8  C7  UNL     1     -41.080  12.675   6.085  1.00 20.00     0.060 C 
BRANCH   8   9
HETATM    9  C3  UNL     1     -39.657  12.158   6.057  1.00 20.00     0.127 C 
HETATM   10  C9  UNL     1     -39.036  11.956   4.702  1.00 20.00     0.091 C 
HETATM   11  O11 UNL     1     -39.038  11.917   7.094  1.00 20.00    -0.298 OA
ENDBRANCH   8   9
ENDBRANCH   3   4
TORSDOF 2
ENDMDL
MODEL 6
REMARK VINA RESULT:      -3.7      1.756      3.103
REMARK  2 active torsions:
REMARK  status: ('A' for Active; 'I' for Inactive)
REMARK    1  A    between atoms: C3_3  and  C7_7 
REMARK    2  A    between atoms: C8_8  and  C10_10 
ROOT
HETATM    1  C1  UNL     1     -34.562  14.256  -4.380  1.00 20.00     0.012 C 
HETATM    2  C2  UNL     1     -33.905  15.147  -3.916  1.00 20.00    -0.117 C 
HETATM    3  C10 UNL     1     -33.096  16.234  -3.351  1.00 20.00     0.098 C 
ENDROOT
BRANCH   3   4
HETATM    4  C8  UNL     1     -33.959  17.205  -2.542  1.00 20.00     0.008 C 
HETATM    5  C6  UNL     1     -33.478  17.309  -1.094  1.00 20.00     0.006 C 
HETATM    6  C4  UNL     1     -32.330  18.308  -1.152  1.00 20.00     0.001 C 
HETATM    7  C5  UNL     1     -32.674  19.262  -2.295  1.00 20.00     0.013 C 
HETATM    8  C7  UNL     1     -33.889  18.663  -3.006  1.00 20.00     0.060 C 
BRANCH   8   9
HETATM    9  C3  UNL     1     -33.792  18.855  -4.505  1.00 20.00     0.127 C 
HETATM   10  C9  UNL     1     -35.020  18.527  -5.310  1.00 20.00     0.091 C 
HETATM   11  O11 UNL     1     -32.760  19.261  -5.038  1.00 20.00    -0.298 OA
ENDBRANCH   8   9
ENDBRANCH   3   4
TORSDOF 2
ENDMDL
MODEL 7
REMARK VINA RESULT:      -3.7     11.819     12.846
REMARK  2 active torsions:
REMARK  status: ('A' for Active; 'I' for Inactive)
REMARK    1  A    between atoms: C3_3  and  C7_7 
REMARK    2  A    between atoms: C8_8  and  C10_10 
ROOT
HETATM    1  C1  UNL     1     -39.275  11.709   4.411  1.00 20.00     0.012 C 
HETATM    2  C2  UNL     1     -39.656  12.269   5.402  1.00 20.00    -0.117 C 
HETATM    3  C10 UNL     1     -40.116  12.950   6.618  1.00 20.00     0.098 C 
ENDROOT
BRANCH   3   4
HETATM    4  C8  UNL     1     -41.432  13.690   6.375  1.00 20.00     0.008 C 
HETATM    5  C6  UNL     1     -42.624  12.731   6.384  1.00 20.00     0.006 C 
HETATM    6  C4  UNL     1     -42.947  12.551   7.862  1.00 20.00     0.001 C 
HETATM    7  C5  UNL     1     -42.557  13.868   8.530  1.00 20.00     0.013 C 
HETATM    8  C7  UNL     1     -41.819  14.688   7.471  1.00 20.00     0.060 C 
BRANCH   8   9
HETATM    9  C3  UNL     1     -40.661  15.449   8.082  1.00 20.00     0.127 C 
HETATM   10  C9  UNL     1     -40.219  15.024   9.455  1.00 20.00     0.091 C 
HETATM   11  O11 UNL     1     -40.106  16.370   7.481  1.00 20.00    -0.298 OA
ENDBRANCH   8   9
ENDBRANCH   3   4
TORSDOF 2
ENDMDL
MODEL 8
REMARK VINA RESULT:      -3.7      3.174      5.580
REMARK  2 active torsions:
REMARK  status: ('A' for Active; 'I' for Inactive)
REMARK    1  A    between atoms: C3_3  and  C7_7 
REMARK    2  A    between atoms: C8_8  and  C10_10 
ROOT
HETATM    1  C1  UNL     1     -33.315  17.009  -1.948  1.00 20.00     0.012 C 
HETATM    2  C2  UNL     1     -33.756  16.918  -3.061  1.00 20.00    -0.117 C 
HETATM    3  C10 UNL     1     -34.300  16.814  -4.420  1.00 20.00     0.098 C 
ENDROOT
BRANCH   3   4
HETATM    4  C8  UNL     1     -33.838  15.526  -5.104  1.00 20.00     0.008 C 
HETATM    5  C6  UNL     1     -34.188  14.292  -4.270  1.00 20.00     0.006 C 
HETATM    6  C4  UNL     1     -35.644  14.007  -4.618  1.00 20.00     0.001 C 
HETATM    7  C5  UNL     1     -35.820  14.478  -6.061  1.00 20.00     0.013 C 
HETATM    8  C7  UNL     1     -34.536  15.220  -6.433  1.00 20.00     0.060 C 
BRANCH   8   9
HETATM    9  C3  UNL     1     -34.835  16.430  -7.293  1.00 20.00     0.127 C 
HETATM   10  C9  UNL     1     -36.279  16.832  -7.416  1.00 20.00     0.091 C 
HETATM   11  O11 UNL     1     -33.940  17.056  -7.860  1.00 20.00    -0.298 OA
ENDBRANCH   8   9
ENDBRANCH   3   4
TORSDOF 2
ENDMDL
MODEL 9
REMARK VINA RESULT:      -3.7      2.959      4.868
REMARK  2 active torsions:
REMARK  status: ('A' for Active; 'I' for Inactive)
REMARK    1  A    between atoms: C3_3  and  C7_7 
REMARK    2  A    between atoms: C8_8  and  C10_10 
ROOT
HETATM    1  C1  UNL     1     -33.309  17.393  -1.271  1.00 20.00     0.012 C 
HETATM    2  C2  UNL     1     -33.475  17.045  -2.408  1.00 20.00    -0.117 C 
HETATM    3  C10 UNL     1     -33.670  16.616  -3.798  1.00 20.00     0.098 C 
ENDROOT
BRANCH   3   4
HETATM    4  C8  UNL     1     -34.943  17.224  -4.392  1.00 20.00     0.008 C 
HETATM    5  C6  UNL     1     -34.786  18.727  -4.631  1.00 20.00     0.006 C 
HETATM    6  C4  UNL     1     -34.064  18.819  -5.970  1.00 20.00     0.001 C 
HETATM    7  C5  UNL     1     -34.515  17.593  -6.763  1.00 20.00     0.013 C 
HETATM    8  C7  UNL     1     -35.304  16.715  -5.791  1.00 20.00     0.060 C 
BRANCH   8   9
HETATM    9  C3  UNL     1     -35.022  15.246  -6.030  1.00 20.00     0.127 C 
HETATM   10  C9  UNL     1     -35.936  14.262  -5.354  1.00 20.00     0.091 C 
HETATM   11  O11 UNL     1     -34.091  14.877  -6.746  1.00 20.00    -0.298 OA
ENDBRANCH   8   9
ENDBRANCH   3   4
TORSDOF 2
ENDMDL
