MODEL 1
REMARK VINA RESULT:      -3.7      0.000      0.000
REMARK  3 active torsions:
REMARK  status: ('A' for Active; 'I' for Inactive)
REMARK    1  A    between atoms: C1_1  and  C10_10 
REMARK    2  A    between atoms: C7_7  and  C8_8 
REMARK    3  A    between atoms: C9_9  and  C10_10 
ROOT
HETATM    1  C2  UNL     1     -23.745  19.262   8.196  1.00 20.00     0.006 C 
HETATM    2  C3  UNL     1     -22.089  17.405   8.344  1.00 20.00     0.006 C 
HETATM    3  C4  UNL     1     -24.626  18.560   9.255  1.00 20.00     0.019 C 
HETATM    4  C5  UNL     1     -22.964  16.706   9.404  1.00 20.00     0.019 C 
HETATM    5  C7  UNL     1     -22.252  18.934   8.447  1.00 20.00    -0.010 C 
HETATM    6  C10 UNL     1     -23.734  17.757  10.236  1.00 20.00     0.040 C 
ENDROOT
BRANCH   6   7
HETATM    7  C1  UNL     1     -24.572  17.055  11.263  1.00 20.00     0.228 C 
HETATM    8  O11 UNL     1     -24.373  15.882  11.563  1.00 20.00    -0.279 OA
HETATM    9 CL12 UNL     1     -25.798  18.092  11.926  1.00 20.00    -0.043 Cl
ENDBRANCH   6   7
BRANCH   6  10
HETATM   10  C9  UNL     1     -22.780  18.756  10.882  1.00 20.00     0.007 A 
HETATM   11  C6  UNL     1     -22.800  19.171  12.332  1.00 20.00     0.011 A 
HETATM   12  C8  UNL     1     -21.871  18.075  11.874  1.00 20.00    -0.005 A 
ENDBRANCH   6  10
TORSDOF 3
ENDMDL
MODEL 2
REMARK VINA RESULT:      -3.5     18.827     19.921
REMARK  3 active torsions:
REMARK  status: ('A' for Active; 'I' for Inactive)
REMARK    1  A    between atoms: C1_1  and  C10_10 
REMARK    2  A    between atoms: C7_7  and  C8_8 
REMARK    3  A    between atoms: C9_9  and  C10_10 
ROOT
HETATM    1  C2  UNL     1     -36.757  17.824  -4.539  1.00 20.00     0.006 C 
HETATM    2  C3  UNL     1     -34.509  18.654  -5.222  1.00 20.00     0.006 C 
HETATM    3  C4  UNL     1     -36.682  16.727  -5.628  1.00 20.00     0.019 C 
HETATM    4  C5  UNL     1     -34.431  17.559  -6.304  1.00 20.00     0.019 C 
HETATM    5  C7  UNL     1     -35.336  18.154  -4.021  1.00 20.00    -0.010 C 
HETATM    6  C10 UNL     1     -35.208  16.302  -5.849  1.00 20.00     0.040 C 
ENDROOT
BRANCH   6   7
HETATM    7  C1  UNL     1     -35.112  15.250  -6.912  1.00 20.00     0.228 C 
HETATM    8  O11 UNL     1     -35.952  14.362  -7.018  1.00 20.00    -0.279 OA
HETATM    9 CL12 UNL     1     -33.711  15.463  -7.918  1.00 20.00    -0.043 Cl
ENDBRANCH   6   7
BRANCH   6  10
HETATM   10  C9  UNL     1     -34.691  15.790  -4.508  1.00 20.00     0.007 A 
HETATM   11  C6  UNL     1     -34.440  14.344  -4.164  1.00 20.00     0.011 A 
HETATM   12  C8  UNL     1     -33.305  15.212  -4.646  1.00 20.00    -0.005 A 
ENDBRANCH   6  10
TORSDOF 3
ENDMDL
MODEL 3
REMARK VINA RESULT:      -3.3     18.039     19.426
REMARK  3 active torsions:
REMARK  status: ('A' for Active; 'I' for Inactive)
REMARK    1  A    between atoms: C1_1  and  C10_10 
REMARK    2  A    between atoms: C7_7  and  C8_8 
REMARK    3  A    between atoms: C9_9  and  C10_10 
ROOT
HETATM    1  C2  UNL     1     -40.452  15.928   8.002  1.00 20.00     0.006 C 
HETATM    2  C3  UNL     1     -42.855  15.723   8.631  1.00 20.00     0.006 C 
HETATM    3  C4  UNL     1     -40.420  14.426   7.637  1.00 20.00     0.019 C 
HETATM    4  C5  UNL     1     -42.825  14.226   8.264  1.00 20.00     0.019 C 
HETATM    5  C7  UNL     1     -41.866  16.505   7.745  1.00 20.00    -0.010 C 
HETATM    6  C10 UNL     1     -41.812  13.976   7.124  1.00 20.00     0.040 C 
ENDROOT
BRANCH   6   7
HETATM    7  C1  UNL     1     -41.806  12.517   6.780  1.00 20.00     0.228 C 
HETATM    8  O11 UNL     1     -42.743  11.781   7.077  1.00 20.00    -0.279 OA
HETATM    9 CL12 UNL     1     -40.357  12.048   5.944  1.00 20.00    -0.043 Cl
ENDBRANCH   6   7
BRANCH   6  10
HETATM   10  C9  UNL     1     -42.130  14.837   5.905  1.00 20.00     0.007 A 
HETATM   11  C6  UNL     1     -42.126  14.359   4.474  1.00 20.00     0.011 A 
HETATM   12  C8  UNL     1     -43.417  14.397   5.253  1.00 20.00    -0.005 A 
ENDBRANCH   6  10
TORSDOF 3
ENDMDL
MODEL 4
REMARK VINA RESULT:      -3.3     15.810     17.299
REMARK  3 active torsions:
REMARK  status: ('A' for Active; 'I' for Inactive)
REMARK    1  A    between atoms: C1_1  and  C10_10 
REMARK    2  A    between atoms: C7_7  and  C8_8 
REMARK    3  A    between atoms: C9_9  and  C10_10 
ROOT
HETATM    1  C2  UNL     1     -34.456  18.516  -0.745  1.00 20.00     0.006 C 
HETATM    2  C3  UNL     1     -32.213  18.957  -1.737  1.00 20.00     0.006 C 
HETATM    3  C4  UNL     1     -35.085  18.542  -2.158  1.00 20.00     0.019 C 
HETATM    4  C5  UNL     1     -32.838  18.979  -3.146  1.00 20.00     0.019 C 
HETATM    5  C7  UNL     1     -32.999  17.997  -0.824  1.00 20.00    -0.010 C 
HETATM    6  C10 UNL     1     -34.060  18.034  -3.203  1.00 20.00     0.040 C 
ENDROOT
BRANCH   6   7
HETATM    7  C1  UNL     1     -34.646  18.066  -4.582  1.00 20.00     0.228 C 
HETATM    8  O11 UNL     1     -33.962  18.330  -5.567  1.00 20.00    -0.279 OA
HETATM    9 CL12 UNL     1     -36.344  17.697  -4.580  1.00 20.00    -0.043 Cl
ENDBRANCH   6   7
BRANCH   6  10
HETATM   10  C9  UNL     1     -33.679  16.615  -2.791  1.00 20.00     0.007 A 
HETATM   11  C6  UNL     1     -34.077  15.357  -3.522  1.00 20.00     0.011 A 
HETATM   12  C8  UNL     1     -32.737  15.994  -3.793  1.00 20.00    -0.005 A 
ENDBRANCH   6  10
TORSDOF 3
ENDMDL
MODEL 5
REMARK VINA RESULT:      -3.3     18.609     20.072
REMARK  3 active torsions:
REMARK  status: ('A' for Active; 'I' for Inactive)
REMARK    1  A    between atoms: C1_1  and  C10_10 
REMARK    2  A    between atoms: C7_7  and  C8_8 
REMARK    3  A    between atoms: C9_9  and  C10_10 
ROOT
HETATM    1  C2  UNL     1     -34.330  14.123  -4.167  1.00 20.00     0.006 C 
HETATM    2  C3  UNL     1     -33.702  16.467  -3.600  1.00 20.00     0.006 C 
HETATM    3  C4  UNL     1     -35.593  14.639  -4.896  1.00 20.00     0.019 C 
HETATM    4  C5  UNL     1     -34.958  16.983  -4.330  1.00 20.00     0.019 C 
HETATM    5  C7  UNL     1     -33.196  15.173  -4.266  1.00 20.00    -0.010 C 
HETATM    6  C10 UNL     1     -35.319  16.040  -5.501  1.00 20.00     0.040 C 
ENDROOT
BRANCH   6   7
HETATM    7  C1  UNL     1     -36.537  16.565  -6.199  1.00 20.00     0.228 C 
HETATM    8  O11 UNL     1     -37.294  15.824  -6.819  1.00 20.00    -0.279 OA
HETATM    9 CL12 UNL     1     -36.708  18.284  -6.012  1.00 20.00    -0.043 Cl
ENDBRANCH   6   7
BRANCH   6  10
HETATM   10  C9  UNL     1     -34.147  15.882  -6.464  1.00 20.00     0.007 A 
HETATM   11  C6  UNL     1     -34.257  15.496  -7.917  1.00 20.00     0.011 A 
HETATM   12  C8  UNL     1     -34.172  16.951  -7.528  1.00 20.00    -0.005 A 
ENDBRANCH   6  10
TORSDOF 3
ENDMDL
MODEL 6
REMARK VINA RESULT:      -3.2     18.996     20.438
REMARK  3 active torsions:
REMARK  status: ('A' for Active; 'I' for Inactive)
REMARK    1  A    between atoms: C1_1  and  C10_10 
REMARK    2  A    between atoms: C7_7  and  C8_8 
REMARK    3  A    between atoms: C9_9  and  C10_10 
ROOT
HETATM    1  C2  UNL     1     -34.312  18.190  -6.716  1.00 20.00     0.006 C 
HETATM    2  C3  UNL     1     -34.148  17.635  -4.293  1.00 20.00     0.006 C 
HETATM    3  C4  UNL     1     -34.680  16.720  -7.027  1.00 20.00     0.019 C 
HETATM    4  C5  UNL     1     -34.519  16.171  -4.600  1.00 20.00     0.019 C 
HETATM    5  C7  UNL     1     -34.824  18.578  -5.308  1.00 20.00    -0.010 C 
HETATM    6  C10 UNL     1     -35.451  16.104  -5.832  1.00 20.00     0.040 C 
ENDROOT
BRANCH   6   7
HETATM    7  C1  UNL     1     -35.803  14.674  -6.107  1.00 20.00     0.228 C 
HETATM    8  O11 UNL     1     -36.063  14.281  -7.241  1.00 20.00    -0.279 OA
HETATM    9 CL12 UNL     1     -35.789  13.707  -4.663  1.00 20.00    -0.043 Cl
ENDBRANCH   6   7
BRANCH   6  10
HETATM   10  C9  UNL     1     -36.699  16.957  -5.626  1.00 20.00     0.007 A 
HETATM   11  C6  UNL     1     -37.958  16.875  -6.452  1.00 20.00     0.011 A 
HETATM   12  C8  UNL     1     -37.858  16.117  -5.152  1.00 20.00    -0.005 A 
ENDBRANCH   6  10
TORSDOF 3
ENDMDL
MODEL 7
REMARK VINA RESULT:      -3.2     18.749     20.238
REMARK  3 active torsions:
REMARK  status: ('A' for Active; 'I' for Inactive)
REMARK    1  A    between atoms: C1_1  and  C10_10 
REMARK    2  A    between atoms: C7_7  and  C8_8 
REMARK    3  A    between atoms: C9_9  and  C10_10 
ROOT
HETATM    1  C2  UNL     1     -34.558  18.617  -4.882  1.00 20.00     0.006 C 
HETATM    2  C3  UNL     1     -36.835  18.283  -5.837  1.00 20.00     0.006 C 
HETATM    3  C4  UNL     1     -34.504  17.122  -4.490  1.00 20.00     0.019 C 
HETATM    4  C5  UNL     1     -36.781  16.792  -5.452  1.00 20.00     0.019 C 
HETATM    5  C7  UNL     1     -35.418  18.800  -6.156  1.00 20.00    -0.010 C 
HETATM    6  C10 UNL     1     -35.323  16.280  -5.502  1.00 20.00     0.040 C 
ENDROOT
BRANCH   6   7
HETATM    7  C1  UNL     1     -35.297  14.828  -5.131  1.00 20.00     0.228 C 
HETATM    8  O11 UNL     1     -36.230  14.078  -5.399  1.00 20.00    -0.279 OA
HETATM    9 CL12 UNL     1     -33.830  14.390  -4.309  1.00 20.00    -0.043 Cl
ENDBRANCH   6   7
BRANCH   6  10
HETATM   10  C9  UNL     1     -34.703  16.517  -6.875  1.00 20.00     0.007 A 
HETATM   11  C6  UNL     1     -33.839  15.534  -7.624  1.00 20.00     0.011 A 
HETATM   12  C8  UNL     1     -35.317  15.610  -7.912  1.00 20.00    -0.005 A 
ENDBRANCH   6  10
TORSDOF 3
ENDMDL
MODEL 8
REMARK VINA RESULT:      -3.1     18.027     19.363
REMARK  3 active torsions:
REMARK  status: ('A' for Active; 'I' for Inactive)
REMARK    1  A    between atoms: C1_1  and  C10_10 
REMARK    2  A    between atoms: C7_7  and  C8_8 
REMARK    3  A    between atoms: C9_9  and  C10_10 
ROOT
HETATM    1  C2  UNL     1     -42.296  14.266   4.220  1.00 20.00     0.006 C 
HETATM    2  C3  UNL     1     -42.779  16.242   5.659  1.00 20.00     0.006 C 
HETATM    3  C4  UNL     1     -41.194  13.817   5.208  1.00 20.00     0.019 C 
HETATM    4  C5  UNL     1     -41.685  15.793   6.648  1.00 20.00     0.019 C 
HETATM    5  C7  UNL     1     -43.417  15.014   4.981  1.00 20.00    -0.010 C 
HETATM    6  C10 UNL     1     -41.567  14.252   6.648  1.00 20.00     0.040 C 
ENDROOT
BRANCH   6   7
HETATM    7  C1  UNL     1     -40.503  13.839   7.620  1.00 20.00     0.228 C 
HETATM    8  O11 UNL     1     -39.845  12.815   7.459  1.00 20.00    -0.279 OA
HETATM    9 CL12 UNL     1     -40.348  14.963   8.937  1.00 20.00    -0.043 Cl
ENDBRANCH   6   7
BRANCH   6  10
HETATM   10  C9  UNL     1     -42.905  13.596   6.973  1.00 20.00     0.007 A 
HETATM   11  C6  UNL     1     -43.092  12.169   7.422  1.00 20.00     0.011 A 
HETATM   12  C8  UNL     1     -43.009  13.275   8.443  1.00 20.00    -0.005 A 
ENDBRANCH   6  10
TORSDOF 3
ENDMDL
MODEL 9
REMARK VINA RESULT:      -3.1     17.785     19.202
REMARK  3 active torsions:
REMARK  status: ('A' for Active; 'I' for Inactive)
REMARK    1  A    between atoms: C1_1  and  C10_10 
REMARK    2  A    between atoms: C7_7  and  C8_8 
REMARK    3  A    between atoms: C9_9  and  C10_10 
ROOT
HETATM    1  C2  UNL     1     -35.006  15.731  -7.171  1.00 20.00     0.006 C 
HETATM    2  C3  UNL     1     -36.960  15.835  -5.628  1.00 20.00     0.006 C 
HETATM    3  C4  UNL     1     -34.406  16.986  -6.495  1.00 20.00     0.019 C 
HETATM    4  C5  UNL     1     -36.361  17.083  -4.950  1.00 20.00     0.019 C 
HETATM    5  C7  UNL     1     -35.832  14.919  -6.144  1.00 20.00    -0.010 C 
HETATM    6  C10 UNL     1     -34.817  17.028  -5.001  1.00 20.00     0.040 C 
ENDROOT
BRANCH   6   7
HETATM    7  C1  UNL     1     -34.257  18.247  -4.330  1.00 20.00     0.228 C 
HETATM    8  O11 UNL     1     -33.217  18.773  -4.714  1.00 20.00    -0.279 OA
HETATM    9 CL12 UNL     1     -35.246  18.774  -3.002  1.00 20.00    -0.043 Cl
ENDBRANCH   6   7
BRANCH   6  10
HETATM   10  C9  UNL     1     -34.289  15.747  -4.363  1.00 20.00     0.007 A 
HETATM   11  C6  UNL     1     -32.833  15.381  -4.215  1.00 20.00     0.011 A 
HETATM   12  C8  UNL     1     -33.564  16.043  -3.073  1.00 20.00    -0.005 A 
ENDBRANCH   6  10
TORSDOF 3
ENDMDL
