MODEL 1
REMARK VINA RESULT:      -4.8      0.000      0.000
REMARK  1 active torsions:
REMARK  status: ('A' for Active; 'I' for Inactive)
REMARK    1  A    between atoms: C3_3  and  C7_7 
ROOT
HETATM    1  C1  UNL     1     -32.819   6.360   2.575  1.00 20.00    -0.007 C 
HETATM    2  C2  UNL     1     -32.422   7.629   2.398  1.00 20.00     0.008 C 
HETATM    3  C4  UNL     1     -33.499   5.888   3.826  1.00 20.00     0.042 C 
HETATM    4  C5  UNL     1     -32.581   8.700   3.434  1.00 20.00     0.051 C 
HETATM    5  C6  UNL     1     -32.914   8.137   4.820  1.00 20.00     0.019 C 
HETATM    6  C7  UNL     1     -33.971   7.034   4.732  1.00 20.00     0.076 C 
HETATM    7 CL9  UNL     1     -31.663   8.115   0.924  1.00 20.00    -0.089 Cl
ENDROOT
BRANCH   6   8
HETATM    8  C3  UNL     1     -34.289   6.509   6.100  1.00 20.00     0.223 C 
HETATM    9  O8  UNL     1     -34.404   7.256   7.067  1.00 20.00    -0.279 OA
HETATM   10 CL10 UNL     1     -34.460   4.779   6.113  1.00 20.00    -0.043 Cl
ENDBRANCH   6   8
TORSDOF 1
ENDMDL
MODEL 2
REMARK VINA RESULT:      -4.5      0.334      1.623
REMARK  1 active torsions:
REMARK  status: ('A' for Active; 'I' for Inactive)
REMARK    1  A    between atoms: C3_3  and  C7_7 
ROOT
HETATM    1  C1  UNL     1     -32.660   8.665   3.359  1.00 20.00    -0.007 C 
HETATM    2  C2  UNL     1     -32.425   7.723   2.435  1.00 20.00     0.008 C 
HETATM    3  C4  UNL     1     -33.229   8.353   4.713  1.00 20.00     0.042 C 
HETATM    4  C5  UNL     1     -32.735   6.269   2.634  1.00 20.00     0.051 C 
HETATM    5  C6  UNL     1     -33.652   6.019   3.836  1.00 20.00     0.019 C 
HETATM    6  C7  UNL     1     -33.222   6.854   5.044  1.00 20.00     0.076 C 
HETATM    7 CL9  UNL     1     -31.748   8.144   0.903  1.00 20.00    -0.089 Cl
ENDROOT
BRANCH   6   8
HETATM    8  C3  UNL     1     -34.125   6.582   6.210  1.00 20.00     0.223 C 
HETATM    9  O8  UNL     1     -34.408   7.456   7.024  1.00 20.00    -0.279 OA
HETATM   10 CL10 UNL     1     -34.681   4.935   6.238  1.00 20.00    -0.043 Cl
ENDBRANCH   6   8
TORSDOF 1
ENDMDL
MODEL 3
REMARK VINA RESULT:      -4.2     12.521     13.001
REMARK  1 active torsions:
REMARK  status: ('A' for Active; 'I' for Inactive)
REMARK    1  A    between atoms: C3_3  and  C7_7 
ROOT
HETATM    1  C1  UNL     1     -30.762  18.585   1.338  1.00 20.00    -0.007 C 
HETATM    2  C2  UNL     1     -31.735  18.935   2.191  1.00 20.00     0.008 C 
HETATM    3  C4  UNL     1     -30.985  18.453  -0.140  1.00 20.00     0.042 C 
HETATM    4  C5  UNL     1     -33.151  19.197   1.774  1.00 20.00     0.051 C 
HETATM    5  C6  UNL     1     -33.452  18.693   0.358  1.00 20.00     0.019 C 
HETATM    6  C7  UNL     1     -32.321  19.047  -0.609  1.00 20.00     0.076 C 
HETATM    7 CL9  UNL     1     -31.407  19.092   3.880  1.00 20.00    -0.089 Cl
ENDROOT
BRANCH   6   8
HETATM    8  C3  UNL     1     -32.644  18.556  -1.989  1.00 20.00     0.223 C 
HETATM    9  O8  UNL     1     -32.386  19.221  -2.987  1.00 20.00    -0.279 OA
HETATM   10 CL10 UNL     1     -33.399  16.990  -1.965  1.00 20.00    -0.043 Cl
ENDBRANCH   6   8
TORSDOF 1
ENDMDL
MODEL 4
REMARK VINA RESULT:      -4.2      2.374      4.400
REMARK  1 active torsions:
REMARK  status: ('A' for Active; 'I' for Inactive)
REMARK    1  A    between atoms: C3_3  and  C7_7 
ROOT
HETATM    1  C1  UNL     1     -33.870   5.497   4.063  1.00 20.00    -0.007 C 
HETATM    2  C2  UNL     1     -33.988   6.136   5.235  1.00 20.00     0.008 C 
HETATM    3  C4  UNL     1     -33.259   6.131   2.848  1.00 20.00     0.042 C 
HETATM    4  C5  UNL     1     -33.559   7.556   5.453  1.00 20.00     0.051 C 
HETATM    5  C6  UNL     1     -33.302   8.304   4.140  1.00 20.00     0.019 C 
HETATM    6  C7  UNL     1     -32.515   7.439   3.154  1.00 20.00     0.076 C 
HETATM    7 CL9  UNL     1     -34.680   5.341   6.604  1.00 20.00    -0.089 Cl
ENDROOT
BRANCH   6   8
HETATM    8  C3  UNL     1     -32.265   8.196   1.884  1.00 20.00     0.223 C 
HETATM    9  O8  UNL     1     -31.657   7.696   0.943  1.00 20.00    -0.279 OA
HETATM   10 CL10 UNL     1     -32.929   9.802   1.939  1.00 20.00    -0.043 Cl
ENDBRANCH   6   8
TORSDOF 1
ENDMDL
MODEL 5
REMARK VINA RESULT:      -4.0     12.128     13.014
REMARK  1 active torsions:
REMARK  status: ('A' for Active; 'I' for Inactive)
REMARK    1  A    between atoms: C3_3  and  C7_7 
ROOT
HETATM    1  C1  UNL     1     -35.279  17.035  -4.948  1.00 20.00    -0.007 C 
HETATM    2  C2  UNL     1     -34.824  15.788  -5.134  1.00 20.00     0.008 C 
HETATM    3  C4  UNL     1     -34.663  17.989  -3.967  1.00 20.00     0.042 C 
HETATM    4  C5  UNL     1     -33.679  15.200  -4.365  1.00 20.00     0.051 C 
HETATM    5  C6  UNL     1     -33.314  16.023  -3.125  1.00 20.00     0.019 C 
HETATM    6  C7  UNL     1     -33.299  17.521  -3.439  1.00 20.00     0.076 C 
HETATM    7 CL9  UNL     1     -35.565  14.746  -6.295  1.00 20.00    -0.089 Cl
ENDROOT
BRANCH   6   8
HETATM    8  C3  UNL     1     -32.927  18.304  -2.215  1.00 20.00     0.223 C 
HETATM    9  O8  UNL     1     -32.164  19.263  -2.270  1.00 20.00    -0.279 OA
HETATM   10 CL10 UNL     1     -33.696  17.685  -0.784  1.00 20.00    -0.043 Cl
ENDBRANCH   6   8
TORSDOF 1
ENDMDL
MODEL 6
REMARK VINA RESULT:      -4.0     11.952     13.054
REMARK  1 active torsions:
REMARK  status: ('A' for Active; 'I' for Inactive)
REMARK    1  A    between atoms: C3_3  and  C7_7 
ROOT
HETATM    1  C1  UNL     1     -33.230  16.331  -2.988  1.00 20.00    -0.007 C 
HETATM    2  C2  UNL     1     -33.315  17.626  -3.324  1.00 20.00     0.008 C 
HETATM    3  C4  UNL     1     -33.856  15.236  -3.802  1.00 20.00     0.042 C 
HETATM    4  C5  UNL     1     -34.068  18.125  -4.521  1.00 20.00     0.051 C 
HETATM    5  C6  UNL     1     -35.005  17.067  -5.114  1.00 20.00     0.019 C 
HETATM    6  C7  UNL     1     -34.321  15.700  -5.190  1.00 20.00     0.076 C 
HETATM    7 CL9  UNL     1     -32.554  18.837  -2.356  1.00 20.00    -0.089 Cl
ENDROOT
BRANCH   6   8
HETATM    8  C3  UNL     1     -35.253  14.686  -5.784  1.00 20.00     0.223 C 
HETATM    9  O8  UNL     1     -35.481  14.648  -6.989  1.00 20.00    -0.279 OA
HETATM   10 CL10 UNL     1     -35.924  13.629  -4.578  1.00 20.00    -0.043 Cl
ENDBRANCH   6   8
TORSDOF 1
ENDMDL
MODEL 7
REMARK VINA RESULT:      -4.0     12.128     13.550
REMARK  1 active torsions:
REMARK  status: ('A' for Active; 'I' for Inactive)
REMARK    1  A    between atoms: C3_3  and  C7_7 
ROOT
HETATM    1  C1  UNL     1     -34.264  17.720  -4.120  1.00 20.00    -0.007 C 
HETATM    2  C2  UNL     1     -33.611  16.968  -3.223  1.00 20.00     0.008 C 
HETATM    3  C4  UNL     1     -34.840  17.160  -5.387  1.00 20.00     0.042 C 
HETATM    4  C5  UNL     1     -33.355  15.501  -3.399  1.00 20.00     0.051 C 
HETATM    5  C6  UNL     1     -33.597  15.028  -4.837  1.00 20.00     0.019 C 
HETATM    6  C7  UNL     1     -34.885  15.625  -5.408  1.00 20.00     0.076 C 
HETATM    7 CL9  UNL     1     -32.991  17.671  -1.772  1.00 20.00    -0.089 Cl
ENDROOT
BRANCH   6   8
HETATM    8  C3  UNL     1     -35.106  15.137  -6.808  1.00 20.00     0.223 C 
HETATM    9  O8  UNL     1     -36.027  14.376  -7.088  1.00 20.00    -0.279 OA
HETATM   10 CL10 UNL     1     -33.929  15.775  -7.917  1.00 20.00    -0.043 Cl
ENDBRANCH   6   8
TORSDOF 1
ENDMDL
MODEL 8
REMARK VINA RESULT:      -3.9     12.036     12.313
REMARK  1 active torsions:
REMARK  status: ('A' for Active; 'I' for Inactive)
REMARK    1  A    between atoms: C3_3  and  C7_7 
ROOT
HETATM    1  C1  UNL     1     -31.784  18.226  -1.144  1.00 20.00    -0.007 C 
HETATM    2  C2  UNL     1     -33.097  17.956  -1.176  1.00 20.00     0.008 C 
HETATM    3  C4  UNL     1     -31.052  18.562   0.122  1.00 20.00     0.042 C 
HETATM    4  C5  UNL     1     -33.981  17.993   0.035  1.00 20.00     0.051 C 
HETATM    5  C6  UNL     1     -33.323  18.699   1.226  1.00 20.00     0.019 C 
HETATM    6  C7  UNL     1     -31.865  18.265   1.391  1.00 20.00     0.076 C 
HETATM    7 CL9  UNL     1     -33.876  17.554  -2.664  1.00 20.00    -0.089 Cl
ENDROOT
BRANCH   6   8
HETATM    8  C3  UNL     1     -31.248  18.958   2.569  1.00 20.00     0.223 C 
HETATM    9  O8  UNL     1     -31.908  19.263   3.557  1.00 20.00    -0.279 OA
HETATM   10 CL10 UNL     1     -29.549  19.250   2.340  1.00 20.00    -0.043 Cl
ENDBRANCH   6   8
TORSDOF 1
ENDMDL
MODEL 9
REMARK VINA RESULT:      -3.7     12.115     13.206
REMARK  1 active torsions:
REMARK  status: ('A' for Active; 'I' for Inactive)
REMARK    1  A    between atoms: C3_3  and  C7_7 
ROOT
HETATM    1  C1  UNL     1     -33.632  18.358  -4.380  1.00 20.00    -0.007 C 
HETATM    2  C2  UNL     1     -33.177  18.049  -3.157  1.00 20.00     0.008 C 
HETATM    3  C4  UNL     1     -34.268  17.349  -5.290  1.00 20.00     0.042 C 
HETATM    4  C5  UNL     1     -33.220  16.665  -2.581  1.00 20.00     0.051 C 
HETATM    5  C6  UNL     1     -33.507  15.593  -3.637  1.00 20.00     0.019 C 
HETATM    6  C7  UNL     1     -34.625  16.033  -4.584  1.00 20.00     0.076 C 
HETATM    7 CL9  UNL     1     -32.474  19.262  -2.149  1.00 20.00    -0.089 Cl
ENDROOT
BRANCH   6   8
HETATM    8  C3  UNL     1     -34.896  14.963  -5.600  1.00 20.00     0.223 C 
HETATM    9  O8  UNL     1     -34.310  14.933  -6.677  1.00 20.00    -0.279 OA
HETATM   10 CL10 UNL     1     -36.098  13.832  -5.054  1.00 20.00    -0.043 Cl
ENDBRANCH   6   8
TORSDOF 1
ENDMDL
