MODEL 1
REMARK VINA RESULT:      -4.2      0.000      0.000
REMARK  1 active torsions:
REMARK  status: ('A' for Active; 'I' for Inactive)
REMARK    1  A    between atoms: C3_3  and  C8_8 
ROOT
HETATM    1  C1  UNL     1     -42.430  15.320   7.980  1.00 20.00    -0.025 C 
HETATM    2  C2  UNL     1     -41.517  15.762   7.102  1.00 20.00    -0.024 C 
HETATM    3  C4  UNL     1     -40.433  14.308   8.520  1.00 20.00     0.018 C 
HETATM    4  C5  UNL     1     -41.935  14.000   8.517  1.00 20.00     0.013 C 
HETATM    5  C6  UNL     1     -40.418  14.725   7.040  1.00 20.00     0.024 C 
HETATM    6  C7  UNL     1     -42.003  12.908   7.408  1.00 20.00     0.005 C 
HETATM    7  C8  UNL     1     -40.964  13.438   6.343  1.00 20.00     0.027 C 
HETATM    8  C10 UNL     1     -43.417  12.625   6.914  1.00 20.00     0.012 C 
HETATM    9  C11 UNL     1     -41.514  13.697   4.936  1.00 20.00     0.024 C 
ENDROOT
BRANCH   7  10
HETATM   10  C3  UNL     1     -39.818  12.465   6.185  1.00 20.00     0.132 C 
HETATM   11  C9  UNL     1     -39.532  11.979   4.790  1.00 20.00     0.091 C 
HETATM   12  O12 UNL     1     -39.152  12.091   7.148  1.00 20.00    -0.298 OA
ENDBRANCH   7  10
TORSDOF 1
ENDMDL
MODEL 2
REMARK VINA RESULT:      -3.9     13.054     14.608
REMARK  1 active torsions:
REMARK  status: ('A' for Active; 'I' for Inactive)
REMARK    1  A    between atoms: C3_3  and  C8_8 
ROOT
HETATM    1  C1  UNL     1     -35.781  15.125  -7.041  1.00 20.00    -0.025 C 
HETATM    2  C2  UNL     1     -36.073  14.887  -5.754  1.00 20.00    -0.024 C 
HETATM    3  C4  UNL     1     -33.781  15.029  -5.905  1.00 20.00     0.018 C 
HETATM    4  C5  UNL     1     -34.420  15.777  -7.081  1.00 20.00     0.013 C 
HETATM    5  C6  UNL     1     -34.912  15.397  -4.931  1.00 20.00     0.024 C 
HETATM    6  C7  UNL     1     -34.498  17.219  -6.498  1.00 20.00     0.005 C 
HETATM    7  C8  UNL     1     -34.886  16.957  -4.990  1.00 20.00     0.027 C 
HETATM    8  C10 UNL     1     -35.404  18.153  -7.294  1.00 20.00     0.012 C 
HETATM    9  C11 UNL     1     -36.188  17.604  -4.507  1.00 20.00     0.024 C 
ENDROOT
BRANCH   7  10
HETATM   10  C3  UNL     1     -33.795  17.446  -4.066  1.00 20.00     0.132 C 
HETATM   11  C9  UNL     1     -33.509  16.603  -2.852  1.00 20.00     0.091 C 
HETATM   12  O12 UNL     1     -33.169  18.479  -4.295  1.00 20.00    -0.298 OA
ENDBRANCH   7  10
TORSDOF 1
ENDMDL
MODEL 3
REMARK VINA RESULT:      -3.9     13.019     14.519
REMARK  1 active torsions:
REMARK  status: ('A' for Active; 'I' for Inactive)
REMARK    1  A    between atoms: C3_3  and  C8_8 
ROOT
HETATM    1  C1  UNL     1     -36.286  16.562  -7.821  1.00 20.00    -0.025 C 
HETATM    2  C2  UNL     1     -35.814  15.308  -7.863  1.00 20.00    -0.024 C 
HETATM    3  C4  UNL     1     -34.087  16.648  -7.146  1.00 20.00     0.018 C 
HETATM    4  C5  UNL     1     -35.425  17.334  -6.851  1.00 20.00     0.013 C 
HETATM    5  C6  UNL     1     -34.647  15.237  -6.905  1.00 20.00     0.024 C 
HETATM    6  C7  UNL     1     -35.686  16.846  -5.395  1.00 20.00     0.005 C 
HETATM    7  C8  UNL     1     -35.176  15.352  -5.440  1.00 20.00     0.027 C 
HETATM    8  C10 UNL     1     -37.117  17.074  -4.920  1.00 20.00     0.012 C 
HETATM    9  C11 UNL     1     -36.207  14.276  -5.082  1.00 20.00     0.024 C 
ENDROOT
BRANCH   7  10
HETATM   10  C3  UNL     1     -34.009  15.158  -4.500  1.00 20.00     0.132 C 
HETATM   11  C9  UNL     1     -33.675  16.309  -3.590  1.00 20.00     0.091 C 
HETATM   12  O12 UNL     1     -33.364  14.111  -4.479  1.00 20.00    -0.298 OA
ENDBRANCH   7  10
TORSDOF 1
ENDMDL
MODEL 4
REMARK VINA RESULT:      -3.9     13.032     14.496
REMARK  1 active torsions:
REMARK  status: ('A' for Active; 'I' for Inactive)
REMARK    1  A    between atoms: C3_3  and  C8_8 
ROOT
HETATM    1  C1  UNL     1     -36.779  16.038  -7.111  1.00 20.00    -0.025 C 
HETATM    2  C2  UNL     1     -36.933  16.668  -5.937  1.00 20.00    -0.024 C 
HETATM    3  C4  UNL     1     -36.096  14.577  -5.468  1.00 20.00     0.018 C 
HETATM    4  C5  UNL     1     -35.742  14.960  -6.909  1.00 20.00     0.013 C 
HETATM    5  C6  UNL     1     -35.984  16.022  -4.954  1.00 20.00     0.024 C 
HETATM    6  C7  UNL     1     -34.337  15.598  -6.702  1.00 20.00     0.005 C 
HETATM    7  C8  UNL     1     -34.515  16.384  -5.344  1.00 20.00     0.027 C 
HETATM    8  C10 UNL     1     -33.844  16.397  -7.904  1.00 20.00     0.012 C 
HETATM    9  C11 UNL     1     -34.256  17.893  -5.399  1.00 20.00     0.024 C 
ENDROOT
BRANCH   7  10
HETATM   10  C3  UNL     1     -33.595  15.828  -4.281  1.00 20.00     0.132 C 
HETATM   11  C9  UNL     1     -33.534  16.581  -2.979  1.00 20.00     0.091 C 
HETATM   12  O12 UNL     1     -32.931  14.811  -4.469  1.00 20.00    -0.298 OA
ENDBRANCH   7  10
TORSDOF 1
ENDMDL
MODEL 5
REMARK VINA RESULT:      -3.8      1.203      2.406
REMARK  1 active torsions:
REMARK  status: ('A' for Active; 'I' for Inactive)
REMARK    1  A    between atoms: C3_3  and  C8_8 
ROOT
HETATM    1  C1  UNL     1     -41.897  16.682   9.129  1.00 20.00    -0.025 C 
HETATM    2  C2  UNL     1     -42.625  16.350   8.054  1.00 20.00    -0.024 C 
HETATM    3  C4  UNL     1     -40.417  16.276   7.413  1.00 20.00     0.018 C 
HETATM    4  C5  UNL     1     -40.516  16.104   8.933  1.00 20.00     0.013 C 
HETATM    5  C6  UNL     1     -41.736  15.532   7.146  1.00 20.00     0.024 C 
HETATM    6  C7  UNL     1     -40.562  14.551   9.046  1.00 20.00     0.005 C 
HETATM    7  C8  UNL     1     -41.457  14.146   7.809  1.00 20.00     0.027 C 
HETATM    8  C10 UNL     1     -41.007  14.050  10.415  1.00 20.00     0.012 C 
HETATM    9  C11 UNL     1     -42.733  13.360   8.130  1.00 20.00     0.024 C 
ENDROOT
BRANCH   7  10
HETATM   10  C3  UNL     1     -40.669  13.305   6.832  1.00 20.00     0.132 C 
HETATM   11  C9  UNL     1     -41.100  13.360   5.391  1.00 20.00     0.091 C 
HETATM   12  O12 UNL     1     -39.720  12.612   7.196  1.00 20.00    -0.298 OA
ENDBRANCH   7  10
TORSDOF 1
ENDMDL
MODEL 6
REMARK VINA RESULT:      -3.7     13.305     14.443
REMARK  1 active torsions:
REMARK  status: ('A' for Active; 'I' for Inactive)
REMARK    1  A    between atoms: C3_3  and  C8_8 
ROOT
HETATM    1  C1  UNL     1     -35.634  18.705  -6.609  1.00 20.00    -0.025 C 
HETATM    2  C2  UNL     1     -34.395  18.347  -6.244  1.00 20.00    -0.024 C 
HETATM    3  C4  UNL     1     -35.813  17.644  -4.574  1.00 20.00     0.018 C 
HETATM    4  C5  UNL     1     -36.597  17.798  -5.882  1.00 20.00     0.013 C 
HETATM    5  C6  UNL     1     -34.529  17.186  -5.285  1.00 20.00     0.024 C 
HETATM    6  C7  UNL     1     -36.503  16.350  -6.448  1.00 20.00     0.005 C 
HETATM    7  C8  UNL     1     -35.030  15.929  -6.065  1.00 20.00     0.027 C 
HETATM    8  C10 UNL     1     -36.894  16.240  -7.918  1.00 20.00     0.012 C 
HETATM    9  C11 UNL     1     -34.116  15.536  -7.231  1.00 20.00     0.024 C 
ENDROOT
BRANCH   7  10
HETATM   10  C3  UNL     1     -35.040  14.756  -5.113  1.00 20.00     0.132 C 
HETATM   11  C9  UNL     1     -33.808  14.557  -4.271  1.00 20.00     0.091 C 
HETATM   12  O12 UNL     1     -36.008  14.002  -5.027  1.00 20.00    -0.298 OA
ENDBRANCH   7  10
TORSDOF 1
ENDMDL
MODEL 7
REMARK VINA RESULT:      -3.7      1.390      2.694
REMARK  1 active torsions:
REMARK  status: ('A' for Active; 'I' for Inactive)
REMARK    1  A    between atoms: C3_3  and  C8_8 
ROOT
HETATM    1  C1  UNL     1     -43.417  14.609   8.134  1.00 20.00    -0.025 C 
HETATM    2  C2  UNL     1     -42.829  13.458   8.487  1.00 20.00    -0.024 C 
HETATM    3  C4  UNL     1     -43.417  13.255   6.272  1.00 20.00     0.018 C 
HETATM    4  C5  UNL     1     -43.289  14.738   6.635  1.00 20.00     0.013 C 
HETATM    5  C6  UNL     1     -42.290  12.825   7.225  1.00 20.00     0.024 C 
HETATM    6  C7  UNL     1     -41.804  15.004   6.245  1.00 20.00     0.005 C 
HETATM    7  C8  UNL     1     -41.088  13.672   6.698  1.00 20.00     0.027 C 
HETATM    8  C10 UNL     1     -41.250  16.312   6.801  1.00 20.00     0.012 C 
HETATM    9  C11 UNL     1     -39.960  13.828   7.723  1.00 20.00     0.024 C 
ENDROOT
BRANCH   7  10
HETATM   10  C3  UNL     1     -40.492  12.955   5.508  1.00 20.00     0.132 C 
HETATM   11  C9  UNL     1     -39.522  11.843   5.805  1.00 20.00     0.091 C 
HETATM   12  O12 UNL     1     -40.786  13.264   4.355  1.00 20.00    -0.298 OA
ENDBRANCH   7  10
TORSDOF 1
ENDMDL
MODEL 8
REMARK VINA RESULT:      -3.6     13.224     14.432
REMARK  1 active torsions:
REMARK  status: ('A' for Active; 'I' for Inactive)
REMARK    1  A    between atoms: C3_3  and  C8_8 
ROOT
HETATM    1  C1  UNL     1     -36.413  18.092  -4.406  1.00 20.00    -0.025 C 
HETATM    2  C2  UNL     1     -37.389  17.314  -4.896  1.00 20.00    -0.024 C 
HETATM    3  C4  UNL     1     -36.136  18.024  -6.691  1.00 20.00     0.018 C 
HETATM    4  C5  UNL     1     -35.290  18.092  -5.414  1.00 20.00     0.013 C 
HETATM    5  C6  UNL     1     -36.910  16.780  -6.226  1.00 20.00     0.024 C 
HETATM    6  C7  UNL     1     -34.599  16.697  -5.450  1.00 20.00     0.005 C 
HETATM    7  C8  UNL     1     -35.753  15.759  -5.984  1.00 20.00     0.027 C 
HETATM    8  C10 UNL     1     -33.943  16.304  -4.131  1.00 20.00     0.012 C 
HETATM    9  C11 UNL     1     -36.152  14.595  -5.070  1.00 20.00     0.024 C 
ENDROOT
BRANCH   7  10
HETATM   10  C3  UNL     1     -35.374  15.150  -7.314  1.00 20.00     0.132 C 
HETATM   11  C9  UNL     1     -34.020  15.513  -7.862  1.00 20.00     0.091 C 
HETATM   12  O12 UNL     1     -36.133  14.395  -7.918  1.00 20.00    -0.298 OA
ENDBRANCH   7  10
TORSDOF 1
ENDMDL
MODEL 9
REMARK VINA RESULT:      -3.6      1.837      3.668
REMARK  1 active torsions:
REMARK  status: ('A' for Active; 'I' for Inactive)
REMARK    1  A    between atoms: C3_3  and  C8_8 
ROOT
HETATM    1  C1  UNL     1     -41.571  12.302   6.464  1.00 20.00    -0.025 C 
HETATM    2  C2  UNL     1     -40.384  12.926   6.442  1.00 20.00    -0.024 C 
HETATM    3  C4  UNL     1     -41.918  14.376   5.525  1.00 20.00     0.018 C 
HETATM    4  C5  UNL     1     -42.639  13.368   6.426  1.00 20.00     0.013 C 
HETATM    5  C6  UNL     1     -40.660  14.412   6.408  1.00 20.00     0.024 C 
HETATM    6  C7  UNL     1     -42.664  14.151   7.773  1.00 20.00     0.005 C 
HETATM    7  C8  UNL     1     -41.252  14.857   7.783  1.00 20.00     0.027 C 
HETATM    8  C10 UNL     1     -43.015  13.286   8.978  1.00 20.00     0.012 C 
HETATM    9  C11 UNL     1     -40.341  14.525   8.971  1.00 20.00     0.024 C 
ENDROOT
BRANCH   7  10
HETATM   10  C3  UNL     1     -41.406  16.360   7.766  1.00 20.00     0.132 C 
HETATM   11  C9  UNL     1     -42.756  16.906   8.147  1.00 20.00     0.091 C 
HETATM   12  O12 UNL     1     -40.474  17.101   7.459  1.00 20.00    -0.298 OA
ENDBRANCH   7  10
TORSDOF 1
ENDMDL
