MODEL 1
REMARK VINA RESULT:      -6.7      0.000      0.000
REMARK  0 active torsions:
REMARK  status: ('A' for Active; 'I' for Inactive)
ROOT
HETATM    1  C1  UNL     1     -32.909   8.585   5.505  1.00 20.00     0.027 C 
HETATM    2  C2  UNL     1     -32.249   8.667   4.224  1.00 20.00     0.027 C 
HETATM    3  C3  UNL     1     -33.635   7.404   5.537  1.00 20.00     0.012 C 
HETATM    4  C4  UNL     1     -32.608   7.536   3.537  1.00 20.00     0.012 C 
HETATM    5  C5  UNL     1     -34.337   6.624   6.594  1.00 20.00     0.057 C 
HETATM    6  C6  UNL     1     -32.318   6.741   2.325  1.00 20.00     0.059 C 
HETATM    7  C7  UNL     1     -34.987   5.332   6.042  1.00 20.00     0.008 C 
HETATM    8  C8  UNL     1     -32.852   5.330   2.749  1.00 20.00     0.032 C 
HETATM    9  C9  UNL     1     -34.154   4.649   4.932  1.00 20.00     0.026 C 
HETATM   10  C10 UNL     1     -33.975   5.616   3.767  1.00 20.00     0.090 C 
HETATM   11  N11 UNL     1     -33.537   6.902   4.291  1.00 20.00    -0.349 N 
ENDROOT
TORSDOF 0
ENDMDL
MODEL 2
REMARK VINA RESULT:      -6.6      0.703      3.900
REMARK  0 active torsions:
REMARK  status: ('A' for Active; 'I' for Inactive)
ROOT
HETATM    1  C1  UNL     1     -33.147   4.977   2.841  1.00 20.00     0.027 C 
HETATM    2  C2  UNL     1     -33.924   4.339   3.875  1.00 20.00     0.027 C 
HETATM    3  C3  UNL     1     -32.991   6.312   3.184  1.00 20.00     0.012 C 
HETATM    4  C4  UNL     1     -34.207   5.314   4.796  1.00 20.00     0.012 C 
HETATM    5  C5  UNL     1     -32.148   7.437   2.694  1.00 20.00     0.057 C 
HETATM    6  C6  UNL     1     -34.757   5.547   6.149  1.00 20.00     0.059 C 
HETATM    7  C7  UNL     1     -32.389   8.745   3.486  1.00 20.00     0.008 C 
HETATM    8  C8  UNL     1     -34.111   6.928   6.509  1.00 20.00     0.032 C 
HETATM    9  C9  UNL     1     -32.658   8.513   4.992  1.00 20.00     0.026 C 
HETATM   10  C10 UNL     1     -33.894   7.634   5.154  1.00 20.00     0.090 C 
HETATM   11  N11 UNL     1     -33.766   6.482   4.273  1.00 20.00    -0.349 N 
ENDROOT
TORSDOF 0
ENDMDL
MODEL 3
REMARK VINA RESULT:      -6.4      0.747      1.176
REMARK  0 active torsions:
REMARK  status: ('A' for Active; 'I' for Inactive)
ROOT
HETATM    1  C1  UNL     1     -32.344   8.339   4.366  1.00 20.00     0.027 C 
HETATM    2  C2  UNL     1     -32.025   7.666   3.130  1.00 20.00     0.027 C 
HETATM    3  C3  UNL     1     -33.257   7.557   5.056  1.00 20.00     0.012 C 
HETATM    4  C4  UNL     1     -32.762   6.510   3.125  1.00 20.00     0.012 C 
HETATM    5  C5  UNL     1     -33.810   7.552   6.439  1.00 20.00     0.057 C 
HETATM    6  C6  UNL     1     -32.950   5.224   2.420  1.00 20.00     0.059 C 
HETATM    7  C7  UNL     1     -34.821   6.401   6.666  1.00 20.00     0.008 C 
HETATM    8  C8  UNL     1     -33.629   4.358   3.535  1.00 20.00     0.032 C 
HETATM    9  C9  UNL     1     -34.447   5.096   5.925  1.00 20.00     0.026 C 
HETATM   10  C10 UNL     1     -34.379   5.369   4.426  1.00 20.00     0.090 C 
HETATM   11  N11 UNL     1     -33.578   6.564   4.204  1.00 20.00    -0.349 N 
ENDROOT
TORSDOF 0
ENDMDL
MODEL 4
REMARK VINA RESULT:      -6.1      0.439      2.680
REMARK  0 active torsions:
REMARK  status: ('A' for Active; 'I' for Inactive)
ROOT
HETATM    1  C1  UNL     1     -32.930   5.732   2.590  1.00 20.00     0.027 C 
HETATM    2  C2  UNL     1     -32.325   7.035   2.459  1.00 20.00     0.027 C 
HETATM    3  C3  UNL     1     -33.444   5.625   3.873  1.00 20.00     0.012 C 
HETATM    4  C4  UNL     1     -32.496   7.657   3.669  1.00 20.00     0.012 C 
HETATM    5  C5  UNL     1     -34.352   4.673   4.571  1.00 20.00     0.057 C 
HETATM    6  C6  UNL     1     -32.370   8.956   4.365  1.00 20.00     0.059 C 
HETATM    7  C7  UNL     1     -34.600   5.067   6.048  1.00 20.00     0.008 C 
HETATM    8  C8  UNL     1     -33.361   8.759   5.562  1.00 20.00     0.032 C 
HETATM    9  C9  UNL     1     -34.680   6.596   6.272  1.00 20.00     0.026 C 
HETATM   10  C10 UNL     1     -33.371   7.240   5.830  1.00 20.00     0.090 C 
HETATM   11  N11 UNL     1     -33.025   6.737   4.509  1.00 20.00    -0.349 N 
ENDROOT
TORSDOF 0
ENDMDL
MODEL 5
REMARK VINA RESULT:      -6.0      0.619      3.805
REMARK  0 active torsions:
REMARK  status: ('A' for Active; 'I' for Inactive)
ROOT
HETATM    1  C1  UNL     1     -34.428   4.593   4.788  1.00 20.00     0.027 C 
HETATM    2  C2  UNL     1     -34.747   5.312   5.998  1.00 20.00     0.027 C 
HETATM    3  C3  UNL     1     -33.768   5.463   3.934  1.00 20.00     0.012 C 
HETATM    4  C4  UNL     1     -34.271   6.585   5.821  1.00 20.00     0.012 C 
HETATM    5  C5  UNL     1     -32.997   5.319   2.669  1.00 20.00     0.057 C 
HETATM    6  C6  UNL     1     -34.009   7.863   6.518  1.00 20.00     0.059 C 
HETATM    7  C7  UNL     1     -32.457   6.674   2.147  1.00 20.00     0.008 C 
HETATM    8  C8  UNL     1     -32.921   8.502   5.589  1.00 20.00     0.032 C 
HETATM    9  C9  UNL     1     -32.015   7.635   3.275  1.00 20.00     0.026 C 
HETATM   10  C10 UNL     1     -33.203   7.926   4.186  1.00 20.00     0.090 C 
HETATM   11  N11 UNL     1     -33.838   6.665   4.541  1.00 20.00    -0.349 N 
ENDROOT
TORSDOF 0
ENDMDL
MODEL 6
REMARK VINA RESULT:      -6.0      0.582      3.104
REMARK  0 active torsions:
REMARK  status: ('A' for Active; 'I' for Inactive)
ROOT
HETATM    1  C1  UNL     1     -34.677   5.531   6.142  1.00 20.00     0.027 C 
HETATM    2  C2  UNL     1     -34.400   6.830   6.704  1.00 20.00     0.027 C 
HETATM    3  C3  UNL     1     -34.163   5.504   4.854  1.00 20.00     0.012 C 
HETATM    4  C4  UNL     1     -33.737   7.533   5.732  1.00 20.00     0.012 C 
HETATM    5  C5  UNL     1     -33.916   4.443   3.838  1.00 20.00     0.057 C 
HETATM    6  C6  UNL     1     -32.975   8.774   5.474  1.00 20.00     0.059 C 
HETATM    7  C7  UNL     1     -33.291   5.005   2.537  1.00 20.00     0.008 C 
HETATM    8  C8  UNL     1     -32.148   8.368   4.207  1.00 20.00     0.032 C 
HETATM    9  C9  UNL     1     -32.291   6.159   2.783  1.00 20.00     0.026 C 
HETATM   10  C10 UNL     1     -33.007   7.305   3.490  1.00 20.00     0.090 C 
HETATM   11  N11 UNL     1     -33.753   6.765   4.617  1.00 20.00    -0.349 N 
ENDROOT
TORSDOF 0
ENDMDL
MODEL 7
REMARK VINA RESULT:      -5.8      0.821      2.719
REMARK  0 active torsions:
REMARK  status: ('A' for Active; 'I' for Inactive)
ROOT
HETATM    1  C1  UNL     1     -33.888   4.594   3.683  1.00 20.00     0.027 C 
HETATM    2  C2  UNL     1     -33.128   5.106   2.568  1.00 20.00     0.027 C 
HETATM    3  C3  UNL     1     -33.912   5.569   4.669  1.00 20.00     0.012 C 
HETATM    4  C4  UNL     1     -32.722   6.364   2.930  1.00 20.00     0.012 C 
HETATM    5  C5  UNL     1     -34.673   5.775   5.932  1.00 20.00     0.057 C 
HETATM    6  C6  UNL     1     -32.099   7.604   2.419  1.00 20.00     0.059 C 
HETATM    7  C7  UNL     1     -34.285   7.092   6.648  1.00 20.00     0.008 C 
HETATM    8  C8  UNL     1     -32.606   8.655   3.464  1.00 20.00     0.032 C 
HETATM    9  C9  UNL     1     -33.976   8.253   5.675  1.00 20.00     0.026 C 
HETATM   10  C10 UNL     1     -32.816   7.856   4.767  1.00 20.00     0.090 C 
HETATM   11  N11 UNL     1     -33.081   6.532   4.225  1.00 20.00    -0.349 N 
ENDROOT
TORSDOF 0
ENDMDL
MODEL 8
REMARK VINA RESULT:      -5.6      0.664      2.927
REMARK  0 active torsions:
REMARK  status: ('A' for Active; 'I' for Inactive)
ROOT
HETATM    1  C1  UNL     1     -34.784   6.080   5.916  1.00 20.00     0.027 C 
HETATM    2  C2  UNL     1     -34.738   4.980   4.984  1.00 20.00     0.027 C 
HETATM    3  C3  UNL     1     -33.900   7.052   5.475  1.00 20.00     0.012 C 
HETATM    4  C4  UNL     1     -33.826   5.333   4.023  1.00 20.00     0.012 C 
HETATM    5  C5  UNL     1     -33.631   8.474   5.829  1.00 20.00     0.057 C 
HETATM    6  C6  UNL     1     -33.287   4.952   2.700  1.00 20.00     0.059 C 
HETATM    7  C7  UNL     1     -32.500   9.093   4.971  1.00 20.00     0.008 C 
HETATM    8  C8  UNL     1     -32.696   6.316   2.205  1.00 20.00     0.032 C 
HETATM    9  C9  UNL     1     -32.494   8.594   3.507  1.00 20.00     0.026 C 
HETATM   10  C10 UNL     1     -32.317   7.079   3.491  1.00 20.00     0.090 C 
HETATM   11  N11 UNL     1     -33.255   6.489   4.435  1.00 20.00    -0.349 N 
ENDROOT
TORSDOF 0
ENDMDL
MODEL 9
REMARK VINA RESULT:      -5.4      0.468      2.917
REMARK  0 active torsions:
REMARK  status: ('A' for Active; 'I' for Inactive)
ROOT
HETATM    1  C1  UNL     1     -32.402   8.665   4.087  1.00 20.00     0.027 C 
HETATM    2  C2  UNL     1     -33.002   8.817   5.391  1.00 20.00     0.027 C 
HETATM    3  C3  UNL     1     -32.603   7.357   3.674  1.00 20.00     0.012 C 
HETATM    4  C4  UNL     1     -33.534   7.595   5.711  1.00 20.00     0.012 C 
HETATM    5  C5  UNL     1     -32.444   6.619   2.391  1.00 20.00     0.057 C 
HETATM    6  C6  UNL     1     -34.406   6.896   6.678  1.00 20.00     0.059 C 
HETATM    7  C7  UNL     1     -32.842   5.127   2.513  1.00 20.00     0.008 C 
HETATM    8  C8  UNL     1     -34.853   5.648   5.843  1.00 20.00     0.032 C 
HETATM    9  C9  UNL     1     -34.042   4.886   3.458  1.00 20.00     0.026 C 
HETATM   10  C10 UNL     1     -33.697   5.393   4.854  1.00 20.00     0.090 C 
HETATM   11  N11 UNL     1     -33.146   6.736   4.739  1.00 20.00    -0.349 N 
ENDROOT
TORSDOF 0
ENDMDL
