MODEL 1
REMARK VINA RESULT:      -4.0      0.000      0.000
REMARK  3 active torsions:
REMARK  status: ('A' for Active; 'I' for Inactive)
REMARK    1  A    between atoms: C3_3  and  C7_7 
REMARK    2  A    between atoms: C4_4  and  C6_6 
REMARK    3  A    between atoms: C4_4  and  O11_11 
ROOT
HETATM    1  C1  UNL     1     -33.413  18.803  -3.860  1.00 20.00     0.074 C 
HETATM    2  C5  UNL     1     -34.065  19.123  -1.453  1.00 20.00     0.046 A 
HETATM    3  C6  UNL     1     -32.570  19.235  -1.529  1.00 20.00     0.114 A 
HETATM    4  C7  UNL     1     -33.313  18.318  -2.500  1.00 20.00     0.079 A 
HETATM    5  N9  UNL     1     -33.494  19.193  -4.950  1.00 20.00    -0.196 NA
ENDROOT
BRANCH   4   6
HETATM    6  C3  UNL     1     -33.245  16.868  -2.254  1.00 20.00    -0.012 C 
HETATM    7  C2  UNL     1     -33.410  15.938  -3.201  1.00 20.00     0.008 C 
ENDBRANCH   4   6
BRANCH   3   8
HETATM    8  C4  UNL     1     -31.753  18.688  -0.437  1.00 20.00     0.264 C 
HETATM    9  O10 UNL     1     -30.563  18.423  -0.539  1.00 20.00    -0.265 OA
BRANCH   8  10
HETATM   10  O11 UNL     1     -32.525  18.533   0.677  1.00 20.00    -0.326 OA
HETATM   11  C8  UNL     1     -31.903  18.902   1.912  1.00 20.00     0.213 C 
ENDBRANCH   8  10
ENDBRANCH   3   8
TORSDOF 3
ENDMDL
MODEL 2
REMARK VINA RESULT:      -3.9     11.803     12.539
REMARK  3 active torsions:
REMARK  status: ('A' for Active; 'I' for Inactive)
REMARK    1  A    between atoms: C3_3  and  C7_7 
REMARK    2  A    between atoms: C4_4  and  C6_6 
REMARK    3  A    between atoms: C4_4  and  O11_11 
ROOT
HETATM    1  C1  UNL     1     -41.663  13.952   4.602  1.00 20.00     0.074 C 
HETATM    2  C5  UNL     1     -42.226  12.885   6.808  1.00 20.00     0.046 A 
HETATM    3  C6  UNL     1     -41.631  14.232   7.103  1.00 20.00     0.114 A 
HETATM    4  C7  UNL     1     -41.174  13.454   5.869  1.00 20.00     0.079 A 
HETATM    5  N9  UNL     1     -42.057  14.352   3.586  1.00 20.00    -0.196 NA
ENDROOT
BRANCH   4   6
HETATM    6  C3  UNL     1     -39.855  12.802   5.928  1.00 20.00    -0.012 C 
HETATM    7  C2  UNL     1     -39.479  11.798   5.128  1.00 20.00     0.008 C 
ENDBRANCH   4   6
BRANCH   3   8
HETATM    8  C4  UNL     1     -40.758  14.391   8.273  1.00 20.00     0.264 C 
HETATM    9  O10 UNL     1     -40.697  13.590   9.197  1.00 20.00    -0.265 OA
BRANCH   8  10
HETATM   10  O11 UNL     1     -40.047  15.549   8.158  1.00 20.00    -0.326 OA
HETATM   11  C8  UNL     1     -40.789  16.684   7.702  1.00 20.00     0.213 C 
ENDBRANCH   8  10
ENDBRANCH   3   8
TORSDOF 3
ENDMDL
MODEL 3
REMARK VINA RESULT:      -3.8     12.120     12.914
REMARK  3 active torsions:
REMARK  status: ('A' for Active; 'I' for Inactive)
REMARK    1  A    between atoms: C3_3  and  C7_7 
REMARK    2  A    between atoms: C4_4  and  C6_6 
REMARK    3  A    between atoms: C4_4  and  O11_11 
ROOT
HETATM    1  C1  UNL     1     -41.673  13.945   4.609  1.00 20.00     0.074 C 
HETATM    2  C5  UNL     1     -42.334  12.898   6.797  1.00 20.00     0.046 A 
HETATM    3  C6  UNL     1     -41.763  14.251   7.105  1.00 20.00     0.114 A 
HETATM    4  C7  UNL     1     -41.242  13.463   5.904  1.00 20.00     0.079 A 
HETATM    5  N9  UNL     1     -42.020  14.332   3.571  1.00 20.00    -0.196 NA
ENDROOT
BRANCH   4   6
HETATM    6  C3  UNL     1     -39.923  12.821   6.033  1.00 20.00    -0.012 C 
HETATM    7  C2  UNL     1     -39.546  11.739   5.342  1.00 20.00     0.008 C 
ENDBRANCH   4   6
BRANCH   3   8
HETATM    8  C4  UNL     1     -40.948  14.428   8.315  1.00 20.00     0.264 C 
HETATM    9  O10 UNL     1     -40.078  15.281   8.436  1.00 20.00    -0.265 OA
BRANCH   8  10
HETATM   10  O11 UNL     1     -41.315  13.508   9.252  1.00 20.00    -0.326 OA
HETATM   11  C8  UNL     1     -41.545  14.026  10.566  1.00 20.00     0.213 C 
ENDBRANCH   8  10
ENDBRANCH   3   8
TORSDOF 3
ENDMDL
MODEL 4
REMARK VINA RESULT:      -3.7     12.042     12.879
REMARK  3 active torsions:
REMARK  status: ('A' for Active; 'I' for Inactive)
REMARK    1  A    between atoms: C3_3  and  C7_7 
REMARK    2  A    between atoms: C4_4  and  C6_6 
REMARK    3  A    between atoms: C4_4  and  O11_11 
ROOT
HETATM    1  C1  UNL     1     -42.644  14.231   5.255  1.00 20.00     0.074 C 
HETATM    2  C5  UNL     1     -40.782  14.223   6.943  1.00 20.00     0.046 A 
HETATM    3  C6  UNL     1     -40.358  13.337   5.808  1.00 20.00     0.114 A 
HETATM    4  C7  UNL     1     -41.839  13.452   6.170  1.00 20.00     0.079 A 
HETATM    5  N9  UNL     1     -43.289  14.857   4.521  1.00 20.00    -0.196 NA
ENDROOT
BRANCH   4   6
HETATM    6  C3  UNL     1     -42.451  12.323   6.890  1.00 20.00    -0.012 C 
HETATM    7  C2  UNL     1     -43.417  12.455   7.806  1.00 20.00     0.008 C 
ENDBRANCH   4   6
BRANCH   3   8
HETATM    8  C4  UNL     1     -39.594  12.116   6.096  1.00 20.00     0.264 C 
HETATM    9  O10 UNL     1     -38.994  11.914   7.144  1.00 20.00    -0.265 OA
BRANCH   8  10
HETATM   10  O11 UNL     1     -39.665  11.270   5.029  1.00 20.00    -0.326 OA
HETATM   11  C8  UNL     1     -38.969  11.702   3.855  1.00 20.00     0.213 C 
ENDBRANCH   8  10
ENDBRANCH   3   8
TORSDOF 3
ENDMDL
MODEL 5
REMARK VINA RESULT:      -3.5      3.112      4.604
REMARK  3 active torsions:
REMARK  status: ('A' for Active; 'I' for Inactive)
REMARK    1  A    between atoms: C3_3  and  C7_7 
REMARK    2  A    between atoms: C4_4  and  C6_6 
REMARK    3  A    between atoms: C4_4  and  O11_11 
ROOT
HETATM    1  C1  UNL     1     -31.878  18.382  -1.000  1.00 20.00     0.074 C 
HETATM    2  C5  UNL     1     -33.295  16.652  -2.148  1.00 20.00     0.046 A 
HETATM    3  C6  UNL     1     -33.084  17.774  -3.123  1.00 20.00     0.114 A 
HETATM    4  C7  UNL     1     -33.145  18.071  -1.625  1.00 20.00     0.079 A 
HETATM    5  N9  UNL     1     -30.861  18.630  -0.499  1.00 20.00    -0.196 NA
ENDROOT
BRANCH   4   6
HETATM    6  C3  UNL     1     -34.378  18.687  -1.105  1.00 20.00    -0.012 C 
HETATM    7  C2  UNL     1     -34.478  19.259   0.100  1.00 20.00     0.008 C 
ENDBRANCH   4   6
BRANCH   3   8
HETATM    8  C4  UNL     1     -34.178  18.158  -4.024  1.00 20.00     0.264 C 
HETATM    9  O10 UNL     1     -34.284  19.262  -4.542  1.00 20.00    -0.265 OA
BRANCH   8  10
HETATM   10  O11 UNL     1     -35.032  17.106  -4.180  1.00 20.00    -0.326 OA
HETATM   11  C8  UNL     1     -35.735  17.064  -5.426  1.00 20.00     0.213 C 
ENDBRANCH   8  10
ENDBRANCH   3   8
TORSDOF 3
ENDMDL
MODEL 6
REMARK VINA RESULT:      -3.5      2.935      4.170
REMARK  3 active torsions:
REMARK  status: ('A' for Active; 'I' for Inactive)
REMARK    1  A    between atoms: C3_3  and  C7_7 
REMARK    2  A    between atoms: C4_4  and  C6_6 
REMARK    3  A    between atoms: C4_4  and  O11_11 
ROOT
HETATM    1  C1  UNL     1     -31.905  18.430  -1.225  1.00 20.00     0.074 C 
HETATM    2  C5  UNL     1     -32.886  18.900  -3.492  1.00 20.00     0.046 A 
HETATM    3  C6  UNL     1     -33.926  19.263  -2.472  1.00 20.00     0.114 A 
HETATM    4  C7  UNL     1     -32.945  18.126  -2.185  1.00 20.00     0.079 A 
HETATM    5  N9  UNL     1     -31.071  18.674  -0.456  1.00 20.00    -0.196 NA
ENDROOT
BRANCH   4   6
HETATM    6  C3  UNL     1     -33.454  16.748  -2.288  1.00 20.00    -0.012 C 
HETATM    7  C2  UNL     1     -33.289  15.967  -3.361  1.00 20.00     0.008 C 
ENDBRANCH   4   6
BRANCH   3   8
HETATM    8  C4  UNL     1     -35.341  18.996  -2.762  1.00 20.00     0.264 C 
HETATM    9  O10 UNL     1     -36.209  18.892  -1.905  1.00 20.00    -0.265 OA
BRANCH   8  10
HETATM   10  O11 UNL     1     -35.518  18.887  -4.110  1.00 20.00    -0.326 OA
HETATM   11  C8  UNL     1     -36.351  17.804  -4.536  1.00 20.00     0.213 C 
ENDBRANCH   8  10
ENDBRANCH   3   8
TORSDOF 3
ENDMDL
MODEL 7
REMARK VINA RESULT:      -3.5      4.455      5.791
REMARK  3 active torsions:
REMARK  status: ('A' for Active; 'I' for Inactive)
REMARK    1  A    between atoms: C3_3  and  C7_7 
REMARK    2  A    between atoms: C4_4  and  C6_6 
REMARK    3  A    between atoms: C4_4  and  O11_11 
ROOT
HETATM    1  C1  UNL     1     -35.560  18.142  -3.805  1.00 20.00     0.074 C 
HETATM    2  C5  UNL     1     -34.458  17.682  -6.017  1.00 20.00     0.046 A 
HETATM    3  C6  UNL     1     -35.505  16.626  -5.812  1.00 20.00     0.114 A 
HETATM    4  C7  UNL     1     -34.781  17.222  -4.605  1.00 20.00     0.079 A 
HETATM    5  N9  UNL     1     -36.185  18.881  -3.164  1.00 20.00    -0.196 NA
ENDROOT
BRANCH   4   6
HETATM    6  C3  UNL     1     -33.747  16.398  -3.957  1.00 20.00    -0.012 C 
HETATM    7  C2  UNL     1     -33.372  16.534  -2.680  1.00 20.00     0.008 C 
ENDBRANCH   4   6
BRANCH   3   8
HETATM    8  C4  UNL     1     -35.237  15.253  -6.261  1.00 20.00     0.264 C 
HETATM    9  O10 UNL     1     -34.260  14.926  -6.921  1.00 20.00    -0.265 OA
BRANCH   8  10
HETATM   10  O11 UNL     1     -36.235  14.429  -5.831  1.00 20.00    -0.326 OA
HETATM   11  C8  UNL     1     -35.928  13.644  -4.674  1.00 20.00     0.213 C 
ENDBRANCH   8  10
ENDBRANCH   3   8
TORSDOF 3
ENDMDL
MODEL 8
REMARK VINA RESULT:      -3.5      3.464      4.615
REMARK  3 active torsions:
REMARK  status: ('A' for Active; 'I' for Inactive)
REMARK    1  A    between atoms: C3_3  and  C7_7 
REMARK    2  A    between atoms: C4_4  and  C6_6 
REMARK    3  A    between atoms: C4_4  and  O11_11 
ROOT
HETATM    1  C1  UNL     1     -35.108  14.060  -4.538  1.00 20.00     0.074 C 
HETATM    2  C5  UNL     1     -32.911  15.218  -4.149  1.00 20.00     0.046 A 
HETATM    3  C6  UNL     1     -33.972  16.034  -3.470  1.00 20.00     0.114 A 
HETATM    4  C7  UNL     1     -34.312  15.252  -4.738  1.00 20.00     0.079 A 
HETATM    5  N9  UNL     1     -35.745  13.103  -4.377  1.00 20.00    -0.196 NA
ENDROOT
BRANCH   4   6
HETATM    6  C3  UNL     1     -34.455  16.014  -5.989  1.00 20.00    -0.012 C 
HETATM    7  C2  UNL     1     -34.176  15.522  -7.202  1.00 20.00     0.008 C 
ENDBRANCH   4   6
BRANCH   3   8
HETATM    8  C4  UNL     1     -33.869  17.500  -3.482  1.00 20.00     0.264 C 
HETATM    9  O10 UNL     1     -32.838  18.112  -3.728  1.00 20.00    -0.265 OA
BRANCH   8  10
HETATM   10  O11 UNL     1     -35.082  18.046  -3.180  1.00 20.00    -0.326 OA
HETATM   11  C8  UNL     1     -35.118  18.846  -1.995  1.00 20.00     0.213 C 
ENDBRANCH   8  10
ENDBRANCH   3   8
TORSDOF 3
ENDMDL
MODEL 9
REMARK VINA RESULT:      -3.4      3.201      4.724
REMARK  3 active torsions:
REMARK  status: ('A' for Active; 'I' for Inactive)
REMARK    1  A    between atoms: C3_3  and  C7_7 
REMARK    2  A    between atoms: C4_4  and  C6_6 
REMARK    3  A    between atoms: C4_4  and  O11_11 
ROOT
HETATM    1  C1  UNL     1     -35.417  18.207  -3.058  1.00 20.00     0.074 C 
HETATM    2  C5  UNL     1     -33.339  17.651  -4.359  1.00 20.00     0.046 A 
HETATM    3  C6  UNL     1     -34.184  16.411  -4.317  1.00 20.00     0.114 A 
HETATM    4  C7  UNL     1     -34.222  17.396  -3.149  1.00 20.00     0.079 A 
HETATM    5  N9  UNL     1     -36.375  18.858  -2.986  1.00 20.00    -0.196 NA
ENDROOT
BRANCH   4   6
HETATM    6  C3  UNL     1     -33.512  17.016  -1.917  1.00 20.00    -0.012 C 
HETATM    7  C2  UNL     1     -33.687  17.618  -0.735  1.00 20.00     0.008 C 
ENDBRANCH   4   6
BRANCH   3   8
HETATM    8  C4  UNL     1     -33.531  15.101  -4.191  1.00 20.00     0.264 C 
HETATM    9  O10 UNL     1     -32.318  14.937  -4.194  1.00 20.00    -0.265 OA
BRANCH   8  10
HETATM   10  O11 UNL     1     -34.479  14.128  -4.074  1.00 20.00    -0.326 OA
HETATM   11  C8  UNL     1     -35.577  14.226  -4.987  1.00 20.00     0.213 C 
ENDBRANCH   8  10
ENDBRANCH   3   8
TORSDOF 3
ENDMDL
