MODEL 1
REMARK VINA RESULT:      -4.6      0.000      0.000
REMARK  4 active torsions:
REMARK  status: ('A' for Active; 'I' for Inactive)
REMARK    1  A    between atoms: C2_2  and  C5_5 
REMARK    2  A    between atoms: C4_4  and  C8_8 
REMARK    3  A    between atoms: C7_7  and  C9_9 
REMARK    4  A    between atoms: C8_8  and  C9_9 
ROOT
HETATM    1  C1  UNL     1     -32.946   5.075   2.838  1.00 20.00     0.012 C 
HETATM    2  C3  UNL     1     -33.868   5.051   3.607  1.00 20.00    -0.117 C 
HETATM    3  C7  UNL     1     -34.999   5.023   4.545  1.00 20.00     0.094 C 
ENDROOT
BRANCH   3   4
HETATM    4  C9  UNL     1     -34.509   4.944   5.995  1.00 20.00     0.024 C 
BRANCH   4   5
HETATM    5  C8  UNL     1     -34.456   6.311   6.679  1.00 20.00     0.095 C 
BRANCH   5   6
HETATM    6  C4  UNL     1     -33.715   7.302   5.885  1.00 20.00    -0.098 C 
HETATM    7  C2  UNL     1     -33.110   8.111   5.236  1.00 20.00    -0.029 C 
BRANCH   7   8
HETATM    8  C5  UNL     1     -32.380   9.078   4.451  1.00 20.00     0.198 C 
HETATM    9  C6  UNL     1     -32.451   8.914   2.963  1.00 20.00     0.106 C 
HETATM   10  O10 UNL     1     -31.751   9.967   5.011  1.00 20.00    -0.284 OA
ENDBRANCH   7   8
ENDBRANCH   5   6
ENDBRANCH   4   5
ENDBRANCH   3   4
TORSDOF 4
ENDMDL
MODEL 2
REMARK VINA RESULT:      -4.5     11.967     12.738
REMARK  4 active torsions:
REMARK  status: ('A' for Active; 'I' for Inactive)
REMARK    1  A    between atoms: C2_2  and  C5_5 
REMARK    2  A    between atoms: C4_4  and  C8_8 
REMARK    3  A    between atoms: C7_7  and  C9_9 
REMARK    4  A    between atoms: C8_8  and  C9_9 
ROOT
HETATM    1  C1  UNL     1     -30.779  18.363   1.341  1.00 20.00     0.012 C 
HETATM    2  C3  UNL     1     -31.902  18.551   0.961  1.00 20.00    -0.117 C 
HETATM    3  C7  UNL     1     -33.278  18.783   0.499  1.00 20.00     0.094 C 
ENDROOT
BRANCH   3   4
HETATM    4  C9  UNL     1     -33.715  17.702  -0.494  1.00 20.00     0.024 C 
BRANCH   4   5
HETATM    5  C8  UNL     1     -32.847  17.667  -1.754  1.00 20.00     0.095 C 
BRANCH   5   6
HETATM    6  C4  UNL     1     -33.278  16.625  -2.698  1.00 20.00    -0.098 C 
HETATM    7  C2  UNL     1     -33.628  15.775  -3.470  1.00 20.00    -0.029 C 
BRANCH   7   8
HETATM    8  C5  UNL     1     -34.044  14.753  -4.401  1.00 20.00     0.198 C 
HETATM    9  C6  UNL     1     -33.897  15.082  -5.856  1.00 20.00     0.106 C 
HETATM   10  O10 UNL     1     -34.486  13.691  -3.982  1.00 20.00    -0.284 OA
ENDBRANCH   7   8
ENDBRANCH   5   6
ENDBRANCH   4   5
ENDBRANCH   3   4
TORSDOF 4
ENDMDL
MODEL 3
REMARK VINA RESULT:      -4.3      1.961      2.994
REMARK  4 active torsions:
REMARK  status: ('A' for Active; 'I' for Inactive)
REMARK    1  A    between atoms: C2_2  and  C5_5 
REMARK    2  A    between atoms: C4_4  and  C8_8 
REMARK    3  A    between atoms: C7_7  and  C9_9 
REMARK    4  A    between atoms: C8_8  and  C9_9 
ROOT
HETATM    1  C1  UNL     1     -34.390   4.648   4.551  1.00 20.00     0.012 C 
HETATM    2  C3  UNL     1     -34.372   5.528   5.367  1.00 20.00    -0.117 C 
HETATM    3  C7  UNL     1     -34.351   6.604   6.369  1.00 20.00     0.094 C 
ENDROOT
BRANCH   3   4
HETATM    4  C9  UNL     1     -34.056   7.958   5.716  1.00 20.00     0.024 C 
BRANCH   4   5
HETATM    5  C8  UNL     1     -32.605   8.090   5.253  1.00 20.00     0.095 C 
BRANCH   5   6
HETATM    6  C4  UNL     1     -32.500   8.284   3.799  1.00 20.00    -0.098 C 
HETATM    7  C2  UNL     1     -32.414   8.440   2.612  1.00 20.00    -0.029 C 
BRANCH   7   8
HETATM    8  C5  UNL     1     -32.309   8.623   1.184  1.00 20.00     0.198 C 
HETATM    9  C6  UNL     1     -33.019   9.813   0.613  1.00 20.00     0.106 C 
HETATM   10  O10 UNL     1     -31.665   7.825   0.514  1.00 20.00    -0.284 OA
ENDBRANCH   7   8
ENDBRANCH   5   6
ENDBRANCH   4   5
ENDBRANCH   3   4
TORSDOF 4
ENDMDL
MODEL 4
REMARK VINA RESULT:      -4.3      1.762      2.838
REMARK  4 active torsions:
REMARK  status: ('A' for Active; 'I' for Inactive)
REMARK    1  A    between atoms: C2_2  and  C5_5 
REMARK    2  A    between atoms: C4_4  and  C8_8 
REMARK    3  A    between atoms: C7_7  and  C9_9 
REMARK    4  A    between atoms: C8_8  and  C9_9 
ROOT
HETATM    1  C1  UNL     1     -34.435   4.658   4.549  1.00 20.00     0.012 C 
HETATM    2  C3  UNL     1     -34.408   5.498   5.407  1.00 20.00    -0.117 C 
HETATM    3  C7  UNL     1     -34.378   6.523   6.460  1.00 20.00     0.094 C 
ENDROOT
BRANCH   3   4
HETATM    4  C9  UNL     1     -34.068   7.904   5.873  1.00 20.00     0.024 C 
BRANCH   4   5
HETATM    5  C8  UNL     1     -32.639   8.017   5.340  1.00 20.00     0.095 C 
BRANCH   5   6
HETATM    6  C4  UNL     1     -32.603   8.369   3.913  1.00 20.00    -0.098 C 
HETATM    7  C2  UNL     1     -32.576   8.658   2.748  1.00 20.00    -0.029 C 
BRANCH   7   8
HETATM    8  C5  UNL     1     -32.550   9.005   1.347  1.00 20.00     0.198 C 
HETATM    9  C6  UNL     1     -31.908   8.009   0.428  1.00 20.00     0.106 C 
HETATM   10  O10 UNL     1     -33.036  10.065   0.973  1.00 20.00    -0.284 OA
ENDBRANCH   7   8
ENDBRANCH   5   6
ENDBRANCH   4   5
ENDBRANCH   3   4
TORSDOF 4
ENDMDL
MODEL 5
REMARK VINA RESULT:      -4.3     11.959     12.651
REMARK  4 active torsions:
REMARK  status: ('A' for Active; 'I' for Inactive)
REMARK    1  A    between atoms: C2_2  and  C5_5 
REMARK    2  A    between atoms: C4_4  and  C8_8 
REMARK    3  A    between atoms: C7_7  and  C9_9 
REMARK    4  A    between atoms: C8_8  and  C9_9 
ROOT
HETATM    1  C1  UNL     1     -35.191  15.273  -6.679  1.00 20.00     0.012 C 
HETATM    2  C3  UNL     1     -34.722  14.920  -5.632  1.00 20.00    -0.117 C 
HETATM    3  C7  UNL     1     -34.151  14.484  -4.349  1.00 20.00     0.094 C 
ENDROOT
BRANCH   3   4
HETATM    4  C9  UNL     1     -33.119  15.493  -3.836  1.00 20.00     0.024 C 
BRANCH   4   5
HETATM    5  C8  UNL     1     -33.749  16.812  -3.386  1.00 20.00     0.095 C 
BRANCH   5   6
HETATM    6  C4  UNL     1     -33.032  17.412  -2.251  1.00 20.00    -0.098 C 
HETATM    7  C2  UNL     1     -32.449  17.903  -1.324  1.00 20.00    -0.029 C 
BRANCH   7   8
HETATM    8  C5  UNL     1     -31.753  18.496  -0.207  1.00 20.00     0.198 C 
HETATM    9  C6  UNL     1     -32.540  18.647   1.060  1.00 20.00     0.106 C 
HETATM   10  O10 UNL     1     -30.585  18.842  -0.331  1.00 20.00    -0.284 OA
ENDBRANCH   7   8
ENDBRANCH   5   6
ENDBRANCH   4   5
ENDBRANCH   3   4
TORSDOF 4
ENDMDL
MODEL 6
REMARK VINA RESULT:      -4.1      1.111      2.631
REMARK  4 active torsions:
REMARK  status: ('A' for Active; 'I' for Inactive)
REMARK    1  A    between atoms: C2_2  and  C5_5 
REMARK    2  A    between atoms: C4_4  and  C8_8 
REMARK    3  A    between atoms: C7_7  and  C9_9 
REMARK    4  A    between atoms: C8_8  and  C9_9 
ROOT
HETATM    1  C1  UNL     1     -34.191   6.860   6.627  1.00 20.00     0.012 C 
HETATM    2  C3  UNL     1     -34.516   6.065   5.788  1.00 20.00    -0.117 C 
HETATM    3  C7  UNL     1     -34.919   5.094   4.761  1.00 20.00     0.094 C 
ENDROOT
BRANCH   3   4
HETATM    4  C9  UNL     1     -33.721   4.262   4.293  1.00 20.00     0.024 C 
BRANCH   4   5
HETATM    5  C8  UNL     1     -33.131   4.760   2.973  1.00 20.00     0.095 C 
BRANCH   5   6
HETATM    6  C4  UNL     1     -32.911   6.213   2.974  1.00 20.00    -0.098 C 
HETATM    7  C2  UNL     1     -32.734   7.401   2.976  1.00 20.00    -0.029 C 
BRANCH   7   8
HETATM    8  C5  UNL     1     -32.526   8.829   2.980  1.00 20.00     0.198 C 
HETATM    9  C6  UNL     1     -32.703   9.529   1.665  1.00 20.00     0.106 C 
HETATM   10  O10 UNL     1     -32.225   9.398   4.021  1.00 20.00    -0.284 OA
ENDBRANCH   7   8
ENDBRANCH   5   6
ENDBRANCH   4   5
ENDBRANCH   3   4
TORSDOF 4
ENDMDL
MODEL 7
REMARK VINA RESULT:      -4.1     12.444     13.664
REMARK  4 active torsions:
REMARK  status: ('A' for Active; 'I' for Inactive)
REMARK    1  A    between atoms: C2_2  and  C5_5 
REMARK    2  A    between atoms: C4_4  and  C8_8 
REMARK    3  A    between atoms: C7_7  and  C9_9 
REMARK    4  A    between atoms: C8_8  and  C9_9 
ROOT
HETATM    1  C1  UNL     1     -31.213  18.659  -0.328  1.00 20.00     0.012 C 
HETATM    2  C3  UNL     1     -32.271  18.229  -0.697  1.00 20.00    -0.117 C 
HETATM    3  C7  UNL     1     -33.568  17.701  -1.144  1.00 20.00     0.094 C 
ENDROOT
BRANCH   3   4
HETATM    4  C9  UNL     1     -33.575  17.469  -2.658  1.00 20.00     0.024 C 
BRANCH   4   5
HETATM    5  C8  UNL     1     -33.370  16.001  -3.036  1.00 20.00     0.095 C 
BRANCH   5   6
HETATM    6  C4  UNL     1     -33.924  15.685  -4.360  1.00 20.00    -0.098 C 
HETATM    7  C2  UNL     1     -34.378  15.426  -5.441  1.00 20.00    -0.029 C 
BRANCH   7   8
HETATM    8  C5  UNL     1     -34.929  15.113  -6.738  1.00 20.00     0.198 C 
HETATM    9  C6  UNL     1     -34.244  15.736  -7.918  1.00 20.00     0.106 C 
HETATM   10  O10 UNL     1     -35.901  14.374  -6.825  1.00 20.00    -0.284 OA
ENDBRANCH   7   8
ENDBRANCH   5   6
ENDBRANCH   4   5
ENDBRANCH   3   4
TORSDOF 4
ENDMDL
MODEL 8
REMARK VINA RESULT:      -3.8      2.224      4.410
REMARK  4 active torsions:
REMARK  status: ('A' for Active; 'I' for Inactive)
REMARK    1  A    between atoms: C2_2  and  C5_5 
REMARK    2  A    between atoms: C4_4  and  C8_8 
REMARK    3  A    between atoms: C7_7  and  C9_9 
REMARK    4  A    between atoms: C8_8  and  C9_9 
ROOT
HETATM    1  C1  UNL     1     -32.713   9.038  -0.010  1.00 20.00     0.012 C 
HETATM    2  C3  UNL     1     -32.521   8.697   1.126  1.00 20.00    -0.117 C 
HETATM    3  C7  UNL     1     -32.287   8.277   2.514  1.00 20.00     0.094 C 
ENDROOT
BRANCH   3   4
HETATM    4  C9  UNL     1     -32.476   9.448   3.483  1.00 20.00     0.024 C 
BRANCH   4   5
HETATM    5  C8  UNL     1     -32.351   9.032   4.949  1.00 20.00     0.095 C 
BRANCH   5   6
HETATM    6  C4  UNL     1     -33.119   7.815   5.250  1.00 20.00    -0.098 C 
HETATM    7  C2  UNL     1     -33.747   6.821   5.494  1.00 20.00    -0.029 C 
BRANCH   7   8
HETATM    8  C5  UNL     1     -34.505   5.627   5.782  1.00 20.00     0.198 C 
HETATM    9  C6  UNL     1     -34.562   4.598   4.693  1.00 20.00     0.106 C 
HETATM   10  O10 UNL     1     -35.055   5.502   6.869  1.00 20.00    -0.284 OA
ENDBRANCH   7   8
ENDBRANCH   5   6
ENDBRANCH   4   5
ENDBRANCH   3   4
TORSDOF 4
ENDMDL
MODEL 9
REMARK VINA RESULT:      -3.8     10.523     11.018
REMARK  4 active torsions:
REMARK  status: ('A' for Active; 'I' for Inactive)
REMARK    1  A    between atoms: C2_2  and  C5_5 
REMARK    2  A    between atoms: C4_4  and  C8_8 
REMARK    3  A    between atoms: C7_7  and  C9_9 
REMARK    4  A    between atoms: C8_8  and  C9_9 
ROOT
HETATM    1  C1  UNL     1     -38.916  11.693   3.941  1.00 20.00     0.012 C 
HETATM    2  C3  UNL     1     -39.634  11.895   4.883  1.00 20.00    -0.117 C 
HETATM    3  C7  UNL     1     -40.512  12.138   6.036  1.00 20.00     0.094 C 
ENDROOT
BRANCH   3   4
HETATM    4  C9  UNL     1     -40.853  13.626   6.163  1.00 20.00     0.024 C 
BRANCH   4   5
HETATM    5  C8  UNL     1     -42.277  13.951   5.708  1.00 20.00     0.095 C 
BRANCH   5   6
HETATM    6  C4  UNL     1     -42.313  14.518   4.352  1.00 20.00    -0.098 C 
HETATM    7  C2  UNL     1     -42.344  14.981   3.245  1.00 20.00    -0.029 C 
BRANCH   7   8
HETATM    8  C5  UNL     1     -42.388  15.538   1.914  1.00 20.00     0.198 C 
HETATM    9  C6  UNL     1     -42.173  17.018   1.806  1.00 20.00     0.106 C 
HETATM   10  O10 UNL     1     -42.593  14.806   0.954  1.00 20.00    -0.284 OA
ENDBRANCH   7   8
ENDBRANCH   5   6
ENDBRANCH   4   5
ENDBRANCH   3   4
TORSDOF 4
ENDMDL
