MODEL 1
REMARK VINA RESULT:      -4.5      0.000      0.000
REMARK  3 active torsions:
REMARK  status: ('A' for Active; 'I' for Inactive)
REMARK    1  A    between atoms: C1_1  and  C2_2 
REMARK    2  A    between atoms: C4_4  and  C9_9 
REMARK    3  A    between atoms: C5_5  and  C9_9 
ROOT
HETATM    1  C2  UNL     1     -33.211  16.669  -2.138  1.00 20.00    -0.004 C 
HETATM    2  C4  UNL     1     -33.360  17.872  -1.565  1.00 20.00    -0.015 C 
ENDROOT
BRANCH   2   3
HETATM    3  C9  UNL     1     -33.135  18.127  -0.097  1.00 20.00     0.073 C 
HETATM    4  C8  UNL     1     -34.026  19.254   0.413  1.00 20.00     0.022 C 
BRANCH   3   5
HETATM    5  C5  UNL     1     -31.668  18.481   0.133  1.00 20.00     0.130 C 
HETATM    6  C7  UNL     1     -31.144  18.303   1.536  1.00 20.00     0.091 C 
HETATM    7  O10 UNL     1     -30.942  18.925  -0.758  1.00 20.00    -0.298 OA
ENDBRANCH   3   5
ENDBRANCH   2   3
BRANCH   1   8
HETATM    8  C1  UNL     1     -33.427  16.432  -3.548  1.00 20.00    -0.005 C 
HETATM    9  C3  UNL     1     -33.654  15.214  -4.059  1.00 20.00    -0.031 C 
HETATM   10  C6  UNL     1     -33.879  14.955  -5.513  1.00 20.00     0.036 C 
ENDBRANCH   1   8
TORSDOF 3
ENDMDL
MODEL 2
REMARK VINA RESULT:      -4.3      2.958      6.185
REMARK  3 active torsions:
REMARK  status: ('A' for Active; 'I' for Inactive)
REMARK    1  A    between atoms: C1_1  and  C2_2 
REMARK    2  A    between atoms: C4_4  and  C9_9 
REMARK    3  A    between atoms: C5_5  and  C9_9 
ROOT
HETATM    1  C2  UNL     1     -33.543  16.679  -3.844  1.00 20.00    -0.004 C 
HETATM    2  C4  UNL     1     -33.708  15.351  -3.767  1.00 20.00    -0.015 C 
ENDROOT
BRANCH   2   3
HETATM    3  C9  UNL     1     -34.054  14.486  -4.951  1.00 20.00     0.073 C 
HETATM    4  C8  UNL     1     -33.831  15.229  -6.264  1.00 20.00     0.022 C 
BRANCH   3   5
HETATM    5  C5  UNL     1     -35.513  14.047  -4.845  1.00 20.00     0.130 C 
HETATM    6  C7  UNL     1     -36.543  14.993  -5.409  1.00 20.00     0.091 C 
HETATM    7  O10 UNL     1     -35.854  12.998  -4.297  1.00 20.00    -0.298 OA
ENDBRANCH   3   5
ENDBRANCH   2   3
BRANCH   1   8
HETATM    8  C1  UNL     1     -33.210  17.502  -2.703  1.00 20.00    -0.005 C 
HETATM    9  C3  UNL     1     -33.640  17.239  -1.460  1.00 20.00    -0.031 C 
HETATM   10  C6  UNL     1     -33.304  18.080  -0.272  1.00 20.00     0.036 C 
ENDBRANCH   1   8
TORSDOF 3
ENDMDL
MODEL 3
REMARK VINA RESULT:      -4.2      2.449      5.733
REMARK  3 active torsions:
REMARK  status: ('A' for Active; 'I' for Inactive)
REMARK    1  A    between atoms: C1_1  and  C2_2 
REMARK    2  A    between atoms: C4_4  and  C9_9 
REMARK    3  A    between atoms: C5_5  and  C9_9 
ROOT
HETATM    1  C2  UNL     1     -33.342  17.528  -2.512  1.00 20.00    -0.004 C 
HETATM    2  C4  UNL     1     -33.381  16.329  -3.112  1.00 20.00    -0.015 C 
ENDROOT
BRANCH   2   3
HETATM    3  C9  UNL     1     -33.875  16.119  -4.519  1.00 20.00     0.073 C 
HETATM    4  C8  UNL     1     -34.881  17.193  -4.919  1.00 20.00     0.022 C 
BRANCH   3   5
HETATM    5  C5  UNL     1     -34.520  14.739  -4.625  1.00 20.00     0.130 C 
HETATM    6  C7  UNL     1     -35.662  14.603  -5.601  1.00 20.00     0.091 C 
HETATM    7  O10 UNL     1     -34.167  13.784  -3.933  1.00 20.00    -0.298 OA
ENDBRANCH   3   5
ENDBRANCH   2   3
BRANCH   1   8
HETATM    8  C1  UNL     1     -32.865  17.721  -1.161  1.00 20.00    -0.005 C 
HETATM    9  C3  UNL     1     -31.771  18.438  -0.866  1.00 20.00    -0.031 C 
HETATM   10  C6  UNL     1     -31.267  18.645   0.525  1.00 20.00     0.036 C 
ENDBRANCH   1   8
TORSDOF 3
ENDMDL
MODEL 4
REMARK VINA RESULT:      -4.1      1.953      5.434
REMARK  3 active torsions:
REMARK  status: ('A' for Active; 'I' for Inactive)
REMARK    1  A    between atoms: C1_1  and  C2_2 
REMARK    2  A    between atoms: C4_4  and  C9_9 
REMARK    3  A    between atoms: C5_5  and  C9_9 
ROOT
HETATM    1  C2  UNL     1     -33.704  17.286  -1.428  1.00 20.00    -0.004 C 
HETATM    2  C4  UNL     1     -33.117  16.831  -2.544  1.00 20.00    -0.015 C 
ENDROOT
BRANCH   2   3
HETATM    3  C9  UNL     1     -33.820  15.972  -3.562  1.00 20.00     0.073 C 
HETATM    4  C8  UNL     1     -32.857  14.988  -4.218  1.00 20.00     0.022 C 
BRANCH   3   5
HETATM    5  C5  UNL     1     -34.451  16.867  -4.626  1.00 20.00     0.130 C 
HETATM    6  C7  UNL     1     -35.620  16.290  -5.384  1.00 20.00     0.091 C 
HETATM    7  O10 UNL     1     -34.020  17.989  -4.894  1.00 20.00    -0.298 OA
ENDBRANCH   3   5
ENDBRANCH   2   3
BRANCH   1   8
HETATM    8  C1  UNL     1     -33.023  18.111  -0.456  1.00 20.00    -0.005 C 
HETATM    9  C3  UNL     1     -31.705  18.358  -0.500  1.00 20.00    -0.031 C 
HETATM   10  C6  UNL     1     -30.989  19.208   0.497  1.00 20.00     0.036 C 
ENDBRANCH   1   8
TORSDOF 3
ENDMDL
MODEL 5
REMARK VINA RESULT:      -3.9     11.802     12.274
REMARK  3 active torsions:
REMARK  status: ('A' for Active; 'I' for Inactive)
REMARK    1  A    between atoms: C1_1  and  C2_2 
REMARK    2  A    between atoms: C4_4  and  C9_9 
REMARK    3  A    between atoms: C5_5  and  C9_9 
ROOT
HETATM    1  C2  UNL     1     -32.605   7.849   3.869  1.00 20.00    -0.004 C 
HETATM    2  C4  UNL     1     -33.832   7.412   4.188  1.00 20.00    -0.015 C 
ENDROOT
BRANCH   2   3
HETATM    3  C9  UNL     1     -34.260   7.086   5.594  1.00 20.00     0.073 C 
HETATM    4  C8  UNL     1     -33.238   7.577   6.613  1.00 20.00     0.022 C 
BRANCH   3   5
HETATM    5  C5  UNL     1     -34.439   5.575   5.728  1.00 20.00     0.130 C 
HETATM    6  C7  UNL     1     -34.398   4.776   4.450  1.00 20.00     0.091 C 
HETATM    7  O10 UNL     1     -34.646   5.022   6.809  1.00 20.00    -0.298 OA
ENDBRANCH   3   5
ENDBRANCH   2   3
BRANCH   1   8
HETATM    8  C1  UNL     1     -32.203   8.161   2.517  1.00 20.00    -0.005 C 
HETATM    9  C3  UNL     1     -32.868   9.024   1.735  1.00 20.00    -0.031 C 
HETATM   10  C6  UNL     1     -32.464   9.355   0.336  1.00 20.00     0.036 C 
ENDBRANCH   1   8
TORSDOF 3
ENDMDL
MODEL 6
REMARK VINA RESULT:      -3.9      1.410      2.065
REMARK  3 active torsions:
REMARK  status: ('A' for Active; 'I' for Inactive)
REMARK    1  A    between atoms: C1_1  and  C2_2 
REMARK    2  A    between atoms: C4_4  and  C9_9 
REMARK    3  A    between atoms: C5_5  and  C9_9 
ROOT
HETATM    1  C2  UNL     1     -32.874  17.361  -1.926  1.00 20.00    -0.004 C 
HETATM    2  C4  UNL     1     -33.337  18.353  -1.152  1.00 20.00    -0.015 C 
ENDROOT
BRANCH   2   3
HETATM    3  C9  UNL     1     -32.491  19.087  -0.145  1.00 20.00     0.073 C 
HETATM    4  C8  UNL     1     -31.119  18.438   0.005  1.00 20.00     0.022 C 
BRANCH   3   5
HETATM    5  C5  UNL     1     -33.209  19.099   1.203  1.00 20.00     0.130 C 
HETATM    6  C7  UNL     1     -34.709  18.945   1.168  1.00 20.00     0.091 C 
HETATM    7  O10 UNL     1     -32.618  19.262   2.271  1.00 20.00    -0.298 OA
ENDBRANCH   3   5
ENDBRANCH   2   3
BRANCH   1   8
HETATM    8  C1  UNL     1     -33.692  16.662  -2.891  1.00 20.00    -0.005 C 
HETATM    9  C3  UNL     1     -33.196  15.779  -3.770  1.00 20.00    -0.031 C 
HETATM   10  C6  UNL     1     -34.030  15.051  -4.772  1.00 20.00     0.036 C 
ENDBRANCH   1   8
TORSDOF 3
ENDMDL
MODEL 7
REMARK VINA RESULT:      -3.9      3.004      6.246
REMARK  3 active torsions:
REMARK  status: ('A' for Active; 'I' for Inactive)
REMARK    1  A    between atoms: C1_1  and  C2_2 
REMARK    2  A    between atoms: C4_4  and  C9_9 
REMARK    3  A    between atoms: C5_5  and  C9_9 
ROOT
HETATM    1  C2  UNL     1     -33.743  16.095  -3.750  1.00 20.00    -0.004 C 
HETATM    2  C4  UNL     1     -34.558  16.696  -4.629  1.00 20.00    -0.015 C 
ENDROOT
BRANCH   2   3
HETATM    3  C9  UNL     1     -35.260  15.968  -5.745  1.00 20.00     0.073 C 
HETATM    4  C8  UNL     1     -35.621  14.544  -5.337  1.00 20.00     0.022 C 
BRANCH   3   5
HETATM    5  C5  UNL     1     -34.355  15.941  -6.975  1.00 20.00     0.130 C 
HETATM    6  C7  UNL     1     -34.314  17.197  -7.808  1.00 20.00     0.091 C 
HETATM    7  O10 UNL     1     -33.714  14.944  -7.309  1.00 20.00    -0.298 OA
ENDBRANCH   3   5
ENDBRANCH   2   3
BRANCH   1   8
HETATM    8  C1  UNL     1     -33.074  16.801  -2.681  1.00 20.00    -0.005 C 
HETATM    9  C3  UNL     1     -33.722  17.322  -1.628  1.00 20.00    -0.031 C 
HETATM   10  C6  UNL     1     -33.044  18.054  -0.518  1.00 20.00     0.036 C 
ENDBRANCH   1   8
TORSDOF 3
ENDMDL
MODEL 8
REMARK VINA RESULT:      -3.8      2.713      5.478
REMARK  3 active torsions:
REMARK  status: ('A' for Active; 'I' for Inactive)
REMARK    1  A    between atoms: C1_1  and  C2_2 
REMARK    2  A    between atoms: C4_4  and  C9_9 
REMARK    3  A    between atoms: C5_5  and  C9_9 
ROOT
HETATM    1  C2  UNL     1     -33.896  17.699  -2.293  1.00 20.00    -0.004 C 
HETATM    2  C4  UNL     1     -33.464  17.067  -3.394  1.00 20.00    -0.015 C 
ENDROOT
BRANCH   2   3
HETATM    3  C9  UNL     1     -34.263  16.975  -4.667  1.00 20.00     0.073 C 
HETATM    4  C8  UNL     1     -35.605  17.685  -4.533  1.00 20.00     0.022 C 
BRANCH   3   5
HETATM    5  C5  UNL     1     -34.485  15.505  -5.017  1.00 20.00     0.130 C 
HETATM    6  C7  UNL     1     -33.640  14.501  -4.275  1.00 20.00     0.091 C 
HETATM    7  O10 UNL     1     -35.282  15.140  -5.883  1.00 20.00    -0.298 OA
ENDBRANCH   3   5
ENDBRANCH   2   3
BRANCH   1   8
HETATM    8  C1  UNL     1     -33.123  17.783  -1.074  1.00 20.00    -0.005 C 
HETATM    9  C3  UNL     1     -31.961  18.447  -0.989  1.00 20.00    -0.031 C 
HETATM   10  C6  UNL     1     -31.152  18.542   0.263  1.00 20.00     0.036 C 
ENDBRANCH   1   8
TORSDOF 3
ENDMDL
MODEL 9
REMARK VINA RESULT:      -3.7     11.669     13.494
REMARK  3 active torsions:
REMARK  status: ('A' for Active; 'I' for Inactive)
REMARK    1  A    between atoms: C1_1  and  C2_2 
REMARK    2  A    between atoms: C4_4  and  C9_9 
REMARK    3  A    between atoms: C5_5  and  C9_9 
ROOT
HETATM    1  C2  UNL     1     -40.400  15.237   8.258  1.00 20.00    -0.004 C 
HETATM    2  C4  UNL     1     -40.409  13.987   7.772  1.00 20.00    -0.015 C 
ENDROOT
BRANCH   2   3
HETATM    3  C9  UNL     1     -40.461  13.668   6.301  1.00 20.00     0.073 C 
HETATM    4  C8  UNL     1     -41.893  13.434   5.834  1.00 20.00     0.022 C 
BRANCH   3   5
HETATM    5  C5  UNL     1     -39.617  12.425   6.027  1.00 20.00     0.130 C 
HETATM    6  C7  UNL     1     -39.551  11.959   4.594  1.00 20.00     0.091 C 
HETATM    7  O10 UNL     1     -39.043  11.799   6.919  1.00 20.00    -0.298 OA
ENDBRANCH   3   5
ENDBRANCH   2   3
BRANCH   1   8
HETATM    8  C1  UNL     1     -40.349  15.536   9.671  1.00 20.00    -0.005 C 
HETATM    9  C3  UNL     1     -40.434  14.594  10.622  1.00 20.00    -0.031 C 
HETATM   10  C6  UNL     1     -40.383  14.889  12.086  1.00 20.00     0.036 C 
ENDBRANCH   1   8
TORSDOF 3
ENDMDL
