MODEL 1
REMARK VINA RESULT:      -4.8      0.000      0.000
REMARK  2 active torsions:
REMARK  status: ('A' for Active; 'I' for Inactive)
REMARK    1  A    between atoms: C1_1  and  C7_7 
REMARK    2  A    between atoms: C4_4  and  C7_7 
ROOT
HETATM    1  C6  UNL     1     -33.187   5.309   2.771  1.00 20.00     0.018 C 
HETATM    2  C7  UNL     1     -32.995   6.263   3.948  1.00 20.00     0.055 C 
ENDROOT
BRANCH   2   3
HETATM    3  C1  UNL     1     -32.453   7.609   3.477  1.00 20.00     0.127 C 
HETATM    4  C5  UNL     1     -32.323   8.693   4.518  1.00 20.00     0.091 C 
HETATM    5  O8  UNL     1     -32.156   7.827   2.302  1.00 20.00    -0.298 OA
ENDBRANCH   2   3
BRANCH   2   6
HETATM    6  C4  UNL     1     -34.303   6.464   4.702  1.00 20.00    -0.004 A 
HETATM    7  C2  UNL     1     -35.101   5.277   5.165  1.00 20.00     0.006 A 
HETATM    8  C3  UNL     1     -34.389   6.139   6.168  1.00 20.00     0.006 A 
ENDBRANCH   2   6
TORSDOF 2
ENDMDL
MODEL 2
REMARK VINA RESULT:      -4.8      1.942      3.266
REMARK  2 active torsions:
REMARK  status: ('A' for Active; 'I' for Inactive)
REMARK    1  A    between atoms: C1_1  and  C7_7 
REMARK    2  A    between atoms: C4_4  and  C7_7 
ROOT
HETATM    1  C6  UNL     1     -32.903   5.895   2.894  1.00 20.00     0.018 C 
HETATM    2  C7  UNL     1     -33.793   6.350   4.048  1.00 20.00     0.055 C 
ENDROOT
BRANCH   2   3
HETATM    3  C1  UNL     1     -34.260   5.160   4.880  1.00 20.00     0.127 C 
HETATM    4  C5  UNL     1     -34.733   5.452   6.282  1.00 20.00     0.091 C 
HETATM    5  O8  UNL     1     -34.234   4.005   4.453  1.00 20.00    -0.298 OA
ENDBRANCH   2   3
BRANCH   2   6
HETATM    6  C4  UNL     1     -33.062   7.350   4.935  1.00 20.00    -0.004 A 
HETATM    7  C2  UNL     1     -32.296   8.489   4.322  1.00 20.00     0.006 A 
HETATM    8  C3  UNL     1     -33.572   8.758   5.068  1.00 20.00     0.006 A 
ENDBRANCH   2   6
TORSDOF 2
ENDMDL
MODEL 3
REMARK VINA RESULT:      -4.7      1.460      2.261
REMARK  2 active torsions:
REMARK  status: ('A' for Active; 'I' for Inactive)
REMARK    1  A    between atoms: C1_1  and  C7_7 
REMARK    2  A    between atoms: C4_4  and  C7_7 
ROOT
HETATM    1  C6  UNL     1     -33.698   7.576   6.557  1.00 20.00     0.018 C 
HETATM    2  C7  UNL     1     -33.897   7.559   5.043  1.00 20.00     0.055 C 
ENDROOT
BRANCH   2   3
HETATM    3  C1  UNL     1     -32.691   8.159   4.326  1.00 20.00     0.127 C 
HETATM    4  C5  UNL     1     -32.187   7.425   3.109  1.00 20.00     0.091 C 
HETATM    5  O8  UNL     1     -32.126   9.178   4.724  1.00 20.00    -0.298 OA
ENDBRANCH   2   3
BRANCH   2   6
HETATM    6  C4  UNL     1     -34.147   6.142   4.544  1.00 20.00    -0.004 A 
HETATM    7  C2  UNL     1     -34.594   5.070   5.498  1.00 20.00     0.006 A 
HETATM    8  C3  UNL     1     -35.548   5.602   4.467  1.00 20.00     0.006 A 
ENDBRANCH   2   6
TORSDOF 2
ENDMDL
MODEL 4
REMARK VINA RESULT:      -4.6      1.941      3.751
REMARK  2 active torsions:
REMARK  status: ('A' for Active; 'I' for Inactive)
REMARK    1  A    between atoms: C1_1  and  C7_7 
REMARK    2  A    between atoms: C4_4  and  C7_7 
ROOT
HETATM    1  C6  UNL     1     -34.289   7.051   6.695  1.00 20.00     0.018 C 
HETATM    2  C7  UNL     1     -33.707   6.655   5.340  1.00 20.00     0.055 C 
ENDROOT
BRANCH   2   3
HETATM    3  C1  UNL     1     -34.622   5.667   4.621  1.00 20.00     0.127 C 
HETATM    4  C5  UNL     1     -34.008   4.356   4.196  1.00 20.00     0.091 C 
HETATM    5  O8  UNL     1     -35.799   5.922   4.366  1.00 20.00    -0.298 OA
ENDBRANCH   2   3
BRANCH   2   6
HETATM    6  C4  UNL     1     -33.479   7.882   4.467  1.00 20.00    -0.004 A 
HETATM    7  C2  UNL     1     -32.350   8.828   4.770  1.00 20.00     0.006 A 
HETATM    8  C3  UNL     1     -32.287   7.949   3.553  1.00 20.00     0.006 A 
ENDBRANCH   2   6
TORSDOF 2
ENDMDL
MODEL 5
REMARK VINA RESULT:      -4.6      0.714      2.172
REMARK  2 active torsions:
REMARK  status: ('A' for Active; 'I' for Inactive)
REMARK    1  A    between atoms: C1_1  and  C7_7 
REMARK    2  A    between atoms: C4_4  and  C7_7 
ROOT
HETATM    1  C6  UNL     1     -32.576   8.465   4.870  1.00 20.00     0.018 C 
HETATM    2  C7  UNL     1     -33.406   7.364   4.214  1.00 20.00     0.055 C 
ENDROOT
BRANCH   2   3
HETATM    3  C1  UNL     1     -32.710   6.823   2.969  1.00 20.00     0.127 C 
HETATM    4  C5  UNL     1     -32.846   5.344   2.701  1.00 20.00     0.091 C 
HETATM    5  O8  UNL     1     -32.042   7.538   2.222  1.00 20.00    -0.298 OA
ENDBRANCH   2   3
BRANCH   2   6
HETATM    6  C4  UNL     1     -33.675   6.231   5.195  1.00 20.00    -0.004 A 
HETATM    7  C2  UNL     1     -34.371   6.505   6.499  1.00 20.00     0.006 A 
HETATM    8  C3  UNL     1     -35.078   5.738   5.417  1.00 20.00     0.006 A 
ENDBRANCH   2   6
TORSDOF 2
ENDMDL
MODEL 6
REMARK VINA RESULT:      -4.6      2.032      3.720
REMARK  2 active torsions:
REMARK  status: ('A' for Active; 'I' for Inactive)
REMARK    1  A    between atoms: C1_1  and  C7_7 
REMARK    2  A    between atoms: C4_4  and  C7_7 
ROOT
HETATM    1  C6  UNL     1     -34.248   6.959   6.705  1.00 20.00     0.018 C 
HETATM    2  C7  UNL     1     -33.669   6.505   5.367  1.00 20.00     0.055 C 
ENDROOT
BRANCH   2   3
HETATM    3  C1  UNL     1     -34.579   5.479   4.698  1.00 20.00     0.127 C 
HETATM    4  C5  UNL     1     -35.898   5.983   4.165  1.00 20.00     0.091 C 
HETATM    5  O8  UNL     1     -34.280   4.288   4.612  1.00 20.00    -0.298 OA
ENDBRANCH   2   3
BRANCH   2   6
HETATM    6  C4  UNL     1     -33.453   7.693   4.438  1.00 20.00    -0.004 A 
HETATM    7  C2  UNL     1     -32.384   8.706   4.739  1.00 20.00     0.006 A 
HETATM    8  C3  UNL     1     -32.222   7.766   3.577  1.00 20.00     0.006 A 
ENDBRANCH   2   6
TORSDOF 2
ENDMDL
MODEL 7
REMARK VINA RESULT:      -4.0      1.951      3.045
REMARK  2 active torsions:
REMARK  status: ('A' for Active; 'I' for Inactive)
REMARK    1  A    between atoms: C1_1  and  C7_7 
REMARK    2  A    between atoms: C4_4  and  C7_7 
ROOT
HETATM    1  C6  UNL     1     -34.815   5.096   4.961  1.00 20.00     0.018 C 
HETATM    2  C7  UNL     1     -34.153   6.363   4.425  1.00 20.00     0.055 C 
ENDROOT
BRANCH   2   3
HETATM    3  C1  UNL     1     -33.842   7.337   5.558  1.00 20.00     0.127 C 
HETATM    4  C5  UNL     1     -32.924   8.490   5.233  1.00 20.00     0.091 C 
HETATM    5  O8  UNL     1     -34.289   7.191   6.696  1.00 20.00    -0.298 OA
ENDBRANCH   2   3
BRANCH   2   6
HETATM    6  C4  UNL     1     -32.878   6.028   3.663  1.00 20.00    -0.004 A 
HETATM    7  C2  UNL     1     -32.924   5.109   2.474  1.00 20.00     0.006 A 
HETATM    8  C3  UNL     1     -32.657   6.575   2.280  1.00 20.00     0.006 A 
ENDBRANCH   2   6
TORSDOF 2
ENDMDL
MODEL 8
REMARK VINA RESULT:      -3.9      2.014      3.703
REMARK  2 active torsions:
REMARK  status: ('A' for Active; 'I' for Inactive)
REMARK    1  A    between atoms: C1_1  and  C7_7 
REMARK    2  A    between atoms: C4_4  and  C7_7 
ROOT
HETATM    1  C6  UNL     1     -32.806   8.674   5.173  1.00 20.00     0.018 C 
HETATM    2  C7  UNL     1     -33.029   7.183   4.936  1.00 20.00     0.055 C 
ENDROOT
BRANCH   2   3
HETATM    3  C1  UNL     1     -34.161   6.653   5.812  1.00 20.00     0.127 C 
HETATM    4  C5  UNL     1     -34.950   5.486   5.273  1.00 20.00     0.091 C 
HETATM    5  O8  UNL     1     -34.448   7.159   6.897  1.00 20.00    -0.298 OA
ENDBRANCH   2   3
BRANCH   2   6
HETATM    6  C4  UNL     1     -33.332   6.906   3.470  1.00 20.00    -0.004 A 
HETATM    7  C2  UNL     1     -32.315   7.227   2.411  1.00 20.00     0.006 A 
HETATM    8  C3  UNL     1     -32.623   5.795   2.746  1.00 20.00     0.006 A 
ENDBRANCH   2   6
TORSDOF 2
ENDMDL
MODEL 9
REMARK VINA RESULT:      -3.8      1.875      2.811
REMARK  2 active torsions:
REMARK  status: ('A' for Active; 'I' for Inactive)
REMARK    1  A    between atoms: C1_1  and  C7_7 
REMARK    2  A    between atoms: C4_4  and  C7_7 
ROOT
HETATM    1  C6  UNL     1     -32.722   7.532   3.707  1.00 20.00     0.018 C 
HETATM    2  C7  UNL     1     -33.754   6.563   4.280  1.00 20.00     0.055 C 
ENDROOT
BRANCH   2   3
HETATM    3  C1  UNL     1     -33.628   5.186   3.634  1.00 20.00     0.127 C 
HETATM    4  C5  UNL     1     -32.870   5.110   2.332  1.00 20.00     0.091 C 
HETATM    5  O8  UNL     1     -34.138   4.178   4.124  1.00 20.00    -0.298 OA
ENDBRANCH   2   3
BRANCH   2   6
HETATM    6  C4  UNL     1     -33.606   6.445   5.791  1.00 20.00    -0.004 A 
HETATM    7  C2  UNL     1     -34.084   7.552   6.689  1.00 20.00     0.006 A 
HETATM    8  C3  UNL     1     -34.819   6.241   6.657  1.00 20.00     0.006 A 
ENDBRANCH   2   6
TORSDOF 2
ENDMDL
