MODEL 1
REMARK VINA RESULT:      -5.1      0.000      0.000
REMARK  1 active torsions:
REMARK  status: ('A' for Active; 'I' for Inactive)
REMARK    1  A    between atoms: C5_5  and  C8_8 
ROOT
HETATM    1  C1  UNL     1     -34.945   5.521   6.208  1.00 20.00    -0.027 C 
HETATM    2  C2  UNL     1     -34.099   6.446   6.687  1.00 20.00    -0.029 C 
HETATM    3  C3  UNL     1     -34.079   5.252   3.817  1.00 20.00    -0.020 C 
HETATM    4  C4  UNL     1     -33.308   6.342   3.641  1.00 20.00    -0.076 C 
HETATM    5  C6  UNL     1     -35.216   5.114   4.788  1.00 20.00     0.054 C 
HETATM    6  C7  UNL     1     -33.225   7.405   5.929  1.00 20.00     0.043 C 
HETATM    7  C8  UNL     1     -33.567   7.594   4.448  1.00 20.00     0.086 C 
HETATM    8  C9  UNL     1     -32.175   6.311   2.652  1.00 20.00     0.044 C 
ENDROOT
BRANCH   7   9
HETATM    9  C5  UNL     1     -32.800   8.769   3.907  1.00 20.00     0.131 C 
HETATM   10  C10 UNL     1     -31.883   9.478   4.867  1.00 20.00     0.091 C 
HETATM   11  O11 UNL     1     -32.915   9.132   2.738  1.00 20.00    -0.298 OA
ENDBRANCH   7   9
TORSDOF 1
ENDMDL
MODEL 2
REMARK VINA RESULT:      -4.5      1.784      4.277
REMARK  1 active torsions:
REMARK  status: ('A' for Active; 'I' for Inactive)
REMARK    1  A    between atoms: C5_5  and  C8_8 
ROOT
HETATM    1  C1  UNL     1     -32.021   8.480   2.424  1.00 20.00    -0.027 C 
HETATM    2  C2  UNL     1     -32.034   7.147   2.266  1.00 20.00    -0.029 C 
HETATM    3  C3  UNL     1     -32.860   8.697   4.831  1.00 20.00    -0.020 C 
HETATM    4  C4  UNL     1     -33.400   7.490   5.082  1.00 20.00    -0.076 C 
HETATM    5  C6  UNL     1     -32.676   9.326   3.479  1.00 20.00     0.054 C 
HETATM    6  C7  UNL     1     -32.777   6.111   3.061  1.00 20.00     0.043 C 
HETATM    7  C8  UNL     1     -33.914   6.635   3.944  1.00 20.00     0.086 C 
HETATM    8  C9  UNL     1     -33.479   6.979   6.495  1.00 20.00     0.044 C 
ENDROOT
BRANCH   7   9
HETATM    9  C5  UNL     1     -34.726   5.474   4.448  1.00 20.00     0.131 C 
HETATM   10  C10 UNL     1     -34.015   4.153   4.569  1.00 20.00     0.091 C 
HETATM   11  O11 UNL     1     -35.912   5.599   4.747  1.00 20.00    -0.298 OA
ENDBRANCH   7   9
TORSDOF 1
ENDMDL
MODEL 3
REMARK VINA RESULT:      -4.1      1.189      2.595
REMARK  1 active torsions:
REMARK  status: ('A' for Active; 'I' for Inactive)
REMARK    1  A    between atoms: C5_5  and  C8_8 
ROOT
HETATM    1  C1  UNL     1     -34.336   4.494   5.094  1.00 20.00    -0.027 C 
HETATM    2  C2  UNL     1     -34.132   4.996   3.866  1.00 20.00    -0.029 C 
HETATM    3  C3  UNL     1     -34.417   6.635   6.492  1.00 20.00    -0.020 C 
HETATM    4  C4  UNL     1     -33.878   7.560   5.675  1.00 20.00    -0.076 C 
HETATM    5  C6  UNL     1     -34.181   5.153   6.435  1.00 20.00     0.054 C 
HETATM    6  C7  UNL     1     -33.610   6.350   3.476  1.00 20.00     0.043 C 
HETATM    7  C8  UNL     1     -32.915   7.144   4.586  1.00 20.00     0.086 C 
HETATM    8  C9  UNL     1     -34.246   9.010   5.834  1.00 20.00     0.044 C 
ENDROOT
BRANCH   7   9
HETATM    9  C5  UNL     1     -32.215   8.330   3.984  1.00 20.00     0.131 C 
HETATM   10  C10 UNL     1     -32.248   8.446   2.484  1.00 20.00     0.091 C 
HETATM   11  O11 UNL     1     -31.644   9.165   4.683  1.00 20.00    -0.298 OA
ENDBRANCH   7   9
TORSDOF 1
ENDMDL
MODEL 4
REMARK VINA RESULT:      -4.1     15.122     16.226
REMARK  1 active torsions:
REMARK  status: ('A' for Active; 'I' for Inactive)
REMARK    1  A    between atoms: C5_5  and  C8_8 
ROOT
HETATM    1  C1  UNL     1     -23.671  19.182   7.480  1.00 20.00    -0.027 C 
HETATM    2  C2  UNL     1     -22.611  19.068   8.296  1.00 20.00    -0.029 C 
HETATM    3  C3  UNL     1     -25.588  19.263   9.172  1.00 20.00    -0.020 C 
HETATM    4  C4  UNL     1     -25.022  18.807  10.305  1.00 20.00    -0.076 C 
HETATM    5  C6  UNL     1     -25.130  18.975   7.771  1.00 20.00     0.054 C 
HETATM    6  C7  UNL     1     -22.570  18.622   9.731  1.00 20.00     0.043 C 
HETATM    7  C8  UNL     1     -23.818  17.893  10.240  1.00 20.00     0.086 C 
HETATM    8  C9  UNL     1     -25.575  19.220  11.642  1.00 20.00     0.044 C 
ENDROOT
BRANCH   7   9
HETATM    9  C5  UNL     1     -23.520  17.275  11.578  1.00 20.00     0.131 C 
HETATM   10  C10 UNL     1     -24.311  16.049  11.947  1.00 20.00     0.091 C 
HETATM   11  O11 UNL     1     -22.672  17.746  12.332  1.00 20.00    -0.298 OA
ENDBRANCH   7   9
TORSDOF 1
ENDMDL
MODEL 5
REMARK VINA RESULT:      -4.1      1.068      2.885
REMARK  1 active torsions:
REMARK  status: ('A' for Active; 'I' for Inactive)
REMARK    1  A    between atoms: C5_5  and  C8_8 
ROOT
HETATM    1  C1  UNL     1     -34.747   6.007   6.572  1.00 20.00    -0.027 C 
HETATM    2  C2  UNL     1     -35.092   5.415   5.418  1.00 20.00    -0.029 C 
HETATM    3  C3  UNL     1     -33.522   8.082   5.714  1.00 20.00    -0.020 C 
HETATM    4  C4  UNL     1     -33.269   7.783   4.426  1.00 20.00    -0.076 C 
HETATM    5  C6  UNL     1     -33.748   7.100   6.827  1.00 20.00     0.054 C 
HETATM    6  C7  UNL     1     -34.517   5.622   4.045  1.00 20.00     0.043 C 
HETATM    7  C8  UNL     1     -33.165   6.340   3.987  1.00 20.00     0.086 C 
HETATM    8  C9  UNL     1     -33.105   8.886   3.416  1.00 20.00     0.044 C 
ENDROOT
BRANCH   7   9
HETATM    9  C5  UNL     1     -32.601   6.224   2.598  1.00 20.00     0.131 C 
HETATM   10  C10 UNL     1     -32.871   4.938   1.863  1.00 20.00     0.091 C 
HETATM   11  O11 UNL     1     -31.952   7.134   2.087  1.00 20.00    -0.298 OA
ENDBRANCH   7   9
TORSDOF 1
ENDMDL
MODEL 6
REMARK VINA RESULT:      -4.0     11.979     13.591
REMARK  1 active torsions:
REMARK  status: ('A' for Active; 'I' for Inactive)
REMARK    1  A    between atoms: C5_5  and  C8_8 
ROOT
HETATM    1  C1  UNL     1     -34.189  18.898  -3.133  1.00 20.00    -0.027 C 
HETATM    2  C2  UNL     1     -34.311  18.898  -4.469  1.00 20.00    -0.029 C 
HETATM    3  C3  UNL     1     -33.350  16.518  -2.716  1.00 20.00    -0.020 C 
HETATM    4  C4  UNL     1     -33.630  15.883  -3.871  1.00 20.00    -0.076 C 
HETATM    5  C6  UNL     1     -34.039  17.742  -2.185  1.00 20.00     0.054 C 
HETATM    6  C7  UNL     1     -34.412  17.727  -5.407  1.00 20.00     0.043 C 
HETATM    7  C8  UNL     1     -34.748  16.380  -4.760  1.00 20.00     0.086 C 
HETATM    8  C9  UNL     1     -32.819  14.686  -4.287  1.00 20.00     0.044 C 
ENDROOT
BRANCH   7   9
HETATM    9  C5  UNL     1     -35.084  15.384  -5.835  1.00 20.00     0.131 C 
HETATM   10  C10 UNL     1     -34.468  15.615  -7.188  1.00 20.00     0.091 C 
HETATM   11  O11 UNL     1     -35.825  14.427  -5.619  1.00 20.00    -0.298 OA
ENDBRANCH   7   9
TORSDOF 1
ENDMDL
MODEL 7
REMARK VINA RESULT:      -4.0     12.112     13.797
REMARK  1 active torsions:
REMARK  status: ('A' for Active; 'I' for Inactive)
REMARK    1  A    between atoms: C5_5  and  C8_8 
ROOT
HETATM    1  C1  UNL     1     -32.963  18.877  -2.452  1.00 20.00    -0.027 C 
HETATM    2  C2  UNL     1     -33.114  19.239  -3.736  1.00 20.00    -0.029 C 
HETATM    3  C3  UNL     1     -33.273  16.343  -2.617  1.00 20.00    -0.020 C 
HETATM    4  C4  UNL     1     -33.846  16.178  -3.824  1.00 20.00    -0.076 C 
HETATM    5  C6  UNL     1     -33.319  17.585  -1.773  1.00 20.00     0.054 C 
HETATM    6  C7  UNL     1     -33.762  18.479  -4.859  1.00 20.00     0.043 C 
HETATM    7  C8  UNL     1     -34.648  17.300  -4.445  1.00 20.00     0.086 C 
HETATM    8  C9  UNL     1     -33.676  14.881  -4.567  1.00 20.00     0.044 C 
ENDROOT
BRANCH   7   9
HETATM    9  C5  UNL     1     -35.431  16.826  -5.637  1.00 20.00     0.131 C 
HETATM   10  C10 UNL     1     -34.847  17.121  -6.992  1.00 20.00     0.091 C 
HETATM   11  O11 UNL     1     -36.496  16.225  -5.512  1.00 20.00    -0.298 OA
ENDBRANCH   7   9
TORSDOF 1
ENDMDL
MODEL 8
REMARK VINA RESULT:      -3.9     12.046     13.847
REMARK  1 active torsions:
REMARK  status: ('A' for Active; 'I' for Inactive)
REMARK    1  A    between atoms: C5_5  and  C8_8 
ROOT
HETATM    1  C1  UNL     1     -33.343  17.240  -2.679  1.00 20.00    -0.027 C 
HETATM    2  C2  UNL     1     -33.353  15.947  -3.040  1.00 20.00    -0.029 C 
HETATM    3  C3  UNL     1     -35.300  18.149  -4.052  1.00 20.00    -0.020 C 
HETATM    4  C4  UNL     1     -35.507  17.188  -4.972  1.00 20.00    -0.076 C 
HETATM    5  C6  UNL     1     -34.016  18.419  -3.322  1.00 20.00     0.054 C 
HETATM    6  C7  UNL     1     -33.983  15.311  -4.247  1.00 20.00     0.043 C 
HETATM    7  C8  UNL     1     -34.378  16.267  -5.377  1.00 20.00     0.086 C 
HETATM    8  C9  UNL     1     -36.869  17.016  -5.588  1.00 20.00     0.044 C 
ENDROOT
BRANCH   7   9
HETATM    9  C5  UNL     1     -34.727  15.469  -6.603  1.00 20.00     0.131 C 
HETATM   10  C10 UNL     1     -34.200  15.980  -7.916  1.00 20.00     0.091 C 
HETATM   11  O11 UNL     1     -35.410  14.448  -6.535  1.00 20.00    -0.298 OA
ENDBRANCH   7   9
TORSDOF 1
ENDMDL
MODEL 9
REMARK VINA RESULT:      -3.9     10.422     11.165
REMARK  1 active torsions:
REMARK  status: ('A' for Active; 'I' for Inactive)
REMARK    1  A    between atoms: C5_5  and  C8_8 
ROOT
HETATM    1  C1  UNL     1     -41.792  16.667   7.026  1.00 20.00    -0.027 C 
HETATM    2  C2  UNL     1     -40.691  16.151   7.594  1.00 20.00    -0.029 C 
HETATM    3  C3  UNL     1     -43.100  14.541   6.469  1.00 20.00    -0.020 C 
HETATM    4  C4  UNL     1     -42.171  13.571   6.562  1.00 20.00    -0.076 C 
HETATM    5  C6  UNL     1     -42.844  15.994   6.190  1.00 20.00     0.054 C 
HETATM    6  C7  UNL     1     -40.145  14.754   7.494  1.00 20.00     0.043 C 
HETATM    7  C8  UNL     1     -40.708  13.897   6.356  1.00 20.00     0.086 C 
HETATM    8  C9  UNL     1     -42.584  12.161   6.888  1.00 20.00     0.044 C 
ENDROOT
BRANCH   7   9
HETATM    9  C5  UNL     1     -39.879  12.650   6.217  1.00 20.00     0.131 C 
HETATM   10  C10 UNL     1     -39.784  12.051   4.839  1.00 20.00     0.091 C 
HETATM   11  O11 UNL     1     -39.305  12.146   7.180  1.00 20.00    -0.298 OA
ENDBRANCH   7   9
TORSDOF 1
ENDMDL
