MODEL 1
REMARK VINA RESULT:      -4.7      0.000      0.000
REMARK  1 active torsions:
REMARK  status: ('A' for Active; 'I' for Inactive)
REMARK    1  A    between atoms: C3_3  and  C4_4 
ROOT
HETATM    1  C1  UNL     1     -33.519   5.614   3.446  1.00 20.00     0.061 C 
HETATM    2  C2  UNL     1     -32.593   6.424   2.923  1.00 20.00     0.087 C 
HETATM    3  C4  UNL     1     -34.248   6.306   4.552  1.00 20.00     0.376 C 
HETATM    4  C5  UNL     1     -32.618   7.738   3.625  1.00 20.00     0.463 C 
HETATM    5  C6  UNL     1     -33.866   8.550   5.596  1.00 20.00     0.324 C 
HETATM    6  N7  UNL     1     -33.856   7.716   4.413  1.00 20.00     0.211 N 
HETATM    7  F9  UNL     1     -35.593   6.190   4.412  1.00 20.00    -0.195 F 
HETATM    8  F10 UNL     1     -31.522   7.889   4.414  1.00 20.00    -0.169 F 
HETATM    9  F11 UNL     1     -32.636   8.780   2.757  1.00 20.00    -0.169 F 
ENDROOT
BRANCH   3  10
HETATM   10  C3  UNL     1     -33.773   5.698   5.832  1.00 20.00     0.312 C 
HETATM   11  O8  UNL     1     -34.517   5.140   6.633  1.00 20.00    -0.301 OA
ENDBRANCH   3  10
TORSDOF 1
ENDMDL
MODEL 2
REMARK VINA RESULT:      -4.3      2.125      3.524
REMARK  1 active torsions:
REMARK  status: ('A' for Active; 'I' for Inactive)
REMARK    1  A    between atoms: C3_3  and  C4_4 
ROOT
HETATM    1  C1  UNL     1     -32.515   6.410   2.800  1.00 20.00     0.061 C 
HETATM    2  C2  UNL     1     -33.423   5.497   3.159  1.00 20.00     0.087 C 
HETATM    3  C4  UNL     1     -32.492   7.532   3.787  1.00 20.00     0.376 C 
HETATM    4  C5  UNL     1     -34.090   5.917   4.423  1.00 20.00     0.463 C 
HETATM    5  C6  UNL     1     -33.949   7.980   5.774  1.00 20.00     0.324 C 
HETATM    6  N7  UNL     1     -33.268   7.023   4.927  1.00 20.00     0.211 N 
HETATM    7  F9  UNL     1     -31.226   7.818   4.188  1.00 20.00    -0.195 F 
HETATM    8  F10 UNL     1     -35.370   6.306   4.192  1.00 20.00    -0.169 F 
HETATM    9  F11 UNL     1     -34.132   4.915   5.336  1.00 20.00    -0.169 F 
ENDROOT
BRANCH   3  10
HETATM   10  C3  UNL     1     -33.138   8.706   3.125  1.00 20.00     0.312 C 
HETATM   11  O8  UNL     1     -32.724   9.209   2.085  1.00 20.00    -0.301 OA
ENDBRANCH   3  10
TORSDOF 1
ENDMDL
MODEL 3
REMARK VINA RESULT:      -4.2      1.730      2.671
REMARK  1 active torsions:
REMARK  status: ('A' for Active; 'I' for Inactive)
REMARK    1  A    between atoms: C3_3  and  C4_4 
ROOT
HETATM    1  C1  UNL     1     -34.482   6.401   6.336  1.00 20.00     0.061 C 
HETATM    2  C2  UNL     1     -33.925   7.600   6.136  1.00 20.00     0.087 C 
HETATM    3  C4  UNL     1     -34.213   5.506   5.170  1.00 20.00     0.376 C 
HETATM    4  C5  UNL     1     -33.225   7.620   4.821  1.00 20.00     0.463 C 
HETATM    5  C6  UNL     1     -33.098   5.979   2.979  1.00 20.00     0.324 C 
HETATM    6  N7  UNL     1     -33.176   6.213   4.405  1.00 20.00     0.211 N 
HETATM    7  F9  UNL     1     -33.742   4.296   5.568  1.00 20.00    -0.195 F 
HETATM    8  F10 UNL     1     -33.896   8.386   3.924  1.00 20.00    -0.169 F 
HETATM    9  F11 UNL     1     -31.968   8.121   4.919  1.00 20.00    -0.169 F 
ENDROOT
BRANCH   3  10
HETATM   10  C3  UNL     1     -35.498   5.375   4.417  1.00 20.00     0.312 C 
HETATM   11  O8  UNL     1     -36.240   6.322   4.176  1.00 20.00    -0.301 OA
ENDBRANCH   3  10
TORSDOF 1
ENDMDL
MODEL 4
REMARK VINA RESULT:      -4.1      2.314      3.020
REMARK  1 active torsions:
REMARK  status: ('A' for Active; 'I' for Inactive)
REMARK    1  A    between atoms: C3_3  and  C4_4 
ROOT
HETATM    1  C1  UNL     1     -34.097   7.585   4.073  1.00 20.00     0.061 C 
HETATM    2  C2  UNL     1     -33.664   8.132   5.213  1.00 20.00     0.087 C 
HETATM    3  C4  UNL     1     -34.656   6.224   4.333  1.00 20.00     0.376 C 
HETATM    4  C5  UNL     1     -33.898   7.193   6.346  1.00 20.00     0.463 C 
HETATM    5  C6  UNL     1     -34.718   4.865   6.435  1.00 20.00     0.324 C 
HETATM    6  N7  UNL     1     -34.786   6.162   5.796  1.00 20.00     0.211 N 
HETATM    7  F9  UNL     1     -35.877   6.068   3.759  1.00 20.00    -0.195 F 
HETATM    8  F10 UNL     1     -32.729   6.666   6.791  1.00 20.00    -0.169 F 
HETATM    9  F11 UNL     1     -34.493   7.804   7.401  1.00 20.00    -0.169 F 
ENDROOT
BRANCH   3  10
HETATM   10  C3  UNL     1     -33.668   5.238   3.798  1.00 20.00     0.312 C 
HETATM   11  O8  UNL     1     -32.994   5.434   2.791  1.00 20.00    -0.301 OA
ENDBRANCH   3  10
TORSDOF 1
ENDMDL
MODEL 5
REMARK VINA RESULT:      -4.1     12.508     13.228
REMARK  1 active torsions:
REMARK  status: ('A' for Active; 'I' for Inactive)
REMARK    1  A    between atoms: C3_3  and  C4_4 
ROOT
HETATM    1  C1  UNL     1     -33.561  14.829  -4.313  1.00 20.00     0.061 C 
HETATM    2  C2  UNL     1     -33.387  15.898  -3.527  1.00 20.00     0.087 C 
HETATM    3  C4  UNL     1     -34.312  15.211  -5.546  1.00 20.00     0.376 C 
HETATM    4  C5  UNL     1     -34.001  17.097  -4.163  1.00 20.00     0.463 C 
HETATM    5  C6  UNL     1     -35.368  17.386  -6.200  1.00 20.00     0.324 C 
HETATM    6  N7  UNL     1     -34.289  16.681  -5.541  1.00 20.00     0.211 N 
HETATM    7  F9  UNL     1     -33.701  14.749  -6.667  1.00 20.00    -0.195 F 
HETATM    8  F10 UNL     1     -35.127  17.475  -3.505  1.00 20.00    -0.169 F 
HETATM    9  F11 UNL     1     -33.159  18.161  -4.164  1.00 20.00    -0.169 F 
ENDROOT
BRANCH   3  10
HETATM   10  C3  UNL     1     -35.693  14.655  -5.404  1.00 20.00     0.312 C 
HETATM   11  O8  UNL     1     -35.961  13.683  -4.705  1.00 20.00    -0.301 OA
ENDBRANCH   3  10
TORSDOF 1
ENDMDL
MODEL 6
REMARK VINA RESULT:      -4.1      2.263      3.712
REMARK  1 active torsions:
REMARK  status: ('A' for Active; 'I' for Inactive)
REMARK    1  A    between atoms: C3_3  and  C4_4 
ROOT
HETATM    1  C1  UNL     1     -33.699   8.250   5.823  1.00 20.00     0.061 C 
HETATM    2  C2  UNL     1     -33.993   7.385   6.799  1.00 20.00     0.087 C 
HETATM    3  C4  UNL     1     -33.788   7.577   4.491  1.00 20.00     0.376 C 
HETATM    4  C5  UNL     1     -34.312   6.052   6.214  1.00 20.00     0.463 C 
HETATM    5  C6  UNL     1     -34.204   5.178   3.906  1.00 20.00     0.324 C 
HETATM    6  N7  UNL     1     -34.467   6.305   4.776  1.00 20.00     0.211 N 
HETATM    7  F9  UNL     1     -34.527   8.303   3.613  1.00 20.00    -0.195 F 
HETATM    8  F10 UNL     1     -33.320   5.160   6.464  1.00 20.00    -0.169 F 
HETATM    9  F11 UNL     1     -35.458   5.533   6.722  1.00 20.00    -0.169 F 
ENDROOT
BRANCH   3  10
HETATM   10  C3  UNL     1     -32.387   7.388   4.005  1.00 20.00     0.312 C 
HETATM   11  O8  UNL     1     -32.038   7.601   2.849  1.00 20.00    -0.301 OA
ENDBRANCH   3  10
TORSDOF 1
ENDMDL
MODEL 7
REMARK VINA RESULT:      -4.1      9.018     10.142
REMARK  1 active torsions:
REMARK  status: ('A' for Active; 'I' for Inactive)
REMARK    1  A    between atoms: C3_3  and  C4_4 
ROOT
HETATM    1  C1  UNL     1     -43.240   7.195   1.529  1.00 20.00     0.061 C 
HETATM    2  C2  UNL     1     -43.391   5.953   2.000  1.00 20.00     0.087 C 
HETATM    3  C4  UNL     1     -42.360   7.187   0.321  1.00 20.00     0.376 C 
HETATM    4  C5  UNL     1     -42.631   4.995   1.149  1.00 20.00     0.463 C 
HETATM    5  C6  UNL     1     -41.080   5.318  -0.746  1.00 20.00     0.324 C 
HETATM    6  N7  UNL     1     -42.264   5.766  -0.044  1.00 20.00     0.211 N 
HETATM    7  F9  UNL     1     -42.913   7.886  -0.704  1.00 20.00    -0.195 F 
HETATM    8  F10 UNL     1     -41.536   4.526   1.802  1.00 20.00    -0.169 F 
HETATM    9  F11 UNL     1     -43.380   3.920   0.797  1.00 20.00    -0.169 F 
ENDROOT
BRANCH   3  10
HETATM   10  C3  UNL     1     -41.047   7.767   0.736  1.00 20.00     0.312 C 
HETATM   11  O8  UNL     1     -40.528   8.732   0.182  1.00 20.00    -0.301 OA
ENDBRANCH   3  10
TORSDOF 1
ENDMDL
MODEL 8
REMARK VINA RESULT:      -4.0      8.840      9.500
REMARK  1 active torsions:
REMARK  status: ('A' for Active; 'I' for Inactive)
REMARK    1  A    between atoms: C3_3  and  C4_4 
ROOT
HETATM    1  C1  UNL     1     -41.112   5.427  -0.520  1.00 20.00     0.061 C 
HETATM    2  C2  UNL     1     -40.310   6.479  -0.325  1.00 20.00     0.087 C 
HETATM    3  C4  UNL     1     -42.502   5.747  -0.075  1.00 20.00     0.376 C 
HETATM    4  C5  UNL     1     -41.088   7.605   0.262  1.00 20.00     0.463 C 
HETATM    5  C6  UNL     1     -43.416   7.779   1.068  1.00 20.00     0.324 C 
HETATM    6  N7  UNL     1     -42.492   7.205   0.113  1.00 20.00     0.211 N 
HETATM    7  F9  UNL     1     -43.417   5.415  -1.022  1.00 20.00    -0.195 F 
HETATM    8  F10 UNL     1     -40.755   7.800   1.564  1.00 20.00    -0.169 F 
HETATM    9  F11 UNL     1     -40.865   8.774  -0.389  1.00 20.00    -0.169 F 
ENDROOT
BRANCH   3  10
HETATM   10  C3  UNL     1     -42.734   5.001   1.199  1.00 20.00     0.312 C 
HETATM   11  O8  UNL     1     -43.204   3.869   1.244  1.00 20.00    -0.301 OA
ENDBRANCH   3  10
TORSDOF 1
ENDMDL
MODEL 9
REMARK VINA RESULT:      -3.9      8.820      9.908
REMARK  1 active torsions:
REMARK  status: ('A' for Active; 'I' for Inactive)
REMARK    1  A    between atoms: C3_3  and  C4_4 
ROOT
HETATM    1  C1  UNL     1     -40.557   6.625  -0.311  1.00 20.00     0.061 C 
HETATM    2  C2  UNL     1     -41.084   5.400  -0.414  1.00 20.00     0.087 C 
HETATM    3  C4  UNL     1     -41.323   7.436   0.682  1.00 20.00     0.376 C 
HETATM    4  C5  UNL     1     -42.249   5.273   0.505  1.00 20.00     0.463 C 
HETATM    5  C6  UNL     1     -43.417   6.902   1.948  1.00 20.00     0.324 C 
HETATM    6  N7  UNL     1     -42.167   6.451   1.376  1.00 20.00     0.211 N 
HETATM    7  F9  UNL     1     -40.499   8.041   1.576  1.00 20.00    -0.195 F 
HETATM    8  F10 UNL     1     -43.416   5.242  -0.190  1.00 20.00    -0.169 F 
HETATM    9  F11 UNL     1     -42.192   4.139   1.247  1.00 20.00    -0.169 F 
ENDROOT
BRANCH   3  10
HETATM   10  C3  UNL     1     -42.120   8.434  -0.094  1.00 20.00     0.312 C 
HETATM   11  O8  UNL     1     -42.651   8.185  -1.172  1.00 20.00    -0.301 OA
ENDBRANCH   3  10
TORSDOF 1
ENDMDL
