MODEL 1
REMARK VINA RESULT:      -3.8      0.000      0.000
REMARK  0 active torsions:
REMARK  status: ('A' for Active; 'I' for Inactive)
ROOT
HETATM    1  C1  UNL     1     -21.908  18.478  11.257  1.00 20.00    -0.013 C 
HETATM    2  C2  UNL     1     -22.726  18.562  12.330  1.00 20.00     0.004 C 
HETATM    3  C3  UNL     1     -24.674  18.562  10.162  1.00 20.00     0.341 C 
HETATM    4  C4  UNL     1     -22.379  17.822   9.962  1.00 20.00     0.127 C 
HETATM    5  C5  UNL     1     -24.069  16.735  11.349  1.00 20.00     0.137 C 
HETATM    6  C6  UNL     1     -24.115  17.940  12.263  1.00 20.00     0.169 C 
HETATM    7  N7  UNL     1     -23.791  17.462  10.133  1.00 20.00    -0.222 NA
HETATM    8  O8  UNL     1     -25.033  19.263   9.228  1.00 20.00    -0.245 OA
HETATM    9  O9  UNL     1     -24.982  18.812  11.492  1.00 20.00    -0.298 OA
ENDROOT
TORSDOF 0
ENDMDL
MODEL 2
REMARK VINA RESULT:      -3.7      1.863      3.170
REMARK  0 active torsions:
REMARK  status: ('A' for Active; 'I' for Inactive)
ROOT
HETATM    1  C1  UNL     1     -24.569  19.054   9.335  1.00 20.00    -0.013 C 
HETATM    2  C2  UNL     1     -23.435  19.263   8.630  1.00 20.00     0.004 C 
HETATM    3  C3  UNL     1     -22.336  18.312  11.157  1.00 20.00     0.341 C 
HETATM    4  C4  UNL     1     -24.625  17.999  10.437  1.00 20.00     0.127 C 
HETATM    5  C5  UNL     1     -22.679  17.020   9.335  1.00 20.00     0.137 C 
HETATM    6  C6  UNL     1     -22.215  18.392   8.901  1.00 20.00     0.169 C 
HETATM    7  N7  UNL     1     -23.279  17.435  10.581  1.00 20.00    -0.222 NA
HETATM    8  O8  UNL     1     -22.247  18.657  12.327  1.00 20.00    -0.245 OA
HETATM    9  O9  UNL     1     -21.578  18.844  10.124  1.00 20.00    -0.298 OA
ENDROOT
TORSDOF 0
ENDMDL
MODEL 3
REMARK VINA RESULT:      -3.6     18.485     19.547
REMARK  0 active torsions:
REMARK  status: ('A' for Active; 'I' for Inactive)
ROOT
HETATM    1  C1  UNL     1     -34.711  16.928  -4.249  1.00 20.00    -0.013 C 
HETATM    2  C2  UNL     1     -33.659  16.176  -3.856  1.00 20.00     0.004 C 
HETATM    3  C3  UNL     1     -35.500  14.104  -4.758  1.00 20.00     0.341 C 
HETATM    4  C4  UNL     1     -35.652  16.446  -5.350  1.00 20.00     0.127 C 
HETATM    5  C5  UNL     1     -33.823  14.967  -6.004  1.00 20.00     0.137 C 
HETATM    6  C6  UNL     1     -33.377  14.856  -4.563  1.00 20.00     0.169 C 
HETATM    7  N7  UNL     1     -35.235  15.092  -5.730  1.00 20.00    -0.222 NA
HETATM    8  O8  UNL     1     -36.580  13.617  -4.456  1.00 20.00    -0.245 OA
HETATM    9  O9  UNL     1     -34.313  13.857  -4.082  1.00 20.00    -0.298 OA
ENDROOT
TORSDOF 0
ENDMDL
MODEL 4
REMARK VINA RESULT:      -3.6      1.514      2.598
REMARK  0 active torsions:
REMARK  status: ('A' for Active; 'I' for Inactive)
ROOT
HETATM    1  C1  UNL     1     -25.986  17.432  12.331  1.00 20.00    -0.013 C 
HETATM    2  C2  UNL     1     -25.022  16.494  12.194  1.00 20.00     0.004 C 
HETATM    3  C3  UNL     1     -24.266  18.362  10.088  1.00 20.00     0.341 C 
HETATM    4  C4  UNL     1     -25.726  18.885  11.945  1.00 20.00     0.127 C 
HETATM    5  C5  UNL     1     -23.361  18.321  12.159  1.00 20.00     0.137 C 
HETATM    6  C6  UNL     1     -23.641  16.907  11.702  1.00 20.00     0.169 C 
HETATM    7  N7  UNL     1     -24.382  18.957  11.362  1.00 20.00    -0.222 NA
HETATM    8  O8  UNL     1     -24.683  18.784   9.020  1.00 20.00    -0.245 OA
HETATM    9  O9  UNL     1     -23.696  17.109  10.266  1.00 20.00    -0.298 OA
ENDROOT
TORSDOF 0
ENDMDL
MODEL 5
REMARK VINA RESULT:      -3.6     23.913     24.664
REMARK  0 active torsions:
REMARK  status: ('A' for Active; 'I' for Inactive)
ROOT
HETATM    1  C1  UNL     1     -43.415   4.740   1.280  1.00 20.00    -0.013 C 
HETATM    2  C2  UNL     1     -43.142   5.801   2.073  1.00 20.00     0.004 C 
HETATM    3  C3  UNL     1     -41.331   6.307  -0.154  1.00 20.00     0.341 C 
HETATM    4  C4  UNL     1     -43.245   4.829  -0.234  1.00 20.00     0.127 C 
HETATM    5  C5  UNL     1     -43.374   7.246   0.083  1.00 20.00     0.137 C 
HETATM    6  C6  UNL     1     -42.716   7.119   1.439  1.00 20.00     0.169 C 
HETATM    7  N7  UNL     1     -42.678   6.146  -0.542  1.00 20.00    -0.222 NA
HETATM    8  O8  UNL     1     -40.335   5.827  -0.676  1.00 20.00    -0.245 OA
HETATM    9  O9  UNL     1     -41.324   7.017   1.039  1.00 20.00    -0.298 OA
ENDROOT
TORSDOF 0
ENDMDL
MODEL 6
REMARK VINA RESULT:      -3.6      1.642      2.603
REMARK  0 active torsions:
REMARK  status: ('A' for Active; 'I' for Inactive)
ROOT
HETATM    1  C1  UNL     1     -22.094  18.703  11.745  1.00 20.00    -0.013 C 
HETATM    2  C2  UNL     1     -21.881  18.270  10.482  1.00 20.00     0.004 C 
HETATM    3  C3  UNL     1     -24.286  16.774  11.171  1.00 20.00     0.341 C 
HETATM    4  C4  UNL     1     -23.502  18.747  12.332  1.00 20.00     0.127 C 
HETATM    5  C5  UNL     1     -24.265  18.716  10.013  1.00 20.00     0.137 C 
HETATM    6  C6  UNL     1     -23.071  17.877   9.616  1.00 20.00     0.169 C 
HETATM    7  N7  UNL     1     -24.416  18.169  11.341  1.00 20.00    -0.222 NA
HETATM    8  O8  UNL     1     -24.650  15.887  11.929  1.00 20.00    -0.245 OA
HETATM    9  O9  UNL     1     -23.534  16.564  10.023  1.00 20.00    -0.298 OA
ENDROOT
TORSDOF 0
ENDMDL
MODEL 7
REMARK VINA RESULT:      -3.6     23.727     24.526
REMARK  0 active torsions:
REMARK  status: ('A' for Active; 'I' for Inactive)
ROOT
HETATM    1  C1  UNL     1     -41.733   8.108  -0.187  1.00 20.00    -0.013 C 
HETATM    2  C2  UNL     1     -40.816   7.118  -0.259  1.00 20.00     0.004 C 
HETATM    3  C3  UNL     1     -42.888   5.822   1.329  1.00 20.00     0.341 C 
HETATM    4  C4  UNL     1     -43.219   7.791  -0.039  1.00 20.00     0.127 C 
HETATM    5  C5  UNL     1     -42.640   5.584  -0.905  1.00 20.00     0.137 C 
HETATM    6  C6  UNL     1     -41.279   5.667  -0.252  1.00 20.00     0.169 C 
HETATM    7  N7  UNL     1     -43.352   6.337   0.100  1.00 20.00    -0.222 NA
HETATM    8  O8  UNL     1     -43.416   5.910   2.428  1.00 20.00    -0.245 OA
HETATM    9  O9  UNL     1     -41.625   5.292   1.107  1.00 20.00    -0.298 OA
ENDROOT
TORSDOF 0
ENDMDL
MODEL 8
REMARK VINA RESULT:      -3.6     16.622     17.577
REMARK  0 active torsions:
REMARK  status: ('A' for Active; 'I' for Inactive)
ROOT
HETATM    1  C1  UNL     1     -33.818   6.702   6.450  1.00 20.00    -0.013 C 
HETATM    2  C2  UNL     1     -33.552   7.302   5.268  1.00 20.00     0.004 C 
HETATM    3  C3  UNL     1     -34.070   4.573   4.385  1.00 20.00     0.341 C 
HETATM    4  C4  UNL     1     -34.741   5.488   6.523  1.00 20.00     0.127 C 
HETATM    5  C5  UNL     1     -35.592   6.244   4.363  1.00 20.00     0.137 C 
HETATM    6  C6  UNL     1     -34.231   6.795   4.002  1.00 20.00     0.169 C 
HETATM    7  N7  UNL     1     -35.116   5.132   5.150  1.00 20.00    -0.222 NA
HETATM    8  O8  UNL     1     -33.588   3.454   4.476  1.00 20.00    -0.245 OA
HETATM    9  O9  UNL     1     -33.569   5.578   3.570  1.00 20.00    -0.298 OA
ENDROOT
TORSDOF 0
ENDMDL
MODEL 9
REMARK VINA RESULT:      -3.6     23.637     24.485
REMARK  0 active torsions:
REMARK  status: ('A' for Active; 'I' for Inactive)
ROOT
HETATM    1  C1  UNL     1     -40.470   7.504  -0.239  1.00 20.00    -0.013 C 
HETATM    2  C2  UNL     1     -41.568   8.288  -0.324  1.00 20.00     0.004 C 
HETATM    3  C3  UNL     1     -42.736   5.663  -0.813  1.00 20.00     0.341 C 
HETATM    4  C4  UNL     1     -40.578   6.050   0.211  1.00 20.00     0.127 C 
HETATM    5  C5  UNL     1     -42.714   6.709   1.191  1.00 20.00     0.137 C 
HETATM    6  C6  UNL     1     -42.922   7.727   0.091  1.00 20.00     0.169 C 
HETATM    7  N7  UNL     1     -42.001   5.743   0.389  1.00 20.00    -0.222 NA
HETATM    8  O8  UNL     1     -42.715   4.771  -1.648  1.00 20.00    -0.245 OA
HETATM    9  O9  UNL     1     -43.416   6.863  -0.965  1.00 20.00    -0.298 OA
ENDROOT
TORSDOF 0
ENDMDL
