MODEL 1
REMARK VINA RESULT:      -3.7      0.000      0.000
REMARK  1 active torsions:
REMARK  status: ('A' for Active; 'I' for Inactive)
REMARK    1  A    between atoms: C1_1  and  C3_3 
ROOT
HETATM    1  C1  UNL     1     -32.614   7.799   3.515  1.00 20.00    -0.054 C 
HETATM    2  C2  UNL     1     -32.344   8.018   2.366  1.00 20.00     0.007 C 
HETATM    3 CL8  UNL     1     -31.949   8.339   0.688  1.00 20.00    -0.023 Cl
ENDROOT
BRANCH   1   4
HETATM    4  C3  UNL     1     -32.938   7.538   4.883  1.00 20.00     0.236 A 
HETATM    5  C4  UNL     1     -34.123   6.673   5.268  1.00 20.00     0.092 A 
HETATM    6  C5  UNL     1     -34.147   6.055   6.631  1.00 20.00     0.049 C 
HETATM    7  C6  UNL     1     -34.999   6.036   4.233  1.00 20.00     0.049 C 
HETATM    8  O7  UNL     1     -34.196   8.105   5.283  1.00 20.00    -0.357 OA
ENDBRANCH   1   4
TORSDOF 1
ENDMDL
MODEL 2
REMARK VINA RESULT:      -3.5     11.622     12.408
REMARK  1 active torsions:
REMARK  status: ('A' for Active; 'I' for Inactive)
REMARK    1  A    between atoms: C1_1  and  C3_3 
ROOT
HETATM    1  C1  UNL     1     -33.405  16.262  -2.938  1.00 20.00    -0.054 C 
HETATM    2  C2  UNL     1     -33.493  16.915  -1.935  1.00 20.00     0.007 C 
HETATM    3 CL8  UNL     1     -33.621  17.868  -0.468  1.00 20.00    -0.023 Cl
ENDROOT
BRANCH   1   4
HETATM    4  C3  UNL     1     -33.302  15.485  -4.133  1.00 20.00     0.236 A 
HETATM    5  C4  UNL     1     -34.332  15.591  -5.243  1.00 20.00     0.092 A 
HETATM    6  C5  UNL     1     -33.953  15.143  -6.619  1.00 20.00     0.049 C 
HETATM    7  C6  UNL     1     -35.495  16.531  -5.146  1.00 20.00     0.049 C 
HETATM    8  O7  UNL     1     -34.367  14.530  -4.279  1.00 20.00    -0.357 OA
ENDBRANCH   1   4
TORSDOF 1
ENDMDL
MODEL 3
REMARK VINA RESULT:      -3.3      2.967      4.191
REMARK  1 active torsions:
REMARK  status: ('A' for Active; 'I' for Inactive)
REMARK    1  A    between atoms: C1_1  and  C3_3 
ROOT
HETATM    1  C1  UNL     1     -33.848   7.334   5.273  1.00 20.00    -0.054 C 
HETATM    2  C2  UNL     1     -34.238   6.416   5.940  1.00 20.00     0.007 C 
HETATM    3 CL8  UNL     1     -34.808   5.074   6.914  1.00 20.00    -0.023 Cl
ENDROOT
BRANCH   1   4
HETATM    4  C3  UNL     1     -33.384   8.428   4.478  1.00 20.00     0.236 A 
HETATM    5  C4  UNL     1     -32.612   8.205   3.191  1.00 20.00     0.092 A 
HETATM    6  C5  UNL     1     -32.562   9.310   2.183  1.00 20.00     0.049 C 
HETATM    7  C6  UNL     1     -32.317   6.827   2.682  1.00 20.00     0.049 C 
HETATM    8  O7  UNL     1     -31.951   8.518   4.424  1.00 20.00    -0.357 OA
ENDBRANCH   1   4
TORSDOF 1
ENDMDL
MODEL 4
REMARK VINA RESULT:      -3.2     15.619     15.780
REMARK  1 active torsions:
REMARK  status: ('A' for Active; 'I' for Inactive)
REMARK    1  A    between atoms: C1_1  and  C3_3 
ROOT
HETATM    1  C1  UNL     1     -22.780  17.414   9.703  1.00 20.00    -0.054 C 
HETATM    2  C2  UNL     1     -22.177  17.481   8.668  1.00 20.00     0.007 C 
HETATM    3 CL8  UNL     1     -21.294  17.578   7.156  1.00 20.00    -0.023 Cl
ENDROOT
BRANCH   1   4
HETATM    4  C3  UNL     1     -23.499  17.336  10.936  1.00 20.00     0.236 A 
HETATM    5  C4  UNL     1     -24.705  18.215  11.211  1.00 20.00     0.092 A 
HETATM    6  C5  UNL     1     -25.678  17.790  12.265  1.00 20.00     0.049 C 
HETATM    7  C6  UNL     1     -25.211  19.193  10.194  1.00 20.00     0.049 C 
HETATM    8  O7  UNL     1     -23.404  18.536  11.722  1.00 20.00    -0.357 OA
ENDBRANCH   1   4
TORSDOF 1
ENDMDL
MODEL 5
REMARK VINA RESULT:      -3.1     15.827     16.622
REMARK  1 active torsions:
REMARK  status: ('A' for Active; 'I' for Inactive)
REMARK    1  A    between atoms: C1_1  and  C3_3 
ROOT
HETATM    1  C1  UNL     1     -25.109  18.653  12.332  1.00 20.00    -0.054 C 
HETATM    2  C2  UNL     1     -26.306  18.740  12.332  1.00 20.00     0.007 C 
HETATM    3 CL8  UNL     1     -28.055  18.868  12.332  1.00 20.00    -0.023 Cl
ENDROOT
BRANCH   1   4
HETATM    4  C3  UNL     1     -23.683  18.550  12.332  1.00 20.00     0.236 A 
HETATM    5  C4  UNL     1     -22.909  18.230  11.067  1.00 20.00     0.092 A 
HETATM    6  C5  UNL     1     -21.457  18.587  11.004  1.00 20.00     0.049 C 
HETATM    7  C6  UNL     1     -23.601  18.026   9.754  1.00 20.00     0.049 C 
HETATM    8  O7  UNL     1     -23.214  17.223  12.042  1.00 20.00    -0.357 OA
ENDBRANCH   1   4
TORSDOF 1
ENDMDL
MODEL 6
REMARK VINA RESULT:      -3.1     10.099     10.456
REMARK  1 active torsions:
REMARK  status: ('A' for Active; 'I' for Inactive)
REMARK    1  A    between atoms: C1_1  and  C3_3 
ROOT
HETATM    1  C1  UNL     1     -40.916  12.724   5.972  1.00 20.00    -0.054 C 
HETATM    2  C2  UNL     1     -40.074  12.298   5.230  1.00 20.00     0.007 C 
HETATM    3 CL8  UNL     1     -38.845  11.677   4.144  1.00 20.00    -0.023 Cl
ENDROOT
BRANCH   1   4
HETATM    4  C3  UNL     1     -41.918  13.229   6.857  1.00 20.00     0.236 A 
HETATM    5  C4  UNL     1     -41.699  14.492   7.669  1.00 20.00     0.092 A 
HETATM    6  C5  UNL     1     -42.893  15.223   8.196  1.00 20.00     0.049 C 
HETATM    7  C6  UNL     1     -40.428  15.279   7.566  1.00 20.00     0.049 C 
HETATM    8  O7  UNL     1     -41.524  13.187   8.239  1.00 20.00    -0.357 OA
ENDBRANCH   1   4
TORSDOF 1
ENDMDL
MODEL 7
REMARK VINA RESULT:      -3.1     11.804     12.190
REMARK  1 active torsions:
REMARK  status: ('A' for Active; 'I' for Inactive)
REMARK    1  A    between atoms: C1_1  and  C3_3 
ROOT
HETATM    1  C1  UNL     1     -33.432  16.330  -3.126  1.00 20.00    -0.054 C 
HETATM    2  C2  UNL     1     -33.628  15.749  -4.158  1.00 20.00     0.007 C 
HETATM    3 CL8  UNL     1     -33.912  14.900  -5.666  1.00 20.00    -0.023 Cl
ENDROOT
BRANCH   1   4
HETATM    4  C3  UNL     1     -33.200  17.023  -1.897  1.00 20.00     0.236 A 
HETATM    5  C4  UNL     1     -34.061  18.198  -1.473  1.00 20.00     0.092 A 
HETATM    6  C5  UNL     1     -34.094  18.577  -0.026  1.00 20.00     0.049 C 
HETATM    7  C6  UNL     1     -35.206  18.675  -2.312  1.00 20.00     0.049 C 
HETATM    8  O7  UNL     1     -32.779  18.384  -2.088  1.00 20.00    -0.357 OA
ENDBRANCH   1   4
TORSDOF 1
ENDMDL
MODEL 8
REMARK VINA RESULT:      -3.0     11.893     12.750
REMARK  1 active torsions:
REMARK  status: ('A' for Active; 'I' for Inactive)
REMARK    1  A    between atoms: C1_1  and  C3_3 
ROOT
HETATM    1  C1  UNL     1     -33.696  15.941  -3.942  1.00 20.00    -0.054 C 
HETATM    2  C2  UNL     1     -33.357  16.552  -2.966  1.00 20.00     0.007 C 
HETATM    3 CL8  UNL     1     -32.861  17.445  -1.540  1.00 20.00    -0.023 Cl
ENDROOT
BRANCH   1   4
HETATM    4  C3  UNL     1     -34.099  15.213  -5.104  1.00 20.00     0.236 A 
HETATM    5  C4  UNL     1     -35.411  15.502  -5.808  1.00 20.00     0.092 A 
HETATM    6  C5  UNL     1     -35.572  15.072  -7.232  1.00 20.00     0.049 C 
HETATM    7  C6  UNL     1     -36.338  16.579  -5.330  1.00 20.00     0.049 C 
HETATM    8  O7  UNL     1     -35.272  14.411  -4.888  1.00 20.00    -0.357 OA
ENDBRANCH   1   4
TORSDOF 1
ENDMDL
MODEL 9
REMARK VINA RESULT:      -3.0      9.987     10.244
REMARK  1 active torsions:
REMARK  status: ('A' for Active; 'I' for Inactive)
REMARK    1  A    between atoms: C1_1  and  C3_3 
ROOT
HETATM    1  C1  UNL     1     -40.411  13.015   6.179  1.00 20.00    -0.054 C 
HETATM    2  C2  UNL     1     -39.846  12.423   5.301  1.00 20.00     0.007 C 
HETATM    3 CL8  UNL     1     -39.020  11.559   4.017  1.00 20.00    -0.023 Cl
ENDROOT
BRANCH   1   4
HETATM    4  C3  UNL     1     -41.085  13.719   7.224  1.00 20.00     0.236 A 
HETATM    5  C4  UNL     1     -42.447  13.279   7.730  1.00 20.00     0.092 A 
HETATM    6  C5  UNL     1     -42.887  13.728   9.087  1.00 20.00     0.049 C 
HETATM    7  C6  UNL     1     -43.139  12.073   7.171  1.00 20.00     0.049 C 
HETATM    8  O7  UNL     1     -42.301  14.349   6.787  1.00 20.00    -0.357 OA
ENDBRANCH   1   4
TORSDOF 1
ENDMDL
