MODEL 1
REMARK VINA RESULT:      -5.0      0.000      0.000
REMARK  0 active torsions:
REMARK  status: ('A' for Active; 'I' for Inactive)
ROOT
HETATM    1  C1  UNL     1     -33.376   8.034   4.561  1.00 20.00     0.251 C 
HETATM    2  C2  UNL     1     -32.616   7.046   3.701  1.00 20.00     0.251 C 
HETATM    3  C3  UNL     1     -34.013   7.221   5.669  1.00 20.00     0.271 C 
HETATM    4  C4  UNL     1     -33.598   5.945   3.352  1.00 20.00     0.271 C 
HETATM    5  F5  UNL     1     -32.521   8.943   5.088  1.00 20.00    -0.242 F 
HETATM    6  F6  UNL     1     -32.204   7.660   2.561  1.00 20.00    -0.242 F 
HETATM    7  F7  UNL     1     -33.050   6.848   6.555  1.00 20.00    -0.235 F 
HETATM    8  F8  UNL     1     -32.922   4.805   3.063  1.00 20.00    -0.235 F 
HETATM    9  S9  UNL     1     -34.632   5.739   4.825  1.00 20.00    -0.089 SA
ENDROOT
TORSDOF 0
ENDMDL
MODEL 2
REMARK VINA RESULT:      -5.0      1.525      2.961
REMARK  0 active torsions:
REMARK  status: ('A' for Active; 'I' for Inactive)
ROOT
HETATM    1  C1  UNL     1     -33.408   5.695   3.929  1.00 20.00     0.251 C 
HETATM    2  C2  UNL     1     -33.215   7.197   3.939  1.00 20.00     0.251 C 
HETATM    3  C3  UNL     1     -34.594   5.421   4.832  1.00 20.00     0.271 C 
HETATM    4  C4  UNL     1     -33.157   7.609   5.396  1.00 20.00     0.271 C 
HETATM    5  F5  UNL     1     -33.678   5.270   2.671  1.00 20.00    -0.242 F 
HETATM    6  F6  UNL     1     -32.038   7.507   3.335  1.00 20.00    -0.242 F 
HETATM    7  F7  UNL     1     -35.735   5.796   4.193  1.00 20.00    -0.235 F 
HETATM    8  F8  UNL     1     -33.515   8.911   5.517  1.00 20.00    -0.235 F 
HETATM    9  S9  UNL     1     -34.330   6.523   6.249  1.00 20.00    -0.089 SA
ENDROOT
TORSDOF 0
ENDMDL
MODEL 3
REMARK VINA RESULT:      -4.8      1.511      2.707
REMARK  0 active torsions:
REMARK  status: ('A' for Active; 'I' for Inactive)
ROOT
HETATM    1  C1  UNL     1     -32.542   7.916   4.834  1.00 20.00     0.251 C 
HETATM    2  C2  UNL     1     -33.977   7.460   5.006  1.00 20.00     0.251 C 
HETATM    3  C3  UNL     1     -32.195   7.661   3.382  1.00 20.00     0.271 C 
HETATM    4  C4  UNL     1     -34.042   6.049   4.458  1.00 20.00     0.271 C 
HETATM    5  F5  UNL     1     -32.441   9.240   5.107  1.00 20.00    -0.242 F 
HETATM    6  F6  UNL     1     -34.292   7.446   6.327  1.00 20.00    -0.242 F 
HETATM    7  F7  UNL     1     -32.819   8.588   2.606  1.00 20.00    -0.235 F 
HETATM    8  F8  UNL     1     -35.313   5.763   4.082  1.00 20.00    -0.235 F 
HETATM    9  S9  UNL     1     -32.917   6.033   3.038  1.00 20.00    -0.089 SA
ENDROOT
TORSDOF 0
ENDMDL
MODEL 4
REMARK VINA RESULT:      -4.7      1.746      2.940
REMARK  0 active torsions:
REMARK  status: ('A' for Active; 'I' for Inactive)
ROOT
HETATM    1  C1  UNL     1     -34.842   6.097   5.303  1.00 20.00     0.251 C 
HETATM    2  C2  UNL     1     -33.643   7.017   5.408  1.00 20.00     0.251 C 
HETATM    3  C3  UNL     1     -34.379   4.899   4.499  1.00 20.00     0.271 C 
HETATM    4  C4  UNL     1     -33.135   7.216   3.994  1.00 20.00     0.271 C 
HETATM    5  F5  UNL     1     -35.231   5.700   6.539  1.00 20.00    -0.242 F 
HETATM    6  F6  UNL     1     -34.034   8.213   5.920  1.00 20.00    -0.242 F 
HETATM    7  F7  UNL     1     -33.572   4.127   5.276  1.00 20.00    -0.235 F 
HETATM    8  F8  UNL     1     -31.823   7.556   4.024  1.00 20.00    -0.235 F 
HETATM    9  S9  UNL     1     -33.384   5.624   3.167  1.00 20.00    -0.089 SA
ENDROOT
TORSDOF 0
ENDMDL
MODEL 5
REMARK VINA RESULT:      -4.6      1.801      2.631
REMARK  0 active torsions:
REMARK  status: ('A' for Active; 'I' for Inactive)
ROOT
HETATM    1  C1  UNL     1     -33.739   6.483   5.451  1.00 20.00     0.251 C 
HETATM    2  C2  UNL     1     -34.146   5.628   4.270  1.00 20.00     0.251 C 
HETATM    3  C3  UNL     1     -33.307   7.816   4.874  1.00 20.00     0.271 C 
HETATM    4  C4  UNL     1     -32.990   5.680   3.290  1.00 20.00     0.271 C 
HETATM    5  F5  UNL     1     -34.795   6.661   6.281  1.00 20.00    -0.242 F 
HETATM    6  F6  UNL     1     -34.332   4.347   4.680  1.00 20.00    -0.242 F 
HETATM    7  F7  UNL     1     -34.409   8.503   4.470  1.00 20.00    -0.235 F 
HETATM    8  F8  UNL     1     -33.441   5.415   2.039  1.00 20.00    -0.235 F 
HETATM    9  S9  UNL     1     -32.334   7.364   3.410  1.00 20.00    -0.089 SA
ENDROOT
TORSDOF 0
ENDMDL
MODEL 6
REMARK VINA RESULT:      -4.4      1.882      2.930
REMARK  0 active torsions:
REMARK  status: ('A' for Active; 'I' for Inactive)
ROOT
HETATM    1  C1  UNL     1     -33.669   5.153   4.397  1.00 20.00     0.251 C 
HETATM    2  C2  UNL     1     -33.214   5.701   3.060  1.00 20.00     0.251 C 
HETATM    3  C3  UNL     1     -34.406   6.284   5.083  1.00 20.00     0.271 C 
HETATM    4  C4  UNL     1     -32.486   6.996   3.358  1.00 20.00     0.271 C 
HETATM    5  F5  UNL     1     -34.506   4.105   4.207  1.00 20.00    -0.242 F 
HETATM    6  F6  UNL     1     -32.355   4.824   2.479  1.00 20.00    -0.242 F 
HETATM    7  F7  UNL     1     -35.617   6.452   4.486  1.00 20.00    -0.235 F 
HETATM    8  F8  UNL     1     -32.513   7.798   2.264  1.00 20.00    -0.235 F 
HETATM    9  S9  UNL     1     -33.383   7.744   4.743  1.00 20.00    -0.089 SA
ENDROOT
TORSDOF 0
ENDMDL
MODEL 7
REMARK VINA RESULT:      -4.2      1.487      3.241
REMARK  0 active torsions:
REMARK  status: ('A' for Active; 'I' for Inactive)
ROOT
HETATM    1  C1  UNL     1     -33.400   6.113   3.177  1.00 20.00     0.251 C 
HETATM    2  C2  UNL     1     -33.595   5.484   4.541  1.00 20.00     0.251 C 
HETATM    3  C3  UNL     1     -32.733   7.450   3.426  1.00 20.00     0.271 C 
HETATM    4  C4  UNL     1     -34.298   6.523   5.391  1.00 20.00     0.271 C 
HETATM    5  F5  UNL     1     -32.596   5.331   2.417  1.00 20.00    -0.242 F 
HETATM    6  F6  UNL     1     -34.387   4.386   4.424  1.00 20.00    -0.242 F 
HETATM    7  F7  UNL     1     -31.432   7.242   3.764  1.00 20.00    -0.235 F 
HETATM    8  F8  UNL     1     -34.047   6.286   6.702  1.00 20.00    -0.235 F 
HETATM    9  S9  UNL     1     -33.610   8.115   4.868  1.00 20.00    -0.089 SA
ENDROOT
TORSDOF 0
ENDMDL
MODEL 8
REMARK VINA RESULT:      -3.6     12.017     13.172
REMARK  0 active torsions:
REMARK  status: ('A' for Active; 'I' for Inactive)
ROOT
HETATM    1  C1  UNL     1     -33.984  14.865  -4.237  1.00 20.00     0.251 C 
HETATM    2  C2  UNL     1     -33.423  16.224  -3.876  1.00 20.00     0.251 C 
HETATM    3  C3  UNL     1     -34.535  15.000  -5.642  1.00 20.00     0.271 C 
HETATM    4  C4  UNL     1     -34.525  17.227  -4.155  1.00 20.00     0.271 C 
HETATM    5  F5  UNL     1     -32.999  13.935  -4.215  1.00 20.00    -0.242 F 
HETATM    6  F6  UNL     1     -33.113  16.251  -2.554  1.00 20.00    -0.242 F 
HETATM    7  F7  UNL     1     -33.498  15.054  -6.522  1.00 20.00    -0.235 F 
HETATM    8  F8  UNL     1     -33.984  18.451  -4.375  1.00 20.00    -0.235 F 
HETATM    9  S9  UNL     1     -35.373  16.608  -5.631  1.00 20.00    -0.089 SA
ENDROOT
TORSDOF 0
ENDMDL
MODEL 9
REMARK VINA RESULT:      -3.6     12.041     12.886
REMARK  0 active torsions:
REMARK  status: ('A' for Active; 'I' for Inactive)
ROOT
HETATM    1  C1  UNL     1     -33.446  15.240  -4.675  1.00 20.00     0.251 C 
HETATM    2  C2  UNL     1     -34.928  15.215  -4.991  1.00 20.00     0.251 C 
HETATM    3  C3  UNL     1     -33.268  16.285  -3.593  1.00 20.00     0.271 C 
HETATM    4  C4  UNL     1     -35.328  16.651  -5.264  1.00 20.00     0.271 C 
HETATM    5  F5  UNL     1     -33.050  14.028  -4.216  1.00 20.00    -0.242 F 
HETATM    6  F6  UNL     1     -35.141  14.467  -6.104  1.00 20.00    -0.242 F 
HETATM    7  F7  UNL     1     -33.739  15.791  -2.416  1.00 20.00    -0.235 F 
HETATM    8  F8  UNL     1     -36.655  16.807  -5.032  1.00 20.00    -0.235 F 
HETATM    9  S9  UNL     1     -34.339  17.650  -4.121  1.00 20.00    -0.089 SA
ENDROOT
TORSDOF 0
ENDMDL
