MODEL 1
REMARK VINA RESULT:      -4.2      0.000      0.000
REMARK  1 active torsions:
REMARK  status: ('A' for Active; 'I' for Inactive)
REMARK    1  A    between atoms: C3_3  and  C7_7 
ROOT
HETATM    1  C1  UNL     1     -34.683  16.776  -4.814  1.00 20.00    -0.020 C 
HETATM    2  C2  UNL     1     -33.986  15.943  -4.022  1.00 20.00    -0.086 C 
HETATM    3  C4  UNL     1     -33.213  16.433  -2.822  1.00 20.00     0.045 C 
HETATM    4  C5  UNL     1     -34.325  18.673  -3.181  1.00 20.00     0.020 C 
HETATM    5  C6  UNL     1     -34.800  18.261  -4.585  1.00 20.00     0.005 C 
HETATM    6  C7  UNL     1     -33.035  17.957  -2.784  1.00 20.00     0.059 C 
HETATM    7  C8  UNL     1     -33.936  14.465  -4.278  1.00 20.00     0.043 C 
HETATM    8  C10 UNL     1     -34.043  19.017  -5.679  1.00 20.00     0.014 C 
ENDROOT
BRANCH   6   9
HETATM    9  C3  UNL     1     -32.620  18.373  -1.406  1.00 20.00     0.127 C 
HETATM   10  C9  UNL     1     -33.575  18.056  -0.286  1.00 20.00     0.091 C 
HETATM   11  O11 UNL     1     -31.550  18.943  -1.199  1.00 20.00    -0.298 OA
ENDBRANCH   6   9
TORSDOF 1
ENDMDL
MODEL 2
REMARK VINA RESULT:      -4.0      2.122      4.200
REMARK  1 active torsions:
REMARK  status: ('A' for Active; 'I' for Inactive)
REMARK    1  A    between atoms: C3_3  and  C7_7 
ROOT
HETATM    1  C1  UNL     1     -34.790  18.498  -2.327  1.00 20.00    -0.020 C 
HETATM    2  C2  UNL     1     -35.379  18.330  -3.523  1.00 20.00    -0.086 C 
HETATM    3  C4  UNL     1     -35.010  17.198  -4.450  1.00 20.00     0.045 C 
HETATM    4  C5  UNL     1     -33.648  16.253  -2.544  1.00 20.00     0.020 C 
HETATM    5  C6  UNL     1     -33.737  17.577  -1.765  1.00 20.00     0.005 C 
HETATM    6  C7  UNL     1     -33.715  16.475  -4.055  1.00 20.00     0.059 C 
HETATM    7  C8  UNL     1     -36.450  19.259  -4.015  1.00 20.00     0.043 C 
HETATM    8  C10 UNL     1     -32.388  18.296  -1.721  1.00 20.00     0.014 C 
ENDROOT
BRANCH   6   9
HETATM    9  C3  UNL     1     -33.642  15.162  -4.771  1.00 20.00     0.127 C 
HETATM   10  C9  UNL     1     -34.024  15.162  -6.227  1.00 20.00     0.091 C 
HETATM   11  O11 UNL     1     -33.285  14.133  -4.198  1.00 20.00    -0.298 OA
ENDBRANCH   6   9
TORSDOF 1
ENDMDL
MODEL 3
REMARK VINA RESULT:      -3.9      2.090      3.917
REMARK  1 active torsions:
REMARK  status: ('A' for Active; 'I' for Inactive)
REMARK    1  A    between atoms: C3_3  and  C7_7 
ROOT
HETATM    1  C1  UNL     1     -34.209  18.732  -2.814  1.00 20.00    -0.020 C 
HETATM    2  C2  UNL     1     -33.427  17.776  -2.284  1.00 20.00    -0.086 C 
HETATM    3  C4  UNL     1     -33.259  16.424  -2.931  1.00 20.00     0.045 C 
HETATM    4  C5  UNL     1     -34.501  17.363  -4.919  1.00 20.00     0.020 C 
HETATM    5  C6  UNL     1     -34.970  18.582  -4.107  1.00 20.00     0.005 C 
HETATM    6  C7  UNL     1     -34.286  16.136  -4.034  1.00 20.00     0.059 C 
HETATM    7  C8  UNL     1     -32.661  17.997  -1.012  1.00 20.00     0.043 C 
HETATM    8  C10 UNL     1     -36.472  18.524  -3.821  1.00 20.00     0.014 C 
ENDROOT
BRANCH   6   9
HETATM    9  C3  UNL     1     -33.813  14.981  -4.862  1.00 20.00     0.127 C 
HETATM   10  C9  UNL     1     -34.003  15.093  -6.351  1.00 20.00     0.091 C 
HETATM   11  O11 UNL     1     -33.292  13.991  -4.351  1.00 20.00    -0.298 OA
ENDBRANCH   6   9
TORSDOF 1
ENDMDL
MODEL 4
REMARK VINA RESULT:      -3.9      1.638      3.193
REMARK  1 active torsions:
REMARK  status: ('A' for Active; 'I' for Inactive)
REMARK    1  A    between atoms: C3_3  and  C7_7 
ROOT
HETATM    1  C1  UNL     1     -34.705  18.107  -3.257  1.00 20.00    -0.020 C 
HETATM    2  C2  UNL     1     -35.314  18.707  -2.219  1.00 20.00    -0.086 C 
HETATM    3  C4  UNL     1     -34.644  18.867  -0.877  1.00 20.00     0.045 C 
HETATM    4  C5  UNL     1     -32.521  18.061  -1.984  1.00 20.00     0.020 C 
HETATM    5  C6  UNL     1     -33.299  17.565  -3.215  1.00 20.00     0.005 C 
HETATM    6  C7  UNL     1     -33.374  18.020  -0.717  1.00 20.00     0.059 C 
HETATM    7  C8  UNL     1     -36.703  19.263  -2.331  1.00 20.00     0.043 C 
HETATM    8  C10 UNL     1     -33.330  16.037  -3.284  1.00 20.00     0.014 C 
ENDROOT
BRANCH   6   9
HETATM    9  C3  UNL     1     -32.584  18.527   0.451  1.00 20.00     0.127 C 
HETATM   10  C9  UNL     1     -31.086  18.522   0.308  1.00 20.00     0.091 C 
HETATM   11  O11 UNL     1     -33.133  18.930   1.475  1.00 20.00    -0.298 OA
ENDBRANCH   6   9
TORSDOF 1
ENDMDL
MODEL 5
REMARK VINA RESULT:      -3.7     11.793     13.389
REMARK  1 active torsions:
REMARK  status: ('A' for Active; 'I' for Inactive)
REMARK    1  A    between atoms: C3_3  and  C7_7 
ROOT
HETATM    1  C1  UNL     1     -31.868   8.421   3.484  1.00 20.00    -0.020 C 
HETATM    2  C2  UNL     1     -32.468   8.492   4.684  1.00 20.00    -0.086 C 
HETATM    3  C4  UNL     1     -33.380   7.402   5.194  1.00 20.00     0.045 C 
HETATM    4  C5  UNL     1     -32.622   6.022   3.218  1.00 20.00     0.020 C 
HETATM    5  C6  UNL     1     -32.005   7.255   2.537  1.00 20.00     0.005 C 
HETATM    6  C7  UNL     1     -33.802   6.397   4.114  1.00 20.00     0.059 C 
HETATM    7  C8  UNL     1     -32.265   9.661   5.602  1.00 20.00     0.043 C 
HETATM    8  C10 UNL     1     -32.806   7.679   1.305  1.00 20.00     0.014 C 
ENDROOT
BRANCH   6   9
HETATM    9  C3  UNL     1     -34.360   5.171   4.769  1.00 20.00     0.127 C 
HETATM   10  C9  UNL     1     -34.952   5.347   6.142  1.00 20.00     0.091 C 
HETATM   11  O11 UNL     1     -34.339   4.075   4.211  1.00 20.00    -0.298 OA
ENDBRANCH   6   9
TORSDOF 1
ENDMDL
MODEL 6
REMARK VINA RESULT:      -3.7      1.386      3.014
REMARK  1 active torsions:
REMARK  status: ('A' for Active; 'I' for Inactive)
REMARK    1  A    between atoms: C3_3  and  C7_7 
ROOT
HETATM    1  C1  UNL     1     -34.385  15.579  -6.151  1.00 20.00    -0.020 C 
HETATM    2  C2  UNL     1     -34.507  16.918  -6.166  1.00 20.00    -0.086 C 
HETATM    3  C4  UNL     1     -34.208  17.766  -4.954  1.00 20.00     0.045 C 
HETATM    4  C5  UNL     1     -33.273  15.679  -3.882  1.00 20.00     0.020 C 
HETATM    5  C6  UNL     1     -33.914  14.786  -4.959  1.00 20.00     0.005 C 
HETATM    6  C7  UNL     1     -34.074  16.960  -3.655  1.00 20.00     0.059 C 
HETATM    7  C8  UNL     1     -34.945  17.659  -7.395  1.00 20.00     0.043 C 
HETATM    8  C10 UNL     1     -35.072  13.963  -4.392  1.00 20.00     0.014 C 
ENDROOT
BRANCH   6   9
HETATM    9  C3  UNL     1     -33.406  17.806  -2.614  1.00 20.00     0.127 C 
HETATM   10  C9  UNL     1     -33.637  17.420  -1.178  1.00 20.00     0.091 C 
HETATM   11  O11 UNL     1     -32.700  18.766  -2.918  1.00 20.00    -0.298 OA
ENDBRANCH   6   9
TORSDOF 1
ENDMDL
MODEL 7
REMARK VINA RESULT:      -3.7     11.427     13.351
REMARK  1 active torsions:
REMARK  status: ('A' for Active; 'I' for Inactive)
REMARK    1  A    between atoms: C3_3  and  C7_7 
ROOT
HETATM    1  C1  UNL     1     -42.097  14.227   7.560  1.00 20.00    -0.020 C 
HETATM    2  C2  UNL     1     -40.815  14.432   7.911  1.00 20.00    -0.086 C 
HETATM    3  C4  UNL     1     -39.674  13.698   7.251  1.00 20.00     0.045 C 
HETATM    4  C5  UNL     1     -41.361  12.839   5.579  1.00 20.00     0.020 C 
HETATM    5  C6  UNL     1     -42.535  13.285   6.468  1.00 20.00     0.005 C 
HETATM    6  C7  UNL     1     -40.120  12.499   6.403  1.00 20.00     0.059 C 
HETATM    7  C8  UNL     1     -40.435  15.413   8.981  1.00 20.00     0.043 C 
HETATM    8  C10 UNL     1     -43.266  12.088   7.077  1.00 20.00     0.014 C 
ENDROOT
BRANCH   6   9
HETATM    9  C3  UNL     1     -38.999  12.088   5.498  1.00 20.00     0.127 C 
HETATM   10  C9  UNL     1     -39.373  11.685   4.097  1.00 20.00     0.091 C 
HETATM   11  O11 UNL     1     -37.830  12.083   5.880  1.00 20.00    -0.298 OA
ENDBRANCH   6   9
TORSDOF 1
ENDMDL
MODEL 8
REMARK VINA RESULT:      -3.7     11.635     13.156
REMARK  1 active torsions:
REMARK  status: ('A' for Active; 'I' for Inactive)
REMARK    1  A    between atoms: C3_3  and  C7_7 
ROOT
HETATM    1  C1  UNL     1     -32.565   8.782   3.087  1.00 20.00    -0.020 C 
HETATM    2  C2  UNL     1     -32.502   7.642   2.376  1.00 20.00    -0.086 C 
HETATM    3  C4  UNL     1     -32.992   6.325   2.924  1.00 20.00     0.045 C 
HETATM    4  C5  UNL     1     -33.962   7.634   4.854  1.00 20.00     0.020 C 
HETATM    5  C6  UNL     1     -33.149   8.883   4.473  1.00 20.00     0.005 C 
HETATM    6  C7  UNL     1     -33.255   6.345   4.435  1.00 20.00     0.059 C 
HETATM    7  C8  UNL     1     -31.944   7.609   0.983  1.00 20.00     0.043 C 
HETATM    8  C10 UNL     1     -32.037   9.162   5.486  1.00 20.00     0.014 C 
ENDROOT
BRANCH   6   9
HETATM    9  C3  UNL     1     -34.089   5.157   4.809  1.00 20.00     0.127 C 
HETATM   10  C9  UNL     1     -34.880   5.261   6.085  1.00 20.00     0.091 C 
HETATM   11  O11 UNL     1     -34.126   4.148   4.106  1.00 20.00    -0.298 OA
ENDBRANCH   6   9
TORSDOF 1
ENDMDL
MODEL 9
REMARK VINA RESULT:      -3.6     11.786     13.383
REMARK  1 active torsions:
REMARK  status: ('A' for Active; 'I' for Inactive)
REMARK    1  A    between atoms: C3_3  and  C7_7 
ROOT
HETATM    1  C1  UNL     1     -34.341   4.972   4.411  1.00 20.00    -0.020 C 
HETATM    2  C2  UNL     1     -34.308   5.771   5.493  1.00 20.00    -0.086 C 
HETATM    3  C4  UNL     1     -33.636   7.121   5.475  1.00 20.00     0.045 C 
HETATM    4  C5  UNL     1     -33.410   6.833   2.976  1.00 20.00     0.020 C 
HETATM    5  C6  UNL     1     -33.752   5.336   3.073  1.00 20.00     0.005 C 
HETATM    6  C7  UNL     1     -32.741   7.348   4.249  1.00 20.00     0.059 C 
HETATM    7  C8  UNL     1     -34.946   5.371   6.791  1.00 20.00     0.043 C 
HETATM    8  C10 UNL     1     -32.530   4.460   2.787  1.00 20.00     0.014 C 
ENDROOT
BRANCH   6   9
HETATM    9  C3  UNL     1     -32.443   8.811   4.117  1.00 20.00     0.127 C 
HETATM   10  C9  UNL     1     -32.667   9.428   2.763  1.00 20.00     0.091 C 
HETATM   11  O11 UNL     1     -32.037   9.475   5.070  1.00 20.00    -0.298 OA
ENDBRANCH   6   9
TORSDOF 1
ENDMDL
