MODEL 1
REMARK VINA RESULT:      -3.6      0.000      0.000
REMARK  1 active torsions:
REMARK  status: ('A' for Active; 'I' for Inactive)
REMARK    1  A    between atoms: C3_3  and  C7_7 
ROOT
HETATM    1  C1  UNL     1     -23.716  19.258   9.268  1.00 20.00    -0.023 C 
HETATM    2  C2  UNL     1     -22.394  19.249   9.502  1.00 20.00    -0.015 C 
HETATM    3  C4  UNL     1     -23.162  17.114   9.940  1.00 20.00     0.029 C 
HETATM    4  C5  UNL     1     -24.336  18.104  10.029  1.00 20.00     0.029 C 
HETATM    5  C6  UNL     1     -22.075  18.082  10.399  1.00 20.00     0.071 C 
HETATM    6  C7  UNL     1     -24.445  18.486  11.520  1.00 20.00     0.116 C 
HETATM    7  S9  UNL     1     -22.690  18.502  12.076  1.00 20.00    -0.148 SA
ENDROOT
BRANCH   6   8
HETATM    8  C3  UNL     1     -25.187  17.475  12.329  1.00 20.00     0.246 C 
HETATM    9  O8  UNL     1     -26.410  17.377  12.332  1.00 20.00    -0.306 OA
ENDBRANCH   6   8
TORSDOF 1
ENDMDL
MODEL 2
REMARK VINA RESULT:      -3.6      2.255      3.349
REMARK  1 active torsions:
REMARK  status: ('A' for Active; 'I' for Inactive)
REMARK    1  A    between atoms: C3_3  and  C7_7 
ROOT
HETATM    1  C1  UNL     1     -24.271  16.526  11.037  1.00 20.00    -0.023 C 
HETATM    2  C2  UNL     1     -23.645  16.911  12.162  1.00 20.00    -0.015 C 
HETATM    3  C4  UNL     1     -24.401  18.835  11.128  1.00 20.00     0.029 C 
HETATM    4  C5  UNL     1     -24.298  17.707  10.088  1.00 20.00     0.029 C 
HETATM    5  C6  UNL     1     -23.258  18.359  12.023  1.00 20.00     0.071 C 
HETATM    6  C7  UNL     1     -22.906  17.864   9.441  1.00 20.00     0.116 C 
HETATM    7  S9  UNL     1     -21.856  18.437  10.841  1.00 20.00    -0.148 SA
ENDROOT
BRANCH   6   8
HETATM    8  C3  UNL     1     -22.874  18.905   8.371  1.00 20.00     0.246 C 
HETATM    9  O8  UNL     1     -23.713  18.984   7.479  1.00 20.00    -0.306 OA
ENDBRANCH   6   8
TORSDOF 1
ENDMDL
MODEL 3
REMARK VINA RESULT:      -3.5     16.103     16.853
REMARK  1 active torsions:
REMARK  status: ('A' for Active; 'I' for Inactive)
REMARK    1  A    between atoms: C3_3  and  C7_7 
ROOT
HETATM    1  C1  UNL     1     -33.820   4.566   4.479  1.00 20.00    -0.023 C 
HETATM    2  C2  UNL     1     -34.363   4.566   5.707  1.00 20.00    -0.015 C 
HETATM    3  C4  UNL     1     -35.399   6.257   4.520  1.00 20.00     0.029 C 
HETATM    4  C5  UNL     1     -34.046   5.932   3.865  1.00 20.00     0.029 C 
HETATM    5  C6  UNL     1     -34.994   5.911   5.951  1.00 20.00     0.071 C 
HETATM    6  C7  UNL     1     -33.039   6.930   4.475  1.00 20.00     0.116 C 
HETATM    7  S9  UNL     1     -33.631   7.113   6.209  1.00 20.00    -0.148 SA
ENDROOT
BRANCH   6   8
HETATM    8  C3  UNL     1     -33.078   8.271   3.820  1.00 20.00     0.246 C 
HETATM    9  O8  UNL     1     -32.310   9.185   4.106  1.00 20.00    -0.306 OA
ENDBRANCH   6   8
TORSDOF 1
ENDMDL
MODEL 4
REMARK VINA RESULT:      -3.4      1.515      2.032
REMARK  1 active torsions:
REMARK  status: ('A' for Active; 'I' for Inactive)
REMARK    1  A    between atoms: C3_3  and  C7_7 
ROOT
HETATM    1  C1  UNL     1     -22.350  17.007   8.989  1.00 20.00    -0.023 C 
HETATM    2  C2  UNL     1     -22.415  18.101   8.213  1.00 20.00    -0.015 C 
HETATM    3  C4  UNL     1     -22.262  18.841  10.397  1.00 20.00     0.029 C 
HETATM    4  C5  UNL     1     -22.788  17.396  10.386  1.00 20.00     0.029 C 
HETATM    5  C6  UNL     1     -22.865  19.263   9.059  1.00 20.00     0.071 C 
HETATM    6  C7  UNL     1     -24.326  17.513  10.417  1.00 20.00     0.116 C 
HETATM    7  S9  UNL     1     -24.650  19.020   9.409  1.00 20.00    -0.148 SA
ENDROOT
BRANCH   6   8
HETATM    8  C3  UNL     1     -24.866  17.740  11.790  1.00 20.00     0.246 C 
HETATM    9  O8  UNL     1     -25.587  18.688  12.085  1.00 20.00    -0.306 OA
ENDBRANCH   6   8
TORSDOF 1
ENDMDL
MODEL 5
REMARK VINA RESULT:      -3.4     16.810     17.543
REMARK  1 active torsions:
REMARK  status: ('A' for Active; 'I' for Inactive)
REMARK    1  A    between atoms: C3_3  and  C7_7 
ROOT
HETATM    1  C1  UNL     1     -34.299   5.027   6.100  1.00 20.00    -0.023 C 
HETATM    2  C2  UNL     1     -34.499   6.289   6.513  1.00 20.00    -0.015 C 
HETATM    3  C4  UNL     1     -35.437   6.120   4.408  1.00 20.00     0.029 C 
HETATM    4  C5  UNL     1     -34.391   5.007   4.588  1.00 20.00     0.029 C 
HETATM    5  C6  UNL     1     -34.759   7.152   5.306  1.00 20.00     0.071 C 
HETATM    6  C7  UNL     1     -33.081   5.568   3.997  1.00 20.00     0.116 C 
HETATM    7  S9  UNL     1     -33.160   7.357   4.429  1.00 20.00    -0.148 SA
ENDROOT
BRANCH   6   8
HETATM    8  C3  UNL     1     -33.011   5.445   2.511  1.00 20.00     0.246 C 
HETATM    9  O8  UNL     1     -32.830   4.381   1.928  1.00 20.00    -0.306 OA
ENDBRANCH   6   8
TORSDOF 1
ENDMDL
MODEL 6
REMARK VINA RESULT:      -3.2     14.935     15.676
REMARK  1 active torsions:
REMARK  status: ('A' for Active; 'I' for Inactive)
REMARK    1  A    between atoms: C3_3  and  C7_7 
ROOT
HETATM    1  C1  UNL     1     -33.390  16.770  -2.460  1.00 20.00    -0.023 C 
HETATM    2  C2  UNL     1     -34.139  17.542  -3.265  1.00 20.00    -0.015 C 
HETATM    3  C4  UNL     1     -32.566  18.926  -2.288  1.00 20.00     0.029 C 
HETATM    4  C5  UNL     1     -32.738  17.664  -1.425  1.00 20.00     0.029 C 
HETATM    5  C6  UNL     1     -33.995  18.975  -2.823  1.00 20.00     0.071 C 
HETATM    6  C7  UNL     1     -33.781  18.034  -0.351  1.00 20.00     0.116 C 
HETATM    7  S9  UNL     1     -34.930  19.155  -1.254  1.00 20.00    -0.148 SA
ENDROOT
BRANCH   6   8
HETATM    8  C3  UNL     1     -33.195  18.786   0.797  1.00 20.00     0.246 C 
HETATM    9  O8  UNL     1     -32.167  18.446   1.374  1.00 20.00    -0.306 OA
ENDBRANCH   6   8
TORSDOF 1
ENDMDL
MODEL 7
REMARK VINA RESULT:      -3.2     24.244     24.855
REMARK  1 active torsions:
REMARK  status: ('A' for Active; 'I' for Inactive)
REMARK    1  A    between atoms: C3_3  and  C7_7 
ROOT
HETATM    1  C1  UNL     1     -42.320   7.783  -0.044  1.00 20.00    -0.023 C 
HETATM    2  C2  UNL     1     -41.664   7.558   1.106  1.00 20.00    -0.015 C 
HETATM    3  C4  UNL     1     -40.885   6.006  -0.419  1.00 20.00     0.029 C 
HETATM    4  C5  UNL     1     -42.264   6.515  -0.872  1.00 20.00     0.029 C 
HETATM    5  C6  UNL     1     -41.123   6.153   1.082  1.00 20.00     0.071 C 
HETATM    6  C7  UNL     1     -43.285   5.503  -0.311  1.00 20.00     0.116 C 
HETATM    7  S9  UNL     1     -42.548   5.018   1.305  1.00 20.00    -0.148 SA
ENDROOT
BRANCH   6   8
HETATM    8  C3  UNL     1     -43.417   4.279  -1.155  1.00 20.00     0.246 C 
HETATM    9  O8  UNL     1     -42.966   4.190  -2.292  1.00 20.00    -0.306 OA
ENDBRANCH   6   8
TORSDOF 1
ENDMDL
MODEL 8
REMARK VINA RESULT:      -3.2     19.734     20.535
REMARK  1 active torsions:
REMARK  status: ('A' for Active; 'I' for Inactive)
REMARK    1  A    between atoms: C3_3  and  C7_7 
ROOT
HETATM    1  C1  UNL     1     -27.081  -0.241  11.844  1.00 20.00    -0.023 C 
HETATM    2  C2  UNL     1     -25.993  -1.022  11.946  1.00 20.00    -0.015 C 
HETATM    3  C4  UNL     1     -27.187  -1.777  10.117  1.00 20.00     0.029 C 
HETATM    4  C5  UNL     1     -28.127  -0.994  11.049  1.00 20.00     0.029 C 
HETATM    5  C6  UNL     1     -26.255  -2.306  11.205  1.00 20.00     0.071 C 
HETATM    6  C7  UNL     1     -28.785  -2.052  11.960  1.00 20.00     0.116 C 
HETATM    7  S9  UNL     1     -27.438  -3.283  12.211  1.00 20.00    -0.148 SA
ENDROOT
BRANCH   6   8
HETATM    8  C3  UNL     1     -29.940  -2.743  11.313  1.00 20.00     0.246 C 
HETATM    9  O8  UNL     1     -31.082  -2.294  11.313  1.00 20.00    -0.306 OA
ENDBRANCH   6   8
TORSDOF 1
ENDMDL
MODEL 9
REMARK VINA RESULT:      -3.1     19.823     20.473
REMARK  1 active torsions:
REMARK  status: ('A' for Active; 'I' for Inactive)
REMARK    1  A    between atoms: C3_3  and  C7_7 
ROOT
HETATM    1  C1  UNL     1     -34.090  15.658  -7.289  1.00 20.00    -0.023 C 
HETATM    2  C2  UNL     1     -34.542  16.923  -7.281  1.00 20.00    -0.015 C 
HETATM    3  C4  UNL     1     -34.311  16.283  -5.072  1.00 20.00     0.029 C 
HETATM    4  C5  UNL     1     -34.431  15.028  -5.954  1.00 20.00     0.029 C 
HETATM    5  C6  UNL     1     -35.172  17.197  -5.941  1.00 20.00     0.071 C 
HETATM    6  C7  UNL     1     -35.928  14.654  -5.943  1.00 20.00     0.116 C 
HETATM    7  S9  UNL     1     -36.768  16.292  -5.896  1.00 20.00    -0.148 SA
ENDROOT
BRANCH   6   8
HETATM    8  C3  UNL     1     -36.328  13.884  -4.728  1.00 20.00     0.246 C 
HETATM    9  O8  UNL     1     -35.670  12.956  -4.269  1.00 20.00    -0.306 OA
ENDBRANCH   6   8
TORSDOF 1
ENDMDL
