MODEL 1
REMARK VINA RESULT:      -6.7      0.000      0.000
REMARK  1 active torsions:
REMARK  status: ('A' for Active; 'I' for Inactive)
REMARK    1  A    between atoms: C5_5  and  O10_10 
ROOT
HETATM    1  C1  UNL     1     -33.093   8.320   5.015  1.00 20.00     0.011 A 
HETATM    2  C2  UNL     1     -32.504   8.532   3.767  1.00 20.00     0.040 A 
HETATM    3  C3  UNL     1     -33.659   7.082   5.272  1.00 20.00    -0.049 A 
HETATM    4  C4  UNL     1     -33.631   6.062   4.313  1.00 20.00    -0.010 A 
HETATM    5  C5  UNL     1     -32.476   7.510   2.806  1.00 20.00     0.104 A 
HETATM    6  C6  UNL     1     -33.038   6.260   3.077  1.00 20.00     0.156 A 
HETATM    7  C7  UNL     1     -34.307   6.609   6.534  1.00 20.00     0.039 C 
HETATM    8  C8  UNL     1     -34.257   4.813   4.846  1.00 20.00     0.042 C 
HETATM    9  C9  UNL     1     -35.058   5.365   6.033  1.00 20.00     0.009 C 
HETATM   10  F11 UNL     1     -33.001   5.278   2.168  1.00 20.00    -0.203 F 
ENDROOT
BRANCH   5  11
HETATM   11  O10 UNL     1     -31.889   7.739   1.598  1.00 20.00    -0.358 OA
HETATM   12  H20 UNL     1     -32.409   8.380   1.088  1.00 20.00     0.217 HD
ENDBRANCH   5  11
TORSDOF 1
ENDMDL
MODEL 2
REMARK VINA RESULT:      -6.6      2.640      4.212
REMARK  1 active torsions:
REMARK  status: ('A' for Active; 'I' for Inactive)
REMARK    1  A    between atoms: C5_5  and  O10_10 
ROOT
HETATM    1  C1  UNL     1     -33.425   5.426   3.312  1.00 20.00     0.011 A 
HETATM    2  C2  UNL     1     -34.209   4.776   4.267  1.00 20.00     0.040 A 
HETATM    3  C3  UNL     1     -32.993   6.714   3.583  1.00 20.00    -0.049 A 
HETATM    4  C4  UNL     1     -33.320   7.346   4.788  1.00 20.00    -0.010 A 
HETATM    5  C5  UNL     1     -34.537   5.410   5.476  1.00 20.00     0.104 A 
HETATM    6  C6  UNL     1     -34.087   6.705   5.747  1.00 20.00     0.156 A 
HETATM    7  C7  UNL     1     -32.121   7.590   2.741  1.00 20.00     0.039 C 
HETATM    8  C8  UNL     1     -32.697   8.704   4.864  1.00 20.00     0.042 C 
HETATM    9  C9  UNL     1     -32.368   8.962   3.387  1.00 20.00     0.009 C 
HETATM   10  F11 UNL     1     -34.386   7.309   6.904  1.00 20.00    -0.203 F 
ENDROOT
BRANCH   5  11
HETATM   11  O10 UNL     1     -35.297   4.753   6.396  1.00 20.00    -0.358 OA
HETATM   12  H20 UNL     1     -34.852   3.938   6.676  1.00 20.00     0.217 HD
ENDBRANCH   5  11
TORSDOF 1
ENDMDL
MODEL 3
REMARK VINA RESULT:      -6.1      1.765      3.255
REMARK  1 active torsions:
REMARK  status: ('A' for Active; 'I' for Inactive)
REMARK    1  A    between atoms: C5_5  and  O10_10 
ROOT
HETATM    1  C1  UNL     1     -34.389   6.546   6.277  1.00 20.00     0.011 A 
HETATM    2  C2  UNL     1     -34.555   5.238   5.817  1.00 20.00     0.040 A 
HETATM    3  C3  UNL     1     -33.697   7.441   5.478  1.00 20.00    -0.049 A 
HETATM    4  C4  UNL     1     -33.188   7.053   4.233  1.00 20.00    -0.010 A 
HETATM    5  C5  UNL     1     -34.045   4.849   4.568  1.00 20.00     0.104 A 
HETATM    6  C6  UNL     1     -33.359   5.761   3.762  1.00 20.00     0.156 A 
HETATM    7  C7  UNL     1     -33.427   8.889   5.736  1.00 20.00     0.039 C 
HETATM    8  C8  UNL     1     -32.531   8.206   3.544  1.00 20.00     0.042 C 
HETATM    9  C9  UNL     1     -32.309   9.168   4.719  1.00 20.00     0.009 C 
HETATM   10  F11 UNL     1     -32.882   5.398   2.565  1.00 20.00    -0.203 F 
ENDROOT
BRANCH   5  11
HETATM   11  O10 UNL     1     -34.226   3.570   4.137  1.00 20.00    -0.358 OA
HETATM   12  H20 UNL     1     -34.348   2.975   4.893  1.00 20.00     0.217 HD
ENDBRANCH   5  11
TORSDOF 1
ENDMDL
MODEL 4
REMARK VINA RESULT:      -6.0      1.465      2.359
REMARK  1 active torsions:
REMARK  status: ('A' for Active; 'I' for Inactive)
REMARK    1  A    between atoms: C5_5  and  O10_10 
ROOT
HETATM    1  C1  UNL     1     -33.591   5.102   3.275  1.00 20.00     0.011 A 
HETATM    2  C2  UNL     1     -32.838   5.836   2.356  1.00 20.00     0.040 A 
HETATM    3  C3  UNL     1     -33.941   5.707   4.470  1.00 20.00    -0.049 A 
HETATM    4  C4  UNL     1     -33.564   7.026   4.749  1.00 20.00    -0.010 A 
HETATM    5  C5  UNL     1     -32.459   7.158   2.636  1.00 20.00     0.104 A 
HETATM    6  C6  UNL     1     -32.827   7.766   3.839  1.00 20.00     0.156 A 
HETATM    7  C7  UNL     1     -34.767   5.143   5.582  1.00 20.00     0.039 C 
HETATM    8  C8  UNL     1     -34.102   7.465   6.073  1.00 20.00     0.042 C 
HETATM    9  C9  UNL     1     -34.431   6.114   6.724  1.00 20.00     0.009 C 
HETATM   10  F11 UNL     1     -32.479   9.032   4.105  1.00 20.00    -0.203 F 
ENDROOT
BRANCH   5  11
HETATM   11  O10 UNL     1     -31.731   7.857   1.721  1.00 20.00    -0.358 OA
HETATM   12  H20 UNL     1     -30.795   7.867   1.975  1.00 20.00     0.217 HD
ENDBRANCH   5  11
TORSDOF 1
ENDMDL
MODEL 5
REMARK VINA RESULT:      -6.0      1.852      2.579
REMARK  1 active torsions:
REMARK  status: ('A' for Active; 'I' for Inactive)
REMARK    1  A    between atoms: C5_5  and  O10_10 
ROOT
HETATM    1  C1  UNL     1     -32.859   6.113   3.041  1.00 20.00     0.011 A 
HETATM    2  C2  UNL     1     -32.381   7.411   2.850  1.00 20.00     0.040 A 
HETATM    3  C3  UNL     1     -33.604   5.849   4.179  1.00 20.00    -0.049 A 
HETATM    4  C4  UNL     1     -33.885   6.858   5.108  1.00 20.00    -0.010 A 
HETATM    5  C5  UNL     1     -32.661   8.422   3.782  1.00 20.00     0.104 A 
HETATM    6  C6  UNL     1     -33.425   8.151   4.921  1.00 20.00     0.156 A 
HETATM    7  C7  UNL     1     -34.249   4.561   4.579  1.00 20.00     0.039 C 
HETATM    8  C8  UNL     1     -34.744   6.337   6.216  1.00 20.00     0.042 C 
HETATM    9  C9  UNL     1     -34.537   4.823   6.066  1.00 20.00     0.009 C 
HETATM   10  F11 UNL     1     -33.707   9.115   5.806  1.00 20.00    -0.203 F 
ENDROOT
BRANCH   5  11
HETATM   11  O10 UNL     1     -32.190   9.683   3.570  1.00 20.00    -0.358 OA
HETATM   12  H20 UNL     1     -31.221   9.687   3.597  1.00 20.00     0.217 HD
ENDBRANCH   5  11
TORSDOF 1
ENDMDL
MODEL 6
REMARK VINA RESULT:      -6.0      2.268      3.597
REMARK  1 active torsions:
REMARK  status: ('A' for Active; 'I' for Inactive)
REMARK    1  A    between atoms: C5_5  and  O10_10 
ROOT
HETATM    1  C1  UNL     1     -33.733   7.861   5.750  1.00 20.00     0.011 A 
HETATM    2  C2  UNL     1     -34.411   6.872   6.465  1.00 20.00     0.040 A 
HETATM    3  C3  UNL     1     -33.239   7.543   4.497  1.00 20.00    -0.049 A 
HETATM    4  C4  UNL     1     -33.425   6.268   3.949  1.00 20.00    -0.010 A 
HETATM    5  C5  UNL     1     -34.597   5.593   5.917  1.00 20.00     0.104 A 
HETATM    6  C6  UNL     1     -34.107   5.284   4.646  1.00 20.00     0.156 A 
HETATM    7  C7  UNL     1     -32.520   8.436   3.535  1.00 20.00     0.039 C 
HETATM    8  C8  UNL     1     -32.847   6.190   2.572  1.00 20.00     0.042 C 
HETATM    9  C9  UNL     1     -31.908   7.405   2.574  1.00 20.00     0.009 C 
HETATM   10  F11 UNL     1     -34.293   4.070   4.113  1.00 20.00    -0.203 F 
ENDROOT
BRANCH   5  11
HETATM   11  O10 UNL     1     -35.269   4.647   6.631  1.00 20.00    -0.358 OA
HETATM   12  H20 UNL     1     -36.197   4.906   6.740  1.00 20.00     0.217 HD
ENDBRANCH   5  11
TORSDOF 1
ENDMDL
MODEL 7
REMARK VINA RESULT:      -5.3      2.208      2.945
REMARK  1 active torsions:
REMARK  status: ('A' for Active; 'I' for Inactive)
REMARK    1  A    between atoms: C5_5  and  O10_10 
ROOT
HETATM    1  C1  UNL     1     -32.176   7.188   2.966  1.00 20.00     0.011 A 
HETATM    2  C2  UNL     1     -31.969   8.359   3.699  1.00 20.00     0.040 A 
HETATM    3  C3  UNL     1     -33.048   6.241   3.476  1.00 20.00    -0.049 A 
HETATM    4  C4  UNL     1     -33.718   6.453   4.687  1.00 20.00    -0.010 A 
HETATM    5  C5  UNL     1     -32.639   8.572   4.913  1.00 20.00     0.104 A 
HETATM    6  C6  UNL     1     -33.528   7.617   5.414  1.00 20.00     0.156 A 
HETATM    7  C7  UNL     1     -33.457   4.939   2.863  1.00 20.00     0.039 C 
HETATM    8  C8  UNL     1     -34.636   5.314   4.995  1.00 20.00     0.042 C 
HETATM    9  C9  UNL     1     -34.075   4.222   4.073  1.00 20.00     0.009 C 
HETATM   10  F11 UNL     1     -34.180   7.822   6.565  1.00 20.00    -0.203 F 
ENDROOT
BRANCH   5  11
HETATM   11  O10 UNL     1     -32.427   9.726   5.605  1.00 20.00    -0.358 OA
HETATM   12  H20 UNL     1     -31.584   9.679   6.082  1.00 20.00     0.217 HD
ENDBRANCH   5  11
TORSDOF 1
ENDMDL
MODEL 8
REMARK VINA RESULT:      -5.3      2.539      4.103
REMARK  1 active torsions:
REMARK  status: ('A' for Active; 'I' for Inactive)
REMARK    1  A    between atoms: C5_5  and  O10_10 
ROOT
HETATM    1  C1  UNL     1     -34.328   4.846   4.650  1.00 20.00     0.011 A 
HETATM    2  C2  UNL     1     -34.717   5.423   5.861  1.00 20.00     0.040 A 
HETATM    3  C3  UNL     1     -33.533   5.589   3.795  1.00 20.00    -0.049 A 
HETATM    4  C4  UNL     1     -33.114   6.880   4.136  1.00 20.00    -0.010 A 
HETATM    5  C5  UNL     1     -34.298   6.718   6.204  1.00 20.00     0.104 A 
HETATM    6  C6  UNL     1     -33.485   7.456   5.341  1.00 20.00     0.156 A 
HETATM    7  C7  UNL     1     -32.964   5.176   2.474  1.00 20.00     0.039 C 
HETATM    8  C8  UNL     1     -32.227   7.451   3.076  1.00 20.00     0.042 C 
HETATM    9  C9  UNL     1     -32.559   6.538   1.888  1.00 20.00     0.009 C 
HETATM   10  F11 UNL     1     -33.071   8.686   5.669  1.00 20.00    -0.203 F 
ENDROOT
BRANCH   5  11
HETATM   11  O10 UNL     1     -34.684   7.256   7.394  1.00 20.00    -0.358 OA
HETATM   12  H20 UNL     1     -34.638   8.224   7.354  1.00 20.00     0.217 HD
ENDBRANCH   5  11
TORSDOF 1
ENDMDL
MODEL 9
REMARK VINA RESULT:      -5.1      1.415      1.876
REMARK  1 active torsions:
REMARK  status: ('A' for Active; 'I' for Inactive)
REMARK    1  A    between atoms: C5_5  and  O10_10 
ROOT
HETATM    1  C1  UNL     1     -33.973   7.610   6.156  1.00 20.00     0.011 A 
HETATM    2  C2  UNL     1     -33.343   8.748   5.646  1.00 20.00     0.040 A 
HETATM    3  C3  UNL     1     -33.964   6.456   5.391  1.00 20.00    -0.049 A 
HETATM    4  C4  UNL     1     -33.328   6.421   4.145  1.00 20.00    -0.010 A 
HETATM    5  C5  UNL     1     -32.706   8.713   4.396  1.00 20.00     0.104 A 
HETATM    6  C6  UNL     1     -32.689   7.540   3.636  1.00 20.00     0.156 A 
HETATM    7  C7  UNL     1     -34.533   5.117   5.737  1.00 20.00     0.039 C 
HETATM    8  C8  UNL     1     -33.413   5.055   3.542  1.00 20.00     0.042 C 
HETATM    9  C9  UNL     1     -34.559   4.441   4.357  1.00 20.00     0.009 C 
HETATM   10  F11 UNL     1     -32.071   7.498   2.450  1.00 20.00    -0.203 F 
ENDROOT
BRANCH   5  11
HETATM   11  O10 UNL     1     -32.090   9.833   3.923  1.00 20.00    -0.358 OA
HETATM   12  H20 UNL     1     -31.633   9.637   3.091  1.00 20.00     0.217 HD
ENDBRANCH   5  11
TORSDOF 1
ENDMDL
