MODEL 1
REMARK VINA RESULT:      -4.0      0.000      0.000
REMARK  1 active torsions:
REMARK  status: ('A' for Active; 'I' for Inactive)
REMARK    1  A    between atoms: C3_3  and  N6_6 
ROOT
HETATM    1  C1  UNL     1     -32.972   6.556   3.601  1.00 20.00     0.216 C 
HETATM    2  C4  UNL     1     -33.352   8.111   5.258  1.00 20.00     0.158 C 
HETATM    3  C5  UNL     1     -32.365   8.652   4.248  1.00 20.00     0.198 C 
HETATM    4  N6  UNL     1     -33.773   6.870   4.679  1.00 20.00    -0.327 N 
HETATM    5  O7  UNL     1     -32.064   7.551   3.373  1.00 20.00    -0.325 OA
HETATM    6  S8  UNL     1     -32.934   5.231   2.605  1.00 20.00    -0.033 SA
ENDROOT
BRANCH   4   7
HETATM    7  C3  UNL     1     -34.795   6.136   5.207  1.00 20.00     0.083 C 
HETATM    8  C2  UNL     1     -34.652   5.368   6.290  1.00 20.00     0.030 C 
ENDBRANCH   4   7
TORSDOF 1
ENDMDL
MODEL 2
REMARK VINA RESULT:      -3.9      1.737      2.312
REMARK  1 active torsions:
REMARK  status: ('A' for Active; 'I' for Inactive)
REMARK    1  A    between atoms: C3_3  and  N6_6 
ROOT
HETATM    1  C1  UNL     1     -32.876   7.322   4.069  1.00 20.00     0.216 C 
HETATM    2  C4  UNL     1     -33.934   5.303   3.740  1.00 20.00     0.158 C 
HETATM    3  C5  UNL     1     -32.874   5.517   2.684  1.00 20.00     0.198 C 
HETATM    4  N6  UNL     1     -33.746   6.410   4.630  1.00 20.00    -0.327 N 
HETATM    5  O7  UNL     1     -32.410   6.865   2.869  1.00 20.00    -0.325 OA
HETATM    6  S8  UNL     1     -32.349   8.806   4.590  1.00 20.00    -0.033 SA
ENDROOT
BRANCH   4   7
HETATM    7  C3  UNL     1     -34.408   6.503   5.819  1.00 20.00     0.083 C 
HETATM    8  C2  UNL     1     -34.713   5.439   6.565  1.00 20.00     0.030 C 
ENDBRANCH   4   7
TORSDOF 1
ENDMDL
MODEL 3
REMARK VINA RESULT:      -3.8      1.611      2.893
REMARK  1 active torsions:
REMARK  status: ('A' for Active; 'I' for Inactive)
REMARK    1  A    between atoms: C3_3  and  N6_6 
ROOT
HETATM    1  C1  UNL     1     -33.752   5.576   4.092  1.00 20.00     0.216 C 
HETATM    2  C4  UNL     1     -34.391   6.753   5.966  1.00 20.00     0.158 C 
HETATM    3  C5  UNL     1     -34.640   5.275   6.166  1.00 20.00     0.198 C 
HETATM    4  N6  UNL     1     -33.703   6.808   4.711  1.00 20.00    -0.327 N 
HETATM    5  O7  UNL     1     -34.383   4.664   4.890  1.00 20.00    -0.325 OA
HETATM    6  S8  UNL     1     -33.207   5.063   2.612  1.00 20.00    -0.033 SA
ENDROOT
BRANCH   4   7
HETATM    7  C3  UNL     1     -33.151   7.962   4.238  1.00 20.00     0.083 C 
HETATM    8  C2  UNL     1     -32.393   8.765   4.989  1.00 20.00     0.030 C 
ENDBRANCH   4   7
TORSDOF 1
ENDMDL
MODEL 4
REMARK VINA RESULT:      -3.7      2.159      3.265
REMARK  1 active torsions:
REMARK  status: ('A' for Active; 'I' for Inactive)
REMARK    1  A    between atoms: C3_3  and  N6_6 
ROOT
HETATM    1  C1  UNL     1     -33.424   7.291   5.092  1.00 20.00     0.216 C 
HETATM    2  C4  UNL     1     -34.443   5.228   4.979  1.00 20.00     0.158 C 
HETATM    3  C5  UNL     1     -34.847   5.943   6.249  1.00 20.00     0.198 C 
HETATM    4  N6  UNL     1     -33.682   6.213   4.270  1.00 20.00    -0.327 N 
HETATM    5  O7  UNL     1     -34.025   7.122   6.307  1.00 20.00    -0.325 OA
HETATM    6  S8  UNL     1     -32.539   8.673   4.851  1.00 20.00    -0.033 SA
ENDROOT
BRANCH   4   7
HETATM    7  C3  UNL     1     -33.263   6.018   2.987  1.00 20.00     0.083 C 
HETATM    8  C2  UNL     1     -32.884   4.826   2.520  1.00 20.00     0.030 C 
ENDBRANCH   4   7
TORSDOF 1
ENDMDL
MODEL 5
REMARK VINA RESULT:      -3.6      1.992      3.122
REMARK  1 active torsions:
REMARK  status: ('A' for Active; 'I' for Inactive)
REMARK    1  A    between atoms: C3_3  and  N6_6 
ROOT
HETATM    1  C1  UNL     1     -33.909   5.812   4.633  1.00 20.00     0.216 C 
HETATM    2  C4  UNL     1     -32.548   6.718   3.010  1.00 20.00     0.158 C 
HETATM    3  C5  UNL     1     -32.998   5.333   2.604  1.00 20.00     0.198 C 
HETATM    4  N6  UNL     1     -33.291   6.970   4.209  1.00 20.00    -0.327 N 
HETATM    5  O7  UNL     1     -33.680   4.796   3.750  1.00 20.00    -0.325 OA
HETATM    6  S8  UNL     1     -34.824   5.480   5.976  1.00 20.00    -0.033 SA
ENDROOT
BRANCH   4   7
HETATM    7  C3  UNL     1     -33.293   8.193   4.814  1.00 20.00     0.083 C 
HETATM    8  C2  UNL     1     -32.238   9.009   4.806  1.00 20.00     0.030 C 
ENDBRANCH   4   7
TORSDOF 1
ENDMDL
MODEL 6
REMARK VINA RESULT:      -3.5      2.098      2.710
REMARK  1 active torsions:
REMARK  status: ('A' for Active; 'I' for Inactive)
REMARK    1  A    between atoms: C3_3  and  N6_6 
ROOT
HETATM    1  C1  UNL     1     -33.670   6.967   5.293  1.00 20.00     0.216 C 
HETATM    2  C4  UNL     1     -32.492   7.644   3.432  1.00 20.00     0.158 C 
HETATM    3  C5  UNL     1     -32.301   8.631   4.562  1.00 20.00     0.198 C 
HETATM    4  N6  UNL     1     -33.233   6.581   4.043  1.00 20.00    -0.327 N 
HETATM    5  O7  UNL     1     -33.209   8.217   5.596  1.00 20.00    -0.325 OA
HETATM    6  S8  UNL     1     -34.620   6.198   6.414  1.00 20.00    -0.033 SA
ENDROOT
BRANCH   4   7
HETATM    7  C3  UNL     1     -33.476   5.405   3.395  1.00 20.00     0.083 C 
HETATM    8  C2  UNL     1     -32.853   5.054   2.268  1.00 20.00     0.030 C 
ENDBRANCH   4   7
TORSDOF 1
ENDMDL
MODEL 7
REMARK VINA RESULT:      -3.1     16.069     16.468
REMARK  1 active torsions:
REMARK  status: ('A' for Active; 'I' for Inactive)
REMARK    1  A    between atoms: C3_3  and  N6_6 
ROOT
HETATM    1  C1  UNL     1     -23.537  18.547   8.859  1.00 20.00     0.216 C 
HETATM    2  C4  UNL     1     -21.576  17.393   9.219  1.00 20.00     0.158 C 
HETATM    3  C5  UNL     1     -21.578  18.006   7.837  1.00 20.00     0.198 C 
HETATM    4  N6  UNL     1     -22.769  17.917   9.816  1.00 20.00    -0.327 N 
HETATM    5  O7  UNL     1     -22.900  18.538   7.651  1.00 20.00    -0.325 OA
HETATM    6  S8  UNL     1     -25.031  19.263   8.941  1.00 20.00    -0.033 SA
ENDROOT
BRANCH   4   7
HETATM    7  C3  UNL     1     -23.059  17.732  11.136  1.00 20.00     0.083 C 
HETATM    8  C2  UNL     1     -22.549  18.494  12.106  1.00 20.00     0.030 C 
ENDBRANCH   4   7
TORSDOF 1
ENDMDL
MODEL 8
REMARK VINA RESULT:      -3.0     15.851     16.738
REMARK  1 active torsions:
REMARK  status: ('A' for Active; 'I' for Inactive)
REMARK    1  A    between atoms: C3_3  and  N6_6 
ROOT
HETATM    1  C1  UNL     1     -23.471  18.724  10.325  1.00 20.00     0.216 C 
HETATM    2  C4  UNL     1     -22.462  18.215  12.332  1.00 20.00     0.158 C 
HETATM    3  C5  UNL     1     -21.417  18.525  11.283  1.00 20.00     0.198 C 
HETATM    4  N6  UNL     1     -23.696  18.515  11.670  1.00 20.00    -0.327 N 
HETATM    5  O7  UNL     1     -22.137  18.647  10.045  1.00 20.00    -0.325 OA
HETATM    6  S8  UNL     1     -24.510  19.026   9.068  1.00 20.00    -0.033 SA
ENDROOT
BRANCH   4   7
HETATM    7  C3  UNL     1     -24.889  18.520  12.332  1.00 20.00     0.083 C 
HETATM    8  C2  UNL     1     -25.732  17.485  12.317  1.00 20.00     0.030 C 
ENDBRANCH   4   7
TORSDOF 1
ENDMDL
MODEL 9
REMARK VINA RESULT:      -2.9     12.733     13.223
REMARK  1 active torsions:
REMARK  status: ('A' for Active; 'I' for Inactive)
REMARK    1  A    between atoms: C3_3  and  N6_6 
ROOT
HETATM    1  C1  UNL     1     -34.664  16.926  -4.644  1.00 20.00     0.216 C 
HETATM    2  C4  UNL     1     -33.261  15.162  -4.169  1.00 20.00     0.158 C 
HETATM    3  C5  UNL     1     -33.971  14.928  -5.484  1.00 20.00     0.198 C 
HETATM    4  N6  UNL     1     -33.651  16.494  -3.813  1.00 20.00    -0.327 N 
HETATM    5  O7  UNL     1     -34.942  15.983  -5.592  1.00 20.00    -0.325 OA
HETATM    6  S8  UNL     1     -35.552  18.327  -4.662  1.00 20.00    -0.033 SA
ENDROOT
BRANCH   4   7
HETATM    7  C3  UNL     1     -33.093  17.153  -2.757  1.00 20.00     0.083 C 
HETATM    8  C2  UNL     1     -33.645  17.176  -1.542  1.00 20.00     0.030 C 
ENDBRANCH   4   7
TORSDOF 1
ENDMDL
