MODEL 1
REMARK VINA RESULT:      -4.5      0.000      0.000
REMARK  3 active torsions:
REMARK  status: ('A' for Active; 'I' for Inactive)
REMARK    1  A    between atoms: C1_1  and  C5_5 
REMARK    2  A    between atoms: C6_6  and  C8_8 
REMARK    3  A    between atoms: C8_8  and  C9_9 
ROOT
HETATM    1  C2  UNL     1     -34.173   8.320   3.993  1.00 20.00     0.030 C 
HETATM    2  C3  UNL     1     -32.165   8.729   4.559  1.00 20.00     0.030 C 
HETATM    3  C4  UNL     1     -32.661   6.859   3.677  1.00 20.00     0.030 C 
HETATM    4  C5  UNL     1     -32.831   8.329   3.220  1.00 20.00     0.050 C 
HETATM    5  C6  UNL     1     -33.178   7.589   4.984  1.00 20.00    -0.037 C 
ENDROOT
BRANCH   4   6
HETATM    6  C1  UNL     1     -32.571   8.875   1.914  1.00 20.00     0.181 C 
HETATM    7  O10 UNL     1     -32.988  10.052   1.730  1.00 20.00    -0.647 OA
HETATM    8  O11 UNL     1     -31.960   8.099   1.127  1.00 20.00    -0.647 OA
ENDBRANCH   4   6
BRANCH   5   9
HETATM    9  C8  UNL     1     -33.442   7.025   6.324  1.00 20.00     0.009 C 
BRANCH   9  10
HETATM   10  C9  UNL     1     -34.704   6.137   6.364  1.00 20.00    -0.004 C 
HETATM   11  C7  UNL     1     -34.601   4.920   5.457  1.00 20.00     0.005 C 
ENDBRANCH   9  10
ENDBRANCH   5   9
TORSDOF 3
ENDMDL
MODEL 2
REMARK VINA RESULT:      -4.0      2.791      4.555
REMARK  3 active torsions:
REMARK  status: ('A' for Active; 'I' for Inactive)
REMARK    1  A    between atoms: C1_1  and  C5_5 
REMARK    2  A    between atoms: C6_6  and  C8_8 
REMARK    3  A    between atoms: C8_8  and  C9_9 
ROOT
HETATM    1  C2  UNL     1     -34.580   7.824   4.075  1.00 20.00     0.030 C 
HETATM    2  C3  UNL     1     -32.944   6.546   3.616  1.00 20.00     0.030 C 
HETATM    3  C4  UNL     1     -32.935   7.679   5.416  1.00 20.00     0.030 C 
HETATM    4  C5  UNL     1     -33.915   6.639   4.818  1.00 20.00     0.050 C 
HETATM    5  C6  UNL     1     -33.032   8.102   3.893  1.00 20.00    -0.037 C 
ENDROOT
BRANCH   4   6
HETATM    6  C1  UNL     1     -34.566   5.555   5.504  1.00 20.00     0.181 C 
HETATM    7  O10 UNL     1     -34.769   4.521   4.809  1.00 20.00    -0.647 OA
HETATM    8  O11 UNL     1     -34.848   5.786   6.714  1.00 20.00    -0.647 OA
ENDBRANCH   4   6
BRANCH   5   9
HETATM    9  C8  UNL     1     -32.360   9.216   3.191  1.00 20.00     0.009 C 
BRANCH   9  10
HETATM   10  C9  UNL     1     -33.017   9.557   1.837  1.00 20.00    -0.004 C 
HETATM   11  C7  UNL     1     -32.397   8.801   0.671  1.00 20.00     0.005 C 
ENDBRANCH   9  10
ENDBRANCH   5   9
TORSDOF 3
ENDMDL
MODEL 3
REMARK VINA RESULT:      -4.0     11.546     12.721
REMARK  3 active torsions:
REMARK  status: ('A' for Active; 'I' for Inactive)
REMARK    1  A    between atoms: C1_1  and  C5_5 
REMARK    2  A    between atoms: C6_6  and  C8_8 
REMARK    3  A    between atoms: C8_8  and  C9_9 
ROOT
HETATM    1  C2  UNL     1     -35.308  14.540  -4.928  1.00 20.00     0.030 C 
HETATM    2  C3  UNL     1     -35.142  16.603  -5.412  1.00 20.00     0.030 C 
HETATM    3  C4  UNL     1     -33.859  15.187  -6.344  1.00 20.00     0.030 C 
HETATM    4  C5  UNL     1     -35.399  15.331  -6.256  1.00 20.00     0.050 C 
HETATM    5  C6  UNL     1     -34.104  15.563  -4.825  1.00 20.00    -0.037 C 
ENDROOT
BRANCH   4   6
HETATM    6  C1  UNL     1     -36.356  15.162  -7.317  1.00 20.00     0.181 C 
HETATM    7  O10 UNL     1     -36.305  14.053  -7.918  1.00 20.00    -0.647 OA
HETATM    8  O11 UNL     1     -37.120  16.151  -7.504  1.00 20.00    -0.647 OA
ENDBRANCH   4   6
BRANCH   5   9
HETATM    9  C8  UNL     1     -33.117  15.737  -3.738  1.00 20.00     0.009 C 
BRANCH   9  10
HETATM   10  C9  UNL     1     -33.193  17.128  -3.075  1.00 20.00    -0.004 C 
HETATM   11  C7  UNL     1     -33.599  17.065  -1.610  1.00 20.00     0.005 C 
ENDBRANCH   9  10
ENDBRANCH   5   9
TORSDOF 3
ENDMDL
MODEL 4
REMARK VINA RESULT:      -4.0      9.651     10.847
REMARK  3 active torsions:
REMARK  status: ('A' for Active; 'I' for Inactive)
REMARK    1  A    between atoms: C1_1  and  C5_5 
REMARK    2  A    between atoms: C6_6  and  C8_8 
REMARK    3  A    between atoms: C8_8  and  C9_9 
ROOT
HETATM    1  C2  UNL     1     -42.278  12.823   6.927  1.00 20.00     0.030 C 
HETATM    2  C3  UNL     1     -40.619  14.147   7.041  1.00 20.00     0.030 C 
HETATM    3  C4  UNL     1     -41.542  13.758   5.166  1.00 20.00     0.030 C 
HETATM    4  C5  UNL     1     -42.068  14.302   6.517  1.00 20.00     0.050 C 
HETATM    5  C6  UNL     1     -40.856  12.808   6.231  1.00 20.00    -0.037 C 
ENDROOT
BRANCH   4   6
HETATM    6  C1  UNL     1     -42.962  15.409   6.727  1.00 20.00     0.181 C 
HETATM    7  O10 UNL     1     -43.236  15.659   7.934  1.00 20.00    -0.647 OA
HETATM    8  O11 UNL     1     -43.354  15.982   5.672  1.00 20.00    -0.647 OA
ENDBRANCH   4   6
BRANCH   5   9
HETATM    9  C8  UNL     1     -39.936  11.672   6.011  1.00 20.00     0.009 C 
BRANCH   9  10
HETATM   10  C9  UNL     1     -38.712  12.049   5.150  1.00 20.00    -0.004 C 
HETATM   11  C7  UNL     1     -38.871  11.652   3.690  1.00 20.00     0.005 C 
ENDBRANCH   9  10
ENDBRANCH   5   9
TORSDOF 3
ENDMDL
MODEL 5
REMARK VINA RESULT:      -4.0     11.363     12.575
REMARK  3 active torsions:
REMARK  status: ('A' for Active; 'I' for Inactive)
REMARK    1  A    between atoms: C1_1  and  C5_5 
REMARK    2  A    between atoms: C6_6  and  C8_8 
REMARK    3  A    between atoms: C8_8  and  C9_9 
ROOT
HETATM    1  C2  UNL     1     -33.267  17.041  -1.930  1.00 20.00     0.030 C 
HETATM    2  C3  UNL     1     -32.768  18.988  -2.624  1.00 20.00     0.030 C 
HETATM    3  C4  UNL     1     -34.310  18.736  -1.181  1.00 20.00     0.030 C 
HETATM    4  C5  UNL     1     -32.813  18.340  -1.219  1.00 20.00     0.050 C 
HETATM    5  C6  UNL     1     -34.121  18.166  -2.647  1.00 20.00    -0.037 C 
ENDROOT
BRANCH   4   6
HETATM    6  C1  UNL     1     -31.846  18.472  -0.161  1.00 20.00     0.181 C 
HETATM    7  O10 UNL     1     -30.653  18.638  -0.540  1.00 20.00    -0.647 OA
HETATM    8  O11 UNL     1     -32.324  18.404   1.006  1.00 20.00    -0.647 OA
ENDBRANCH   4   6
BRANCH   5   9
HETATM    9  C8  UNL     1     -35.117  18.033  -3.731  1.00 20.00     0.009 C 
BRANCH   9  10
HETATM   10  C9  UNL     1     -34.498  17.551  -5.059  1.00 20.00    -0.004 C 
HETATM   11  C7  UNL     1     -34.603  16.045  -5.250  1.00 20.00     0.005 C 
ENDBRANCH   9  10
ENDBRANCH   5   9
TORSDOF 3
ENDMDL
MODEL 6
REMARK VINA RESULT:      -3.9     11.305     12.308
REMARK  3 active torsions:
REMARK  status: ('A' for Active; 'I' for Inactive)
REMARK    1  A    between atoms: C1_1  and  C5_5 
REMARK    2  A    between atoms: C6_6  and  C8_8 
REMARK    3  A    between atoms: C8_8  and  C9_9 
ROOT
HETATM    1  C2  UNL     1     -34.755  18.417  -2.174  1.00 20.00     0.030 C 
HETATM    2  C3  UNL     1     -32.789  18.682  -2.936  1.00 20.00     0.030 C 
HETATM    3  C4  UNL     1     -33.403  16.777  -2.219  1.00 20.00     0.030 C 
HETATM    4  C5  UNL     1     -33.953  17.732  -3.307  1.00 20.00     0.050 C 
HETATM    5  C6  UNL     1     -33.326  18.200  -1.528  1.00 20.00    -0.037 C 
ENDROOT
BRANCH   4   6
HETATM    6  C1  UNL     1     -34.414  17.384  -4.625  1.00 20.00     0.181 C 
HETATM    7  O10 UNL     1     -34.818  16.195  -4.759  1.00 20.00    -0.647 OA
HETATM    8  O11 UNL     1     -34.351  18.319  -5.473  1.00 20.00    -0.647 OA
ENDBRANCH   4   6
BRANCH   5   9
HETATM    9  C8  UNL     1     -32.850  18.553  -0.174  1.00 20.00     0.009 C 
BRANCH   9  10
HETATM   10  C9  UNL     1     -31.311  18.555  -0.059  1.00 20.00    -0.004 C 
HETATM   11  C7  UNL     1     -30.823  18.352   1.367  1.00 20.00     0.005 C 
ENDBRANCH   9  10
ENDBRANCH   5   9
TORSDOF 3
ENDMDL
MODEL 7
REMARK VINA RESULT:      -3.7     11.582     13.051
REMARK  3 active torsions:
REMARK  status: ('A' for Active; 'I' for Inactive)
REMARK    1  A    between atoms: C1_1  and  C5_5 
REMARK    2  A    between atoms: C6_6  and  C8_8 
REMARK    3  A    between atoms: C8_8  and  C9_9 
ROOT
HETATM    1  C2  UNL     1     -34.420  17.119  -6.356  1.00 20.00     0.030 C 
HETATM    2  C3  UNL     1     -34.604  15.390  -5.133  1.00 20.00     0.030 C 
HETATM    3  C4  UNL     1     -35.978  16.998  -4.915  1.00 20.00     0.030 C 
HETATM    4  C5  UNL     1     -35.566  16.106  -6.112  1.00 20.00     0.050 C 
HETATM    5  C6  UNL     1     -34.402  16.921  -4.785  1.00 20.00    -0.037 C 
ENDROOT
BRANCH   4   6
HETATM    6  C1  UNL     1     -36.429  15.502  -7.092  1.00 20.00     0.181 C 
HETATM    7  O10 UNL     1     -37.451  16.176  -7.400  1.00 20.00    -0.647 OA
HETATM    8  O11 UNL     1     -36.045  14.374  -7.514  1.00 20.00    -0.647 OA
ENDBRANCH   4   6
BRANCH   5   9
HETATM    9  C8  UNL     1     -33.519  17.542  -3.776  1.00 20.00     0.009 C 
BRANCH   9  10
HETATM   10  C9  UNL     1     -33.358  16.680  -2.506  1.00 20.00    -0.004 C 
HETATM   11  C7  UNL     1     -33.689  17.438  -1.230  1.00 20.00     0.005 C 
ENDBRANCH   9  10
ENDBRANCH   5   9
TORSDOF 3
ENDMDL
MODEL 8
REMARK VINA RESULT:      -3.7      9.721     10.974
REMARK  3 active torsions:
REMARK  status: ('A' for Active; 'I' for Inactive)
REMARK    1  A    between atoms: C1_1  and  C5_5 
REMARK    2  A    between atoms: C6_6  and  C8_8 
REMARK    3  A    between atoms: C8_8  and  C9_9 
ROOT
HETATM    1  C2  UNL     1     -41.477  13.707   4.956  1.00 20.00     0.030 C 
HETATM    2  C3  UNL     1     -40.738  14.255   6.872  1.00 20.00     0.030 C 
HETATM    3  C4  UNL     1     -42.141  12.668   6.688  1.00 20.00     0.030 C 
HETATM    4  C5  UNL     1     -40.743  12.928   6.075  1.00 20.00     0.050 C 
HETATM    5  C6  UNL     1     -42.203  14.195   6.275  1.00 20.00    -0.037 C 
ENDROOT
BRANCH   4   6
HETATM    6  C1  UNL     1     -39.662  11.989   5.929  1.00 20.00     0.181 C 
HETATM    7  O10 UNL     1     -38.938  11.839   6.952  1.00 20.00    -0.647 OA
HETATM    8  O11 UNL     1     -39.585  11.442   4.793  1.00 20.00    -0.647 OA
ENDBRANCH   4   6
BRANCH   5   9
HETATM    9  C8  UNL     1     -43.316  15.157   6.428  1.00 20.00     0.009 C 
BRANCH   9  10
HETATM   10  C9  UNL     1     -42.836  16.621   6.522  1.00 20.00    -0.004 C 
HETATM   11  C7  UNL     1     -42.603  17.257   5.160  1.00 20.00     0.005 C 
ENDBRANCH   9  10
ENDBRANCH   5   9
TORSDOF 3
ENDMDL
MODEL 9
REMARK VINA RESULT:      -3.7      9.720     10.996
REMARK  3 active torsions:
REMARK  status: ('A' for Active; 'I' for Inactive)
REMARK    1  A    between atoms: C1_1  and  C5_5 
REMARK    2  A    between atoms: C6_6  and  C8_8 
REMARK    3  A    between atoms: C8_8  and  C9_9 
ROOT
HETATM    1  C2  UNL     1     -42.158  12.627   6.683  1.00 20.00     0.030 C 
HETATM    2  C3  UNL     1     -41.479  13.688   4.971  1.00 20.00     0.030 C 
HETATM    3  C4  UNL     1     -40.778  14.229   6.904  1.00 20.00     0.030 C 
HETATM    4  C5  UNL     1     -40.754  12.909   6.095  1.00 20.00     0.050 C 
HETATM    5  C6  UNL     1     -42.232  14.157   6.281  1.00 20.00    -0.037 C 
ENDROOT
BRANCH   4   6
HETATM    6  C1  UNL     1     -39.657  11.987   5.956  1.00 20.00     0.181 C 
HETATM    7  O10 UNL     1     -38.928  11.859   6.979  1.00 20.00    -0.647 OA
HETATM    8  O11 UNL     1     -39.573  11.430   4.825  1.00 20.00    -0.647 OA
ENDBRANCH   4   6
BRANCH   5   9
HETATM    9  C8  UNL     1     -43.356  15.107   6.425  1.00 20.00     0.009 C 
BRANCH   9  10
HETATM   10  C9  UNL     1     -42.889  16.568   6.591  1.00 20.00    -0.004 C 
HETATM   11  C7  UNL     1     -42.548  17.235   5.267  1.00 20.00     0.005 C 
ENDBRANCH   9  10
ENDBRANCH   5   9
TORSDOF 3
ENDMDL
