MODEL 1
REMARK VINA RESULT:      -4.8      0.000      0.000
REMARK  2 active torsions:
REMARK  status: ('A' for Active; 'I' for Inactive)
REMARK    1  A    between atoms: C1_1  and  C8_8 
REMARK    2  A    between atoms: C2_2  and  C9_9 
ROOT
HETATM    1  C3  UNL     1     -31.760  18.409  -0.658  1.00 20.00     0.082 C 
HETATM    2  C6  UNL     1     -34.215  18.983  -0.835  1.00 20.00     0.040 A 
HETATM    3  C7  UNL     1     -34.093  17.840   0.127  1.00 20.00     0.040 A 
HETATM    4  C9  UNL     1     -33.090  17.988  -0.991  1.00 20.00     0.112 A 
HETATM    5  N10 UNL     1     -30.684  18.750  -0.389  1.00 20.00    -0.195 NA
ENDROOT
BRANCH   4   6
HETATM    6  C2  UNL     1     -33.151  17.060  -2.084  1.00 20.00    -0.081 C 
HETATM    7  C1  UNL     1     -33.202  16.283  -2.999  1.00 20.00    -0.100 C 
BRANCH   7   8
HETATM    8  C8  UNL     1     -33.264  15.339  -4.113  1.00 20.00     0.065 A 
HETATM    9  C4  UNL     1     -34.381  15.487  -5.090  1.00 20.00     0.018 A 
HETATM   10  C5  UNL     1     -34.373  14.342  -4.122  1.00 20.00     0.018 A 
ENDBRANCH   7   8
ENDBRANCH   4   6
TORSDOF 2
ENDMDL
MODEL 2
REMARK VINA RESULT:      -4.1      2.999      5.510
REMARK  2 active torsions:
REMARK  status: ('A' for Active; 'I' for Inactive)
REMARK    1  A    between atoms: C1_1  and  C8_8 
REMARK    2  A    between atoms: C2_2  and  C9_9 
ROOT
HETATM    1  C3  UNL     1     -34.172  15.203  -6.727  1.00 20.00     0.082 C 
HETATM    2  C6  UNL     1     -35.984  14.233  -5.258  1.00 20.00     0.040 A 
HETATM    3  C7  UNL     1     -36.427  15.607  -5.661  1.00 20.00     0.040 A 
HETATM    4  C9  UNL     1     -34.954  15.302  -5.529  1.00 20.00     0.112 A 
HETATM    5  N10 UNL     1     -33.538  15.124  -7.696  1.00 20.00    -0.195 NA
ENDROOT
BRANCH   4   6
HETATM    6  C2  UNL     1     -34.244  15.859  -4.413  1.00 20.00    -0.081 C 
HETATM    7  C1  UNL     1     -33.651  16.325  -3.479  1.00 20.00    -0.100 C 
BRANCH   7   8
HETATM    8  C8  UNL     1     -32.929  16.893  -2.342  1.00 20.00     0.065 A 
HETATM    9  C4  UNL     1     -33.731  17.482  -1.231  1.00 20.00     0.018 A 
HETATM   10  C5  UNL     1     -32.964  18.373  -2.162  1.00 20.00     0.018 A 
ENDBRANCH   7   8
ENDBRANCH   4   6
TORSDOF 2
ENDMDL
MODEL 3
REMARK VINA RESULT:      -4.0      1.822      2.237
REMARK  2 active torsions:
REMARK  status: ('A' for Active; 'I' for Inactive)
REMARK    1  A    between atoms: C1_1  and  C8_8 
REMARK    2  A    between atoms: C2_2  and  C9_9 
ROOT
HETATM    1  C3  UNL     1     -34.707  18.769  -1.530  1.00 20.00     0.082 C 
HETATM    2  C6  UNL     1     -32.530  18.152  -0.406  1.00 20.00     0.040 A 
HETATM    3  C7  UNL     1     -32.196  19.049  -1.560  1.00 20.00     0.040 A 
HETATM    4  C9  UNL     1     -33.413  18.159  -1.630  1.00 20.00     0.112 A 
HETATM    5  N10 UNL     1     -35.754  19.263  -1.450  1.00 20.00    -0.195 NA
ENDROOT
BRANCH   4   6
HETATM    6  C2  UNL     1     -33.371  17.021  -2.504  1.00 20.00    -0.081 C 
HETATM    7  C1  UNL     1     -33.336  16.069  -3.236  1.00 20.00    -0.100 C 
BRANCH   7   8
HETATM    8  C8  UNL     1     -33.294  14.911  -4.127  1.00 20.00     0.065 A 
HETATM    9  C4  UNL     1     -33.925  15.043  -5.471  1.00 20.00     0.018 A 
HETATM   10  C5  UNL     1     -34.574  14.203  -4.412  1.00 20.00     0.018 A 
ENDBRANCH   7   8
ENDBRANCH   4   6
TORSDOF 2
ENDMDL
MODEL 4
REMARK VINA RESULT:      -4.0      2.952      5.538
REMARK  2 active torsions:
REMARK  status: ('A' for Active; 'I' for Inactive)
REMARK    1  A    between atoms: C1_1  and  C8_8 
REMARK    2  A    between atoms: C2_2  and  C9_9 
ROOT
HETATM    1  C3  UNL     1     -35.451  14.131  -4.830  1.00 20.00     0.082 C 
HETATM    2  C6  UNL     1     -35.069  16.076  -6.397  1.00 20.00     0.040 A 
HETATM    3  C7  UNL     1     -33.880  15.171  -6.514  1.00 20.00     0.040 A 
HETATM    4  C9  UNL     1     -34.637  15.249  -5.210  1.00 20.00     0.112 A 
HETATM    5  N10 UNL     1     -36.109  13.226  -4.521  1.00 20.00    -0.195 NA
ENDROOT
BRANCH   4   6
HETATM    6  C2  UNL     1     -34.016  15.921  -4.105  1.00 20.00    -0.081 C 
HETATM    7  C1  UNL     1     -33.496  16.484  -3.180  1.00 20.00    -0.100 C 
BRANCH   7   8
HETATM    8  C8  UNL     1     -32.863  17.170  -2.055  1.00 20.00     0.065 A 
HETATM    9  C4  UNL     1     -33.744  17.695  -0.973  1.00 20.00     0.018 A 
HETATM   10  C5  UNL     1     -33.075  18.640  -1.925  1.00 20.00     0.018 A 
ENDBRANCH   7   8
ENDBRANCH   4   6
TORSDOF 2
ENDMDL
MODEL 5
REMARK VINA RESULT:      -3.8     14.134     15.917
REMARK  2 active torsions:
REMARK  status: ('A' for Active; 'I' for Inactive)
REMARK    1  A    between atoms: C1_1  and  C8_8 
REMARK    2  A    between atoms: C2_2  and  C9_9 
ROOT
HETATM    1  C3  UNL     1     -23.478  18.892   7.731  1.00 20.00     0.082 C 
HETATM    2  C6  UNL     1     -21.309  18.717   9.015  1.00 20.00     0.040 A 
HETATM    3  C7  UNL     1     -21.779  17.320   8.745  1.00 20.00     0.040 A 
HETATM    4  C9  UNL     1     -22.787  18.433   8.901  1.00 20.00     0.112 A 
HETATM    5  N10 UNL     1     -24.038  19.263   6.784  1.00 20.00    -0.195 NA
ENDROOT
BRANCH   4   6
HETATM    6  C2  UNL     1     -23.580  18.467  10.097  1.00 20.00    -0.081 C 
HETATM    7  C1  UNL     1     -24.243  18.497  11.098  1.00 20.00    -0.100 C 
BRANCH   7   8
HETATM    8  C8  UNL     1     -25.049  18.533  12.316  1.00 20.00     0.065 A 
HETATM    9  C4  UNL     1     -26.326  17.764  12.331  1.00 20.00     0.018 A 
HETATM   10  C5  UNL     1     -26.349  19.262  12.272  1.00 20.00     0.018 A 
ENDBRANCH   7   8
ENDBRANCH   4   6
TORSDOF 2
ENDMDL
MODEL 6
REMARK VINA RESULT:      -3.8     10.886     12.268
REMARK  2 active torsions:
REMARK  status: ('A' for Active; 'I' for Inactive)
REMARK    1  A    between atoms: C1_1  and  C8_8 
REMARK    2  A    between atoms: C2_2  and  C9_9 
ROOT
HETATM    1  C3  UNL     1     -40.852  14.306   9.371  1.00 20.00     0.082 C 
HETATM    2  C6  UNL     1     -40.520  16.090   7.613  1.00 20.00     0.040 A 
HETATM    3  C7  UNL     1     -41.931  15.599   7.487  1.00 20.00     0.040 A 
HETATM    4  C9  UNL     1     -40.854  14.665   7.983  1.00 20.00     0.112 A 
HETATM    5  N10 UNL     1     -40.851  14.015  10.495  1.00 20.00    -0.195 NA
ENDROOT
BRANCH   4   6
HETATM    6  C2  UNL     1     -40.412  13.615   7.109  1.00 20.00    -0.081 C 
HETATM    7  C1  UNL     1     -40.042  12.738   6.377  1.00 20.00    -0.100 C 
BRANCH   7   8
HETATM    8  C8  UNL     1     -39.592  11.670   5.486  1.00 20.00     0.065 A 
HETATM    9  C4  UNL     1     -38.202  11.747   4.952  1.00 20.00     0.018 A 
HETATM   10  C5  UNL     1     -39.371  12.006   4.051  1.00 20.00     0.018 A 
ENDBRANCH   7   8
ENDBRANCH   4   6
TORSDOF 2
ENDMDL
MODEL 7
REMARK VINA RESULT:      -3.7     10.735     12.091
REMARK  2 active torsions:
REMARK  status: ('A' for Active; 'I' for Inactive)
REMARK    1  A    between atoms: C1_1  and  C8_8 
REMARK    2  A    between atoms: C2_2  and  C9_9 
ROOT
HETATM    1  C3  UNL     1     -41.968  15.841   6.673  1.00 20.00     0.082 C 
HETATM    2  C6  UNL     1     -41.590  14.926   8.998  1.00 20.00     0.040 A 
HETATM    3  C7  UNL     1     -40.376  15.726   8.631  1.00 20.00     0.040 A 
HETATM    4  C9  UNL     1     -41.172  15.034   7.551  1.00 20.00     0.112 A 
HETATM    5  N10 UNL     1     -42.612  16.493   5.961  1.00 20.00    -0.195 NA
ENDROOT
BRANCH   4   6
HETATM    6  C2  UNL     1     -40.599  13.878   6.922  1.00 20.00    -0.081 C 
HETATM    7  C1  UNL     1     -40.120  12.911   6.395  1.00 20.00    -0.100 C 
BRANCH   7   8
HETATM    8  C8  UNL     1     -39.539  11.733   5.755  1.00 20.00     0.065 A 
HETATM    9  C4  UNL     1     -38.171  11.858   5.174  1.00 20.00     0.018 A 
HETATM   10  C5  UNL     1     -39.365  11.758   4.274  1.00 20.00     0.018 A 
ENDBRANCH   7   8
ENDBRANCH   4   6
TORSDOF 2
ENDMDL
MODEL 8
REMARK VINA RESULT:      -3.6     10.646     12.061
REMARK  2 active torsions:
REMARK  status: ('A' for Active; 'I' for Inactive)
REMARK    1  A    between atoms: C1_1  and  C8_8 
REMARK    2  A    between atoms: C2_2  and  C9_9 
ROOT
HETATM    1  C3  UNL     1     -41.198  16.145   7.287  1.00 20.00     0.082 C 
HETATM    2  C6  UNL     1     -43.305  15.278   6.193  1.00 20.00     0.040 A 
HETATM    3  C7  UNL     1     -43.290  14.762   7.600  1.00 20.00     0.040 A 
HETATM    4  C9  UNL     1     -41.987  15.017   6.882  1.00 20.00     0.112 A 
HETATM    5  N10 UNL     1     -40.559  17.056   7.615  1.00 20.00    -0.195 NA
ENDROOT
BRANCH   4   6
HETATM    6  C2  UNL     1     -41.212  13.885   6.460  1.00 20.00    -0.081 C 
HETATM    7  C1  UNL     1     -40.565  12.938   6.106  1.00 20.00    -0.100 C 
BRANCH   7   8
HETATM    8  C8  UNL     1     -39.777  11.784   5.677  1.00 20.00     0.065 A 
HETATM    9  C4  UNL     1     -38.314  11.978   5.465  1.00 20.00     0.018 A 
HETATM   10  C5  UNL     1     -39.227  11.791   4.291  1.00 20.00     0.018 A 
ENDBRANCH   7   8
ENDBRANCH   4   6
TORSDOF 2
ENDMDL
MODEL 9
REMARK VINA RESULT:      -3.5      2.426      4.900
REMARK  2 active torsions:
REMARK  status: ('A' for Active; 'I' for Inactive)
REMARK    1  A    between atoms: C1_1  and  C8_8 
REMARK    2  A    between atoms: C2_2  and  C9_9 
ROOT
HETATM    1  C3  UNL     1     -33.716  15.368  -4.252  1.00 20.00     0.082 C 
HETATM    2  C6  UNL     1     -35.484  17.115  -4.703  1.00 20.00     0.040 A 
HETATM    3  C7  UNL     1     -34.315  17.427  -5.587  1.00 20.00     0.040 A 
HETATM    4  C9  UNL     1     -34.089  16.753  -4.256  1.00 20.00     0.112 A 
HETATM    5  N10 UNL     1     -33.413  14.247  -4.248  1.00 20.00    -0.195 NA
ENDROOT
BRANCH   4   6
HETATM    6  C2  UNL     1     -33.494  17.520  -3.199  1.00 20.00    -0.081 C 
HETATM    7  C1  UNL     1     -32.996  18.162  -2.315  1.00 20.00    -0.100 C 
BRANCH   7   8
HETATM    8  C8  UNL     1     -32.390  18.942  -1.237  1.00 20.00     0.065 A 
HETATM    9  C4  UNL     1     -31.291  18.310  -0.452  1.00 20.00     0.018 A 
HETATM   10  C5  UNL     1     -32.643  18.507   0.166  1.00 20.00     0.018 A 
ENDBRANCH   7   8
ENDBRANCH   4   6
TORSDOF 2
ENDMDL
