MODEL 1
REMARK VINA RESULT:      -5.5      0.000      0.000
REMARK  0 active torsions:
REMARK  status: ('A' for Active; 'I' for Inactive)
ROOT
HETATM    1  C1  UNL     1     -32.571   8.341   4.461  1.00 20.00     0.148 A 
HETATM    2  C2  UNL     1     -32.840   6.575   3.244  1.00 20.00     0.218 A 
HETATM    3  C3  UNL     1     -33.353   7.488   5.184  1.00 20.00     0.061 A 
HETATM    4  C4  UNL     1     -34.062   7.245   6.366  1.00 20.00     0.037 A 
HETATM    5  C5  UNL     1     -34.638   6.028   6.312  1.00 20.00     0.077 A 
HETATM    6  C6  UNL     1     -34.284   5.426   5.001  1.00 20.00     0.253 A 
HETATM    7  N7  UNL     1     -32.252   7.759   3.242  1.00 20.00    -0.253 NA
HETATM    8  N8  UNL     1     -33.511   6.390   4.408  1.00 20.00    -0.272 N 
HETATM    9  O9  UNL     1     -34.556   4.363   4.490  1.00 20.00    -0.268 OA
ENDROOT
TORSDOF 0
ENDMDL
MODEL 2
REMARK VINA RESULT:      -5.2      1.755      2.899
REMARK  0 active torsions:
REMARK  status: ('A' for Active; 'I' for Inactive)
ROOT
HETATM    1  C1  UNL     1     -34.775   5.644   5.828  1.00 20.00     0.148 A 
HETATM    2  C2  UNL     1     -33.943   5.231   3.876  1.00 20.00     0.218 A 
HETATM    3  C3  UNL     1     -34.026   6.732   5.488  1.00 20.00     0.061 A 
HETATM    4  C4  UNL     1     -33.553   8.002   5.839  1.00 20.00     0.037 A 
HETATM    5  C5  UNL     1     -32.772   8.488   4.854  1.00 20.00     0.077 A 
HETATM    6  C6  UNL     1     -32.726   7.467   3.777  1.00 20.00     0.253 A 
HETATM    7  N7  UNL     1     -34.718   4.704   4.809  1.00 20.00    -0.253 NA
HETATM    8  N8  UNL     1     -33.514   6.457   4.264  1.00 20.00    -0.272 N 
HETATM    9  O9  UNL     1     -32.168   7.436   2.704  1.00 20.00    -0.268 OA
ENDROOT
TORSDOF 0
ENDMDL
MODEL 3
REMARK VINA RESULT:      -5.2      1.283      1.545
REMARK  0 active torsions:
REMARK  status: ('A' for Active; 'I' for Inactive)
ROOT
HETATM    1  C1  UNL     1     -33.347   8.411   5.384  1.00 20.00     0.148 A 
HETATM    2  C2  UNL     1     -32.319   7.751   3.601  1.00 20.00     0.218 A 
HETATM    3  C3  UNL     1     -33.811   7.158   5.111  1.00 20.00     0.061 A 
HETATM    4  C4  UNL     1     -34.660   6.105   5.470  1.00 20.00     0.037 A 
HETATM    5  C5  UNL     1     -34.527   5.090   4.593  1.00 20.00     0.077 A 
HETATM    6  C6  UNL     1     -33.519   5.504   3.584  1.00 20.00     0.253 A 
HETATM    7  N7  UNL     1     -32.408   8.778   4.430  1.00 20.00    -0.253 NA
HETATM    8  N8  UNL     1     -33.158   6.761   3.993  1.00 20.00    -0.272 N 
HETATM    9  O9  UNL     1     -33.062   4.949   2.610  1.00 20.00    -0.268 OA
ENDROOT
TORSDOF 0
ENDMDL
MODEL 4
REMARK VINA RESULT:      -5.1      1.985      3.573
REMARK  0 active torsions:
REMARK  status: ('A' for Active; 'I' for Inactive)
ROOT
HETATM    1  C1  UNL     1     -34.547   5.136   4.847  1.00 20.00     0.148 A 
HETATM    2  C2  UNL     1     -34.192   6.836   6.135  1.00 20.00     0.218 A 
HETATM    3  C3  UNL     1     -33.697   5.962   4.172  1.00 20.00     0.061 A 
HETATM    4  C4  UNL     1     -32.950   6.202   3.014  1.00 20.00     0.037 A 
HETATM    5  C5  UNL     1     -32.298   7.376   3.124  1.00 20.00     0.077 A 
HETATM    6  C6  UNL     1     -32.641   7.952   4.450  1.00 20.00     0.253 A 
HETATM    7  N7  UNL     1     -34.854   5.693   6.081  1.00 20.00    -0.253 NA
HETATM    8  N8  UNL     1     -33.486   7.020   4.992  1.00 20.00    -0.272 N 
HETATM    9  O9  UNL     1     -32.312   8.976   5.005  1.00 20.00    -0.268 OA
ENDROOT
TORSDOF 0
ENDMDL
MODEL 5
REMARK VINA RESULT:      -5.0      1.507      2.192
REMARK  0 active torsions:
REMARK  status: ('A' for Active; 'I' for Inactive)
ROOT
HETATM    1  C1  UNL     1     -32.851   6.031   2.802  1.00 20.00     0.148 A 
HETATM    2  C2  UNL     1     -32.697   7.742   4.113  1.00 20.00     0.218 A 
HETATM    3  C3  UNL     1     -33.595   5.740   3.907  1.00 20.00     0.061 A 
HETATM    4  C4  UNL     1     -34.417   4.824   4.575  1.00 20.00     0.037 A 
HETATM    5  C5  UNL     1     -34.801   5.335   5.762  1.00 20.00     0.077 A 
HETATM    6  C6  UNL     1     -34.189   6.682   5.885  1.00 20.00     0.253 A 
HETATM    7  N7  UNL     1     -32.289   7.292   2.938  1.00 20.00    -0.253 NA
HETATM    8  N8  UNL     1     -33.488   6.821   4.716  1.00 20.00    -0.272 N 
HETATM    9  O9  UNL     1     -34.235   7.524   6.754  1.00 20.00    -0.268 OA
ENDROOT
TORSDOF 0
ENDMDL
MODEL 6
REMARK VINA RESULT:      -4.8      1.114      2.326
REMARK  0 active torsions:
REMARK  status: ('A' for Active; 'I' for Inactive)
ROOT
HETATM    1  C1  UNL     1     -32.379   8.374   4.147  1.00 20.00     0.148 A 
HETATM    2  C2  UNL     1     -33.794   7.502   5.529  1.00 20.00     0.218 A 
HETATM    3  C3  UNL     1     -32.711   7.151   3.641  1.00 20.00     0.061 A 
HETATM    4  C4  UNL     1     -32.544   6.205   2.624  1.00 20.00     0.037 A 
HETATM    5  C5  UNL     1     -33.309   5.124   2.873  1.00 20.00     0.077 A 
HETATM    6  C6  UNL     1     -34.032   5.376   4.146  1.00 20.00     0.253 A 
HETATM    7  N7  UNL     1     -33.064   8.588   5.334  1.00 20.00    -0.253 NA
HETATM    8  N8  UNL     1     -33.597   6.621   4.517  1.00 20.00    -0.272 N 
HETATM    9  O9  UNL     1     -34.825   4.716   4.779  1.00 20.00    -0.268 OA
ENDROOT
TORSDOF 0
ENDMDL
MODEL 7
REMARK VINA RESULT:      -4.7      1.249      1.654
REMARK  0 active torsions:
REMARK  status: ('A' for Active; 'I' for Inactive)
ROOT
HETATM    1  C1  UNL     1     -32.472   6.940   2.951  1.00 20.00     0.148 A 
HETATM    2  C2  UNL     1     -33.587   5.181   3.531  1.00 20.00     0.218 A 
HETATM    3  C3  UNL     1     -33.030   7.217   4.165  1.00 20.00     0.061 A 
HETATM    4  C4  UNL     1     -33.204   8.136   5.206  1.00 20.00     0.037 A 
HETATM    5  C5  UNL     1     -33.984   7.599   6.165  1.00 20.00     0.077 A 
HETATM    6  C6  UNL     1     -34.350   6.229   5.724  1.00 20.00     0.253 A 
HETATM    7  N7  UNL     1     -32.827   5.657   2.559  1.00 20.00    -0.253 NA
HETATM    8  N8  UNL     1     -33.723   6.107   4.512  1.00 20.00    -0.272 N 
HETATM    9  O9  UNL     1     -35.025   5.360   6.231  1.00 20.00    -0.268 OA
ENDROOT
TORSDOF 0
ENDMDL
MODEL 8
REMARK VINA RESULT:      -3.8     16.214     17.032
REMARK  0 active torsions:
REMARK  status: ('A' for Active; 'I' for Inactive)
ROOT
HETATM    1  C1  UNL     1     -23.110  18.335  12.057  1.00 20.00     0.148 A 
HETATM    2  C2  UNL     1     -24.677  18.601  10.593  1.00 20.00     0.218 A 
HETATM    3  C3  UNL     1     -22.492  18.458  10.847  1.00 20.00     0.061 A 
HETATM    4  C4  UNL     1     -21.293  18.488  10.127  1.00 20.00     0.037 A 
HETATM    5  C5  UNL     1     -21.549  18.668   8.817  1.00 20.00     0.077 A 
HETATM    6  C6  UNL     1     -23.023  18.763   8.662  1.00 20.00     0.253 A 
HETATM    7  N7  UNL     1     -24.484  18.427  11.890  1.00 20.00    -0.253 NA
HETATM    8  N8  UNL     1     -23.487  18.624   9.943  1.00 20.00    -0.272 N 
HETATM    9  O9  UNL     1     -23.734  18.923   7.695  1.00 20.00    -0.268 OA
ENDROOT
TORSDOF 0
ENDMDL
MODEL 9
REMARK VINA RESULT:      -3.8     12.931     13.095
REMARK  0 active torsions:
REMARK  status: ('A' for Active; 'I' for Inactive)
ROOT
HETATM    1  C1  UNL     1     -31.097  19.136   3.996  1.00 20.00     0.148 A 
HETATM    2  C2  UNL     1     -29.554  18.722   2.540  1.00 20.00     0.218 A 
HETATM    3  C3  UNL     1     -31.708  19.125   2.776  1.00 20.00     0.061 A 
HETATM    4  C4  UNL     1     -32.893  19.263   2.044  1.00 20.00     0.037 A 
HETATM    5  C5  UNL     1     -32.642  19.090   0.731  1.00 20.00     0.077 A 
HETATM    6  C6  UNL     1     -31.189  18.820   0.588  1.00 20.00     0.253 A 
HETATM    7  N7  UNL     1     -29.742  18.881   3.839  1.00 20.00    -0.253 NA
HETATM    8  N8  UNL     1     -30.729  18.864   1.878  1.00 20.00    -0.272 N 
HETATM    9  O9  UNL     1     -30.489  18.602  -0.376  1.00 20.00    -0.268 OA
ENDROOT
TORSDOF 0
ENDMDL
