MODEL 1
REMARK VINA RESULT:      -4.4      0.000      0.000
REMARK  2 active torsions:
REMARK  status: ('A' for Active; 'I' for Inactive)
REMARK    1  A    between atoms: C3_3  and  C6_6 
REMARK    2  A    between atoms: C3_3  and  O10_10 
ROOT
HETATM    1  C1  UNL     1     -33.847   7.345   6.423  1.00 20.00    -0.023 C 
HETATM    2  C2  UNL     1     -34.221   6.242   5.765  1.00 20.00    -0.087 C 
HETATM    3  C4  UNL     1     -33.635   8.503   5.504  1.00 20.00     0.042 C 
HETATM    4  C5  UNL     1     -34.318   6.481   4.289  1.00 20.00     0.048 C 
HETATM    5  C6  UNL     1     -33.677   7.862   4.113  1.00 20.00     0.093 C 
HETATM    6  C7  UNL     1     -34.548   4.918   6.355  1.00 20.00     0.043 C 
ENDROOT
BRANCH   5   7
HETATM    7  C3  UNL     1     -32.285   7.736   3.563  1.00 20.00     0.263 C 
HETATM    8  O9  UNL     1     -31.273   8.019   4.190  1.00 20.00    -0.265 OA
BRANCH   7   9
HETATM    9  O10 UNL     1     -32.341   7.267   2.285  1.00 20.00    -0.326 OA
HETATM   10  C8  UNL     1     -32.210   8.257   1.260  1.00 20.00     0.213 C 
ENDBRANCH   7   9
ENDBRANCH   5   7
TORSDOF 2
ENDMDL
MODEL 2
REMARK VINA RESULT:      -4.1     11.677     12.532
REMARK  2 active torsions:
REMARK  status: ('A' for Active; 'I' for Inactive)
REMARK    1  A    between atoms: C3_3  and  C6_6 
REMARK    2  A    between atoms: C3_3  and  O10_10 
ROOT
HETATM    1  C1  UNL     1     -33.938  17.100  -1.078  1.00 20.00    -0.023 C 
HETATM    2  C2  UNL     1     -33.262  17.395  -2.194  1.00 20.00    -0.087 C 
HETATM    3  C4  UNL     1     -33.865  18.200  -0.071  1.00 20.00     0.042 C 
HETATM    4  C5  UNL     1     -32.620  18.746  -2.116  1.00 20.00     0.048 C 
HETATM    5  C6  UNL     1     -32.792  19.133  -0.643  1.00 20.00     0.093 C 
HETATM    6  C7  UNL     1     -33.143  16.555  -3.414  1.00 20.00     0.043 C 
ENDROOT
BRANCH   5   7
HETATM    7  C3  UNL     1     -31.504  18.955   0.107  1.00 20.00     0.263 C 
HETATM    8  O9  UNL     1     -30.452  18.603  -0.411  1.00 20.00    -0.265 OA
BRANCH   7   9
HETATM    9  O10 UNL     1     -31.699  19.245   1.425  1.00 20.00    -0.326 OA
HETATM   10  C8  UNL     1     -30.787  18.621   2.333  1.00 20.00     0.213 C 
ENDBRANCH   7   9
ENDBRANCH   5   7
TORSDOF 2
ENDMDL
MODEL 3
REMARK VINA RESULT:      -4.0      2.044      3.199
REMARK  2 active torsions:
REMARK  status: ('A' for Active; 'I' for Inactive)
REMARK    1  A    between atoms: C3_3  and  C6_6 
REMARK    2  A    between atoms: C3_3  and  O10_10 
ROOT
HETATM    1  C1  UNL     1     -33.897   4.312   4.536  1.00 20.00    -0.023 C 
HETATM    2  C2  UNL     1     -33.636   5.059   3.458  1.00 20.00    -0.087 C 
HETATM    3  C4  UNL     1     -34.723   5.045   5.541  1.00 20.00     0.042 C 
HETATM    4  C5  UNL     1     -34.245   6.424   3.565  1.00 20.00     0.048 C 
HETATM    5  C6  UNL     1     -34.709   6.488   5.025  1.00 20.00     0.093 C 
HETATM    6  C7  UNL     1     -32.873   4.649   2.251  1.00 20.00     0.043 C 
ENDROOT
BRANCH   5   7
HETATM    7  C3  UNL     1     -33.765   7.319   5.846  1.00 20.00     0.263 C 
HETATM    8  O9  UNL     1     -33.215   6.924   6.865  1.00 20.00    -0.265 OA
BRANCH   7   9
HETATM    9  O10 UNL     1     -33.631   8.551   5.279  1.00 20.00    -0.326 OA
HETATM   10  C8  UNL     1     -32.307   8.893   4.857  1.00 20.00     0.213 C 
ENDBRANCH   7   9
ENDBRANCH   5   7
TORSDOF 2
ENDMDL
MODEL 4
REMARK VINA RESULT:      -3.9      2.398      4.077
REMARK  2 active torsions:
REMARK  status: ('A' for Active; 'I' for Inactive)
REMARK    1  A    between atoms: C3_3  and  C6_6 
REMARK    2  A    between atoms: C3_3  and  O10_10 
ROOT
HETATM    1  C1  UNL     1     -32.087   7.050   3.313  1.00 20.00    -0.023 C 
HETATM    2  C2  UNL     1     -32.761   7.868   4.130  1.00 20.00    -0.087 C 
HETATM    3  C4  UNL     1     -32.969   6.007   2.711  1.00 20.00     0.042 C 
HETATM    4  C5  UNL     1     -34.211   7.502   4.212  1.00 20.00     0.048 C 
HETATM    5  C6  UNL     1     -34.272   6.143   3.507  1.00 20.00     0.093 C 
HETATM    6  C7  UNL     1     -32.217   9.033   4.873  1.00 20.00     0.043 C 
ENDROOT
BRANCH   5   7
HETATM    7  C3  UNL     1     -34.381   5.029   4.509  1.00 20.00     0.263 C 
HETATM    8  O9  UNL     1     -33.947   3.899   4.327  1.00 20.00    -0.265 OA
BRANCH   7   9
HETATM    9  O10 UNL     1     -35.025   5.479   5.622  1.00 20.00    -0.326 OA
HETATM   10  C8  UNL     1     -34.290   5.370   6.845  1.00 20.00     0.213 C 
ENDBRANCH   7   9
ENDBRANCH   5   7
TORSDOF 2
ENDMDL
MODEL 5
REMARK VINA RESULT:      -3.8      1.695      4.157
REMARK  2 active torsions:
REMARK  status: ('A' for Active; 'I' for Inactive)
REMARK    1  A    between atoms: C3_3  and  C6_6 
REMARK    2  A    between atoms: C3_3  and  O10_10 
ROOT
HETATM    1  C1  UNL     1     -32.738   9.481   3.201  1.00 20.00    -0.023 C 
HETATM    2  C2  UNL     1     -32.573   8.778   2.075  1.00 20.00    -0.087 C 
HETATM    3  C4  UNL     1     -32.441   8.669   4.418  1.00 20.00     0.042 C 
HETATM    4  C5  UNL     1     -32.139   7.372   2.354  1.00 20.00     0.048 C 
HETATM    5  C6  UNL     1     -32.322   7.242   3.871  1.00 20.00     0.093 C 
HETATM    6  C7  UNL     1     -32.747   9.268   0.683  1.00 20.00     0.043 C 
ENDROOT
BRANCH   5   7
HETATM    7  C3  UNL     1     -33.564   6.463   4.192  1.00 20.00     0.263 C 
HETATM    8  O9  UNL     1     -33.932   5.474   3.571  1.00 20.00    -0.265 OA
BRANCH   7   9
HETATM    9  O10 UNL     1     -34.194   7.028   5.261  1.00 20.00    -0.326 OA
HETATM   10  C8  UNL     1     -34.426   6.154   6.369  1.00 20.00     0.213 C 
ENDBRANCH   7   9
ENDBRANCH   5   7
TORSDOF 2
ENDMDL
MODEL 6
REMARK VINA RESULT:      -3.8     12.010     13.181
REMARK  2 active torsions:
REMARK  status: ('A' for Active; 'I' for Inactive)
REMARK    1  A    between atoms: C3_3  and  C6_6 
REMARK    2  A    between atoms: C3_3  and  O10_10 
ROOT
HETATM    1  C1  UNL     1     -33.336  15.130  -4.009  1.00 20.00    -0.023 C 
HETATM    2  C2  UNL     1     -33.670  16.329  -3.520  1.00 20.00    -0.087 C 
HETATM    3  C4  UNL     1     -33.796  14.950  -5.418  1.00 20.00     0.042 C 
HETATM    4  C5  UNL     1     -34.416  17.152  -4.525  1.00 20.00     0.048 C 
HETATM    5  C6  UNL     1     -34.723  16.149  -5.643  1.00 20.00     0.093 C 
HETATM    6  C7  UNL     1     -33.350  16.863  -2.171  1.00 20.00     0.043 C 
ENDROOT
BRANCH   5   7
HETATM    7  C3  UNL     1     -36.157  15.709  -5.582  1.00 20.00     0.263 C 
HETATM    8  O9  UNL     1     -36.535  14.570  -5.822  1.00 20.00    -0.265 OA
BRANCH   7   9
HETATM    9  O10 UNL     1     -36.944  16.764  -5.226  1.00 20.00    -0.326 OA
HETATM   10  C8  UNL     1     -38.329  16.462  -5.038  1.00 20.00     0.213 C 
ENDBRANCH   7   9
ENDBRANCH   5   7
TORSDOF 2
ENDMDL
MODEL 7
REMARK VINA RESULT:      -3.7      1.533      2.280
REMARK  2 active torsions:
REMARK  status: ('A' for Active; 'I' for Inactive)
REMARK    1  A    between atoms: C3_3  and  C6_6 
REMARK    2  A    between atoms: C3_3  and  O10_10 
ROOT
HETATM    1  C1  UNL     1     -33.732   6.158   4.071  1.00 20.00    -0.023 C 
HETATM    2  C2  UNL     1     -33.535   7.080   5.020  1.00 20.00    -0.087 C 
HETATM    3  C4  UNL     1     -32.724   6.257   2.974  1.00 20.00     0.042 C 
HETATM    4  C5  UNL     1     -32.358   7.954   4.710  1.00 20.00     0.048 C 
HETATM    5  C6  UNL     1     -32.016   7.585   3.263  1.00 20.00     0.093 C 
HETATM    6  C7  UNL     1     -34.320   7.259   6.268  1.00 20.00     0.043 C 
ENDROOT
BRANCH   5   7
HETATM    7  C3  UNL     1     -32.502   8.643   2.315  1.00 20.00     0.263 C 
HETATM    8  O9  UNL     1     -33.011   9.699   2.670  1.00 20.00    -0.265 OA
BRANCH   7   9
HETATM    9  O10 UNL     1     -32.287   8.240   1.031  1.00 20.00    -0.326 OA
HETATM   10  C8  UNL     1     -32.769   9.128   0.019  1.00 20.00     0.213 C 
ENDBRANCH   7   9
ENDBRANCH   5   7
TORSDOF 2
ENDMDL
MODEL 8
REMARK VINA RESULT:      -3.6     11.785     12.798
REMARK  2 active torsions:
REMARK  status: ('A' for Active; 'I' for Inactive)
REMARK    1  A    between atoms: C3_3  and  C6_6 
REMARK    2  A    between atoms: C3_3  and  O10_10 
ROOT
HETATM    1  C1  UNL     1     -32.666  19.119  -2.681  1.00 20.00    -0.023 C 
HETATM    2  C2  UNL     1     -32.528  18.304  -1.629  1.00 20.00    -0.087 C 
HETATM    3  C4  UNL     1     -33.815  18.725  -3.549  1.00 20.00     0.042 C 
HETATM    4  C5  UNL     1     -33.566  17.224  -1.621  1.00 20.00     0.048 C 
HETATM    5  C6  UNL     1     -34.215  17.350  -3.004  1.00 20.00     0.093 C 
HETATM    6  C7  UNL     1     -31.519  18.410  -0.544  1.00 20.00     0.043 C 
ENDROOT
BRANCH   5   7
HETATM    7  C3  UNL     1     -33.721  16.269  -3.922  1.00 20.00     0.263 C 
HETATM    8  O9  UNL     1     -32.721  15.596  -3.712  1.00 20.00    -0.265 OA
BRANCH   7   9
HETATM    9  O10 UNL     1     -34.552  16.170  -4.998  1.00 20.00    -0.326 OA
HETATM   10  C8  UNL     1     -34.164  15.213  -5.989  1.00 20.00     0.213 C 
ENDBRANCH   7   9
ENDBRANCH   5   7
TORSDOF 2
ENDMDL
MODEL 9
REMARK VINA RESULT:      -3.6     12.025     13.214
REMARK  2 active torsions:
REMARK  status: ('A' for Active; 'I' for Inactive)
REMARK    1  A    between atoms: C3_3  and  C6_6 
REMARK    2  A    between atoms: C3_3  and  O10_10 
ROOT
HETATM    1  C1  UNL     1     -33.527  15.169  -3.659  1.00 20.00    -0.023 C 
HETATM    2  C2  UNL     1     -33.671  16.462  -3.348  1.00 20.00    -0.087 C 
HETATM    3  C4  UNL     1     -33.849  14.898  -5.092  1.00 20.00     0.042 C 
HETATM    4  C5  UNL     1     -34.119  17.272  -4.525  1.00 20.00     0.048 C 
HETATM    5  C6  UNL     1     -34.489  16.208  -5.564  1.00 20.00     0.093 C 
HETATM    6  C7  UNL     1     -33.409  17.097  -2.030  1.00 20.00     0.043 C 
ENDROOT
BRANCH   5   7
HETATM    7  C3  UNL     1     -35.979  16.049  -5.656  1.00 20.00     0.263 C 
HETATM    8  O9  UNL     1     -36.780  16.726  -5.025  1.00 20.00    -0.265 OA
BRANCH   7   9
HETATM    9  O10 UNL     1     -36.278  15.050  -6.534  1.00 20.00    -0.326 OA
HETATM   10  C8  UNL     1     -36.211  15.409  -7.918  1.00 20.00     0.213 C 
ENDBRANCH   7   9
ENDBRANCH   5   7
TORSDOF 2
ENDMDL
