MODEL 1
REMARK VINA RESULT:      -4.8      0.000      0.000
REMARK  2 active torsions:
REMARK  status: ('A' for Active; 'I' for Inactive)
REMARK    1  A    between atoms: C4_4  and  C6_6 
REMARK    2  A    between atoms: C7_7  and  O10_10 
ROOT
HETATM    1  C1  UNL     1     -32.535   8.730   4.573  1.00 20.00     0.218 C 
HETATM    2  C4  UNL     1     -32.963   7.785   5.357  1.00 20.00     0.043 C 
HETATM    3  O9  UNL     1     -32.147   9.585   3.864  1.00 20.00    -0.284 OA
ENDROOT
BRANCH   2   4
HETATM    4  C6  UNL     1     -34.260   7.057   5.191  1.00 20.00     0.064 C 
HETATM    5  C3  UNL     1     -34.623   6.295   6.433  1.00 20.00    -0.020 C 
HETATM    6  C2  UNL     1     -34.542   4.972   6.264  1.00 20.00    -0.027 C 
HETATM    7  C5  UNL     1     -34.124   4.611   4.881  1.00 20.00     0.059 C 
HETATM    8  C7  UNL     1     -34.283   5.935   4.125  1.00 20.00     0.135 C 
BRANCH   8   9
HETATM    9  O10 UNL     1     -33.295   6.077   3.118  1.00 20.00    -0.389 OA
HETATM   10  C8  UNL     1     -32.906   4.816   2.597  1.00 20.00     0.202 C 
ENDBRANCH   8   9
ENDBRANCH   2   4
TORSDOF 2
ENDMDL
MODEL 2
REMARK VINA RESULT:      -4.7      1.482      1.949
REMARK  2 active torsions:
REMARK  status: ('A' for Active; 'I' for Inactive)
REMARK    1  A    between atoms: C4_4  and  C6_6 
REMARK    2  A    between atoms: C7_7  and  O10_10 
ROOT
HETATM    1  C1  UNL     1     -32.226   7.778   2.526  1.00 20.00     0.218 C 
HETATM    2  C4  UNL     1     -32.482   7.551   3.780  1.00 20.00     0.043 C 
HETATM    3  O9  UNL     1     -31.994   7.984   1.391  1.00 20.00    -0.284 OA
ENDROOT
BRANCH   2   4
HETATM    4  C6  UNL     1     -33.835   7.660   4.411  1.00 20.00     0.064 C 
HETATM    5  C3  UNL     1     -33.741   8.148   5.828  1.00 20.00    -0.020 C 
HETATM    6  C2  UNL     1     -34.058   7.202   6.717  1.00 20.00    -0.027 C 
HETATM    7  C5  UNL     1     -34.432   5.920   6.058  1.00 20.00     0.059 C 
HETATM    8  C7  UNL     1     -34.614   6.335   4.594  1.00 20.00     0.135 C 
BRANCH   8   9
HETATM    9  O10 UNL     1     -34.209   5.302   3.710  1.00 20.00    -0.389 OA
HETATM   10  C8  UNL     1     -33.857   4.126   4.420  1.00 20.00     0.202 C 
ENDBRANCH   8   9
ENDBRANCH   2   4
TORSDOF 2
ENDMDL
MODEL 3
REMARK VINA RESULT:      -4.0     15.598     16.623
REMARK  2 active torsions:
REMARK  status: ('A' for Active; 'I' for Inactive)
REMARK    1  A    between atoms: C4_4  and  C6_6 
REMARK    2  A    between atoms: C7_7  and  O10_10 
ROOT
HETATM    1  C1  UNL     1     -23.984  16.755  11.432  1.00 20.00     0.218 C 
HETATM    2  C4  UNL     1     -23.106  17.441  10.762  1.00 20.00     0.043 C 
HETATM    3  O9  UNL     1     -24.778  16.133  12.038  1.00 20.00    -0.284 OA
ENDROOT
BRANCH   2   4
HETATM    4  C6  UNL     1     -23.301  18.847  10.285  1.00 20.00     0.064 C 
HETATM    5  C3  UNL     1     -24.715  19.082   9.838  1.00 20.00    -0.020 C 
HETATM    6  C2  UNL     1     -24.812  19.250   8.515  1.00 20.00    -0.027 C 
HETATM    7  C5  UNL     1     -23.485  19.170   7.844  1.00 20.00     0.059 C 
HETATM    8  C7  UNL     1     -22.507  19.256   9.021  1.00 20.00     0.135 C 
BRANCH   8   9
HETATM    9  O10 UNL     1     -21.349  18.472   8.788  1.00 20.00    -0.389 OA
HETATM   10  C8  UNL     1     -21.329  17.963   7.464  1.00 20.00     0.202 C 
ENDBRANCH   8   9
ENDBRANCH   2   4
TORSDOF 2
ENDMDL
MODEL 4
REMARK VINA RESULT:      -3.9     12.119     13.732
REMARK  2 active torsions:
REMARK  status: ('A' for Active; 'I' for Inactive)
REMARK    1  A    between atoms: C4_4  and  C6_6 
REMARK    2  A    between atoms: C7_7  and  O10_10 
ROOT
HETATM    1  C1  UNL     1     -35.670  13.933  -4.798  1.00 20.00     0.218 C 
HETATM    2  C4  UNL     1     -35.449  15.088  -5.352  1.00 20.00     0.043 C 
HETATM    3  O9  UNL     1     -35.871  12.888  -4.296  1.00 20.00    -0.284 OA
ENDROOT
BRANCH   2   4
HETATM    4  C6  UNL     1     -34.195  15.889  -5.190  1.00 20.00     0.064 C 
HETATM    5  C3  UNL     1     -33.372  15.389  -4.038  1.00 20.00    -0.020 C 
HETATM    6  C2  UNL     1     -33.347  16.250  -3.015  1.00 20.00    -0.027 C 
HETATM    7  C5  UNL     1     -34.135  17.480  -3.302  1.00 20.00     0.059 C 
HETATM    8  C7  UNL     1     -34.379  17.379  -4.812  1.00 20.00     0.135 C 
BRANCH   8   9
HETATM    9  O10 UNL     1     -35.644  17.912  -5.169  1.00 20.00    -0.389 OA
HETATM   10  C8  UNL     1     -36.279  18.517  -4.054  1.00 20.00     0.202 C 
ENDBRANCH   8   9
ENDBRANCH   2   4
TORSDOF 2
ENDMDL
MODEL 5
REMARK VINA RESULT:      -3.9      9.496     10.696
REMARK  2 active torsions:
REMARK  status: ('A' for Active; 'I' for Inactive)
REMARK    1  A    between atoms: C4_4  and  C6_6 
REMARK    2  A    between atoms: C7_7  and  O10_10 
ROOT
HETATM    1  C1  UNL     1     -39.379  11.972   4.873  1.00 20.00     0.218 C 
HETATM    2  C4  UNL     1     -39.799  12.334   6.049  1.00 20.00     0.043 C 
HETATM    3  O9  UNL     1     -38.998  11.645   3.809  1.00 20.00    -0.284 OA
ENDROOT
BRANCH   2   4
HETATM    4  C6  UNL     1     -41.202  12.748   6.367  1.00 20.00     0.064 C 
HETATM    5  C3  UNL     1     -41.806  13.541   5.244  1.00 20.00    -0.020 C 
HETATM    6  C2  UNL     1     -41.987  14.826   5.564  1.00 20.00    -0.027 C 
HETATM    7  C5  UNL     1     -41.549  15.120   6.957  1.00 20.00     0.059 C 
HETATM    8  C7  UNL     1     -41.375  13.721   7.558  1.00 20.00     0.135 C 
BRANCH   8   9
HETATM    9  O10 UNL     1     -40.307  13.687   8.489  1.00 20.00    -0.389 OA
HETATM   10  C8  UNL     1     -40.188  14.921   9.181  1.00 20.00     0.202 C 
ENDBRANCH   8   9
ENDBRANCH   2   4
TORSDOF 2
ENDMDL
MODEL 6
REMARK VINA RESULT:      -3.8      1.879      3.184
REMARK  2 active torsions:
REMARK  status: ('A' for Active; 'I' for Inactive)
REMARK    1  A    between atoms: C4_4  and  C6_6 
REMARK    2  A    between atoms: C7_7  and  O10_10 
ROOT
HETATM    1  C1  UNL     1     -32.764   9.291   1.974  1.00 20.00     0.218 C 
HETATM    2  C4  UNL     1     -32.794   8.854   3.198  1.00 20.00     0.043 C 
HETATM    3  O9  UNL     1     -32.736   9.686   0.866  1.00 20.00    -0.284 OA
ENDROOT
BRANCH   2   4
HETATM    4  C6  UNL     1     -32.253   7.533   3.650  1.00 20.00     0.064 C 
HETATM    5  C3  UNL     1     -32.197   6.549   2.518  1.00 20.00    -0.020 C 
HETATM    6  C2  UNL     1     -33.085   5.560   2.654  1.00 20.00    -0.027 C 
HETATM    7  C5  UNL     1     -33.884   5.698   3.904  1.00 20.00     0.059 C 
HETATM    8  C7  UNL     1     -33.107   6.762   4.685  1.00 20.00     0.135 C 
BRANCH   8   9
HETATM    9  O10 UNL     1     -33.977   7.586   5.443  1.00 20.00    -0.389 OA
HETATM   10  C8  UNL     1     -34.409   6.929   6.624  1.00 20.00     0.202 C 
ENDBRANCH   8   9
ENDBRANCH   2   4
TORSDOF 2
ENDMDL
MODEL 7
REMARK VINA RESULT:      -3.8      1.643      3.472
REMARK  2 active torsions:
REMARK  status: ('A' for Active; 'I' for Inactive)
REMARK    1  A    between atoms: C4_4  and  C6_6 
REMARK    2  A    between atoms: C7_7  and  O10_10 
ROOT
HETATM    1  C1  UNL     1     -34.487   6.280   6.237  1.00 20.00     0.218 C 
HETATM    2  C4  UNL     1     -34.041   7.412   5.777  1.00 20.00     0.043 C 
HETATM    3  O9  UNL     1     -34.891   5.257   6.653  1.00 20.00    -0.284 OA
ENDROOT
BRANCH   2   4
HETATM    4  C6  UNL     1     -32.708   7.604   5.123  1.00 20.00     0.064 C 
HETATM    5  C3  UNL     1     -32.423   9.058   4.877  1.00 20.00    -0.020 C 
HETATM    6  C2  UNL     1     -32.440   9.370   3.578  1.00 20.00    -0.027 C 
HETATM    7  C5  UNL     1     -32.726   8.184   2.723  1.00 20.00     0.059 C 
HETATM    8  C7  UNL     1     -32.553   7.016   3.700  1.00 20.00     0.135 C 
BRANCH   8   9
HETATM    9  O10 UNL     1     -33.456   5.962   3.411  1.00 20.00    -0.389 OA
HETATM   10  C8  UNL     1     -32.894   5.041   2.489  1.00 20.00     0.202 C 
ENDBRANCH   8   9
ENDBRANCH   2   4
TORSDOF 2
ENDMDL
MODEL 8
REMARK VINA RESULT:      -3.6     11.848     13.075
REMARK  2 active torsions:
REMARK  status: ('A' for Active; 'I' for Inactive)
REMARK    1  A    between atoms: C4_4  and  C6_6 
REMARK    2  A    between atoms: C7_7  and  O10_10 
ROOT
HETATM    1  C1  UNL     1     -33.604  17.253  -1.556  1.00 20.00     0.218 C 
HETATM    2  C4  UNL     1     -33.580  16.273  -2.410  1.00 20.00     0.043 C 
HETATM    3  O9  UNL     1     -33.626  18.139  -0.783  1.00 20.00    -0.284 OA
ENDROOT
BRANCH   2   4
HETATM    4  C6  UNL     1     -33.354  16.426  -3.883  1.00 20.00     0.064 C 
HETATM    5  C3  UNL     1     -33.947  17.706  -4.397  1.00 20.00    -0.020 C 
HETATM    6  C2  UNL     1     -35.007  17.499  -5.184  1.00 20.00    -0.027 C 
HETATM    7  C5  UNL     1     -35.306  16.049  -5.346  1.00 20.00     0.059 C 
HETATM    8  C7  UNL     1     -34.043  15.381  -4.792  1.00 20.00     0.135 C 
BRANCH   8   9
HETATM    9  O10 UNL     1     -34.348  14.160  -4.139  1.00 20.00    -0.389 OA
HETATM   10  C8  UNL     1     -35.619  13.668  -4.535  1.00 20.00     0.202 C 
ENDBRANCH   8   9
ENDBRANCH   2   4
TORSDOF 2
ENDMDL
MODEL 9
REMARK VINA RESULT:      -3.6      1.845      3.512
REMARK  2 active torsions:
REMARK  status: ('A' for Active; 'I' for Inactive)
REMARK    1  A    between atoms: C4_4  and  C6_6 
REMARK    2  A    between atoms: C7_7  and  O10_10 
ROOT
HETATM    1  C1  UNL     1     -32.795   5.252   2.483  1.00 20.00     0.218 C 
HETATM    2  C4  UNL     1     -32.444   6.309   3.154  1.00 20.00     0.043 C 
HETATM    3  O9  UNL     1     -33.111   4.295   1.876  1.00 20.00    -0.284 OA
ENDROOT
BRANCH   2   4
HETATM    4  C6  UNL     1     -33.383   7.381   3.613  1.00 20.00     0.064 C 
HETATM    5  C3  UNL     1     -32.639   8.537   4.217  1.00 20.00    -0.020 C 
HETATM    6  C2  UNL     1     -32.829   8.634   5.537  1.00 20.00    -0.027 C 
HETATM    7  C5  UNL     1     -33.739   7.572   6.048  1.00 20.00     0.059 C 
HETATM    8  C7  UNL     1     -34.346   7.001   4.762  1.00 20.00     0.135 C 
BRANCH   8   9
HETATM    9  O10 UNL     1     -34.585   5.608   4.877  1.00 20.00    -0.389 OA
HETATM   10  C8  UNL     1     -34.473   5.176   6.224  1.00 20.00     0.202 C 
ENDBRANCH   8   9
ENDBRANCH   2   4
TORSDOF 2
ENDMDL
