MODEL 1
REMARK VINA RESULT:      -5.4      0.000      0.000
REMARK  0 active torsions:
REMARK  status: ('A' for Active; 'I' for Inactive)
ROOT
HETATM    1  C1  UNL     1     -33.304   5.841   3.629  1.00 20.00     0.185 C 
HETATM    2  C2  UNL     1     -34.375   6.516   4.480  1.00 20.00     0.087 C 
HETATM    3  C3  UNL     1     -33.537   7.532   5.215  1.00 20.00     0.340 C 
HETATM    4  C4  UNL     1     -32.623   8.001   4.121  1.00 20.00     0.420 C 
HETATM    5  C5  UNL     1     -35.141   5.563   5.376  1.00 20.00     0.019 C 
HETATM    6  O6  UNL     1     -32.318   6.851   3.326  1.00 20.00    -0.321 OA
HETATM    7  F7  UNL     1     -34.252   8.523   5.765  1.00 20.00    -0.196 F 
HETATM    8  F8  UNL     1     -32.814   6.938   6.191  1.00 20.00    -0.196 F 
HETATM    9  F9  UNL     1     -33.244   8.896   3.318  1.00 20.00    -0.169 F 
HETATM   10  F10 UNL     1     -31.496   8.568   4.588  1.00 20.00    -0.169 F 
ENDROOT
TORSDOF 0
ENDMDL
MODEL 2
REMARK VINA RESULT:      -5.1      1.682      3.074
REMARK  0 active torsions:
REMARK  status: ('A' for Active; 'I' for Inactive)
ROOT
HETATM    1  C1  UNL     1     -32.716   6.779   3.429  1.00 20.00     0.185 C 
HETATM    2  C2  UNL     1     -32.707   7.470   4.789  1.00 20.00     0.087 C 
HETATM    3  C3  UNL     1     -34.161   7.338   5.170  1.00 20.00     0.340 C 
HETATM    4  C4  UNL     1     -34.455   5.940   4.711  1.00 20.00     0.420 C 
HETATM    5  C5  UNL     1     -32.192   8.896   4.752  1.00 20.00     0.019 C 
HETATM    6  O6  UNL     1     -33.728   5.750   3.494  1.00 20.00    -0.321 OA
HETATM    7  F7  UNL     1     -34.393   7.524   6.477  1.00 20.00    -0.196 F 
HETATM    8  F8  UNL     1     -34.918   8.217   4.475  1.00 20.00    -0.196 F 
HETATM    9  F9  UNL     1     -34.000   5.029   5.602  1.00 20.00    -0.169 F 
HETATM   10  F10 UNL     1     -35.768   5.719   4.518  1.00 20.00    -0.169 F 
ENDROOT
TORSDOF 0
ENDMDL
MODEL 3
REMARK VINA RESULT:      -5.0      1.343      2.804
REMARK  0 active torsions:
REMARK  status: ('A' for Active; 'I' for Inactive)
ROOT
HETATM    1  C1  UNL     1     -34.654   5.617   4.390  1.00 20.00     0.185 C 
HETATM    2  C2  UNL     1     -33.228   5.969   3.980  1.00 20.00     0.087 C 
HETATM    3  C3  UNL     1     -33.152   7.396   4.463  1.00 20.00     0.340 C 
HETATM    4  C4  UNL     1     -33.866   7.296   5.778  1.00 20.00     0.420 C 
HETATM    5  C5  UNL     1     -32.949   5.787   2.501  1.00 20.00     0.019 C 
HETATM    6  O6  UNL     1     -34.938   6.370   5.589  1.00 20.00    -0.321 OA
HETATM    7  F7  UNL     1     -31.899   7.860   4.576  1.00 20.00    -0.196 F 
HETATM    8  F8  UNL     1     -33.834   8.217   3.633  1.00 20.00    -0.196 F 
HETATM    9  F9  UNL     1     -33.055   6.789   6.736  1.00 20.00    -0.169 F 
HETATM   10  F10 UNL     1     -34.334   8.482   6.210  1.00 20.00    -0.169 F 
ENDROOT
TORSDOF 0
ENDMDL
MODEL 4
REMARK VINA RESULT:      -4.8      2.419      3.058
REMARK  0 active torsions:
REMARK  status: ('A' for Active; 'I' for Inactive)
ROOT
HETATM    1  C1  UNL     1     -33.125   7.527   4.487  1.00 20.00     0.185 C 
HETATM    2  C2  UNL     1     -33.538   6.313   5.314  1.00 20.00     0.087 C 
HETATM    3  C3  UNL     1     -34.183   5.464   4.247  1.00 20.00     0.340 C 
HETATM    4  C4  UNL     1     -33.239   5.674   3.100  1.00 20.00     0.420 C 
HETATM    5  C5  UNL     1     -34.440   6.645   6.487  1.00 20.00     0.019 C 
HETATM    6  O6  UNL     1     -32.821   7.040   3.162  1.00 20.00    -0.321 OA
HETATM    7  F7  UNL     1     -34.316   4.176   4.592  1.00 20.00    -0.196 F 
HETATM    8  F8  UNL     1     -35.405   5.946   3.929  1.00 20.00    -0.196 F 
HETATM    9  F9  UNL     1     -32.134   4.904   3.232  1.00 20.00    -0.169 F 
HETATM   10  F10 UNL     1     -33.799   5.402   1.907  1.00 20.00    -0.169 F 
ENDROOT
TORSDOF 0
ENDMDL
MODEL 5
REMARK VINA RESULT:      -4.8      1.805      2.471
REMARK  0 active torsions:
REMARK  status: ('A' for Active; 'I' for Inactive)
ROOT
HETATM    1  C1  UNL     1     -34.036   7.511   6.483  1.00 20.00     0.185 C 
HETATM    2  C2  UNL     1     -33.726   6.176   5.812  1.00 20.00     0.087 C 
HETATM    3  C3  UNL     1     -33.848   6.567   4.361  1.00 20.00     0.340 C 
HETATM    4  C4  UNL     1     -33.185   7.913   4.365  1.00 20.00     0.420 C 
HETATM    5  C5  UNL     1     -34.640   5.044   6.240  1.00 20.00     0.019 C 
HETATM    6  O6  UNL     1     -33.551   8.542   5.596  1.00 20.00    -0.321 OA
HETATM    7  F7  UNL     1     -33.273   5.698   3.519  1.00 20.00    -0.196 F 
HETATM    8  F8  UNL     1     -35.148   6.699   4.010  1.00 20.00    -0.196 F 
HETATM    9  F9  UNL     1     -31.837   7.791   4.357  1.00 20.00    -0.169 F 
HETATM   10  F10 UNL     1     -33.544   8.675   3.316  1.00 20.00    -0.169 F 
ENDROOT
TORSDOF 0
ENDMDL
MODEL 6
REMARK VINA RESULT:      -4.4      2.349      3.460
REMARK  0 active torsions:
REMARK  status: ('A' for Active; 'I' for Inactive)
ROOT
HETATM    1  C1  UNL     1     -33.872   7.025   6.277  1.00 20.00     0.185 C 
HETATM    2  C2  UNL     1     -33.730   7.613   4.876  1.00 20.00     0.087 C 
HETATM    3  C3  UNL     1     -33.697   6.349   4.054  1.00 20.00     0.340 C 
HETATM    4  C4  UNL     1     -34.748   5.528   4.740  1.00 20.00     0.420 C 
HETATM    5  C5  UNL     1     -32.520   8.510   4.704  1.00 20.00     0.019 C 
HETATM    6  O6  UNL     1     -34.631   5.805   6.139  1.00 20.00    -0.321 OA
HETATM    7  F7  UNL     1     -33.949   6.547   2.752  1.00 20.00    -0.196 F 
HETATM    8  F8  UNL     1     -32.495   5.739   4.165  1.00 20.00    -0.196 F 
HETATM    9  F9  UNL     1     -35.990   5.905   4.355  1.00 20.00    -0.169 F 
HETATM   10  F10 UNL     1     -34.618   4.210   4.505  1.00 20.00    -0.169 F 
ENDROOT
TORSDOF 0
ENDMDL
MODEL 7
REMARK VINA RESULT:      -4.4      1.618      2.397
REMARK  0 active torsions:
REMARK  status: ('A' for Active; 'I' for Inactive)
ROOT
HETATM    1  C1  UNL     1     -32.108   7.175   3.810  1.00 20.00     0.185 C 
HETATM    2  C2  UNL     1     -33.323   6.426   3.271  1.00 20.00     0.087 C 
HETATM    3  C3  UNL     1     -34.129   6.270   4.536  1.00 20.00     0.340 C 
HETATM    4  C4  UNL     1     -33.928   7.611   5.177  1.00 20.00     0.420 C 
HETATM    5  C5  UNL     1     -32.984   5.124   2.573  1.00 20.00     0.019 C 
HETATM    6  O6  UNL     1     -32.578   7.996   4.902  1.00 20.00    -0.321 OA
HETATM    7  F7  UNL     1     -35.418   5.975   4.321  1.00 20.00    -0.196 F 
HETATM    8  F8  UNL     1     -33.599   5.304   5.322  1.00 20.00    -0.196 F 
HETATM    9  F9  UNL     1     -34.737   8.543   4.619  1.00 20.00    -0.169 F 
HETATM   10  F10 UNL     1     -34.157   7.598   6.502  1.00 20.00    -0.169 F 
ENDROOT
TORSDOF 0
ENDMDL
MODEL 8
REMARK VINA RESULT:      -4.4      9.304     10.141
REMARK  0 active torsions:
REMARK  status: ('A' for Active; 'I' for Inactive)
ROOT
HETATM    1  C1  UNL     1     -43.088   7.268   1.322  1.00 20.00     0.185 C 
HETATM    2  C2  UNL     1     -42.422   7.128  -0.044  1.00 20.00     0.087 C 
HETATM    3  C3  UNL     1     -41.427   6.033   0.250  1.00 20.00     0.340 C 
HETATM    4  C4  UNL     1     -42.247   5.118   1.111  1.00 20.00     0.420 C 
HETATM    5  C5  UNL     1     -41.811   8.413  -0.567  1.00 20.00     0.019 C 
HETATM    6  O6  UNL     1     -43.069   5.957   1.928  1.00 20.00    -0.321 OA
HETATM    7  F7  UNL     1     -40.946   5.434  -0.848  1.00 20.00    -0.196 F 
HETATM    8  F8  UNL     1     -40.383   6.517   0.961  1.00 20.00    -0.196 F 
HETATM    9  F9  UNL     1     -43.070   4.351   0.360  1.00 20.00    -0.169 F 
HETATM   10  F10 UNL     1     -41.494   4.304   1.873  1.00 20.00    -0.169 F 
ENDROOT
TORSDOF 0
ENDMDL
MODEL 9
REMARK VINA RESULT:      -4.3      8.977      9.838
REMARK  0 active torsions:
REMARK  status: ('A' for Active; 'I' for Inactive)
ROOT
HETATM    1  C1  UNL     1     -43.059   6.497   1.687  1.00 20.00     0.185 C 
HETATM    2  C2  UNL     1     -42.376   5.313   1.010  1.00 20.00     0.087 C 
HETATM    3  C3  UNL     1     -41.703   6.012  -0.145  1.00 20.00     0.340 C 
HETATM    4  C4  UNL     1     -41.209   7.263   0.521  1.00 20.00     0.420 C 
HETATM    5  C5  UNL     1     -43.325   4.201   0.608  1.00 20.00     0.019 C 
HETATM    6  O6  UNL     1     -42.214   7.646   1.463  1.00 20.00    -0.321 OA
HETATM    7  F7  UNL     1     -40.724   5.295  -0.713  1.00 20.00    -0.196 F 
HETATM    8  F8  UNL     1     -42.605   6.329  -1.101  1.00 20.00    -0.196 F 
HETATM    9  F9  UNL     1     -40.071   7.028   1.215  1.00 20.00    -0.169 F 
HETATM   10  F10 UNL     1     -40.970   8.259  -0.351  1.00 20.00    -0.169 F 
ENDROOT
TORSDOF 0
ENDMDL
