MODEL 1
REMARK VINA RESULT:      -4.1      0.000      0.000
REMARK  1 active torsions:
REMARK  status: ('A' for Active; 'I' for Inactive)
REMARK    1  A    between atoms: C6_6  and  N10_10 
ROOT
HETATM    1  C1  UNL     1     -32.564   8.668   2.218  1.00 20.00     0.064 C 
HETATM    2  C2  UNL     1     -32.542   6.207   2.545  1.00 20.00     0.021 C 
HETATM    3  C3  UNL     1     -33.472   5.548   3.564  1.00 20.00     0.037 C 
HETATM    4  C4  UNL     1     -32.924   7.677   4.463  1.00 20.00     0.055 C 
HETATM    5  C5  UNL     1     -32.172   7.582   3.129  1.00 20.00     0.095 C 
HETATM    6  C6  UNL     1     -34.107   6.726   4.293  1.00 20.00     0.223 C 
HETATM    7  N9  UNL     1     -32.873   9.525   1.499  1.00 20.00    -0.197 NA
ENDROOT
BRANCH   6   8
HETATM    8  N10 UNL     1     -34.720   6.356   5.557  1.00 20.00     0.084 N 
HETATM    9  C7  UNL     1     -34.151   7.136   6.661  1.00 20.00     0.309 C 
HETATM   10  C8  UNL     1     -34.553   4.922   5.817  1.00 20.00     0.309 C 
ENDBRANCH   6   8
TORSDOF 1
ENDMDL
MODEL 2
REMARK VINA RESULT:      -3.7     11.765     12.581
REMARK  1 active torsions:
REMARK  status: ('A' for Active; 'I' for Inactive)
REMARK    1  A    between atoms: C6_6  and  N10_10 
ROOT
HETATM    1  C1  UNL     1     -33.204  15.937  -3.699  1.00 20.00     0.064 C 
HETATM    2  C2  UNL     1     -33.297  18.416  -3.798  1.00 20.00     0.021 C 
HETATM    3  C3  UNL     1     -32.766  19.262  -2.641  1.00 20.00     0.037 C 
HETATM    4  C4  UNL     1     -33.626  17.279  -1.656  1.00 20.00     0.055 C 
HETATM    5  C5  UNL     1     -33.869  17.135  -3.164  1.00 20.00     0.095 C 
HETATM    6  C6  UNL     1     -32.441  18.239  -1.560  1.00 20.00     0.223 C 
HETATM    7  N9  UNL     1     -32.680  14.991  -4.121  1.00 20.00    -0.197 NA
ENDROOT
BRANCH   6   8
HETATM    8  N10 UNL     1     -32.296  18.825  -0.239  1.00 20.00     0.084 N 
HETATM    9  C7  UNL     1     -31.002  18.468   0.351  1.00 20.00     0.309 C 
HETATM   10  C8  UNL     1     -33.386  18.397   0.644  1.00 20.00     0.309 C 
ENDBRANCH   6   8
TORSDOF 1
ENDMDL
MODEL 3
REMARK VINA RESULT:      -3.6     11.802     13.060
REMARK  1 active torsions:
REMARK  status: ('A' for Active; 'I' for Inactive)
REMARK    1  A    between atoms: C6_6  and  N10_10 
ROOT
HETATM    1  C1  UNL     1     -33.458  18.128  -0.322  1.00 20.00     0.064 C 
HETATM    2  C2  UNL     1     -32.700  19.061  -2.495  1.00 20.00     0.021 C 
HETATM    3  C3  UNL     1     -33.318  18.580  -3.808  1.00 20.00     0.037 C 
HETATM    4  C4  UNL     1     -33.343  16.704  -2.350  1.00 20.00     0.055 C 
HETATM    5  C5  UNL     1     -32.699  17.845  -1.551  1.00 20.00     0.095 C 
HETATM    6  C6  UNL     1     -34.209  17.417  -3.387  1.00 20.00     0.223 C 
HETATM    7  N9  UNL     1     -34.056  18.352   0.647  1.00 20.00    -0.197 NA
ENDROOT
BRANCH   6   8
HETATM    8  N10 UNL     1     -34.590  16.556  -4.493  1.00 20.00     0.084 N 
HETATM    9  C7  UNL     1     -33.745  15.359  -4.536  1.00 20.00     0.309 C 
HETATM   10  C8  UNL     1     -34.505  17.277  -5.767  1.00 20.00     0.309 C 
ENDBRANCH   6   8
TORSDOF 1
ENDMDL
MODEL 4
REMARK VINA RESULT:      -3.5     11.836     13.029
REMARK  1 active torsions:
REMARK  status: ('A' for Active; 'I' for Inactive)
REMARK    1  A    between atoms: C6_6  and  N10_10 
ROOT
HETATM    1  C1  UNL     1     -35.307  14.978  -5.669  1.00 20.00     0.064 C 
HETATM    2  C2  UNL     1     -33.479  15.131  -3.995  1.00 20.00     0.021 C 
HETATM    3  C3  UNL     1     -33.385  16.329  -3.051  1.00 20.00     0.037 C 
HETATM    4  C4  UNL     1     -34.299  17.167  -5.077  1.00 20.00     0.055 C 
HETATM    5  C5  UNL     1     -34.057  15.670  -5.316  1.00 20.00     0.095 C 
HETATM    6  C6  UNL     1     -34.459  17.282  -3.562  1.00 20.00     0.223 C 
HETATM    7  N9  UNL     1     -36.293  14.432  -5.948  1.00 20.00    -0.197 NA
ENDROOT
BRANCH   6   8
HETATM    8  N10 UNL     1     -34.298  18.642  -3.079  1.00 20.00     0.084 N 
HETATM    9  C7  UNL     1     -32.938  19.128  -3.335  1.00 20.00     0.309 C 
HETATM   10  C8  UNL     1     -34.599  18.725  -1.646  1.00 20.00     0.309 C 
ENDBRANCH   6   8
TORSDOF 1
ENDMDL
MODEL 5
REMARK VINA RESULT:      -3.5     11.988     13.733
REMARK  1 active torsions:
REMARK  status: ('A' for Active; 'I' for Inactive)
REMARK    1  A    between atoms: C6_6  and  N10_10 
ROOT
HETATM    1  C1  UNL     1     -32.087  18.486  -1.154  1.00 20.00     0.064 C 
HETATM    2  C2  UNL     1     -33.292  16.638  -2.293  1.00 20.00     0.021 C 
HETATM    3  C3  UNL     1     -33.835  16.819  -3.711  1.00 20.00     0.037 C 
HETATM    4  C4  UNL     1     -33.989  18.952  -2.678  1.00 20.00     0.055 C 
HETATM    5  C5  UNL     1     -33.403  18.015  -1.613  1.00 20.00     0.095 C 
HETATM    6  C6  UNL     1     -33.605  18.297  -4.003  1.00 20.00     0.223 C 
HETATM    7  N9  UNL     1     -31.049  18.858  -0.791  1.00 20.00    -0.197 NA
ENDROOT
BRANCH   6   8
HETATM    8  N10 UNL     1     -34.389  18.789  -5.123  1.00 20.00     0.084 N 
HETATM    9  C7  UNL     1     -35.747  19.140  -4.696  1.00 20.00     0.309 C 
HETATM   10  C8  UNL     1     -34.443  17.793  -6.199  1.00 20.00     0.309 C 
ENDBRANCH   6   8
TORSDOF 1
ENDMDL
MODEL 6
REMARK VINA RESULT:      -3.4     11.450     13.285
REMARK  1 active torsions:
REMARK  status: ('A' for Active; 'I' for Inactive)
REMARK    1  A    between atoms: C6_6  and  N10_10 
ROOT
HETATM    1  C1  UNL     1     -35.640  14.383  -5.011  1.00 20.00     0.064 C 
HETATM    2  C2  UNL     1     -33.560  14.996  -3.800  1.00 20.00     0.021 C 
HETATM    3  C3  UNL     1     -33.293  16.445  -3.394  1.00 20.00     0.037 C 
HETATM    4  C4  UNL     1     -34.513  16.554  -5.429  1.00 20.00     0.055 C 
HETATM    5  C5  UNL     1     -34.338  15.059  -5.127  1.00 20.00     0.095 C 
HETATM    6  C6  UNL     1     -34.421  17.224  -4.060  1.00 20.00     0.223 C 
HETATM    7  N9  UNL     1     -36.666  13.849  -4.919  1.00 20.00    -0.197 NA
ENDROOT
BRANCH   6   8
HETATM    8  N10 UNL     1     -34.161  18.651  -4.146  1.00 20.00     0.084 N 
HETATM    9  C7  UNL     1     -34.006  19.069  -5.543  1.00 20.00     0.309 C 
HETATM   10  C8  UNL     1     -32.963  19.009  -3.379  1.00 20.00     0.309 C 
ENDBRANCH   6   8
TORSDOF 1
ENDMDL
MODEL 7
REMARK VINA RESULT:      -3.4     12.116     13.564
REMARK  1 active torsions:
REMARK  status: ('A' for Active; 'I' for Inactive)
REMARK    1  A    between atoms: C6_6  and  N10_10 
ROOT
HETATM    1  C1  UNL     1     -32.819  18.508  -2.115  1.00 20.00     0.064 C 
HETATM    2  C2  UNL     1     -33.340  16.212  -2.904  1.00 20.00     0.021 C 
HETATM    3  C3  UNL     1     -33.967  15.984  -4.280  1.00 20.00     0.037 C 
HETATM    4  C4  UNL     1     -34.821  18.063  -3.511  1.00 20.00     0.055 C 
HETATM    5  C5  UNL     1     -33.902  17.551  -2.394  1.00 20.00     0.095 C 
HETATM    6  C6  UNL     1     -34.284  17.391  -4.773  1.00 20.00     0.223 C 
HETATM    7  N9  UNL     1     -31.965  19.263  -1.895  1.00 20.00    -0.197 NA
ENDROOT
BRANCH   6   8
HETATM    8  N10 UNL     1     -35.234  17.413  -5.872  1.00 20.00     0.084 N 
HETATM    9  C7  UNL     1     -36.340  16.482  -5.624  1.00 20.00     0.309 C 
HETATM   10  C8  UNL     1     -34.573  17.081  -7.139  1.00 20.00     0.309 C 
ENDBRANCH   6   8
TORSDOF 1
ENDMDL
MODEL 8
REMARK VINA RESULT:      -3.3     11.835     12.951
REMARK  1 active torsions:
REMARK  status: ('A' for Active; 'I' for Inactive)
REMARK    1  A    between atoms: C6_6  and  N10_10 
ROOT
HETATM    1  C1  UNL     1     -34.433  18.785   0.796  1.00 20.00     0.064 C 
HETATM    2  C2  UNL     1     -32.371  19.262  -0.502  1.00 20.00     0.021 C 
HETATM    3  C3  UNL     1     -32.312  18.978  -2.004  1.00 20.00     0.037 C 
HETATM    4  C4  UNL     1     -33.742  17.320  -1.083  1.00 20.00     0.055 C 
HETATM    5  C5  UNL     1     -33.285  18.181   0.102  1.00 20.00     0.095 C 
HETATM    6  C6  UNL     1     -33.620  18.251  -2.289  1.00 20.00     0.223 C 
HETATM    7  N9  UNL     1     -35.339  19.262   1.343  1.00 20.00    -0.197 NA
ENDROOT
BRANCH   6   8
HETATM    8  N10 UNL     1     -33.616  17.537  -3.554  1.00 20.00     0.084 N 
HETATM    9  C7  UNL     1     -34.868  17.763  -4.284  1.00 20.00     0.309 C 
HETATM   10  C8  UNL     1     -33.412  16.100  -3.341  1.00 20.00     0.309 C 
ENDBRANCH   6   8
TORSDOF 1
ENDMDL
MODEL 9
REMARK VINA RESULT:      -3.3      9.898     10.951
REMARK  1 active torsions:
REMARK  status: ('A' for Active; 'I' for Inactive)
REMARK    1  A    between atoms: C6_6  and  N10_10 
ROOT
HETATM    1  C1  UNL     1     -39.386  12.396   5.649  1.00 20.00     0.064 C 
HETATM    2  C2  UNL     1     -41.514  13.620   5.276  1.00 20.00     0.021 C 
HETATM    3  C3  UNL     1     -41.832  14.889   6.069  1.00 20.00     0.037 C 
HETATM    4  C4  UNL     1     -40.561  13.511   7.528  1.00 20.00     0.055 C 
HETATM    5  C5  UNL     1     -40.703  12.717   6.223  1.00 20.00     0.095 C 
HETATM    6  C6  UNL     1     -40.708  14.969   7.095  1.00 20.00     0.223 C 
HETATM    7  N9  UNL     1     -38.348  12.142   5.197  1.00 20.00    -0.197 NA
ENDROOT
BRANCH   6   8
HETATM    8  N10 UNL     1     -41.006  15.859   8.204  1.00 20.00     0.084 N 
HETATM    9  C7  UNL     1     -40.724  17.252   7.844  1.00 20.00     0.309 C 
HETATM   10  C8  UNL     1     -40.236  15.483   9.395  1.00 20.00     0.309 C 
ENDBRANCH   6   8
TORSDOF 1
ENDMDL
