MODEL 1
REMARK VINA RESULT:      -4.6      0.000      0.000
REMARK  1 active torsions:
REMARK  status: ('A' for Active; 'I' for Inactive)
REMARK    1  A    between atoms: C1_1  and  C4_4 
ROOT
HETATM    1  C2  UNL     1     -34.203   7.312   6.465  1.00 20.00     0.016 C 
HETATM    2  C3  UNL     1     -34.596   5.822   6.436  1.00 20.00     0.022 C 
HETATM    3  C4  UNL     1     -33.906   7.193   4.946  1.00 20.00     0.090 C 
HETATM    4  C5  UNL     1     -33.661   5.678   5.214  1.00 20.00     0.094 C 
HETATM    5 CL8  UNL     1     -34.095   4.500   3.944  1.00 20.00    -0.124 Cl
ENDROOT
BRANCH   3   6
HETATM    6  C1  UNL     1     -32.741   8.011   4.383  1.00 20.00     0.224 C 
HETATM    7  O6  UNL     1     -32.279   8.975   4.986  1.00 20.00    -0.279 OA
HETATM    8 CL7  UNL     1     -32.199   7.407   2.847  1.00 20.00    -0.043 Cl
ENDBRANCH   3   6
TORSDOF 1
ENDMDL
MODEL 2
REMARK VINA RESULT:      -4.6      2.691      3.946
REMARK  1 active torsions:
REMARK  status: ('A' for Active; 'I' for Inactive)
REMARK    1  A    between atoms: C1_1  and  C4_4 
ROOT
HETATM    1  C2  UNL     1     -32.775   6.083   2.855  1.00 20.00     0.016 C 
HETATM    2  C3  UNL     1     -32.288   7.519   3.129  1.00 20.00     0.022 C 
HETATM    3  C4  UNL     1     -33.861   6.316   3.939  1.00 20.00     0.090 C 
HETATM    4  C5  UNL     1     -32.886   7.369   4.546  1.00 20.00     0.094 C 
HETATM    5 CL8  UNL     1     -33.571   8.816   5.339  1.00 20.00    -0.124 Cl
ENDROOT
BRANCH   3   6
HETATM    6  C1  UNL     1     -34.257   5.127   4.818  1.00 20.00     0.224 C 
HETATM    7  O6  UNL     1     -34.169   3.971   4.415  1.00 20.00    -0.279 OA
HETATM    8 CL7  UNL     1     -34.818   5.628   6.384  1.00 20.00    -0.043 Cl
ENDBRANCH   3   6
TORSDOF 1
ENDMDL
MODEL 3
REMARK VINA RESULT:      -4.5      2.488      3.370
REMARK  1 active torsions:
REMARK  status: ('A' for Active; 'I' for Inactive)
REMARK    1  A    between atoms: C1_1  and  C4_4 
ROOT
HETATM    1  C2  UNL     1     -32.409   7.954   3.532  1.00 20.00     0.016 C 
HETATM    2  C3  UNL     1     -32.555   8.650   4.900  1.00 20.00     0.022 C 
HETATM    3  C4  UNL     1     -33.527   6.978   3.986  1.00 20.00     0.090 C 
HETATM    4  C5  UNL     1     -33.083   7.303   5.443  1.00 20.00     0.094 C 
HETATM    5 CL8  UNL     1     -34.318   7.329   6.732  1.00 20.00    -0.124 Cl
ENDROOT
BRANCH   3   6
HETATM    6  C1  UNL     1     -33.432   5.522   3.523  1.00 20.00     0.224 C 
HETATM    7  O6  UNL     1     -32.793   5.204   2.525  1.00 20.00    -0.279 OA
HETATM    8 CL7  UNL     1     -34.314   4.445   4.562  1.00 20.00    -0.043 Cl
ENDBRANCH   3   6
TORSDOF 1
ENDMDL
MODEL 4
REMARK VINA RESULT:      -4.4      1.566      1.837
REMARK  1 active torsions:
REMARK  status: ('A' for Active; 'I' for Inactive)
REMARK    1  A    between atoms: C1_1  and  C4_4 
ROOT
HETATM    1  C2  UNL     1     -33.390   8.374   5.264  1.00 20.00     0.016 C 
HETATM    2  C3  UNL     1     -34.024   7.613   6.445  1.00 20.00     0.022 C 
HETATM    3  C4  UNL     1     -33.712   7.138   4.383  1.00 20.00     0.090 C 
HETATM    4  C5  UNL     1     -33.659   6.309   5.701  1.00 20.00     0.094 C 
HETATM    5 CL8  UNL     1     -34.742   4.899   5.873  1.00 20.00    -0.124 Cl
ENDROOT
BRANCH   3   6
HETATM    6  C1  UNL     1     -32.719   6.774   3.276  1.00 20.00     0.224 C 
HETATM    7  O6  UNL     1     -31.861   7.565   2.895  1.00 20.00    -0.279 OA
HETATM    8 CL7  UNL     1     -32.972   5.165   2.672  1.00 20.00    -0.043 Cl
ENDBRANCH   3   6
TORSDOF 1
ENDMDL
MODEL 5
REMARK VINA RESULT:      -4.4      2.097      3.071
REMARK  1 active torsions:
REMARK  status: ('A' for Active; 'I' for Inactive)
REMARK    1  A    between atoms: C1_1  and  C4_4 
ROOT
HETATM    1  C2  UNL     1     -34.182   6.916   6.325  1.00 20.00     0.016 C 
HETATM    2  C3  UNL     1     -33.793   8.367   5.982  1.00 20.00     0.022 C 
HETATM    3  C4  UNL     1     -33.430   6.482   5.039  1.00 20.00     0.090 C 
HETATM    4  C5  UNL     1     -33.718   7.917   4.506  1.00 20.00     0.094 C 
HETATM    5 CL8  UNL     1     -32.514   8.694   3.439  1.00 20.00    -0.124 Cl
ENDROOT
BRANCH   3   6
HETATM    6  C1  UNL     1     -33.999   5.303   4.245  1.00 20.00     0.224 C 
HETATM    7  O6  UNL     1     -34.926   4.623   4.675  1.00 20.00    -0.279 OA
HETATM    8 CL7  UNL     1     -33.184   5.081   2.727  1.00 20.00    -0.043 Cl
ENDBRANCH   3   6
TORSDOF 1
ENDMDL
MODEL 6
REMARK VINA RESULT:      -4.3      2.144      2.532
REMARK  1 active torsions:
REMARK  status: ('A' for Active; 'I' for Inactive)
REMARK    1  A    between atoms: C1_1  and  C4_4 
ROOT
HETATM    1  C2  UNL     1     -33.471   5.395   3.191  1.00 20.00     0.016 C 
HETATM    2  C3  UNL     1     -34.429   5.027   4.341  1.00 20.00     0.022 C 
HETATM    3  C4  UNL     1     -32.896   6.501   4.115  1.00 20.00     0.090 C 
HETATM    4  C5  UNL     1     -34.280   6.485   4.831  1.00 20.00     0.094 C 
HETATM    5 CL8  UNL     1     -34.342   6.805   6.586  1.00 20.00    -0.124 Cl
ENDROOT
BRANCH   3   6
HETATM    6  C1  UNL     1     -32.449   7.812   3.464  1.00 20.00     0.224 C 
HETATM    7  O6  UNL     1     -32.254   7.898   2.255  1.00 20.00    -0.279 OA
HETATM    8 CL7  UNL     1     -32.268   9.092   4.625  1.00 20.00    -0.043 Cl
ENDBRANCH   3   6
TORSDOF 1
ENDMDL
MODEL 7
REMARK VINA RESULT:      -4.3      1.749      3.030
REMARK  1 active torsions:
REMARK  status: ('A' for Active; 'I' for Inactive)
REMARK    1  A    between atoms: C1_1  and  C4_4 
ROOT
HETATM    1  C2  UNL     1     -32.710   8.530   4.875  1.00 20.00     0.016 C 
HETATM    2  C3  UNL     1     -32.352   8.187   3.416  1.00 20.00     0.022 C 
HETATM    3  C4  UNL     1     -32.970   7.017   5.096  1.00 20.00     0.090 C 
HETATM    4  C5  UNL     1     -33.257   6.944   3.567  1.00 20.00     0.094 C 
HETATM    5 CL8  UNL     1     -32.818   5.457   2.680  1.00 20.00    -0.124 Cl
ENDROOT
BRANCH   3   6
HETATM    6  C1  UNL     1     -34.101   6.620   6.049  1.00 20.00     0.224 C 
HETATM    7  O6  UNL     1     -34.471   7.363   6.954  1.00 20.00    -0.279 OA
HETATM    8 CL7  UNL     1     -34.746   5.049   5.683  1.00 20.00    -0.043 Cl
ENDBRANCH   3   6
TORSDOF 1
ENDMDL
MODEL 8
REMARK VINA RESULT:      -4.2      2.654      3.631
REMARK  1 active torsions:
REMARK  status: ('A' for Active; 'I' for Inactive)
REMARK    1  A    between atoms: C1_1  and  C4_4 
ROOT
HETATM    1  C2  UNL     1     -33.771   4.872   3.561  1.00 20.00     0.016 C 
HETATM    2  C3  UNL     1     -32.891   5.753   2.653  1.00 20.00     0.022 C 
HETATM    3  C4  UNL     1     -34.164   6.167   4.321  1.00 20.00     0.090 C 
HETATM    4  C5  UNL     1     -32.804   6.749   3.832  1.00 20.00     0.094 C 
HETATM    5 CL8  UNL     1     -32.698   8.494   3.467  1.00 20.00    -0.124 Cl
ENDROOT
BRANCH   3   6
HETATM    6  C1  UNL     1     -34.389   6.065   5.832  1.00 20.00     0.224 C 
HETATM    7  O6  UNL     1     -34.726   5.011   6.364  1.00 20.00    -0.279 OA
HETATM    8 CL7  UNL     1     -34.112   7.578   6.639  1.00 20.00    -0.043 Cl
ENDBRANCH   3   6
TORSDOF 1
ENDMDL
MODEL 9
REMARK VINA RESULT:      -4.0      2.078      2.540
REMARK  1 active torsions:
REMARK  status: ('A' for Active; 'I' for Inactive)
REMARK    1  A    between atoms: C1_1  and  C4_4 
ROOT
HETATM    1  C2  UNL     1     -32.982   5.761   2.847  1.00 20.00     0.016 C 
HETATM    2  C3  UNL     1     -33.858   4.703   3.546  1.00 20.00     0.022 C 
HETATM    3  C4  UNL     1     -33.004   6.560   4.177  1.00 20.00     0.090 C 
HETATM    4  C5  UNL     1     -34.351   5.836   4.474  1.00 20.00     0.094 C 
HETATM    5 CL8  UNL     1     -34.755   5.435   6.167  1.00 20.00    -0.124 Cl
ENDROOT
BRANCH   3   6
HETATM    6  C1  UNL     1     -33.025   8.088   4.089  1.00 20.00     0.224 C 
HETATM    7  O6  UNL     1     -32.678   8.680   3.071  1.00 20.00    -0.279 OA
HETATM    8 CL7  UNL     1     -33.582   8.822   5.562  1.00 20.00    -0.043 Cl
ENDBRANCH   3   6
TORSDOF 1
ENDMDL
