MODEL 1
REMARK VINA RESULT:      -6.3      0.000      0.000
REMARK  1 active torsions:
REMARK  status: ('A' for Active; 'I' for Inactive)
REMARK    1  A    between atoms: C8_8  and  C10_10 
ROOT
HETATM    1  C1  UNL     1     -33.306   5.336   3.346  1.00 20.00     0.028 A 
HETATM    2  C2  UNL     1     -34.158   4.620   4.176  1.00 20.00     0.120 A 
HETATM    3  C3  UNL     1     -33.504   7.125   4.956  1.00 20.00     0.029 A 
HETATM    4  C4  UNL     1     -32.989   6.613   3.763  1.00 20.00    -0.034 A 
HETATM    5  C5  UNL     1     -34.342   6.342   5.714  1.00 20.00     0.220 A 
HETATM    6  C6  UNL     1     -33.014   8.474   5.159  1.00 20.00     0.013 A 
HETATM    7  C7  UNL     1     -32.219   8.776   4.120  1.00 20.00    -0.016 A 
HETATM    8  C8  UNL     1     -32.102   7.642   3.119  1.00 20.00     0.042 A 
HETATM    9  N11 UNL     1     -34.684   5.086   5.342  1.00 20.00    -0.232 NA
HETATM   10  F12 UNL     1     -34.847   6.820   6.861  1.00 20.00    -0.183 F 
ENDROOT
BRANCH   8  11
HETATM   11  C10 UNL     1     -32.571   8.052   1.730  1.00 20.00     0.009 C 
HETATM   12  C9  UNL     1     -32.840   9.520   1.644  1.00 20.00     0.006 C 
ENDBRANCH   8  11
TORSDOF 1
ENDMDL
MODEL 2
REMARK VINA RESULT:      -4.6      1.699      2.696
REMARK  1 active torsions:
REMARK  status: ('A' for Active; 'I' for Inactive)
REMARK    1  A    between atoms: C8_8  and  C10_10 
ROOT
HETATM    1  C1  UNL     1     -34.155   7.125   5.823  1.00 20.00     0.028 A 
HETATM    2  C2  UNL     1     -34.709   5.973   6.367  1.00 20.00     0.120 A 
HETATM    3  C3  UNL     1     -33.532   5.744   3.943  1.00 20.00     0.029 A 
HETATM    4  C4  UNL     1     -33.557   6.983   4.588  1.00 20.00    -0.034 A 
HETATM    5  C5  UNL     1     -34.107   4.657   4.558  1.00 20.00     0.220 A 
HETATM    6  C6  UNL     1     -32.854   5.872   2.669  1.00 20.00     0.013 A 
HETATM    7  C7  UNL     1     -32.479   7.154   2.537  1.00 20.00    -0.016 A 
HETATM    8  C8  UNL     1     -32.879   8.010   3.724  1.00 20.00     0.042 A 
HETATM    9  N11 UNL     1     -34.700   4.749   5.772  1.00 20.00    -0.232 NA
HETATM   10  F12 UNL     1     -34.090   3.461   3.953  1.00 20.00    -0.183 F 
ENDROOT
BRANCH   8  11
HETATM   11  C10 UNL     1     -31.677   8.657   4.397  1.00 20.00     0.009 C 
HETATM   12  C9  UNL     1     -32.075   9.815   5.256  1.00 20.00     0.006 C 
ENDBRANCH   8  11
TORSDOF 1
ENDMDL
MODEL 3
REMARK VINA RESULT:      -4.6      2.572      4.481
REMARK  1 active torsions:
REMARK  status: ('A' for Active; 'I' for Inactive)
REMARK    1  A    between atoms: C8_8  and  C10_10 
ROOT
HETATM    1  C1  UNL     1     -32.992   7.866   5.098  1.00 20.00     0.028 A 
HETATM    2  C2  UNL     1     -32.522   9.011   4.469  1.00 20.00     0.120 A 
HETATM    3  C3  UNL     1     -32.759   6.785   2.952  1.00 20.00     0.029 A 
HETATM    4  C4  UNL     1     -33.108   6.744   4.304  1.00 20.00    -0.034 A 
HETATM    5  C5  UNL     1     -32.301   7.964   2.414  1.00 20.00     0.220 A 
HETATM    6  C6  UNL     1     -32.968   5.481   2.355  1.00 20.00     0.013 A 
HETATM    7  C7  UNL     1     -33.430   4.665   3.316  1.00 20.00    -0.016 A 
HETATM    8  C8  UNL     1     -33.570   5.358   4.659  1.00 20.00     0.042 A 
HETATM    9  N11 UNL     1     -32.175   9.091   3.154  1.00 20.00    -0.232 NA
HETATM   10  F12 UNL     1     -31.962   8.021   1.118  1.00 20.00    -0.183 F 
ENDROOT
BRANCH   8  11
HETATM   11  C10 UNL     1     -35.000   5.319   5.179  1.00 20.00     0.009 C 
HETATM   12  C9  UNL     1     -35.061   5.540   6.657  1.00 20.00     0.006 C 
ENDBRANCH   8  11
TORSDOF 1
ENDMDL
MODEL 4
REMARK VINA RESULT:      -4.5      2.090      3.750
REMARK  1 active torsions:
REMARK  status: ('A' for Active; 'I' for Inactive)
REMARK    1  A    between atoms: C8_8  and  C10_10 
ROOT
HETATM    1  C1  UNL     1     -33.133   6.640   3.058  1.00 20.00     0.028 A 
HETATM    2  C2  UNL     1     -32.273   7.679   2.730  1.00 20.00     0.120 A 
HETATM    3  C3  UNL     1     -33.302   7.679   5.231  1.00 20.00     0.029 A 
HETATM    4  C4  UNL     1     -33.643   6.658   4.340  1.00 20.00    -0.034 A 
HETATM    5  C5  UNL     1     -32.442   8.668   4.818  1.00 20.00     0.220 A 
HETATM    6  C6  UNL     1     -33.973   7.465   6.497  1.00 20.00     0.013 A 
HETATM    7  C7  UNL     1     -34.707   6.346   6.382  1.00 20.00    -0.016 A 
HETATM    8  C8  UNL     1     -34.593   5.706   5.011  1.00 20.00     0.042 A 
HETATM    9  N11 UNL     1     -31.914   8.688   3.572  1.00 20.00    -0.232 NA
HETATM   10  F12 UNL     1     -32.103   9.655   5.662  1.00 20.00    -0.183 F 
ENDROOT
BRANCH   8  11
HETATM   11  C10 UNL     1     -34.059   4.282   5.085  1.00 20.00     0.009 C 
HETATM   12  C9  UNL     1     -33.623   3.781   3.746  1.00 20.00     0.006 C 
ENDBRANCH   8  11
TORSDOF 1
ENDMDL
MODEL 5
REMARK VINA RESULT:      -4.5     12.140     13.214
REMARK  1 active torsions:
REMARK  status: ('A' for Active; 'I' for Inactive)
REMARK    1  A    between atoms: C8_8  and  C10_10 
ROOT
HETATM    1  C1  UNL     1     -35.456  17.813  -4.546  1.00 20.00     0.028 A 
HETATM    2  C2  UNL     1     -36.520  17.560  -5.401  1.00 20.00     0.120 A 
HETATM    3  C3  UNL     1     -34.722  15.570  -5.054  1.00 20.00     0.029 A 
HETATM    4  C4  UNL     1     -34.553  16.783  -4.382  1.00 20.00    -0.034 A 
HETATM    5  C5  UNL     1     -35.808  15.409  -5.882  1.00 20.00     0.220 A 
HETATM    6  C6  UNL     1     -33.641  14.668  -4.713  1.00 20.00     0.013 A 
HETATM    7  C7  UNL     1     -32.831  15.313  -3.858  1.00 20.00    -0.016 A 
HETATM    8  C8  UNL     1     -33.303  16.722  -3.550  1.00 20.00     0.042 A 
HETATM    9  N11 UNL     1     -36.721  16.391  -6.069  1.00 20.00    -0.232 NA
HETATM   10  F12 UNL     1     -35.986  14.250  -6.534  1.00 20.00    -0.183 F 
ENDROOT
BRANCH   8  11
HETATM   11  C10 UNL     1     -33.563  16.929  -2.064  1.00 20.00     0.009 C 
HETATM   12  C9  UNL     1     -32.620  17.925  -1.467  1.00 20.00     0.006 C 
ENDBRANCH   8  11
TORSDOF 1
ENDMDL
MODEL 6
REMARK VINA RESULT:      -4.3     12.331     13.076
REMARK  1 active torsions:
REMARK  status: ('A' for Active; 'I' for Inactive)
REMARK    1  A    between atoms: C8_8  and  C10_10 
ROOT
HETATM    1  C1  UNL     1     -33.244  16.250  -3.030  1.00 20.00     0.028 A 
HETATM    2  C2  UNL     1     -33.842  16.056  -4.268  1.00 20.00     0.120 A 
HETATM    3  C3  UNL     1     -34.731  18.136  -2.787  1.00 20.00     0.029 A 
HETATM    4  C4  UNL     1     -33.712  17.319  -2.294  1.00 20.00    -0.034 A 
HETATM    5  C5  UNL     1     -35.264  17.868  -4.025  1.00 20.00     0.220 A 
HETATM    6  C6  UNL     1     -35.035  19.173  -1.821  1.00 20.00     0.013 A 
HETATM    7  C7  UNL     1     -34.225  18.992  -0.765  1.00 20.00    -0.016 A 
HETATM    8  C8  UNL     1     -33.299  17.801  -0.931  1.00 20.00     0.042 A 
HETATM    9  N11 UNL     1     -34.834  16.833  -4.785  1.00 20.00    -0.232 NA
HETATM   10  F12 UNL     1     -36.243  18.644  -4.514  1.00 20.00    -0.183 F 
ENDROOT
BRANCH   8  11
HETATM   11  C10 UNL     1     -31.832  18.201  -0.857  1.00 20.00     0.009 C 
HETATM   12  C9  UNL     1     -31.410  18.514   0.543  1.00 20.00     0.006 C 
ENDBRANCH   8  11
TORSDOF 1
ENDMDL
MODEL 7
REMARK VINA RESULT:      -4.1     11.937     13.183
REMARK  1 active torsions:
REMARK  status: ('A' for Active; 'I' for Inactive)
REMARK    1  A    between atoms: C8_8  and  C10_10 
ROOT
HETATM    1  C1  UNL     1     -34.932  17.277  -5.737  1.00 20.00     0.028 A 
HETATM    2  C2  UNL     1     -34.756  16.083  -6.423  1.00 20.00     0.120 A 
HETATM    3  C3  UNL     1     -33.743  16.222  -3.919  1.00 20.00     0.029 A 
HETATM    4  C4  UNL     1     -34.410  17.323  -4.460  1.00 20.00    -0.034 A 
HETATM    5  C5  UNL     1     -33.616  15.080  -4.674  1.00 20.00     0.220 A 
HETATM    6  C6  UNL     1     -33.293  16.536  -2.578  1.00 20.00     0.013 A 
HETATM    7  C7  UNL     1     -33.672  17.795  -2.308  1.00 20.00    -0.016 A 
HETATM    8  C8  UNL     1     -34.416  18.446  -3.460  1.00 20.00     0.042 A 
HETATM    9  N11 UNL     1     -34.116  14.987  -5.928  1.00 20.00    -0.232 NA
HETATM   10  F12 UNL     1     -32.979  14.013  -4.168  1.00 20.00    -0.183 F 
ENDROOT
BRANCH   8  11
HETATM   11  C10 UNL     1     -35.818  18.885  -3.062  1.00 20.00     0.009 C 
HETATM   12  C9  UNL     1     -35.894  19.263  -1.617  1.00 20.00     0.006 C 
ENDBRANCH   8  11
TORSDOF 1
ENDMDL
MODEL 8
REMARK VINA RESULT:      -4.1      2.397      3.769
REMARK  1 active torsions:
REMARK  status: ('A' for Active; 'I' for Inactive)
REMARK    1  A    between atoms: C8_8  and  C10_10 
ROOT
HETATM    1  C1  UNL     1     -34.030   5.403   3.801  1.00 20.00     0.028 A 
HETATM    2  C2  UNL     1     -33.367   5.061   2.630  1.00 20.00     0.120 A 
HETATM    3  C3  UNL     1     -32.833   7.496   3.679  1.00 20.00     0.029 A 
HETATM    4  C4  UNL     1     -33.739   6.648   4.320  1.00 20.00    -0.034 A 
HETATM    5  C5  UNL     1     -32.223   7.072   2.522  1.00 20.00     0.220 A 
HETATM    6  C6  UNL     1     -32.714   8.734   4.423  1.00 20.00     0.013 A 
HETATM    7  C7  UNL     1     -33.528   8.646   5.487  1.00 20.00    -0.016 A 
HETATM    8  C8  UNL     1     -34.275   7.327   5.549  1.00 20.00     0.042 A 
HETATM    9  N11 UNL     1     -32.474   5.857   1.980  1.00 20.00    -0.232 NA
HETATM   10  F12 UNL     1     -31.349   7.874   1.895  1.00 20.00    -0.183 F 
ENDROOT
BRANCH   8  11
HETATM   11  C10 UNL     1     -33.982   6.561   6.831  1.00 20.00     0.009 C 
HETATM   12  C9  UNL     1     -34.508   5.162   6.777  1.00 20.00     0.006 C 
ENDBRANCH   8  11
TORSDOF 1
ENDMDL
MODEL 9
REMARK VINA RESULT:      -4.0      1.332      2.597
REMARK  1 active torsions:
REMARK  status: ('A' for Active; 'I' for Inactive)
REMARK    1  A    between atoms: C8_8  and  C10_10 
ROOT
HETATM    1  C1  UNL     1     -33.728   8.160   4.799  1.00 20.00     0.028 A 
HETATM    2  C2  UNL     1     -34.093   8.122   6.138  1.00 20.00     0.120 A 
HETATM    3  C3  UNL     1     -33.918   5.754   4.844  1.00 20.00     0.029 A 
HETATM    4  C4  UNL     1     -33.642   6.940   4.160  1.00 20.00    -0.034 A 
HETATM    5  C5  UNL     1     -34.271   5.813   6.171  1.00 20.00     0.220 A 
HETATM    6  C6  UNL     1     -33.759   4.627   3.947  1.00 20.00     0.013 A 
HETATM    7  C7  UNL     1     -33.401   5.111   2.748  1.00 20.00    -0.016 A 
HETATM    8  C8  UNL     1     -33.288   6.624   2.734  1.00 20.00     0.042 A 
HETATM    9  N11 UNL     1     -34.364   6.986   6.839  1.00 20.00    -0.232 NA
HETATM   10  F12 UNL     1     -34.538   4.682   6.843  1.00 20.00    -0.183 F 
ENDROOT
BRANCH   8  11
HETATM   11  C10 UNL     1     -31.893   7.093   2.346  1.00 20.00     0.009 C 
HETATM   12  C9  UNL     1     -31.934   8.162   1.301  1.00 20.00     0.006 C 
ENDBRANCH   8  11
TORSDOF 1
ENDMDL
