MODEL 1
REMARK VINA RESULT:      -5.0      0.000      0.000
REMARK  1 active torsions:
REMARK  status: ('A' for Active; 'I' for Inactive)
REMARK    1  A    between atoms: C2_2  and  C3_3 
ROOT
HETATM    1  C1  UNL     1     -33.714   5.932   3.929  1.00 20.00     0.011 C 
HETATM    2  C2  UNL     1     -33.320   7.026   4.594  1.00 20.00     0.004 C 
HETATM    3  C4  UNL     1     -34.467   4.833   4.621  1.00 20.00     0.195 C 
HETATM    4  C5  UNL     1     -33.633   7.229   6.043  1.00 20.00     0.069 C 
HETATM    5  C6  UNL     1     -34.732   6.268   6.494  1.00 20.00     0.172 C 
HETATM    6  O8  UNL     1     -34.426   4.946   6.050  1.00 20.00    -0.387 OA
ENDROOT
BRANCH   2   7
HETATM    7  C3  UNL     1     -32.584   8.060   3.868  1.00 20.00     0.248 C 
HETATM    8  O7  UNL     1     -32.273   9.102   4.456  1.00 20.00    -0.274 OA
HETATM    9 CL9  UNL     1     -32.196   7.734   2.192  1.00 20.00    -0.039 Cl
ENDBRANCH   2   7
TORSDOF 1
ENDMDL
MODEL 2
REMARK VINA RESULT:      -5.0      0.473      1.681
REMARK  1 active torsions:
REMARK  status: ('A' for Active; 'I' for Inactive)
REMARK    1  A    between atoms: C2_2  and  C3_3 
ROOT
HETATM    1  C1  UNL     1     -33.858   6.965   5.767  1.00 20.00     0.011 C 
HETATM    2  C2  UNL     1     -33.417   6.914   4.502  1.00 20.00     0.004 C 
HETATM    3  C4  UNL     1     -34.666   5.842   6.352  1.00 20.00     0.195 C 
HETATM    4  C5  UNL     1     -33.672   5.733   3.621  1.00 20.00     0.069 C 
HETATM    5  C6  UNL     1     -34.118   4.530   4.450  1.00 20.00     0.172 C 
HETATM    6  O8  UNL     1     -35.146   4.927   5.358  1.00 20.00    -0.387 OA
ENDROOT
BRANCH   2   7
HETATM    7  C3  UNL     1     -32.640   8.040   3.987  1.00 20.00     0.248 C 
HETATM    8  O7  UNL     1     -32.351   8.970   4.749  1.00 20.00    -0.274 OA
HETATM    9 CL9  UNL     1     -32.172   7.981   2.300  1.00 20.00    -0.039 Cl
ENDBRANCH   2   7
TORSDOF 1
ENDMDL
MODEL 3
REMARK VINA RESULT:      -4.9      2.209      3.801
REMARK  1 active torsions:
REMARK  status: ('A' for Active; 'I' for Inactive)
REMARK    1  A    between atoms: C2_2  and  C3_3 
ROOT
HETATM    1  C1  UNL     1     -32.984   6.339   3.291  1.00 20.00     0.011 C 
HETATM    2  C2  UNL     1     -33.593   6.487   4.476  1.00 20.00     0.004 C 
HETATM    3  C4  UNL     1     -32.251   7.481   2.648  1.00 20.00     0.195 C 
HETATM    4  C5  UNL     1     -33.548   7.775   5.234  1.00 20.00     0.069 C 
HETATM    5  C6  UNL     1     -32.450   8.684   4.685  1.00 20.00     0.172 C 
HETATM    6  O8  UNL     1     -32.542   8.743   3.261  1.00 20.00    -0.387 OA
ENDROOT
BRANCH   2   7
HETATM    7  C3  UNL     1     -34.296   5.340   5.049  1.00 20.00     0.248 C 
HETATM    8  O7  UNL     1     -34.422   4.313   4.373  1.00 20.00    -0.274 OA
HETATM    9 CL9  UNL     1     -34.915   5.517   6.678  1.00 20.00    -0.039 Cl
ENDBRANCH   2   7
TORSDOF 1
ENDMDL
MODEL 4
REMARK VINA RESULT:      -4.8      2.309      4.043
REMARK  1 active torsions:
REMARK  status: ('A' for Active; 'I' for Inactive)
REMARK    1  A    between atoms: C2_2  and  C3_3 
ROOT
HETATM    1  C1  UNL     1     -33.497   7.884   5.187  1.00 20.00     0.011 C 
HETATM    2  C2  UNL     1     -33.786   6.742   4.548  1.00 20.00     0.004 C 
HETATM    3  C4  UNL     1     -32.357   8.755   4.742  1.00 20.00     0.195 C 
HETATM    4  C5  UNL     1     -33.018   6.290   3.346  1.00 20.00     0.069 C 
HETATM    5  C6  UNL     1     -32.196   7.442   2.771  1.00 20.00     0.172 C 
HETATM    6  O8  UNL     1     -31.480   8.094   3.821  1.00 20.00    -0.387 OA
ENDROOT
BRANCH   2   7
HETATM    7  C3  UNL     1     -34.904   5.933   5.032  1.00 20.00     0.248 C 
HETATM    8  O7  UNL     1     -35.902   5.797   4.314  1.00 20.00    -0.274 OA
HETATM    9 CL9  UNL     1     -34.736   5.207   6.616  1.00 20.00    -0.039 Cl
ENDBRANCH   2   7
TORSDOF 1
ENDMDL
MODEL 5
REMARK VINA RESULT:      -4.8      1.267      1.267
REMARK  1 active torsions:
REMARK  status: ('A' for Active; 'I' for Inactive)
REMARK    1  A    between atoms: C2_2  and  C3_3 
ROOT
HETATM    1  C1  UNL     1     -33.702   5.818   3.918  1.00 20.00     0.011 C 
HETATM    2  C2  UNL     1     -33.322   6.912   4.593  1.00 20.00     0.004 C 
HETATM    3  C4  UNL     1     -34.482   4.725   4.590  1.00 20.00     0.195 C 
HETATM    4  C5  UNL     1     -33.677   7.119   6.031  1.00 20.00     0.069 C 
HETATM    5  C6  UNL     1     -34.795   6.166   6.451  1.00 20.00     0.172 C 
HETATM    6  O8  UNL     1     -34.483   4.841   6.019  1.00 20.00    -0.387 OA
ENDROOT
BRANCH   2   7
HETATM    7  C3  UNL     1     -32.559   7.939   3.886  1.00 20.00     0.248 C 
HETATM    8  O7  UNL     1     -32.265   7.760   2.699  1.00 20.00    -0.274 OA
HETATM    9 CL9  UNL     1     -32.114   9.369   4.795  1.00 20.00    -0.039 Cl
ENDBRANCH   2   7
TORSDOF 1
ENDMDL
MODEL 6
REMARK VINA RESULT:      -4.5      1.707      2.402
REMARK  1 active torsions:
REMARK  status: ('A' for Active; 'I' for Inactive)
REMARK    1  A    between atoms: C2_2  and  C3_3 
ROOT
HETATM    1  C1  UNL     1     -33.325   7.239   4.957  1.00 20.00     0.011 C 
HETATM    2  C2  UNL     1     -33.526   6.147   4.206  1.00 20.00     0.004 C 
HETATM    3  C4  UNL     1     -33.946   7.368   6.318  1.00 20.00     0.195 C 
HETATM    4  C5  UNL     1     -34.345   4.992   4.689  1.00 20.00     0.069 C 
HETATM    5  C6  UNL     1     -34.551   5.075   6.200  1.00 20.00     0.172 C 
HETATM    6  O8  UNL     1     -34.970   6.393   6.557  1.00 20.00    -0.387 OA
ENDROOT
BRANCH   2   7
HETATM    7  C3  UNL     1     -32.900   6.081   2.886  1.00 20.00     0.248 C 
HETATM    8  O7  UNL     1     -32.876   5.000   2.286  1.00 20.00    -0.274 OA
HETATM    9 CL9  UNL     1     -32.224   7.565   2.249  1.00 20.00    -0.039 Cl
ENDBRANCH   2   7
TORSDOF 1
ENDMDL
MODEL 7
REMARK VINA RESULT:      -4.3      1.638      2.063
REMARK  1 active torsions:
REMARK  status: ('A' for Active; 'I' for Inactive)
REMARK    1  A    between atoms: C2_2  and  C3_3 
ROOT
HETATM    1  C1  UNL     1     -34.279   5.370   4.579  1.00 20.00     0.011 C 
HETATM    2  C2  UNL     1     -33.436   6.307   4.124  1.00 20.00     0.004 C 
HETATM    3  C4  UNL     1     -34.931   5.501   5.926  1.00 20.00     0.195 C 
HETATM    4  C5  UNL     1     -33.126   7.542   4.909  1.00 20.00     0.069 C 
HETATM    5  C6  UNL     1     -34.150   7.741   6.025  1.00 20.00     0.172 C 
HETATM    6  O8  UNL     1     -34.328   6.516   6.738  1.00 20.00    -0.387 OA
ENDROOT
BRANCH   2   7
HETATM    7  C3  UNL     1     -32.828   6.121   2.808  1.00 20.00     0.248 C 
HETATM    8  O7  UNL     1     -32.803   4.989   2.312  1.00 20.00    -0.274 OA
HETATM    9 CL9  UNL     1     -32.172   7.543   2.024  1.00 20.00    -0.039 Cl
ENDBRANCH   2   7
TORSDOF 1
ENDMDL
MODEL 8
REMARK VINA RESULT:      -4.2      1.508      3.572
REMARK  1 active torsions:
REMARK  status: ('A' for Active; 'I' for Inactive)
REMARK    1  A    between atoms: C2_2  and  C3_3 
ROOT
HETATM    1  C1  UNL     1     -33.929   7.077   5.227  1.00 20.00     0.011 C 
HETATM    2  C2  UNL     1     -33.339   6.546   4.147  1.00 20.00     0.004 C 
HETATM    3  C4  UNL     1     -33.609   8.474   5.677  1.00 20.00     0.195 C 
HETATM    4  C5  UNL     1     -32.363   7.318   3.317  1.00 20.00     0.069 C 
HETATM    5  C6  UNL     1     -32.454   8.811   3.630  1.00 20.00     0.172 C 
HETATM    6  O8  UNL     1     -32.438   9.006   5.045  1.00 20.00    -0.387 OA
ENDROOT
BRANCH   2   7
HETATM    7  C3  UNL     1     -33.686   5.179   3.761  1.00 20.00     0.248 C 
HETATM    8  O7  UNL     1     -34.449   4.526   4.483  1.00 20.00    -0.274 OA
HETATM    9 CL9  UNL     1     -32.982   4.565   2.280  1.00 20.00    -0.039 Cl
ENDBRANCH   2   7
TORSDOF 1
ENDMDL
MODEL 9
REMARK VINA RESULT:      -3.8     15.755     16.432
REMARK  1 active torsions:
REMARK  status: ('A' for Active; 'I' for Inactive)
REMARK    1  A    between atoms: C2_2  and  C3_3 
ROOT
HETATM    1  C1  UNL     1     -24.257  17.877  10.031  1.00 20.00     0.011 C 
HETATM    2  C2  UNL     1     -23.051  18.290   9.616  1.00 20.00     0.004 C 
HETATM    3  C4  UNL     1     -24.502  17.518  11.468  1.00 20.00     0.195 C 
HETATM    4  C5  UNL     1     -21.900  18.448  10.559  1.00 20.00     0.069 C 
HETATM    5  C6  UNL     1     -22.389  18.459  12.006  1.00 20.00     0.172 C 
HETATM    6  O8  UNL     1     -23.289  17.370  12.218  1.00 20.00    -0.387 OA
ENDROOT
BRANCH   2   7
HETATM    7  C3  UNL     1     -22.872  18.620   8.203  1.00 20.00     0.248 C 
HETATM    8  O7  UNL     1     -23.824  19.093   7.571  1.00 20.00    -0.274 OA
HETATM    9 CL9  UNL     1     -21.295  18.313   7.506  1.00 20.00    -0.039 Cl
ENDBRANCH   2   7
TORSDOF 1
ENDMDL
