MODEL 1
REMARK VINA RESULT:      -4.2      0.000      0.000
REMARK  1 active torsions:
REMARK  status: ('A' for Active; 'I' for Inactive)
REMARK    1  A    between atoms: C1_1  and  C5_5 
ROOT
HETATM    1  C2  UNL     1     -34.074   7.578   6.088  1.00 20.00     0.015 C 
HETATM    2  C3  UNL     1     -34.100   6.054   6.169  1.00 20.00     0.026 C 
HETATM    3  C4  UNL     1     -33.588   6.571   3.901  1.00 20.00     0.038 C 
HETATM    4  C5  UNL     1     -33.647   7.910   4.651  1.00 20.00     0.074 C 
HETATM    5  C6  UNL     1     -34.427   5.608   4.744  1.00 20.00     0.034 C 
HETATM    6  C7  UNL     1     -35.921   5.719   4.427  1.00 20.00     0.032 C 
HETATM    7 CL10 UNL     1     -33.917   3.917   4.478  1.00 20.00    -0.120 Cl
ENDROOT
BRANCH   4   8
HETATM    8  C1  UNL     1     -32.322   8.608   4.617  1.00 20.00     0.223 C 
HETATM    9  O8  UNL     1     -32.079   9.565   5.346  1.00 20.00    -0.279 OA
HETATM   10 CL9  UNL     1     -31.241   7.904   3.454  1.00 20.00    -0.043 Cl
ENDBRANCH   4   8
TORSDOF 1
ENDMDL
MODEL 2
REMARK VINA RESULT:      -4.2      2.446      4.221
REMARK  1 active torsions:
REMARK  status: ('A' for Active; 'I' for Inactive)
REMARK    1  A    between atoms: C1_1  and  C5_5 
ROOT
HETATM    1  C2  UNL     1     -32.829   6.127   3.028  1.00 20.00     0.015 C 
HETATM    2  C3  UNL     1     -31.840   7.205   3.466  1.00 20.00     0.026 C 
HETATM    3  C4  UNL     1     -33.832   7.616   4.704  1.00 20.00     0.038 C 
HETATM    4  C5  UNL     1     -34.077   6.333   3.898  1.00 20.00     0.074 C 
HETATM    5  C6  UNL     1     -32.726   8.354   3.947  1.00 20.00     0.034 C 
HETATM    6  C7  UNL     1     -33.279   9.188   2.788  1.00 20.00     0.032 C 
HETATM    7 CL10 UNL     1     -31.819   9.438   5.039  1.00 20.00    -0.120 Cl
ENDROOT
BRANCH   4   8
HETATM    8  C1  UNL     1     -34.317   5.163   4.802  1.00 20.00     0.223 C 
HETATM    9  O8  UNL     1     -34.184   4.007   4.411  1.00 20.00    -0.279 OA
HETATM   10 CL9  UNL     1     -34.786   5.657   6.399  1.00 20.00    -0.043 Cl
ENDBRANCH   4   8
TORSDOF 1
ENDMDL
MODEL 3
REMARK VINA RESULT:      -3.8     12.650     13.564
REMARK  1 active torsions:
REMARK  status: ('A' for Active; 'I' for Inactive)
REMARK    1  A    between atoms: C1_1  and  C5_5 
ROOT
HETATM    1  C2  UNL     1     -33.028  15.861  -3.526  1.00 20.00     0.015 C 
HETATM    2  C3  UNL     1     -33.531  16.866  -2.493  1.00 20.00     0.026 C 
HETATM    3  C4  UNL     1     -34.950  17.123  -4.388  1.00 20.00     0.038 C 
HETATM    4  C5  UNL     1     -34.003  15.958  -4.708  1.00 20.00     0.074 C 
HETATM    5  C6  UNL     1     -34.220  17.948  -3.326  1.00 20.00     0.034 C 
HETATM    6  C7  UNL     1     -33.222  18.930  -3.946  1.00 20.00     0.032 C 
HETATM    7 CL10 UNL     1     -35.377  18.873  -2.328  1.00 20.00    -0.120 Cl
ENDROOT
BRANCH   4   8
HETATM    8  C1  UNL     1     -34.762  14.681  -4.902  1.00 20.00     0.223 C 
HETATM    9  O8  UNL     1     -34.650  13.739  -4.122  1.00 20.00    -0.279 OA
HETATM   10 CL9  UNL     1     -35.767  14.726  -6.317  1.00 20.00    -0.043 Cl
ENDBRANCH   4   8
TORSDOF 1
ENDMDL
MODEL 4
REMARK VINA RESULT:      -3.7     12.207     13.114
REMARK  1 active torsions:
REMARK  status: ('A' for Active; 'I' for Inactive)
REMARK    1  A    between atoms: C1_1  and  C5_5 
ROOT
HETATM    1  C2  UNL     1     -34.369  17.639  -4.656  1.00 20.00     0.015 C 
HETATM    2  C3  UNL     1     -35.451  16.621  -5.010  1.00 20.00     0.026 C 
HETATM    3  C4  UNL     1     -33.762  15.395  -3.863  1.00 20.00     0.038 C 
HETATM    4  C5  UNL     1     -33.329  16.868  -3.832  1.00 20.00     0.074 C 
HETATM    5  C6  UNL     1     -34.708  15.286  -5.061  1.00 20.00     0.034 C 
HETATM    6  C7  UNL     1     -33.950  15.091  -6.377  1.00 20.00     0.032 C 
HETATM    7 CL10 UNL     1     -35.843  13.922  -4.855  1.00 20.00    -0.120 Cl
ENDROOT
BRANCH   4   8
HETATM    8  C1  UNL     1     -33.251  17.379  -2.426  1.00 20.00     0.223 C 
HETATM    9  O8  UNL     1     -33.684  16.730  -1.478  1.00 20.00    -0.279 OA
HETATM   10 CL9  UNL     1     -32.501  18.943  -2.340  1.00 20.00    -0.043 Cl
ENDBRANCH   4   8
TORSDOF 1
ENDMDL
MODEL 5
REMARK VINA RESULT:      -3.7     12.075     12.731
REMARK  1 active torsions:
REMARK  status: ('A' for Active; 'I' for Inactive)
REMARK    1  A    between atoms: C1_1  and  C5_5 
ROOT
HETATM    1  C2  UNL     1     -33.595  18.974   0.982  1.00 20.00     0.015 C 
HETATM    2  C3  UNL     1     -34.098  17.887   0.035  1.00 20.00     0.026 C 
HETATM    3  C4  UNL     1     -31.913  18.446  -0.728  1.00 20.00     0.038 C 
HETATM    4  C5  UNL     1     -32.150  19.263   0.550  1.00 20.00     0.074 C 
HETATM    5  C6  UNL     1     -33.312  18.119  -1.255  1.00 20.00     0.034 C 
HETATM    6  C7  UNL     1     -33.893  19.263  -2.093  1.00 20.00     0.032 C 
HETATM    7 CL10 UNL     1     -33.289  16.641  -2.257  1.00 20.00    -0.120 Cl
ENDROOT
BRANCH   4   8
HETATM    8  C1  UNL     1     -31.170  18.890   1.620  1.00 20.00     0.223 C 
HETATM    9  O8  UNL     1     -30.064  18.430   1.350  1.00 20.00    -0.279 OA
HETATM   10 CL9  UNL     1     -31.796  19.187   3.212  1.00 20.00    -0.043 Cl
ENDBRANCH   4   8
TORSDOF 1
ENDMDL
MODEL 6
REMARK VINA RESULT:      -3.7      9.835     10.325
REMARK  1 active torsions:
REMARK  status: ('A' for Active; 'I' for Inactive)
REMARK    1  A    between atoms: C1_1  and  C5_5 
ROOT
HETATM    1  C2  UNL     1     -40.319  14.382   6.712  1.00 20.00     0.015 C 
HETATM    2  C3  UNL     1     -41.176  14.369   7.975  1.00 20.00     0.026 C 
HETATM    3  C4  UNL     1     -41.899  12.502   6.686  1.00 20.00     0.038 C 
HETATM    4  C5  UNL     1     -40.718  13.123   5.928  1.00 20.00     0.074 C 
HETATM    5  C6  UNL     1     -42.449  13.633   7.558  1.00 20.00     0.034 C 
HETATM    6  C7  UNL     1     -43.417  14.536   6.787  1.00 20.00     0.032 C 
HETATM    7 CL10 UNL     1     -43.301  12.982   8.986  1.00 20.00    -0.120 Cl
ENDROOT
BRANCH   4   8
HETATM    8  C1  UNL     1     -39.577  12.158   5.820  1.00 20.00     0.223 C 
HETATM    9  O8  UNL     1     -38.970  11.763   6.811  1.00 20.00    -0.279 OA
HETATM   10 CL9  UNL     1     -39.257  11.706   4.174  1.00 20.00    -0.043 Cl
ENDBRANCH   4   8
TORSDOF 1
ENDMDL
MODEL 7
REMARK VINA RESULT:      -3.7     12.511     13.467
REMARK  1 active torsions:
REMARK  status: ('A' for Active; 'I' for Inactive)
REMARK    1  A    between atoms: C1_1  and  C5_5 
ROOT
HETATM    1  C2  UNL     1     -33.664  15.528  -3.424  1.00 20.00     0.015 C 
HETATM    2  C3  UNL     1     -33.390  14.859  -4.769  1.00 20.00     0.026 C 
HETATM    3  C4  UNL     1     -34.339  16.982  -5.284  1.00 20.00     0.038 C 
HETATM    4  C5  UNL     1     -34.183  16.934  -3.758  1.00 20.00     0.074 C 
HETATM    5  C6  UNL     1     -34.386  15.517  -5.724  1.00 20.00     0.034 C 
HETATM    6  C7  UNL     1     -35.793  14.923  -5.599  1.00 20.00     0.032 C 
HETATM    7 CL10 UNL     1     -33.848  15.341  -7.418  1.00 20.00    -0.120 Cl
ENDROOT
BRANCH   4   8
HETATM    8  C1  UNL     1     -33.244  17.997  -3.276  1.00 20.00     0.223 C 
HETATM    9  O8  UNL     1     -32.923  18.945  -3.988  1.00 20.00    -0.279 OA
HETATM   10 CL9  UNL     1     -32.704  17.705  -1.652  1.00 20.00    -0.043 Cl
ENDBRANCH   4   8
TORSDOF 1
ENDMDL
MODEL 8
REMARK VINA RESULT:      -3.6     12.473     13.485
REMARK  1 active torsions:
REMARK  status: ('A' for Active; 'I' for Inactive)
REMARK    1  A    between atoms: C1_1  and  C5_5 
ROOT
HETATM    1  C2  UNL     1     -33.924  17.925  -4.370  1.00 20.00     0.015 C 
HETATM    2  C3  UNL     1     -32.992  18.730  -3.467  1.00 20.00     0.026 C 
HETATM    3  C4  UNL     1     -33.345  16.658  -2.348  1.00 20.00     0.038 C 
HETATM    4  C5  UNL     1     -34.071  16.554  -3.697  1.00 20.00     0.074 C 
HETATM    5  C6  UNL     1     -33.238  18.159  -2.071  1.00 20.00     0.034 C 
HETATM    6  C7  UNL     1     -34.511  18.718  -1.428  1.00 20.00     0.032 C 
HETATM    7 CL10 UNL     1     -31.859  18.512  -0.992  1.00 20.00    -0.120 Cl
ENDROOT
BRANCH   4   8
HETATM    8  C1  UNL     1     -33.491  15.460  -4.541  1.00 20.00     0.223 C 
HETATM    9  O8  UNL     1     -32.493  14.836  -4.191  1.00 20.00    -0.279 OA
HETATM   10 CL9  UNL     1     -34.390  15.220  -6.007  1.00 20.00    -0.043 Cl
ENDBRANCH   4   8
TORSDOF 1
ENDMDL
MODEL 9
REMARK VINA RESULT:      -3.6     12.465     12.996
REMARK  1 active torsions:
REMARK  status: ('A' for Active; 'I' for Inactive)
REMARK    1  A    between atoms: C1_1  and  C5_5 
ROOT
HETATM    1  C2  UNL     1     -31.702  18.798  -1.022  1.00 20.00     0.015 C 
HETATM    2  C3  UNL     1     -32.773  19.120  -2.061  1.00 20.00     0.026 C 
HETATM    3  C4  UNL     1     -33.885  17.900  -0.346  1.00 20.00     0.038 C 
HETATM    4  C5  UNL     1     -32.439  18.098   0.129  1.00 20.00     0.074 C 
HETATM    5  C6  UNL     1     -33.823  18.027  -1.870  1.00 20.00     0.034 C 
HETATM    6  C7  UNL     1     -33.423  16.710  -2.541  1.00 20.00     0.032 C 
HETATM    7 CL10 UNL     1     -35.400  18.542  -2.532  1.00 20.00    -0.120 Cl
ENDROOT
BRANCH   4   8
HETATM    8  C1  UNL     1     -32.389  18.908   1.388  1.00 20.00     0.223 C 
HETATM    9  O8  UNL     1     -33.411  19.258   1.972  1.00 20.00    -0.279 OA
HETATM   10 CL9  UNL     1     -30.759  19.261   1.874  1.00 20.00    -0.043 Cl
ENDBRANCH   4   8
TORSDOF 1
ENDMDL
