MODEL 1
REMARK VINA RESULT:      -5.0      0.000      0.000
REMARK  1 active torsions:
REMARK  status: ('A' for Active; 'I' for Inactive)
REMARK    1  A    between atoms: C3_3  and  C6_6 
ROOT
HETATM    1  C1  UNL     1     -32.382   8.556   1.475  1.00 20.00    -0.154 C 
HETATM    2  C5  UNL     1     -32.779   9.441   0.611  1.00 20.00     0.096 C 
HETATM    3  C6  UNL     1     -31.981   7.671   2.337  1.00 20.00     0.061 C 
ENDROOT
BRANCH   3   4
HETATM    4  C3  UNL     1     -32.874   7.062   3.277  1.00 20.00    -0.010 A 
HETATM    5  C2  UNL     1     -33.251   5.783   3.322  1.00 20.00     0.023 A 
HETATM    6  C4  UNL     1     -34.211   5.674   4.434  1.00 20.00     0.290 A 
HETATM    7  C8  UNL     1     -32.888   4.610   2.491  1.00 20.00     0.055 C 
HETATM    8  O10 UNL     1     -34.770   4.650   4.788  1.00 20.00    -0.260 OA
HETATM    9  O11 UNL     1     -34.381   6.903   4.999  1.00 20.00    -0.308 OA
HETATM   10  C7  UNL     1     -33.538   7.861   4.340  1.00 20.00     0.162 A 
HETATM   11  C9  UNL     1     -32.587   8.450   5.373  1.00 20.00     0.045 C 
ENDBRANCH   3   4
TORSDOF 1
ENDMDL
MODEL 2
REMARK VINA RESULT:      -4.1     11.740     12.870
REMARK  1 active torsions:
REMARK  status: ('A' for Active; 'I' for Inactive)
REMARK    1  A    between atoms: C3_3  and  C6_6 
ROOT
HETATM    1  C1  UNL     1     -32.625  17.859  -1.313  1.00 20.00    -0.154 C 
HETATM    2  C5  UNL     1     -31.831  18.733  -0.770  1.00 20.00     0.096 C 
HETATM    3  C6  UNL     1     -33.418  16.983  -1.851  1.00 20.00     0.061 C 
ENDROOT
BRANCH   3   4
HETATM    4  C3  UNL     1     -33.922  17.129  -3.184  1.00 20.00    -0.010 A 
HETATM    5  C2  UNL     1     -33.892  16.223  -4.163  1.00 20.00     0.023 A 
HETATM    6  C4  UNL     1     -34.487  16.871  -5.344  1.00 20.00     0.290 A 
HETATM    7  C8  UNL     1     -33.385  14.831  -4.213  1.00 20.00     0.055 C 
HETATM    8  O10 UNL     1     -34.638  16.350  -6.436  1.00 20.00    -0.260 OA
HETATM    9  O11 UNL     1     -34.833  18.150  -5.025  1.00 20.00    -0.308 OA
HETATM   10  C7  UNL     1     -34.535  18.402  -3.642  1.00 20.00     0.162 A 
HETATM   11  C9  UNL     1     -35.832  18.769  -2.934  1.00 20.00     0.045 C 
ENDBRANCH   3   4
TORSDOF 1
ENDMDL
MODEL 3
REMARK VINA RESULT:      -4.1      1.481      2.970
REMARK  1 active torsions:
REMARK  status: ('A' for Active; 'I' for Inactive)
REMARK    1  A    between atoms: C3_3  and  C6_6 
ROOT
HETATM    1  C1  UNL     1     -32.922   8.856   5.141  1.00 20.00    -0.154 C 
HETATM    2  C5  UNL     1     -31.902   9.659   5.193  1.00 20.00     0.096 C 
HETATM    3  C6  UNL     1     -33.945   8.057   5.091  1.00 20.00     0.061 C 
ENDROOT
BRANCH   3   4
HETATM    4  C3  UNL     1     -33.864   6.751   4.507  1.00 20.00    -0.010 A 
HETATM    5  C2  UNL     1     -33.119   6.376   3.465  1.00 20.00     0.023 A 
HETATM    6  C4  UNL     1     -33.427   4.956   3.227  1.00 20.00     0.290 A 
HETATM    7  C8  UNL     1     -32.158   7.117   2.614  1.00 20.00     0.055 C 
HETATM    8  O10 UNL     1     -32.932   4.261   2.356  1.00 20.00    -0.260 OA
HETATM    9  O11 UNL     1     -34.361   4.544   4.131  1.00 20.00    -0.308 OA
HETATM   10  C7  UNL     1     -34.685   5.624   5.020  1.00 20.00     0.162 A 
HETATM   11  C9  UNL     1     -34.346   5.191   6.440  1.00 20.00     0.045 C 
ENDBRANCH   3   4
TORSDOF 1
ENDMDL
MODEL 4
REMARK VINA RESULT:      -4.0     11.317     12.787
REMARK  1 active torsions:
REMARK  status: ('A' for Active; 'I' for Inactive)
REMARK    1  A    between atoms: C3_3  and  C6_6 
ROOT
HETATM    1  C1  UNL     1     -33.611  17.414  -2.445  1.00 20.00    -0.154 C 
HETATM    2  C5  UNL     1     -33.684  17.340  -1.150  1.00 20.00     0.096 C 
HETATM    3  C6  UNL     1     -33.533  17.491  -3.739  1.00 20.00     0.061 C 
ENDROOT
BRANCH   3   4
HETATM    4  C3  UNL     1     -34.452  16.807  -4.600  1.00 20.00    -0.010 A 
HETATM    5  C2  UNL     1     -34.465  15.507  -4.899  1.00 20.00     0.023 A 
HETATM    6  C4  UNL     1     -35.567  15.313  -5.857  1.00 20.00     0.290 A 
HETATM    7  C8  UNL     1     -33.608  14.378  -4.461  1.00 20.00     0.055 C 
HETATM    8  O10 UNL     1     -35.892  14.250  -6.355  1.00 20.00    -0.260 OA
HETATM    9  O11 UNL     1     -36.159  16.516  -6.104  1.00 20.00    -0.308 OA
HETATM   10  C7  UNL     1     -35.529  17.538  -5.316  1.00 20.00     0.162 A 
HETATM   11  C9  UNL     1     -36.583  18.158  -4.408  1.00 20.00     0.045 C 
ENDBRANCH   3   4
TORSDOF 1
ENDMDL
MODEL 5
REMARK VINA RESULT:      -4.0      0.924      2.503
REMARK  1 active torsions:
REMARK  status: ('A' for Active; 'I' for Inactive)
REMARK    1  A    between atoms: C3_3  and  C6_6 
ROOT
HETATM    1  C1  UNL     1     -32.243   8.190   1.794  1.00 20.00    -0.154 C 
HETATM    2  C5  UNL     1     -32.574   8.851   0.725  1.00 20.00     0.096 C 
HETATM    3  C6  UNL     1     -31.908   7.532   2.863  1.00 20.00     0.061 C 
ENDROOT
BRANCH   3   4
HETATM    4  C3  UNL     1     -32.826   6.670   3.546  1.00 20.00    -0.010 A 
HETATM    5  C2  UNL     1     -33.646   6.993   4.547  1.00 20.00     0.023 A 
HETATM    6  C4  UNL     1     -34.340   5.752   4.931  1.00 20.00     0.290 A 
HETATM    7  C8  UNL     1     -33.902   8.275   5.247  1.00 20.00     0.055 C 
HETATM    8  O10 UNL     1     -35.177   5.652   5.811  1.00 20.00    -0.260 OA
HETATM    9  O11 UNL     1     -33.890   4.729   4.149  1.00 20.00    -0.308 OA
HETATM   10  C7  UNL     1     -32.931   5.228   3.203  1.00 20.00     0.162 A 
HETATM   11  C9  UNL     1     -33.455   4.949   1.800  1.00 20.00     0.045 C 
ENDBRANCH   3   4
TORSDOF 1
ENDMDL
MODEL 6
REMARK VINA RESULT:      -3.9     10.968     12.644
REMARK  1 active torsions:
REMARK  status: ('A' for Active; 'I' for Inactive)
REMARK    1  A    between atoms: C3_3  and  C6_6 
ROOT
HETATM    1  C1  UNL     1     -34.137  18.153  -4.964  1.00 20.00    -0.154 C 
HETATM    2  C5  UNL     1     -33.750  19.016  -4.073  1.00 20.00     0.096 C 
HETATM    3  C6  UNL     1     -34.521  17.294  -5.859  1.00 20.00     0.061 C 
ENDROOT
BRANCH   3   4
HETATM    4  C3  UNL     1     -35.240  16.103  -5.513  1.00 20.00    -0.010 A 
HETATM    5  C2  UNL     1     -34.757  15.013  -4.914  1.00 20.00     0.023 A 
HETATM    6  C4  UNL     1     -35.875  14.059  -4.828  1.00 20.00     0.290 A 
HETATM    7  C8  UNL     1     -33.406  14.676  -4.405  1.00 20.00     0.055 C 
HETATM    8  O10 UNL     1     -35.820  12.946  -4.334  1.00 20.00    -0.260 OA
HETATM    9  O11 UNL     1     -36.982  14.615  -5.399  1.00 20.00    -0.308 OA
HETATM   10  C7  UNL     1     -36.679  15.947  -5.844  1.00 20.00     0.162 A 
HETATM   11  C9  UNL     1     -37.603  16.915  -5.117  1.00 20.00     0.045 C 
ENDBRANCH   3   4
TORSDOF 1
ENDMDL
MODEL 7
REMARK VINA RESULT:      -3.9     11.101     12.580
REMARK  1 active torsions:
REMARK  status: ('A' for Active; 'I' for Inactive)
REMARK    1  A    between atoms: C3_3  and  C6_6 
ROOT
HETATM    1  C1  UNL     1     -33.622  17.452  -2.367  1.00 20.00    -0.154 C 
HETATM    2  C5  UNL     1     -33.609  17.480  -1.069  1.00 20.00     0.096 C 
HETATM    3  C6  UNL     1     -33.633  17.428  -3.666  1.00 20.00     0.061 C 
ENDROOT
BRANCH   3   4
HETATM    4  C3  UNL     1     -34.303  16.400  -4.404  1.00 20.00    -0.010 A 
HETATM    5  C2  UNL     1     -35.205  16.558  -5.374  1.00 20.00     0.023 A 
HETATM    6  C4  UNL     1     -35.626  15.205  -5.773  1.00 20.00     0.290 A 
HETATM    7  C8  UNL     1     -35.780  17.770  -6.008  1.00 20.00     0.055 C 
HETATM    8  O10 UNL     1     -36.440  14.944  -6.643  1.00 20.00    -0.260 OA
HETATM    9  O11 UNL     1     -34.966  14.289  -5.009  1.00 20.00    -0.308 OA
HETATM   10  C7  UNL     1     -34.066  14.962  -4.114  1.00 20.00     0.162 A 
HETATM   11  C9  UNL     1     -32.651  14.483  -4.410  1.00 20.00     0.045 C 
ENDBRANCH   3   4
TORSDOF 1
ENDMDL
MODEL 8
REMARK VINA RESULT:      -3.8     10.497     11.693
REMARK  1 active torsions:
REMARK  status: ('A' for Active; 'I' for Inactive)
REMARK    1  A    between atoms: C3_3  and  C6_6 
ROOT
HETATM    1  C1  UNL     1     -40.075  12.159   5.350  1.00 20.00    -0.154 C 
HETATM    2  C5  UNL     1     -39.197  11.755   4.481  1.00 20.00     0.096 C 
HETATM    3  C6  UNL     1     -40.953  12.557   6.221  1.00 20.00     0.061 C 
ENDROOT
BRANCH   3   4
HETATM    4  C3  UNL     1     -41.231  13.944   6.442  1.00 20.00    -0.010 A 
HETATM    5  C2  UNL     1     -42.225  14.663   5.915  1.00 20.00     0.023 A 
HETATM    6  C4  UNL     1     -42.048  16.038   6.411  1.00 20.00     0.290 A 
HETATM    7  C8  UNL     1     -43.331  14.304   4.996  1.00 20.00     0.055 C 
HETATM    8  O10 UNL     1     -42.771  16.984   6.149  1.00 20.00    -0.260 OA
HETATM    9  O11 UNL     1     -40.940  16.088   7.205  1.00 20.00    -0.308 OA
HETATM   10  C7  UNL     1     -40.360  14.778   7.310  1.00 20.00     0.162 A 
HETATM   11  C9  UNL     1     -40.359  14.373   8.778  1.00 20.00     0.045 C 
ENDBRANCH   3   4
TORSDOF 1
ENDMDL
MODEL 9
REMARK VINA RESULT:      -3.8     10.484     11.792
REMARK  1 active torsions:
REMARK  status: ('A' for Active; 'I' for Inactive)
REMARK    1  A    between atoms: C3_3  and  C6_6 
ROOT
HETATM    1  C1  UNL     1     -39.846  12.197   5.735  1.00 20.00    -0.154 C 
HETATM    2  C5  UNL     1     -38.650  12.023   5.258  1.00 20.00     0.096 C 
HETATM    3  C6  UNL     1     -41.043  12.365   6.212  1.00 20.00     0.061 C 
ENDROOT
BRANCH   3   4
HETATM    4  C3  UNL     1     -41.592  13.667   6.451  1.00 20.00    -0.010 A 
HETATM    5  C2  UNL     1     -41.281  14.506   7.441  1.00 20.00     0.023 A 
HETATM    6  C4  UNL     1     -42.152  15.682   7.274  1.00 20.00     0.290 A 
HETATM    7  C8  UNL     1     -40.308  14.411   8.555  1.00 20.00     0.055 C 
HETATM    8  O10 UNL     1     -42.154  16.668   7.990  1.00 20.00    -0.260 OA
HETATM    9  O11 UNL     1     -42.964  15.487   6.196  1.00 20.00    -0.308 OA
HETATM   10  C7  UNL     1     -42.657  14.226   5.580  1.00 20.00     0.162 A 
HETATM   11  C9  UNL     1     -42.224  14.490   4.144  1.00 20.00     0.045 C 
ENDBRANCH   3   4
TORSDOF 1
ENDMDL
