MODEL 1
REMARK VINA RESULT:      -4.6      0.000      0.000
REMARK  1 active torsions:
REMARK  status: ('A' for Active; 'I' for Inactive)
REMARK    1  A    between atoms: C3_3  and  N9_9 
ROOT
HETATM    1  C1  UNL     1     -33.374   5.262   3.258  1.00 20.00     0.096 C 
HETATM    2  C2  UNL     1     -33.870   5.755   4.497  1.00 20.00     0.040 A 
HETATM    3  C3  UNL     1     -33.946   6.999   5.022  1.00 20.00     0.005 A 
HETATM    4  C4  UNL     1     -34.499   5.074   5.683  1.00 20.00     0.057 A 
HETATM    5  C5  UNL     1     -34.592   6.471   6.306  1.00 20.00     0.057 A 
HETATM    6  N8  UNL     1     -32.969   4.860   2.248  1.00 20.00    -0.192 NA
ENDROOT
BRANCH   3   7
HETATM    7  N9  UNL     1     -33.642   8.242   4.707  1.00 20.00    -0.283 NA
HETATM    8  C6  UNL     1     -32.283   8.706   5.037  1.00 20.00     0.110 A 
HETATM    9  C7  UNL     1     -32.660   8.440   3.629  1.00 20.00     0.110 A 
ENDBRANCH   3   7
TORSDOF 1
ENDMDL
MODEL 2
REMARK VINA RESULT:      -4.5      1.477      3.571
REMARK  1 active torsions:
REMARK  status: ('A' for Active; 'I' for Inactive)
REMARK    1  A    between atoms: C3_3  and  N9_9 
ROOT
HETATM    1  C1  UNL     1     -32.423   8.393   4.435  1.00 20.00     0.096 C 
HETATM    2  C2  UNL     1     -32.831   7.159   3.855  1.00 20.00     0.040 A 
HETATM    3  C3  UNL     1     -33.798   6.271   4.180  1.00 20.00     0.005 A 
HETATM    4  C4  UNL     1     -32.339   6.387   2.661  1.00 20.00     0.057 A 
HETATM    5  C5  UNL     1     -33.422   5.359   3.009  1.00 20.00     0.057 A 
HETATM    6  N8  UNL     1     -32.091   9.398   4.909  1.00 20.00    -0.192 NA
ENDROOT
BRANCH   3   7
HETATM    7  N9  UNL     1     -34.743   6.101   5.083  1.00 20.00    -0.283 NA
HETATM    8  C6  UNL     1     -34.530   5.047   6.089  1.00 20.00     0.110 A 
HETATM    9  C7  UNL     1     -34.422   6.474   6.470  1.00 20.00     0.110 A 
ENDBRANCH   3   7
TORSDOF 1
ENDMDL
MODEL 3
REMARK VINA RESULT:      -4.5      1.075      2.864
REMARK  1 active torsions:
REMARK  status: ('A' for Active; 'I' for Inactive)
REMARK    1  A    between atoms: C3_3  and  N9_9 
ROOT
HETATM    1  C1  UNL     1     -32.866   5.877   2.978  1.00 20.00     0.096 C 
HETATM    2  C2  UNL     1     -32.906   6.976   3.882  1.00 20.00     0.040 A 
HETATM    3  C3  UNL     1     -33.650   7.228   4.983  1.00 20.00     0.005 A 
HETATM    4  C4  UNL     1     -32.132   8.265   3.949  1.00 20.00     0.057 A 
HETATM    5  C5  UNL     1     -32.965   8.580   5.197  1.00 20.00     0.057 A 
HETATM    6  N8  UNL     1     -32.834   4.982   2.241  1.00 20.00    -0.192 NA
ENDROOT
BRANCH   3   7
HETATM    7  N9  UNL     1     -34.600   6.666   5.703  1.00 20.00    -0.283 NA
HETATM    8  C6  UNL     1     -35.161   5.399   5.204  1.00 20.00     0.110 A 
HETATM    9  C7  UNL     1     -34.268   5.405   6.387  1.00 20.00     0.110 A 
ENDBRANCH   3   7
TORSDOF 1
ENDMDL
MODEL 4
REMARK VINA RESULT:      -4.4      1.106      3.146
REMARK  1 active torsions:
REMARK  status: ('A' for Active; 'I' for Inactive)
REMARK    1  A    between atoms: C3_3  and  N9_9 
ROOT
HETATM    1  C1  UNL     1     -32.877   8.316   4.798  1.00 20.00     0.096 C 
HETATM    2  C2  UNL     1     -33.657   7.253   5.334  1.00 20.00     0.040 A 
HETATM    3  C3  UNL     1     -34.179   6.134   4.782  1.00 20.00     0.005 A 
HETATM    4  C4  UNL     1     -34.188   6.979   6.715  1.00 20.00     0.057 A 
HETATM    5  C5  UNL     1     -34.797   5.706   6.116  1.00 20.00     0.057 A 
HETATM    6  N8  UNL     1     -32.242   9.183   4.361  1.00 20.00    -0.192 NA
ENDROOT
BRANCH   3   7
HETATM    7  N9  UNL     1     -34.234   5.519   3.617  1.00 20.00    -0.283 NA
HETATM    8  C6  UNL     1     -32.968   5.366   2.879  1.00 20.00     0.110 A 
HETATM    9  C7  UNL     1     -33.601   4.193   3.527  1.00 20.00     0.110 A 
ENDBRANCH   3   7
TORSDOF 1
ENDMDL
MODEL 5
REMARK VINA RESULT:      -4.0     15.428     16.129
REMARK  1 active torsions:
REMARK  status: ('A' for Active; 'I' for Inactive)
REMARK    1  A    between atoms: C3_3  and  N9_9 
ROOT
HETATM    1  C1  UNL     1     -22.243  17.460   8.971  1.00 20.00     0.096 C 
HETATM    2  C2  UNL     1     -23.401  18.194   9.352  1.00 20.00     0.040 A 
HETATM    3  C3  UNL     1     -24.126  18.230  10.494  1.00 20.00     0.005 A 
HETATM    4  C4  UNL     1     -24.247  19.206   8.628  1.00 20.00     0.057 A 
HETATM    5  C5  UNL     1     -25.091  19.263   9.906  1.00 20.00     0.057 A 
HETATM    6  N8  UNL     1     -21.299  16.861   8.659  1.00 20.00    -0.192 NA
ENDROOT
BRANCH   3   7
HETATM    7  N9  UNL     1     -24.141  17.680  11.692  1.00 20.00    -0.283 NA
HETATM    8  C6  UNL     1     -25.449  17.256  12.219  1.00 20.00     0.110 A 
HETATM    9  C7  UNL     1     -24.464  16.245  11.767  1.00 20.00     0.110 A 
ENDBRANCH   3   7
TORSDOF 1
ENDMDL
MODEL 6
REMARK VINA RESULT:      -3.8     12.431     13.508
REMARK  1 active torsions:
REMARK  status: ('A' for Active; 'I' for Inactive)
REMARK    1  A    between atoms: C3_3  and  N9_9 
ROOT
HETATM    1  C1  UNL     1     -35.363  14.840  -6.188  1.00 20.00     0.096 C 
HETATM    2  C2  UNL     1     -34.540  15.275  -5.112  1.00 20.00     0.040 A 
HETATM    3  C3  UNL     1     -34.341  16.486  -4.544  1.00 20.00     0.005 A 
HETATM    4  C4  UNL     1     -33.588  14.546  -4.202  1.00 20.00     0.057 A 
HETATM    5  C5  UNL     1     -33.337  15.907  -3.544  1.00 20.00     0.057 A 
HETATM    6  N8  UNL     1     -36.034  14.486  -7.066  1.00 20.00    -0.192 NA
ENDROOT
BRANCH   3   7
HETATM    7  N9  UNL     1     -34.748  17.734  -4.671  1.00 20.00    -0.283 NA
HETATM    8  C6  UNL     1     -36.185  17.994  -4.480  1.00 20.00     0.110 A 
HETATM    9  C7  UNL     1     -35.206  18.417  -3.451  1.00 20.00     0.110 A 
ENDBRANCH   3   7
TORSDOF 1
ENDMDL
MODEL 7
REMARK VINA RESULT:      -3.7      1.743      2.638
REMARK  1 active torsions:
REMARK  status: ('A' for Active; 'I' for Inactive)
REMARK    1  A    between atoms: C3_3  and  N9_9 
ROOT
HETATM    1  C1  UNL     1     -34.367   5.804   4.981  1.00 20.00     0.096 C 
HETATM    2  C2  UNL     1     -33.730   7.076   5.037  1.00 20.00     0.040 A 
HETATM    3  C3  UNL     1     -32.735   7.632   4.310  1.00 20.00     0.005 A 
HETATM    4  C4  UNL     1     -33.931   8.275   5.924  1.00 20.00     0.057 A 
HETATM    5  C5  UNL     1     -32.801   8.929   5.121  1.00 20.00     0.057 A 
HETATM    6  N8  UNL     1     -34.886   4.767   4.936  1.00 20.00    -0.192 NA
ENDROOT
BRANCH   3   7
HETATM    7  N9  UNL     1     -31.938   7.333   3.304  1.00 20.00    -0.283 NA
HETATM    8  C6  UNL     1     -32.463   6.411   2.282  1.00 20.00     0.110 A 
HETATM    9  C7  UNL     1     -32.308   7.853   1.977  1.00 20.00     0.110 A 
ENDBRANCH   3   7
TORSDOF 1
ENDMDL
MODEL 8
REMARK VINA RESULT:      -3.7      1.449      2.780
REMARK  1 active torsions:
REMARK  status: ('A' for Active; 'I' for Inactive)
REMARK    1  A    between atoms: C3_3  and  N9_9 
ROOT
HETATM    1  C1  UNL     1     -34.217   6.358   5.687  1.00 20.00     0.096 C 
HETATM    2  C2  UNL     1     -33.696   5.950   4.427  1.00 20.00     0.040 A 
HETATM    3  C3  UNL     1     -32.809   6.517   3.578  1.00 20.00     0.005 A 
HETATM    4  C4  UNL     1     -33.936   4.734   3.574  1.00 20.00     0.057 A 
HETATM    5  C5  UNL     1     -32.939   5.355   2.589  1.00 20.00     0.057 A 
HETATM    6  N8  UNL     1     -34.642   6.690   6.714  1.00 20.00    -0.192 NA
ENDROOT
BRANCH   3   7
HETATM    7  N9  UNL     1     -32.061   7.598   3.480  1.00 20.00    -0.283 NA
HETATM    8  C6  UNL     1     -32.742   8.856   3.127  1.00 20.00     0.110 A 
HETATM    9  C7  UNL     1     -32.247   8.637   4.507  1.00 20.00     0.110 A 
ENDBRANCH   3   7
TORSDOF 1
ENDMDL
MODEL 9
REMARK VINA RESULT:      -3.7      9.342     10.303
REMARK  1 active torsions:
REMARK  status: ('A' for Active; 'I' for Inactive)
REMARK    1  A    between atoms: C3_3  and  N9_9 
ROOT
HETATM    1  C1  UNL     1     -41.553  13.809   4.408  1.00 20.00     0.096 C 
HETATM    2  C2  UNL     1     -40.641  13.019   5.164  1.00 20.00     0.040 A 
HETATM    3  C3  UNL     1     -40.479  12.831   6.493  1.00 20.00     0.005 A 
HETATM    4  C4  UNL     1     -39.522  12.097   4.763  1.00 20.00     0.057 A 
HETATM    5  C5  UNL     1     -39.310  11.870   6.264  1.00 20.00     0.057 A 
HETATM    6  N8  UNL     1     -42.296  14.453   3.792  1.00 20.00    -0.192 NA
ENDROOT
BRANCH   3   7
HETATM    7  N9  UNL     1     -41.006  13.226   7.635  1.00 20.00    -0.283 NA
HETATM    8  C6  UNL     1     -40.301  14.291   8.368  1.00 20.00     0.110 A 
HETATM    9  C7  UNL     1     -41.580  14.581   7.677  1.00 20.00     0.110 A 
ENDBRANCH   3   7
TORSDOF 1
ENDMDL
