MODEL 1
REMARK VINA RESULT:      -4.4      0.000      0.000
REMARK  2 active torsions:
REMARK  status: ('A' for Active; 'I' for Inactive)
REMARK    1  A    between atoms: C1_1  and  C4_4 
REMARK    2  A    between atoms: C1_1  and  C5_5 
ROOT
HETATM    1  C1  UNL     1     -34.046   6.877   5.420  1.00 20.00     0.144 C 
HETATM    2  O6  UNL     1     -33.647   6.842   6.584  1.00 20.00    -0.296 OA
ENDROOT
BRANCH   1   3
HETATM    3  C4  UNL     1     -33.616   7.948   4.515  1.00 20.00     0.056 A 
HETATM    4  C2  UNL     1     -32.365   8.722   4.827  1.00 20.00     0.013 A 
HETATM    5  C3  UNL     1     -32.378   7.756   3.681  1.00 20.00     0.013 A 
ENDBRANCH   1   3
BRANCH   1   6
HETATM    6  C5  UNL     1     -34.985   5.853   4.826  1.00 20.00     0.193 C 
HETATM    7 CL7  UNL     1     -34.102   4.393   4.356  1.00 20.00    -0.123 Cl
ENDBRANCH   1   6
TORSDOF 2
ENDMDL
MODEL 2
REMARK VINA RESULT:      -4.2      2.454      3.031
REMARK  2 active torsions:
REMARK  status: ('A' for Active; 'I' for Inactive)
REMARK    1  A    between atoms: C1_1  and  C4_4 
REMARK    2  A    between atoms: C1_1  and  C5_5 
ROOT
HETATM    1  C1  UNL     1     -33.899   5.243   4.115  1.00 20.00     0.144 C 
HETATM    2  O6  UNL     1     -34.090   4.070   4.438  1.00 20.00    -0.296 OA
ENDROOT
BRANCH   1   3
HETATM    3  C4  UNL     1     -34.427   6.338   4.935  1.00 20.00     0.056 A 
HETATM    4  C2  UNL     1     -34.896   6.054   6.336  1.00 20.00     0.013 A 
HETATM    5  C3  UNL     1     -33.630   6.825   6.116  1.00 20.00     0.013 A 
ENDBRANCH   1   3
BRANCH   1   6
HETATM    6  C5  UNL     1     -33.124   5.656   2.886  1.00 20.00     0.193 C 
HETATM    7 CL7  UNL     1     -32.316   7.210   3.149  1.00 20.00    -0.123 Cl
ENDBRANCH   1   6
TORSDOF 2
ENDMDL
MODEL 3
REMARK VINA RESULT:      -4.2      2.456      3.463
REMARK  2 active torsions:
REMARK  status: ('A' for Active; 'I' for Inactive)
REMARK    1  A    between atoms: C1_1  and  C4_4 
REMARK    2  A    between atoms: C1_1  and  C5_5 
ROOT
HETATM    1  C1  UNL     1     -33.267   6.493   3.785  1.00 20.00     0.144 C 
HETATM    2  O6  UNL     1     -33.236   5.433   3.159  1.00 20.00    -0.296 OA
ENDROOT
BRANCH   1   3
HETATM    3  C4  UNL     1     -34.272   6.713   4.830  1.00 20.00     0.056 A 
HETATM    4  C2  UNL     1     -35.153   5.572   5.261  1.00 20.00     0.013 A 
HETATM    5  C3  UNL     1     -34.082   6.076   6.181  1.00 20.00     0.013 A 
ENDBRANCH   1   3
BRANCH   1   6
HETATM    6  C5  UNL     1     -32.302   7.632   3.551  1.00 20.00     0.193 C 
HETATM    7 CL7  UNL     1     -32.400   8.815   4.864  1.00 20.00    -0.123 Cl
ENDBRANCH   1   6
TORSDOF 2
ENDMDL
MODEL 4
REMARK VINA RESULT:      -4.2      1.691      3.042
REMARK  2 active torsions:
REMARK  status: ('A' for Active; 'I' for Inactive)
REMARK    1  A    between atoms: C1_1  and  C4_4 
REMARK    2  A    between atoms: C1_1  and  C5_5 
ROOT
HETATM    1  C1  UNL     1     -33.656   7.356   5.447  1.00 20.00     0.144 C 
HETATM    2  O6  UNL     1     -34.091   7.521   6.587  1.00 20.00    -0.296 OA
ENDROOT
BRANCH   1   3
HETATM    3  C4  UNL     1     -34.020   6.164   4.674  1.00 20.00     0.056 A 
HETATM    4  C2  UNL     1     -34.612   4.976   5.383  1.00 20.00     0.013 A 
HETATM    5  C3  UNL     1     -35.474   5.819   4.492  1.00 20.00     0.013 A 
ENDBRANCH   1   3
BRANCH   1   6
HETATM    6  C5  UNL     1     -32.739   8.335   4.751  1.00 20.00     0.193 C 
HETATM    7 CL7  UNL     1     -32.096   7.636   3.257  1.00 20.00    -0.123 Cl
ENDBRANCH   1   6
TORSDOF 2
ENDMDL
MODEL 5
REMARK VINA RESULT:      -4.1      1.547      2.903
REMARK  2 active torsions:
REMARK  status: ('A' for Active; 'I' for Inactive)
REMARK    1  A    between atoms: C1_1  and  C4_4 
REMARK    2  A    between atoms: C1_1  and  C5_5 
ROOT
HETATM    1  C1  UNL     1     -33.408   7.547   4.837  1.00 20.00     0.144 C 
HETATM    2  O6  UNL     1     -33.817   8.439   5.580  1.00 20.00    -0.296 OA
ENDROOT
BRANCH   1   3
HETATM    3  C4  UNL     1     -33.840   6.158   5.029  1.00 20.00     0.056 A 
HETATM    4  C2  UNL     1     -34.757   5.821   6.173  1.00 20.00     0.013 A 
HETATM    5  C3  UNL     1     -35.275   5.790   4.767  1.00 20.00     0.013 A 
ENDBRANCH   1   3
BRANCH   1   6
HETATM    6  C5  UNL     1     -32.456   7.786   3.689  1.00 20.00     0.193 C 
HETATM    7 CL7  UNL     1     -32.414   6.384   2.608  1.00 20.00    -0.123 Cl
ENDBRANCH   1   6
TORSDOF 2
ENDMDL
MODEL 6
REMARK VINA RESULT:      -4.1      2.124      3.227
REMARK  2 active torsions:
REMARK  status: ('A' for Active; 'I' for Inactive)
REMARK    1  A    between atoms: C1_1  and  C4_4 
REMARK    2  A    between atoms: C1_1  and  C5_5 
ROOT
HETATM    1  C1  UNL     1     -33.560   7.222   4.575  1.00 20.00     0.144 C 
HETATM    2  O6  UNL     1     -33.320   8.306   5.107  1.00 20.00    -0.296 OA
ENDROOT
BRANCH   1   3
HETATM    3  C4  UNL     1     -34.691   6.403   5.025  1.00 20.00     0.056 A 
HETATM    4  C2  UNL     1     -34.616   4.906   4.899  1.00 20.00     0.013 A 
HETATM    5  C3  UNL     1     -34.537   5.546   6.252  1.00 20.00     0.013 A 
ENDBRANCH   1   3
BRANCH   1   6
HETATM    6  C5  UNL     1     -32.744   6.648   3.440  1.00 20.00     0.193 C 
HETATM    7 CL7  UNL     1     -32.177   7.933   2.363  1.00 20.00    -0.123 Cl
ENDBRANCH   1   6
TORSDOF 2
ENDMDL
MODEL 7
REMARK VINA RESULT:      -3.8      1.608      1.668
REMARK  2 active torsions:
REMARK  status: ('A' for Active; 'I' for Inactive)
REMARK    1  A    between atoms: C1_1  and  C4_4 
REMARK    2  A    between atoms: C1_1  and  C5_5 
ROOT
HETATM    1  C1  UNL     1     -33.869   6.744   4.684  1.00 20.00     0.144 C 
HETATM    2  O6  UNL     1     -34.087   5.762   3.974  1.00 20.00    -0.296 OA
ENDROOT
BRANCH   1   3
HETATM    3  C4  UNL     1     -33.356   7.988   4.100  1.00 20.00     0.056 A 
HETATM    4  C2  UNL     1     -32.341   8.798   4.859  1.00 20.00     0.013 A 
HETATM    5  C3  UNL     1     -31.927   8.047   3.630  1.00 20.00     0.013 A 
ENDBRANCH   1   3
BRANCH   1   6
HETATM    6  C5  UNL     1     -34.104   6.767   6.176  1.00 20.00     0.193 C 
HETATM    7 CL7  UNL     1     -34.746   5.214   6.733  1.00 20.00    -0.123 Cl
ENDBRANCH   1   6
TORSDOF 2
ENDMDL
MODEL 8
REMARK VINA RESULT:      -3.8      1.865      1.979
REMARK  2 active torsions:
REMARK  status: ('A' for Active; 'I' for Inactive)
REMARK    1  A    between atoms: C1_1  and  C4_4 
REMARK    2  A    between atoms: C1_1  and  C5_5 
ROOT
HETATM    1  C1  UNL     1     -33.595   6.148   4.112  1.00 20.00     0.144 C 
HETATM    2  O6  UNL     1     -33.068   5.925   3.022  1.00 20.00    -0.296 OA
ENDROOT
BRANCH   1   3
HETATM    3  C4  UNL     1     -33.111   7.236   4.967  1.00 20.00     0.056 A 
HETATM    4  C2  UNL     1     -32.251   8.318   4.371  1.00 20.00     0.013 A 
HETATM    5  C3  UNL     1     -33.661   8.624   4.776  1.00 20.00     0.013 A 
ENDBRANCH   1   3
BRANCH   1   6
HETATM    6  C5  UNL     1     -34.758   5.352   4.658  1.00 20.00     0.193 C 
HETATM    7 CL7  UNL     1     -34.793   5.427   6.426  1.00 20.00    -0.123 Cl
ENDBRANCH   1   6
TORSDOF 2
ENDMDL
MODEL 9
REMARK VINA RESULT:      -3.8      1.248      1.549
REMARK  2 active torsions:
REMARK  status: ('A' for Active; 'I' for Inactive)
REMARK    1  A    between atoms: C1_1  and  C4_4 
REMARK    2  A    between atoms: C1_1  and  C5_5 
ROOT
HETATM    1  C1  UNL     1     -33.633   7.555   5.102  1.00 20.00     0.144 C 
HETATM    2  O6  UNL     1     -34.069   8.295   5.984  1.00 20.00    -0.296 OA
ENDROOT
BRANCH   1   3
HETATM    3  C4  UNL     1     -32.437   7.926   4.339  1.00 20.00     0.056 A 
HETATM    4  C2  UNL     1     -32.196   7.302   2.992  1.00 20.00     0.013 A 
HETATM    5  C3  UNL     1     -32.587   8.746   3.086  1.00 20.00     0.013 A 
ENDBRANCH   1   3
BRANCH   1   6
HETATM    6  C5  UNL     1     -34.265   6.233   4.732  1.00 20.00     0.193 C 
HETATM    7 CL7  UNL     1     -34.683   5.310   6.184  1.00 20.00    -0.123 Cl
ENDBRANCH   1   6
TORSDOF 2
ENDMDL
