MODEL 1
REMARK VINA RESULT:      -5.6      0.000      0.000
REMARK  2 active torsions:
REMARK  status: ('A' for Active; 'I' for Inactive)
REMARK    1  A    between atoms: C4_4  and  O11_11 
REMARK    2  A    between atoms: C10_10  and  O11_11 
ROOT
HETATM    1  C1  UNL     1     -33.845   6.995   5.172  1.00 20.00    -0.075 C 
HETATM    2  C2  UNL     1     -33.172   6.783   4.047  1.00 20.00    -0.049 C 
HETATM    3  C5  UNL     1     -34.789   5.910   5.499  1.00 20.00     0.034 C 
HETATM    4  C6  UNL     1     -33.585   8.317   5.768  1.00 20.00     0.037 C 
HETATM    5  C7  UNL     1     -33.524   5.512   3.388  1.00 20.00     0.037 C 
HETATM    6  C8  UNL     1     -34.378   4.829   4.477  1.00 20.00     0.009 C 
HETATM    7  C9  UNL     1     -32.389   8.810   4.920  1.00 20.00     0.041 C 
HETATM    8  C10 UNL     1     -32.309   7.915   3.663  1.00 20.00     0.157 C 
ENDROOT
BRANCH   8   9
HETATM    9  O11 UNL     1     -32.848   8.595   2.542  1.00 20.00    -0.354 OA
BRANCH   9  10
HETATM   10  C4  UNL     1     -32.232   8.364   1.387  1.00 20.00     0.125 C 
HETATM   11  C3  UNL     1     -32.525   8.964   0.231  1.00 20.00     0.037 C 
ENDBRANCH   9  10
ENDBRANCH   8   9
TORSDOF 2
ENDMDL
MODEL 2
REMARK VINA RESULT:      -4.2     11.188     11.905
REMARK  2 active torsions:
REMARK  status: ('A' for Active; 'I' for Inactive)
REMARK    1  A    between atoms: C4_4  and  O11_11 
REMARK    2  A    between atoms: C10_10  and  O11_11 
ROOT
HETATM    1  C1  UNL     1     -32.964  18.867   0.998  1.00 20.00    -0.075 C 
HETATM    2  C2  UNL     1     -32.447  18.577  -0.190  1.00 20.00    -0.049 C 
HETATM    3  C5  UNL     1     -31.957  18.921   2.074  1.00 20.00     0.034 C 
HETATM    4  C6  UNL     1     -34.436  18.945   0.992  1.00 20.00     0.037 C 
HETATM    5  C7  UNL     1     -30.987  18.379  -0.158  1.00 20.00     0.037 C 
HETATM    6  C8  UNL     1     -30.644  18.868   1.265  1.00 20.00     0.009 C 
HETATM    7  C9  UNL     1     -34.742  18.906  -0.523  1.00 20.00     0.041 C 
HETATM    8  C10 UNL     1     -33.466  18.416  -1.244  1.00 20.00     0.157 C 
ENDROOT
BRANCH   8   9
HETATM    9  O11 UNL     1     -33.599  17.052  -1.604  1.00 20.00    -0.354 OA
BRANCH   9  10
HETATM   10  C4  UNL     1     -33.188  16.744  -2.830  1.00 20.00     0.125 C 
HETATM   11  C3  UNL     1     -33.558  15.657  -3.511  1.00 20.00     0.037 C 
ENDBRANCH   9  10
ENDBRANCH   8   9
TORSDOF 2
ENDMDL
MODEL 3
REMARK VINA RESULT:      -4.0      1.720      4.377
REMARK  2 active torsions:
REMARK  status: ('A' for Active; 'I' for Inactive)
REMARK    1  A    between atoms: C4_4  and  O11_11 
REMARK    2  A    between atoms: C10_10  and  O11_11 
ROOT
HETATM    1  C1  UNL     1     -32.502   7.624   3.153  1.00 20.00    -0.075 C 
HETATM    2  C2  UNL     1     -32.975   7.059   4.258  1.00 20.00    -0.049 C 
HETATM    3  C5  UNL     1     -32.193   9.055   3.318  1.00 20.00     0.034 C 
HETATM    4  C6  UNL     1     -32.509   6.722   1.987  1.00 20.00     0.037 C 
HETATM    5  C7  UNL     1     -33.081   7.995   5.392  1.00 20.00     0.037 C 
HETATM    6  C8  UNL     1     -32.319   9.221   4.847  1.00 20.00     0.009 C 
HETATM    7  C9  UNL     1     -32.845   5.364   2.646  1.00 20.00     0.041 C 
HETATM    8  C10 UNL     1     -33.386   5.656   4.064  1.00 20.00     0.157 C 
ENDROOT
BRANCH   8   9
HETATM    9  O11 UNL     1     -34.798   5.542   4.082  1.00 20.00    -0.354 OA
BRANCH   9  10
HETATM   10  C4  UNL     1     -35.336   5.317   5.277  1.00 20.00     0.125 C 
HETATM   11  C3  UNL     1     -34.646   5.074   6.394  1.00 20.00     0.037 C 
ENDBRANCH   9  10
ENDBRANCH   8   9
TORSDOF 2
ENDMDL
MODEL 4
REMARK VINA RESULT:      -4.0      1.820      3.385
REMARK  2 active torsions:
REMARK  status: ('A' for Active; 'I' for Inactive)
REMARK    1  A    between atoms: C4_4  and  O11_11 
REMARK    2  A    between atoms: C10_10  and  O11_11 
ROOT
HETATM    1  C1  UNL     1     -33.423   7.577   5.515  1.00 20.00    -0.075 C 
HETATM    2  C2  UNL     1     -33.651   7.146   4.280  1.00 20.00    -0.049 C 
HETATM    3  C5  UNL     1     -32.511   8.733   5.570  1.00 20.00     0.034 C 
HETATM    4  C6  UNL     1     -34.036   6.728   6.553  1.00 20.00     0.037 C 
HETATM    5  C7  UNL     1     -32.938   7.924   3.251  1.00 20.00     0.037 C 
HETATM    6  C8  UNL     1     -32.415   9.117   4.078  1.00 20.00     0.009 C 
HETATM    7  C9  UNL     1     -34.936   5.800   5.703  1.00 20.00     0.041 C 
HETATM    8  C10 UNL     1     -34.476   5.924   4.233  1.00 20.00     0.157 C 
ENDROOT
BRANCH   8   9
HETATM    9  O11 UNL     1     -33.688   4.804   3.869  1.00 20.00    -0.354 OA
BRANCH   9  10
HETATM   10  C4  UNL     1     -32.859   4.999   2.848  1.00 20.00     0.125 C 
HETATM   11  C3  UNL     1     -32.868   4.300   1.711  1.00 20.00     0.037 C 
ENDBRANCH   9  10
ENDBRANCH   8   9
TORSDOF 2
ENDMDL
MODEL 5
REMARK VINA RESULT:      -3.9     11.041     12.513
REMARK  2 active torsions:
REMARK  status: ('A' for Active; 'I' for Inactive)
REMARK    1  A    between atoms: C4_4  and  O11_11 
REMARK    2  A    between atoms: C10_10  and  O11_11 
ROOT
HETATM    1  C1  UNL     1     -34.842  15.223  -5.065  1.00 20.00    -0.075 C 
HETATM    2  C2  UNL     1     -34.795  16.542  -4.924  1.00 20.00    -0.049 C 
HETATM    3  C5  UNL     1     -35.963  14.767  -5.906  1.00 20.00     0.034 C 
HETATM    4  C6  UNL     1     -33.839  14.512  -4.251  1.00 20.00     0.037 C 
HETATM    5  C7  UNL     1     -35.874  17.244  -5.642  1.00 20.00     0.037 C 
HETATM    6  C8  UNL     1     -36.466  16.102  -6.494  1.00 20.00     0.009 C 
HETATM    7  C9  UNL     1     -32.956  15.681  -3.756  1.00 20.00     0.041 C 
HETATM    8  C10 UNL     1     -33.740  16.991  -3.996  1.00 20.00     0.157 C 
ENDROOT
BRANCH   8   9
HETATM    9  O11 UNL     1     -34.307  17.452  -2.782  1.00 20.00    -0.354 OA
BRANCH   9  10
HETATM   10  C4  UNL     1     -33.598  17.193  -1.688  1.00 20.00     0.125 C 
HETATM   11  C3  UNL     1     -33.681  17.873  -0.542  1.00 20.00     0.037 C 
ENDBRANCH   9  10
ENDBRANCH   8   9
TORSDOF 2
ENDMDL
MODEL 6
REMARK VINA RESULT:      -3.9     11.392     12.400
REMARK  2 active torsions:
REMARK  status: ('A' for Active; 'I' for Inactive)
REMARK    1  A    between atoms: C4_4  and  O11_11 
REMARK    2  A    between atoms: C10_10  and  O11_11 
ROOT
HETATM    1  C1  UNL     1     -34.501  17.812  -3.315  1.00 20.00    -0.075 C 
HETATM    2  C2  UNL     1     -33.649  17.034  -2.658  1.00 20.00    -0.049 C 
HETATM    3  C5  UNL     1     -34.767  17.354  -4.691  1.00 20.00     0.034 C 
HETATM    4  C6  UNL     1     -34.888  19.019  -2.563  1.00 20.00     0.037 C 
HETATM    5  C7  UNL     1     -33.169  15.892  -3.457  1.00 20.00     0.037 C 
HETATM    6  C8  UNL     1     -34.106  15.960  -4.681  1.00 20.00     0.009 C 
HETATM    7  C9  UNL     1     -34.304  18.714  -1.164  1.00 20.00     0.041 C 
HETATM    8  C10 UNL     1     -33.299  17.551  -1.322  1.00 20.00     0.157 C 
ENDROOT
BRANCH   8   9
HETATM    9  O11 UNL     1     -31.971  18.046  -1.311  1.00 20.00    -0.354 OA
BRANCH   9  10
HETATM   10  C4  UNL     1     -31.670  18.844  -0.292  1.00 20.00     0.125 C 
HETATM   11  C3  UNL     1     -30.979  18.478   0.789  1.00 20.00     0.037 C 
ENDBRANCH   9  10
ENDBRANCH   8   9
TORSDOF 2
ENDMDL
MODEL 7
REMARK VINA RESULT:      -3.9      1.190      2.577
REMARK  2 active torsions:
REMARK  status: ('A' for Active; 'I' for Inactive)
REMARK    1  A    between atoms: C4_4  and  O11_11 
REMARK    2  A    between atoms: C10_10  and  O11_11 
ROOT
HETATM    1  C1  UNL     1     -33.986   5.343   5.048  1.00 20.00    -0.075 C 
HETATM    2  C2  UNL     1     -33.814   6.550   4.521  1.00 20.00    -0.049 C 
HETATM    3  C5  UNL     1     -34.279   5.373   6.492  1.00 20.00     0.034 C 
HETATM    4  C6  UNL     1     -33.725   4.248   4.096  1.00 20.00     0.037 C 
HETATM    5  C7  UNL     1     -33.957   7.640   5.504  1.00 20.00     0.037 C 
HETATM    6  C8  UNL     1     -34.522   6.880   6.722  1.00 20.00     0.009 C 
HETATM    7  C9  UNL     1     -33.604   5.020   2.761  1.00 20.00     0.041 C 
HETATM    8  C10 UNL     1     -33.414   6.515   3.102  1.00 20.00     0.157 C 
ENDROOT
BRANCH   8   9
HETATM    9  O11 UNL     1     -32.053   6.882   2.958  1.00 20.00    -0.354 OA
BRANCH   9  10
HETATM   10  C4  UNL     1     -31.839   8.060   2.380  1.00 20.00     0.125 C 
HETATM   11  C3  UNL     1     -32.192   8.376   1.132  1.00 20.00     0.037 C 
ENDBRANCH   9  10
ENDBRANCH   8   9
TORSDOF 2
ENDMDL
MODEL 8
REMARK VINA RESULT:      -3.9     13.380     14.348
REMARK  2 active torsions:
REMARK  status: ('A' for Active; 'I' for Inactive)
REMARK    1  A    between atoms: C4_4  and  O11_11 
REMARK    2  A    between atoms: C10_10  and  O11_11 
ROOT
HETATM    1  C1  UNL     1     -25.822  -1.284  11.607  1.00 20.00    -0.075 C 
HETATM    2  C2  UNL     1     -26.142  -2.230  10.731  1.00 20.00    -0.049 C 
HETATM    3  C5  UNL     1     -26.895  -0.295  11.814  1.00 20.00     0.034 C 
HETATM    4  C6  UNL     1     -24.427  -1.371  12.076  1.00 20.00     0.037 C 
HETATM    5  C7  UNL     1     -27.497  -2.071  10.172  1.00 20.00     0.037 C 
HETATM    6  C8  UNL     1     -28.075  -0.966  11.081  1.00 20.00     0.009 C 
HETATM    7  C9  UNL     1     -23.994  -2.744  11.512  1.00 20.00     0.041 C 
HETATM    8  C10 UNL     1     -25.032  -3.156  10.443  1.00 20.00     0.157 C 
ENDROOT
BRANCH   8   9
HETATM    9  O11 UNL     1     -24.515  -2.925   9.144  1.00 20.00    -0.354 OA
BRANCH   9  10
HETATM   10  C4  UNL     1     -23.238  -3.255   8.972  1.00 20.00     0.125 C 
HETATM   11  C3  UNL     1     -22.684  -3.592   7.806  1.00 20.00     0.037 C 
ENDBRANCH   9  10
ENDBRANCH   8   9
TORSDOF 2
ENDMDL
MODEL 9
REMARK VINA RESULT:      -3.9      9.640     11.036
REMARK  2 active torsions:
REMARK  status: ('A' for Active; 'I' for Inactive)
REMARK    1  A    between atoms: C4_4  and  O11_11 
REMARK    2  A    between atoms: C10_10  and  O11_11 
ROOT
HETATM    1  C1  UNL     1     -42.169  13.847   8.570  1.00 20.00    -0.075 C 
HETATM    2  C2  UNL     1     -40.978  14.173   8.082  1.00 20.00    -0.049 C 
HETATM    3  C5  UNL     1     -42.395  14.346   9.939  1.00 20.00     0.034 C 
HETATM    4  C6  UNL     1     -42.942  12.961   7.681  1.00 20.00     0.037 C 
HETATM    5  C7  UNL     1     -40.158  14.958   9.023  1.00 20.00     0.037 C 
HETATM    6  C8  UNL     1     -41.190  15.293  10.121  1.00 20.00     0.009 C 
HETATM    7  C9  UNL     1     -42.093  13.001   6.389  1.00 20.00     0.041 C 
HETATM    8  C10 UNL     1     -40.710  13.583   6.758  1.00 20.00     0.157 C 
ENDROOT
BRANCH   8   9
HETATM    9  O11 UNL     1     -39.752  12.544   6.859  1.00 20.00    -0.354 OA
BRANCH   9  10
HETATM   10  C4  UNL     1     -39.734  11.686   5.843  1.00 20.00     0.125 C 
HETATM   11  C3  UNL     1     -39.018  11.837   4.727  1.00 20.00     0.037 C 
ENDBRANCH   9  10
ENDBRANCH   8   9
TORSDOF 2
ENDMDL
