MODEL 1
REMARK VINA RESULT:      -5.5      0.000      0.000
REMARK  1 active torsions:
REMARK  status: ('A' for Active; 'I' for Inactive)
REMARK    1  A    between atoms: C7_7  and  C10_10 
ROOT
HETATM    1  C1  UNL     1     -34.353   5.460   6.514  1.00 20.00    -0.004 C 
HETATM    2  C2  UNL     1     -34.103   6.876   6.654  1.00 20.00    -0.004 C 
HETATM    3  C3  UNL     1     -34.739   4.803   5.412  1.00 20.00    -0.019 C 
HETATM    4  C4  UNL     1     -33.826   7.796   5.716  1.00 20.00    -0.014 C 
HETATM    5  C5  UNL     1     -33.690   6.218   3.737  1.00 20.00     0.138 C 
HETATM    6  C6  UNL     1     -34.918   5.398   4.056  1.00 20.00     0.106 C 
HETATM    7  C7  UNL     1     -33.687   7.667   4.221  1.00 20.00     0.081 C 
HETATM    8  O11 UNL     1     -32.737   5.715   3.142  1.00 20.00    -0.297 OA
ENDROOT
BRANCH   7   9
HETATM    9  C10 UNL     1     -32.421   8.386   3.750  1.00 20.00    -0.008 C 
HETATM   10  C8  UNL     1     -32.677   9.106   2.429  1.00 20.00     0.010 C 
HETATM   11  C9  UNL     1     -31.937   9.366   4.814  1.00 20.00     0.010 C 
ENDBRANCH   7   9
TORSDOF 1
ENDMDL
MODEL 2
REMARK VINA RESULT:      -4.3      1.444      2.493
REMARK  1 active torsions:
REMARK  status: ('A' for Active; 'I' for Inactive)
REMARK    1  A    between atoms: C7_7  and  C10_10 
ROOT
HETATM    1  C1  UNL     1     -34.912   4.951   5.113  1.00 20.00    -0.004 C 
HETATM    2  C2  UNL     1     -34.133   5.021   3.899  1.00 20.00    -0.004 C 
HETATM    3  C3  UNL     1     -34.675   5.577   6.274  1.00 20.00    -0.019 C 
HETATM    4  C4  UNL     1     -33.255   5.953   3.494  1.00 20.00    -0.014 C 
HETATM    5  C5  UNL     1     -33.586   7.573   5.415  1.00 20.00     0.138 C 
HETATM    6  C6  UNL     1     -33.580   6.555   6.533  1.00 20.00     0.106 C 
HETATM    7  C7  UNL     1     -32.788   7.221   4.162  1.00 20.00     0.081 C 
HETATM    8  O11 UNL     1     -34.235   8.614   5.520  1.00 20.00    -0.297 OA
ENDROOT
BRANCH   7   9
HETATM    9  C10 UNL     1     -32.821   8.380   3.164  1.00 20.00    -0.008 C 
HETATM   10  C8  UNL     1     -32.150   9.615   3.757  1.00 20.00     0.010 C 
HETATM   11  C9  UNL     1     -32.148   7.977   1.855  1.00 20.00     0.010 C 
ENDBRANCH   7   9
TORSDOF 1
ENDMDL
MODEL 3
REMARK VINA RESULT:      -4.1     11.920     13.457
REMARK  1 active torsions:
REMARK  status: ('A' for Active; 'I' for Inactive)
REMARK    1  A    between atoms: C7_7  and  C10_10 
ROOT
HETATM    1  C1  UNL     1     -34.195  18.109  -1.455  1.00 20.00    -0.004 C 
HETATM    2  C2  UNL     1     -33.440  16.952  -1.876  1.00 20.00    -0.004 C 
HETATM    3  C3  UNL     1     -34.692  19.086  -2.227  1.00 20.00    -0.019 C 
HETATM    4  C4  UNL     1     -33.365  16.367  -3.083  1.00 20.00    -0.014 C 
HETATM    5  C5  UNL     1     -35.093  17.806  -4.253  1.00 20.00     0.138 C 
HETATM    6  C6  UNL     1     -34.632  19.141  -3.715  1.00 20.00     0.106 C 
HETATM    7  C7  UNL     1     -34.031  16.717  -4.389  1.00 20.00     0.081 C 
HETATM    8  O11 UNL     1     -36.277  17.617  -4.532  1.00 20.00    -0.297 OA
ENDROOT
BRANCH   7   9
HETATM    9  C10 UNL     1     -34.631  15.460  -5.023  1.00 20.00    -0.008 C 
HETATM   10  C8  UNL     1     -34.133  15.295  -6.456  1.00 20.00     0.010 C 
HETATM   11  C9  UNL     1     -34.292  14.228  -4.189  1.00 20.00     0.010 C 
ENDBRANCH   7   9
TORSDOF 1
ENDMDL
MODEL 4
REMARK VINA RESULT:      -4.0      1.505      4.101
REMARK  1 active torsions:
REMARK  status: ('A' for Active; 'I' for Inactive)
REMARK    1  A    between atoms: C7_7  and  C10_10 
ROOT
HETATM    1  C1  UNL     1     -31.674   7.985   3.619  1.00 20.00    -0.004 C 
HETATM    2  C2  UNL     1     -32.387   6.949   2.908  1.00 20.00    -0.004 C 
HETATM    3  C3  UNL     1     -32.152   8.803   4.567  1.00 20.00    -0.019 C 
HETATM    4  C4  UNL     1     -33.515   6.301   3.238  1.00 20.00    -0.014 C 
HETATM    5  C5  UNL     1     -33.826   7.329   5.534  1.00 20.00     0.138 C 
HETATM    6  C6  UNL     1     -33.524   8.760   5.150  1.00 20.00     0.106 C 
HETATM    7  C7  UNL     1     -34.410   6.434   4.443  1.00 20.00     0.081 C 
HETATM    8  O11 UNL     1     -33.575   6.918   6.668  1.00 20.00    -0.297 OA
ENDROOT
BRANCH   7   9
HETATM    9  C10 UNL     1     -34.739   5.050   5.006  1.00 20.00    -0.008 C 
HETATM   10  C8  UNL     1     -33.744   4.014   4.494  1.00 20.00     0.010 C 
HETATM   11  C9  UNL     1     -34.747   5.082   6.532  1.00 20.00     0.010 C 
ENDBRANCH   7   9
TORSDOF 1
ENDMDL
MODEL 5
REMARK VINA RESULT:      -4.0      1.309      2.186
REMARK  1 active torsions:
REMARK  status: ('A' for Active; 'I' for Inactive)
REMARK    1  A    between atoms: C7_7  and  C10_10 
ROOT
HETATM    1  C1  UNL     1     -34.121   6.845   6.826  1.00 20.00    -0.004 C 
HETATM    2  C2  UNL     1     -33.539   7.754   5.866  1.00 20.00    -0.004 C 
HETATM    3  C3  UNL     1     -34.956   5.826   6.585  1.00 20.00    -0.019 C 
HETATM    4  C4  UNL     1     -33.366   7.609   4.542  1.00 20.00    -0.014 C 
HETATM    5  C5  UNL     1     -34.183   5.216   4.363  1.00 20.00     0.138 C 
HETATM    6  C6  UNL     1     -35.405   5.361   5.241  1.00 20.00     0.106 C 
HETATM    7  C7  UNL     1     -33.718   6.469   3.622  1.00 20.00     0.081 C 
HETATM    8  O11 UNL     1     -33.589   4.141   4.287  1.00 20.00    -0.297 OA
ENDROOT
BRANCH   7   9
HETATM    9  C10 UNL     1     -32.531   6.143   2.714  1.00 20.00    -0.008 C 
HETATM   10  C8  UNL     1     -32.901   5.043   1.724  1.00 20.00     0.010 C 
HETATM   11  C9  UNL     1     -32.063   7.395   1.978  1.00 20.00     0.010 C 
ENDBRANCH   7   9
TORSDOF 1
ENDMDL
MODEL 6
REMARK VINA RESULT:      -4.0     12.083     12.697
REMARK  1 active torsions:
REMARK  status: ('A' for Active; 'I' for Inactive)
REMARK    1  A    between atoms: C7_7  and  C10_10 
ROOT
HETATM    1  C1  UNL     1     -30.797  18.359   1.395  1.00 20.00    -0.004 C 
HETATM    2  C2  UNL     1     -30.773  18.485  -0.044  1.00 20.00    -0.004 C 
HETATM    3  C3  UNL     1     -31.781  18.719   2.231  1.00 20.00    -0.019 C 
HETATM    4  C4  UNL     1     -31.790  18.619  -0.911  1.00 20.00    -0.014 C 
HETATM    5  C5  UNL     1     -33.682  18.369   0.757  1.00 20.00     0.138 C 
HETATM    6  C6  UNL     1     -33.111  19.263   1.834  1.00 20.00     0.106 C 
HETATM    7  C7  UNL     1     -33.278  18.685  -0.682  1.00 20.00     0.081 C 
HETATM    8  O11 UNL     1     -34.409  17.420   1.050  1.00 20.00    -0.297 OA
ENDROOT
BRANCH   7   9
HETATM    9  C10 UNL     1     -33.999  17.752  -1.657  1.00 20.00    -0.008 C 
HETATM   10  C8  UNL     1     -35.037  18.525  -2.466  1.00 20.00     0.010 C 
HETATM   11  C9  UNL     1     -32.997  17.066  -2.580  1.00 20.00     0.010 C 
ENDBRANCH   7   9
TORSDOF 1
ENDMDL
MODEL 7
REMARK VINA RESULT:      -3.9      1.514      4.012
REMARK  1 active torsions:
REMARK  status: ('A' for Active; 'I' for Inactive)
REMARK    1  A    between atoms: C7_7  and  C10_10 
ROOT
HETATM    1  C1  UNL     1     -32.162   6.493   2.017  1.00 20.00    -0.004 C 
HETATM    2  C2  UNL     1     -33.076   5.592   2.681  1.00 20.00    -0.004 C 
HETATM    3  C3  UNL     1     -32.113   7.829   2.119  1.00 20.00    -0.019 C 
HETATM    4  C4  UNL     1     -33.810   5.777   3.790  1.00 20.00    -0.014 C 
HETATM    5  C5  UNL     1     -32.914   8.067   4.402  1.00 20.00     0.138 C 
HETATM    6  C6  UNL     1     -32.956   8.670   3.016  1.00 20.00     0.106 C 
HETATM    7  C7  UNL     1     -33.931   6.969   4.703  1.00 20.00     0.081 C 
HETATM    8  O11 UNL     1     -32.072   8.437   5.220  1.00 20.00    -0.297 OA
ENDROOT
BRANCH   7   9
HETATM    9  C10 UNL     1     -33.819   6.523   6.163  1.00 20.00    -0.008 C 
HETATM   10  C8  UNL     1     -34.359   7.604   7.095  1.00 20.00     0.010 C 
HETATM   11  C9  UNL     1     -34.561   5.207   6.377  1.00 20.00     0.010 C 
ENDBRANCH   7   9
TORSDOF 1
ENDMDL
MODEL 8
REMARK VINA RESULT:      -3.8     12.029     13.784
REMARK  1 active torsions:
REMARK  status: ('A' for Active; 'I' for Inactive)
REMARK    1  A    between atoms: C7_7  and  C10_10 
ROOT
HETATM    1  C1  UNL     1     -32.908  18.882  -3.223  1.00 20.00    -0.004 C 
HETATM    2  C2  UNL     1     -33.857  18.973  -4.308  1.00 20.00    -0.004 C 
HETATM    3  C3  UNL     1     -32.781  17.892  -2.329  1.00 20.00    -0.019 C 
HETATM    4  C4  UNL     1     -34.557  18.004  -4.920  1.00 20.00    -0.014 C 
HETATM    5  C5  UNL     1     -33.521  16.033  -3.709  1.00 20.00     0.138 C 
HETATM    6  C6  UNL     1     -33.558  16.619  -2.316  1.00 20.00     0.106 C 
HETATM    7  C7  UNL     1     -34.592  16.516  -4.685  1.00 20.00     0.081 C 
HETATM    8  O11 UNL     1     -32.644  15.231  -4.029  1.00 20.00    -0.297 OA
ENDROOT
BRANCH   7   9
HETATM    9  C10 UNL     1     -34.477  15.772  -6.017  1.00 20.00    -0.008 C 
HETATM   10  C8  UNL     1     -35.577  14.723  -6.140  1.00 20.00     0.010 C 
HETATM   11  C9  UNL     1     -34.535  16.755  -7.183  1.00 20.00     0.010 C 
ENDBRANCH   7   9
TORSDOF 1
ENDMDL
MODEL 9
REMARK VINA RESULT:      -3.8     12.192     13.654
REMARK  1 active torsions:
REMARK  status: ('A' for Active; 'I' for Inactive)
REMARK    1  A    between atoms: C7_7  and  C10_10 
ROOT
HETATM    1  C1  UNL     1     -33.436  17.139  -2.355  1.00 20.00    -0.004 C 
HETATM    2  C2  UNL     1     -33.293  15.888  -3.062  1.00 20.00    -0.004 C 
HETATM    3  C3  UNL     1     -33.782  18.330  -2.862  1.00 20.00    -0.019 C 
HETATM    4  C4  UNL     1     -33.801  15.508  -4.245  1.00 20.00    -0.014 C 
HETATM    5  C5  UNL     1     -35.206  17.572  -4.680  1.00 20.00     0.138 C 
HETATM    6  C6  UNL     1     -34.173  18.600  -4.275  1.00 20.00     0.106 C 
HETATM    7  C7  UNL     1     -34.678  16.246  -5.223  1.00 20.00     0.081 C 
HETATM    8  O11 UNL     1     -36.407  17.803  -4.540  1.00 20.00    -0.297 OA
ENDROOT
BRANCH   7   9
HETATM    9  C10 UNL     1     -35.837  15.351  -5.667  1.00 20.00    -0.008 C 
HETATM   10  C8  UNL     1     -35.800  15.138  -7.177  1.00 20.00     0.010 C 
HETATM   11  C9  UNL     1     -35.791  14.015  -4.932  1.00 20.00     0.010 C 
ENDBRANCH   7   9
TORSDOF 1
ENDMDL
