MODEL 1
REMARK VINA RESULT:      -3.5      0.000      0.000
REMARK  1 active torsions:
REMARK  status: ('A' for Active; 'I' for Inactive)
REMARK    1  A    between atoms: C5_5  and  N7_7 
ROOT
HETATM    1  C1  UNL     1     -31.070  18.881  -0.114  1.00 20.00     0.332 C 
HETATM    2  N7  UNL     1     -31.641  18.979  -1.132  1.00 20.00    -0.241 NA
HETATM    3  O8  UNL     1     -30.492  18.789   0.907  1.00 20.00    -0.260 OA
ENDROOT
BRANCH   2   4
HETATM    4  C5  UNL     1     -32.526  17.847  -1.436  1.00 20.00     0.126 C 
HETATM    5  C3  UNL     1     -33.821  18.000  -0.637  1.00 20.00     0.029 C 
HETATM    6  C2  UNL     1     -34.814  18.720  -1.554  1.00 20.00     0.003 C 
HETATM    7  C4  UNL     1     -34.107  18.924  -2.893  1.00 20.00     0.018 C 
HETATM    8  C6  UNL     1     -32.952  17.936  -2.894  1.00 20.00     0.083 C 
HETATM    9 BR9  UNL     1     -33.555  16.190  -3.533  1.00 20.00    -0.089 Br
ENDBRANCH   2   4
TORSDOF 1
ENDMDL
MODEL 2
REMARK VINA RESULT:      -3.4     12.121     12.741
REMARK  1 active torsions:
REMARK  status: ('A' for Active; 'I' for Inactive)
REMARK    1  A    between atoms: C5_5  and  N7_7 
ROOT
HETATM    1  C1  UNL     1     -39.631  11.685   5.360  1.00 20.00     0.332 C 
HETATM    2  N7  UNL     1     -39.976  12.118   6.393  1.00 20.00    -0.241 NA
HETATM    3  O8  UNL     1     -39.283  11.245   4.326  1.00 20.00    -0.260 OA
ENDROOT
BRANCH   2   4
HETATM    4  C5  UNL     1     -40.312  13.547   6.365  1.00 20.00     0.126 C 
HETATM    5  C3  UNL     1     -41.522  13.756   5.454  1.00 20.00     0.029 C 
HETATM    6  C2  UNL     1     -42.757  13.723   6.359  1.00 20.00     0.003 C 
HETATM    7  C4  UNL     1     -42.248  13.555   7.790  1.00 20.00     0.018 C 
HETATM    8  C6  UNL     1     -40.785  13.966   7.749  1.00 20.00     0.083 C 
HETATM    9 BR9  UNL     1     -40.619  15.901   7.967  1.00 20.00    -0.089 Br
ENDBRANCH   2   4
TORSDOF 1
ENDMDL
MODEL 3
REMARK VINA RESULT:      -3.4      1.927      2.377
REMARK  1 active torsions:
REMARK  status: ('A' for Active; 'I' for Inactive)
REMARK    1  A    between atoms: C5_5  and  N7_7 
ROOT
HETATM    1  C1  UNL     1     -30.741  18.594   0.644  1.00 20.00     0.332 C 
HETATM    2  N7  UNL     1     -31.064  18.519  -0.480  1.00 20.00    -0.241 NA
HETATM    3  O8  UNL     1     -30.411  18.664   1.771  1.00 20.00    -0.260 OA
ENDROOT
BRANCH   2   4
HETATM    4  C5  UNL     1     -32.353  19.156  -0.779  1.00 20.00     0.126 C 
HETATM    5  C3  UNL     1     -32.521  19.250  -2.295  1.00 20.00     0.029 C 
HETATM    6  C2  UNL     1     -33.303  18.005  -2.723  1.00 20.00     0.003 C 
HETATM    7  C4  UNL     1     -33.631  17.232  -1.447  1.00 20.00     0.018 C 
HETATM    8  C6  UNL     1     -33.473  18.236  -0.315  1.00 20.00     0.083 C 
HETATM    9 BR9  UNL     1     -35.127  19.248  -0.072  1.00 20.00    -0.089 Br
ENDBRANCH   2   4
TORSDOF 1
ENDMDL
MODEL 4
REMARK VINA RESULT:      -3.3     11.825     12.593
REMARK  1 active torsions:
REMARK  status: ('A' for Active; 'I' for Inactive)
REMARK    1  A    between atoms: C5_5  and  N7_7 
ROOT
HETATM    1  C1  UNL     1     -39.121  12.144   5.916  1.00 20.00     0.332 C 
HETATM    2  N7  UNL     1     -40.052  12.121   6.628  1.00 20.00    -0.241 NA
HETATM    3  O8  UNL     1     -38.182  12.166   5.207  1.00 20.00    -0.260 OA
ENDROOT
BRANCH   2   4
HETATM    4  C5  UNL     1     -41.302  12.566   5.998  1.00 20.00     0.126 C 
HETATM    5  C3  UNL     1     -42.460  12.325   6.967  1.00 20.00     0.029 C 
HETATM    6  C2  UNL     1     -42.658  13.633   7.738  1.00 20.00     0.003 C 
HETATM    7  C4  UNL     1     -41.654  14.635   7.169  1.00 20.00     0.018 C 
HETATM    8  C6  UNL     1     -41.249  14.075   5.815  1.00 20.00     0.083 C 
HETATM    9 BR9  UNL     1     -42.519  14.639   4.442  1.00 20.00    -0.089 Br
ENDBRANCH   2   4
TORSDOF 1
ENDMDL
MODEL 5
REMARK VINA RESULT:      -3.3      3.475      4.005
REMARK  1 active torsions:
REMARK  status: ('A' for Active; 'I' for Inactive)
REMARK    1  A    between atoms: C5_5  and  N7_7 
ROOT
HETATM    1  C1  UNL     1     -33.621  15.059  -3.913  1.00 20.00     0.332 C 
HETATM    2  N7  UNL     1     -33.128  16.098  -3.688  1.00 20.00    -0.241 NA
HETATM    3  O8  UNL     1     -34.110  14.014  -4.143  1.00 20.00    -0.260 OA
ENDROOT
BRANCH   2   4
HETATM    4  C5  UNL     1     -33.965  16.999  -2.885  1.00 20.00     0.126 C 
HETATM    5  C3  UNL     1     -33.207  17.378  -1.612  1.00 20.00     0.029 C 
HETATM    6  C2  UNL     1     -32.487  18.695  -1.912  1.00 20.00     0.003 C 
HETATM    7  C4  UNL     1     -32.880  19.097  -3.333  1.00 20.00     0.018 C 
HETATM    8  C6  UNL     1     -34.142  18.307  -3.641  1.00 20.00     0.083 C 
HETATM    9 BR9  UNL     1     -35.715  19.263  -2.986  1.00 20.00    -0.089 Br
ENDBRANCH   2   4
TORSDOF 1
ENDMDL
MODEL 6
REMARK VINA RESULT:      -3.1      3.413      4.039
REMARK  1 active torsions:
REMARK  status: ('A' for Active; 'I' for Inactive)
REMARK    1  A    between atoms: C5_5  and  N7_7 
ROOT
HETATM    1  C1  UNL     1     -33.588  15.360  -3.966  1.00 20.00     0.332 C 
HETATM    2  N7  UNL     1     -33.803  15.879  -2.937  1.00 20.00    -0.241 NA
HETATM    3  O8  UNL     1     -33.377  14.834  -4.997  1.00 20.00    -0.260 OA
ENDROOT
BRANCH   2   4
HETATM    4  C5  UNL     1     -32.925  17.019  -2.644  1.00 20.00     0.126 C 
HETATM    5  C3  UNL     1     -33.231  18.148  -3.628  1.00 20.00     0.029 C 
HETATM    6  C2  UNL     1     -34.252  19.058  -2.941  1.00 20.00     0.003 C 
HETATM    7  C4  UNL     1     -34.485  18.482  -1.545  1.00 20.00     0.018 C 
HETATM    8  C6  UNL     1     -33.291  17.579  -1.277  1.00 20.00     0.083 C 
HETATM    9 BR9  UNL     1     -31.805  18.620  -0.550  1.00 20.00    -0.089 Br
ENDBRANCH   2   4
TORSDOF 1
ENDMDL
MODEL 7
REMARK VINA RESULT:      -3.1     24.166     24.753
REMARK  1 active torsions:
REMARK  status: ('A' for Active; 'I' for Inactive)
REMARK    1  A    between atoms: C5_5  and  N7_7 
ROOT
HETATM    1  C1  UNL     1     -29.967  -2.558  11.607  1.00 20.00     0.332 C 
HETATM    2  N7  UNL     1     -28.870  -2.752  11.972  1.00 20.00    -0.241 NA
HETATM    3  O8  UNL     1     -31.070  -2.365  11.246  1.00 20.00    -0.260 OA
ENDROOT
BRANCH   2   4
HETATM    4  C5  UNL     1     -27.842  -2.484  10.958  1.00 20.00     0.126 C 
HETATM    5  C3  UNL     1     -27.910  -1.010  10.559  1.00 20.00     0.029 C 
HETATM    6  C2  UNL     1     -26.898  -0.275  11.442  1.00 20.00     0.003 C 
HETATM    7  C4  UNL     1     -26.212  -1.336  12.301  1.00 20.00     0.018 C 
HETATM    8  C6  UNL     1     -26.471  -2.657  11.593  1.00 20.00     0.083 C 
HETATM    9 BR9  UNL     1     -25.118  -2.963  10.217  1.00 20.00    -0.089 Br
ENDBRANCH   2   4
TORSDOF 1
ENDMDL
MODEL 8
REMARK VINA RESULT:      -3.1     15.816     16.344
REMARK  1 active torsions:
REMARK  status: ('A' for Active; 'I' for Inactive)
REMARK    1  A    between atoms: C5_5  and  N7_7 
ROOT
HETATM    1  C1  UNL     1     -42.743   3.932  -2.312  1.00 20.00     0.332 C 
HETATM    2  N7  UNL     1     -42.370   5.004  -2.019  1.00 20.00    -0.241 NA
HETATM    3  O8  UNL     1     -43.118   2.858  -2.612  1.00 20.00    -0.260 OA
ENDROOT
BRANCH   2   4
HETATM    4  C5  UNL     1     -42.175   5.200  -0.577  1.00 20.00     0.126 C 
HETATM    5  C3  UNL     1     -40.794   5.813  -0.341  1.00 20.00     0.029 C 
HETATM    6  C2  UNL     1     -40.998   7.330  -0.282  1.00 20.00     0.003 C 
HETATM    7  C4  UNL     1     -42.499   7.577  -0.425  1.00 20.00     0.018 C 
HETATM    8  C6  UNL     1     -43.160   6.250  -0.087  1.00 20.00     0.083 C 
HETATM    9 BR9  UNL     1     -43.417   6.093   1.843  1.00 20.00    -0.089 Br
ENDBRANCH   2   4
TORSDOF 1
ENDMDL
MODEL 9
REMARK VINA RESULT:      -3.1      4.013      4.586
REMARK  1 active torsions:
REMARK  status: ('A' for Active; 'I' for Inactive)
REMARK    1  A    between atoms: C5_5  and  N7_7 
ROOT
HETATM    1  C1  UNL     1     -33.650  16.962  -2.867  1.00 20.00     0.332 C 
HETATM    2  N7  UNL     1     -34.376  16.917  -3.786  1.00 20.00    -0.241 NA
HETATM    3  O8  UNL     1     -32.925  17.012  -1.941  1.00 20.00    -0.260 OA
ENDROOT
BRANCH   2   4
HETATM    4  C5  UNL     1     -33.936  16.014  -4.856  1.00 20.00     0.126 C 
HETATM    5  C3  UNL     1     -34.091  14.569  -4.382  1.00 20.00     0.029 C 
HETATM    6  C2  UNL     1     -35.464  14.097  -4.869  1.00 20.00     0.003 C 
HETATM    7  C4  UNL     1     -36.067  15.251  -5.669  1.00 20.00     0.018 C 
HETATM    8  C6  UNL     1     -34.892  16.146  -6.033  1.00 20.00     0.083 C 
HETATM    9 BR9  UNL     1     -34.042  15.514  -7.674  1.00 20.00    -0.089 Br
ENDBRANCH   2   4
TORSDOF 1
ENDMDL
