MODEL 1
REMARK VINA RESULT:      -4.4      0.000      0.000
REMARK  3 active torsions:
REMARK  status: ('A' for Active; 'I' for Inactive)
REMARK    1  A    between atoms: C1_1  and  C7_7 
REMARK    2  A    between atoms: C1_1  and  N9_9 
REMARK    3  A    between atoms: C7_7  and  C8_8 
ROOT
HETATM    1  C2  UNL     1     -34.990   5.081   4.875  1.00 20.00     0.021 C 
HETATM    2  C3  UNL     1     -34.542   5.499   6.265  1.00 20.00     0.021 C 
HETATM    3  C4  UNL     1     -33.915   5.685   3.975  1.00 20.00     0.123 C 
HETATM    4  C5  UNL     1     -34.021   6.916   6.045  1.00 20.00     0.123 C 
HETATM    5  N9  UNL     1     -33.501   6.892   4.681  1.00 20.00    -0.375 N 
ENDROOT
BRANCH   5   6
HETATM    6  C1  UNL     1     -32.727   7.869   4.140  1.00 20.00     0.075 C 
HETATM    7  S10 UNL     1     -32.130   9.138   5.046  1.00 20.00    -0.066 SA
BRANCH   6   8
HETATM    8  C7  UNL     1     -32.431   7.712   2.664  1.00 20.00     0.069 C 
BRANCH   8   9
HETATM    9  C8  UNL     1     -32.636   9.034   1.922  1.00 20.00     0.002 C 
HETATM   10  C6  UNL     1     -32.561   8.844   0.415  1.00 20.00     0.005 C 
ENDBRANCH   8   9
ENDBRANCH   6   8
ENDBRANCH   5   6
TORSDOF 3
ENDMDL
MODEL 2
REMARK VINA RESULT:      -3.9     11.562     12.161
REMARK  3 active torsions:
REMARK  status: ('A' for Active; 'I' for Inactive)
REMARK    1  A    between atoms: C1_1  and  C7_7 
REMARK    2  A    between atoms: C1_1  and  N9_9 
REMARK    3  A    between atoms: C7_7  and  C8_8 
ROOT
HETATM    1  C2  UNL     1     -31.311  18.513   1.103  1.00 20.00     0.021 C 
HETATM    2  C3  UNL     1     -32.734  18.919   1.447  1.00 20.00     0.021 C 
HETATM    3  C4  UNL     1     -31.295  18.585  -0.421  1.00 20.00     0.123 C 
HETATM    4  C5  UNL     1     -33.555  18.251   0.348  1.00 20.00     0.123 C 
HETATM    5  N9  UNL     1     -32.660  18.244  -0.805  1.00 20.00    -0.375 N 
ENDROOT
BRANCH   5   6
HETATM    6  C1  UNL     1     -33.049  17.957  -2.075  1.00 20.00     0.075 C 
HETATM    7  S10 UNL     1     -32.971  19.083  -3.307  1.00 20.00    -0.066 SA
BRANCH   6   8
HETATM    8  C7  UNL     1     -33.538  16.542  -2.295  1.00 20.00     0.069 C 
BRANCH   8   9
HETATM    9  C8  UNL     1     -33.168  16.048  -3.695  1.00 20.00     0.002 C 
HETATM   10  C6  UNL     1     -33.854  14.730  -4.019  1.00 20.00     0.005 C 
ENDBRANCH   8   9
ENDBRANCH   6   8
ENDBRANCH   5   6
TORSDOF 3
ENDMDL
MODEL 3
REMARK VINA RESULT:      -3.8      1.772      1.909
REMARK  3 active torsions:
REMARK  status: ('A' for Active; 'I' for Inactive)
REMARK    1  A    between atoms: C1_1  and  C7_7 
REMARK    2  A    between atoms: C1_1  and  N9_9 
REMARK    3  A    between atoms: C7_7  and  C8_8 
ROOT
HETATM    1  C2  UNL     1     -35.026   5.812   6.094  1.00 20.00     0.021 C 
HETATM    2  C3  UNL     1     -34.157   6.950   6.603  1.00 20.00     0.021 C 
HETATM    3  C4  UNL     1     -34.228   5.278   4.908  1.00 20.00     0.123 C 
HETATM    4  C5  UNL     1     -33.627   7.577   5.317  1.00 20.00     0.123 C 
HETATM    5  N9  UNL     1     -33.538   6.454   4.388  1.00 20.00    -0.375 N 
ENDROOT
BRANCH   5   6
HETATM    6  C1  UNL     1     -32.894   6.498   3.193  1.00 20.00     0.075 C 
HETATM    7  S10 UNL     1     -32.848   5.189   2.156  1.00 20.00    -0.066 SA
BRANCH   6   8
HETATM    8  C7  UNL     1     -32.240   7.822   2.862  1.00 20.00     0.069 C 
BRANCH   8   9
HETATM    9  C8  UNL     1     -32.129   8.012   1.348  1.00 20.00     0.002 C 
HETATM   10  C6  UNL     1     -32.734   9.336   0.908  1.00 20.00     0.005 C 
ENDBRANCH   8   9
ENDBRANCH   6   8
ENDBRANCH   5   6
TORSDOF 3
ENDMDL
MODEL 4
REMARK VINA RESULT:      -3.6     10.269     10.976
REMARK  3 active torsions:
REMARK  status: ('A' for Active; 'I' for Inactive)
REMARK    1  A    between atoms: C1_1  and  C7_7 
REMARK    2  A    between atoms: C1_1  and  N9_9 
REMARK    3  A    between atoms: C7_7  and  C8_8 
ROOT
HETATM    1  C2  UNL     1     -40.662  16.641   7.841  1.00 20.00     0.021 C 
HETATM    2  C3  UNL     1     -40.442  15.762   9.062  1.00 20.00     0.021 C 
HETATM    3  C4  UNL     1     -41.586  15.792   6.973  1.00 20.00     0.123 C 
HETATM    4  C5  UNL     1     -40.339  14.363   8.462  1.00 20.00     0.123 C 
HETATM    5  N9  UNL     1     -41.203  14.420   7.287  1.00 20.00    -0.375 N 
ENDROOT
BRANCH   5   6
HETATM    6  C1  UNL     1     -41.602  13.332   6.577  1.00 20.00     0.075 C 
HETATM    7  S10 UNL     1     -42.884  12.374   7.057  1.00 20.00    -0.066 SA
BRANCH   6   8
HETATM    8  C7  UNL     1     -40.815  13.065   5.312  1.00 20.00     0.069 C 
BRANCH   8   9
HETATM    9  C8  UNL     1     -39.866  11.880   5.500  1.00 20.00     0.002 C 
HETATM   10  C6  UNL     1     -39.047  11.619   4.245  1.00 20.00     0.005 C 
ENDBRANCH   8   9
ENDBRANCH   6   8
ENDBRANCH   5   6
TORSDOF 3
ENDMDL
MODEL 5
REMARK VINA RESULT:      -3.5     12.112     12.901
REMARK  3 active torsions:
REMARK  status: ('A' for Active; 'I' for Inactive)
REMARK    1  A    between atoms: C1_1  and  C7_7 
REMARK    2  A    between atoms: C1_1  and  N9_9 
REMARK    3  A    between atoms: C7_7  and  C8_8 
ROOT
HETATM    1  C2  UNL     1     -35.461  14.767  -6.027  1.00 20.00     0.021 C 
HETATM    2  C3  UNL     1     -36.602  15.730  -5.746  1.00 20.00     0.021 C 
HETATM    3  C4  UNL     1     -34.465  15.085  -4.916  1.00 20.00     0.123 C 
HETATM    4  C5  UNL     1     -35.877  16.999  -5.307  1.00 20.00     0.123 C 
HETATM    5  N9  UNL     1     -34.666  16.506  -4.657  1.00 20.00    -0.375 N 
ENDROOT
BRANCH   5   6
HETATM    6  C1  UNL     1     -33.835  17.273  -3.906  1.00 20.00     0.075 C 
HETATM    7  S10 UNL     1     -33.477  18.855  -4.305  1.00 20.00    -0.066 SA
BRANCH   6   8
HETATM    8  C7  UNL     1     -33.274  16.598  -2.673  1.00 20.00     0.069 C 
BRANCH   8   9
HETATM    9  C8  UNL     1     -33.621  17.390  -1.411  1.00 20.00     0.002 C 
HETATM   10  C6  UNL     1     -32.403  18.107  -0.851  1.00 20.00     0.005 C 
ENDBRANCH   8   9
ENDBRANCH   6   8
ENDBRANCH   5   6
TORSDOF 3
ENDMDL
MODEL 6
REMARK VINA RESULT:      -3.5     10.131     10.849
REMARK  3 active torsions:
REMARK  status: ('A' for Active; 'I' for Inactive)
REMARK    1  A    between atoms: C1_1  and  C7_7 
REMARK    2  A    between atoms: C1_1  and  N9_9 
REMARK    3  A    between atoms: C7_7  and  C8_8 
ROOT
HETATM    1  C2  UNL     1     -40.326  15.567   9.081  1.00 20.00     0.021 C 
HETATM    2  C3  UNL     1     -41.727  15.132   9.482  1.00 20.00     0.021 C 
HETATM    3  C4  UNL     1     -40.336  15.390   7.566  1.00 20.00     0.123 C 
HETATM    4  C5  UNL     1     -41.995  13.949   8.556  1.00 20.00     0.123 C 
HETATM    5  N9  UNL     1     -41.246  14.272   7.346  1.00 20.00    -0.375 N 
ENDROOT
BRANCH   5   6
HETATM    6  C1  UNL     1     -41.382  13.616   6.164  1.00 20.00     0.075 C 
HETATM    7  S10 UNL     1     -42.133  14.307   4.841  1.00 20.00    -0.066 SA
BRANCH   6   8
HETATM    8  C7  UNL     1     -40.786  12.225   6.128  1.00 20.00     0.069 C 
BRANCH   8   9
HETATM    9  C8  UNL     1     -39.317  12.272   5.705  1.00 20.00     0.002 C 
HETATM   10  C6  UNL     1     -39.127  11.741   4.293  1.00 20.00     0.005 C 
ENDBRANCH   8   9
ENDBRANCH   6   8
ENDBRANCH   5   6
TORSDOF 3
ENDMDL
MODEL 7
REMARK VINA RESULT:      -3.3      9.538     10.377
REMARK  3 active torsions:
REMARK  status: ('A' for Active; 'I' for Inactive)
REMARK    1  A    between atoms: C1_1  and  C7_7 
REMARK    2  A    between atoms: C1_1  and  N9_9 
REMARK    3  A    between atoms: C7_7  and  C8_8 
ROOT
HETATM    1  C2  UNL     1     -38.299  11.968   5.349  1.00 20.00     0.021 C 
HETATM    2  C3  UNL     1     -39.379  11.870   4.284  1.00 20.00     0.021 C 
HETATM    3  C4  UNL     1     -39.103  12.077   6.640  1.00 20.00     0.123 C 
HETATM    4  C5  UNL     1     -40.445  12.838   4.788  1.00 20.00     0.123 C 
HETATM    5  N9  UNL     1     -40.321  12.773   6.241  1.00 20.00    -0.375 N 
ENDROOT
BRANCH   5   6
HETATM    6  C1  UNL     1     -41.227  13.292   7.111  1.00 20.00     0.075 C 
HETATM    7  S10 UNL     1     -42.851  12.910   7.040  1.00 20.00    -0.066 SA
BRANCH   6   8
HETATM    8  C7  UNL     1     -40.654  14.223   8.157  1.00 20.00     0.069 C 
BRANCH   8   9
HETATM    9  C8  UNL     1     -40.369  15.604   7.563  1.00 20.00     0.002 C 
HETATM   10  C6  UNL     1     -40.805  16.716   8.504  1.00 20.00     0.005 C 
ENDBRANCH   8   9
ENDBRANCH   6   8
ENDBRANCH   5   6
TORSDOF 3
ENDMDL
MODEL 8
REMARK VINA RESULT:      -3.3     10.508     11.122
REMARK  3 active torsions:
REMARK  status: ('A' for Active; 'I' for Inactive)
REMARK    1  A    between atoms: C1_1  and  C7_7 
REMARK    2  A    between atoms: C1_1  and  N9_9 
REMARK    3  A    between atoms: C7_7  and  C8_8 
ROOT
HETATM    1  C2  UNL     1     -42.575  15.540   3.778  1.00 20.00     0.021 C 
HETATM    2  C3  UNL     1     -43.233  16.231   4.961  1.00 20.00     0.021 C 
HETATM    3  C4  UNL     1     -42.070  14.234   4.385  1.00 20.00     0.123 C 
HETATM    4  C5  UNL     1     -42.295  15.895   6.117  1.00 20.00     0.123 C 
HETATM    5  N9  UNL     1     -41.761  14.583   5.766  1.00 20.00    -0.375 N 
ENDROOT
BRANCH   5   6
HETATM    6  C1  UNL     1     -41.064  13.787   6.620  1.00 20.00     0.075 C 
HETATM    7  S10 UNL     1     -40.528  14.328   8.106  1.00 20.00    -0.066 SA
BRANCH   6   8
HETATM    8  C7  UNL     1     -40.829  12.373   6.134  1.00 20.00     0.069 C 
BRANCH   8   9
HETATM    9  C8  UNL     1     -39.350  12.144   5.818  1.00 20.00     0.002 C 
HETATM   10  C6  UNL     1     -39.147  11.738   4.367  1.00 20.00     0.005 C 
ENDBRANCH   8   9
ENDBRANCH   6   8
ENDBRANCH   5   6
TORSDOF 3
ENDMDL
MODEL 9
REMARK VINA RESULT:      -3.3     11.900     13.039
REMARK  3 active torsions:
REMARK  status: ('A' for Active; 'I' for Inactive)
REMARK    1  A    between atoms: C1_1  and  C7_7 
REMARK    2  A    between atoms: C1_1  and  N9_9 
REMARK    3  A    between atoms: C7_7  and  C8_8 
ROOT
HETATM    1  C2  UNL     1     -33.106  18.337  -2.522  1.00 20.00     0.021 C 
HETATM    2  C3  UNL     1     -33.402  16.937  -2.012  1.00 20.00     0.021 C 
HETATM    3  C4  UNL     1     -33.956  18.426  -3.786  1.00 20.00     0.123 C 
HETATM    4  C5  UNL     1     -33.479  16.115  -3.296  1.00 20.00     0.123 C 
HETATM    5  N9  UNL     1     -33.989  17.057  -4.287  1.00 20.00    -0.375 N 
ENDROOT
BRANCH   5   6
HETATM    6  C1  UNL     1     -34.439  16.702  -5.519  1.00 20.00     0.075 C 
HETATM    7  S10 UNL     1     -34.980  17.828  -6.628  1.00 20.00    -0.066 SA
BRANCH   6   8
HETATM    8  C7  UNL     1     -34.395  15.220  -5.819  1.00 20.00     0.069 C 
BRANCH   8   9
HETATM    9  C8  UNL     1     -35.800  14.614  -5.785  1.00 20.00     0.002 C 
HETATM   10  C6  UNL     1     -35.952  13.626  -4.639  1.00 20.00     0.005 C 
ENDBRANCH   8   9
ENDBRANCH   6   8
ENDBRANCH   5   6
TORSDOF 3
ENDMDL
