MODEL 1
REMARK VINA RESULT:      -4.3      0.000      0.000
REMARK  0 active torsions:
REMARK  status: ('A' for Active; 'I' for Inactive)
ROOT
HETATM    1  C1  UNL     1     -33.101  18.416   0.644  1.00 20.00     0.001 C 
HETATM    2  C2  UNL     1     -31.813  18.645  -0.141  1.00 20.00     0.001 C 
HETATM    3  C3  UNL     1     -33.211  16.362  -3.371  1.00 20.00     0.004 C 
HETATM    4  C4  UNL     1     -34.288  16.818  -4.351  1.00 20.00     0.034 C 
HETATM    5  C5  UNL     1     -34.239  18.617  -0.351  1.00 20.00     0.012 C 
HETATM    6  C6  UNL     1     -32.231  18.892  -1.589  1.00 20.00     0.012 C 
HETATM    7  C7  UNL     1     -33.567  16.738  -1.932  1.00 20.00     0.012 C 
HETATM    8  C8  UNL     1     -34.693  18.239  -4.130  1.00 20.00     0.152 A 
HETATM    9  C9  UNL     1     -34.410  18.949  -2.831  1.00 20.00     0.159 A 
HETATM   10  C10 UNL     1     -33.638  18.274  -1.725  1.00 20.00    -0.012 C 
HETATM   11  O11 UNL     1     -35.698  18.390  -3.109  1.00 20.00    -0.375 OA
ENDROOT
TORSDOF 0
ENDMDL
MODEL 2
REMARK VINA RESULT:      -4.2      1.373      3.904
REMARK  0 active torsions:
REMARK  status: ('A' for Active; 'I' for Inactive)
ROOT
HETATM    1  C1  UNL     1     -34.195  18.103  -3.807  1.00 20.00     0.001 C 
HETATM    2  C2  UNL     1     -33.438  16.799  -3.566  1.00 20.00     0.001 C 
HETATM    3  C3  UNL     1     -31.196  18.512  -0.461  1.00 20.00     0.004 C 
HETATM    4  C4  UNL     1     -31.747  18.843   0.923  1.00 20.00     0.034 C 
HETATM    5  C5  UNL     1     -34.571  18.629  -2.426  1.00 20.00     0.012 C 
HETATM    6  C6  UNL     1     -33.322  16.645  -2.051  1.00 20.00     0.012 C 
HETATM    7  C7  UNL     1     -32.190  18.885  -1.563  1.00 20.00     0.012 C 
HETATM    8  C8  UNL     1     -33.145  18.351   1.112  1.00 20.00     0.152 A 
HETATM    9  C9  UNL     1     -34.025  18.001  -0.060  1.00 20.00     0.159 A 
HETATM   10  C10 UNL     1     -33.503  18.064  -1.474  1.00 20.00    -0.012 C 
HETATM   11  O11 UNL     1     -34.139  19.261   0.608  1.00 20.00    -0.375 OA
ENDROOT
TORSDOF 0
ENDMDL
MODEL 3
REMARK VINA RESULT:      -3.9      1.856      4.080
REMARK  0 active torsions:
REMARK  status: ('A' for Active; 'I' for Inactive)
ROOT
HETATM    1  C1  UNL     1     -34.292  17.241  -3.598  1.00 20.00     0.001 C 
HETATM    2  C2  UNL     1     -35.151  18.419  -3.149  1.00 20.00     0.001 C 
HETATM    3  C3  UNL     1     -33.684  18.173   0.774  1.00 20.00     0.004 C 
HETATM    4  C4  UNL     1     -32.281  18.597   1.201  1.00 20.00     0.034 C 
HETATM    5  C5  UNL     1     -32.912  17.474  -2.992  1.00 20.00     0.012 C 
HETATM    6  C6  UNL     1     -34.273  19.263  -2.227  1.00 20.00     0.012 C 
HETATM    7  C7  UNL     1     -33.661  17.423  -0.559  1.00 20.00     0.012 C 
HETATM    8  C8  UNL     1     -31.524  19.256   0.094  1.00 20.00     0.152 A 
HETATM    9  C9  UNL     1     -31.929  19.093  -1.348  1.00 20.00     0.159 A 
HETATM   10  C10 UNL     1     -33.164  18.314  -1.728  1.00 20.00    -0.012 C 
HETATM   11  O11 UNL     1     -30.867  18.319  -0.780  1.00 20.00    -0.375 OA
ENDROOT
TORSDOF 0
ENDMDL
MODEL 4
REMARK VINA RESULT:      -3.8     14.238     15.218
REMARK  0 active torsions:
REMARK  status: ('A' for Active; 'I' for Inactive)
ROOT
HETATM    1  C1  UNL     1     -40.794   8.376  -0.044  1.00 20.00     0.001 C 
HETATM    2  C2  UNL     1     -42.227   8.745  -0.419  1.00 20.00     0.001 C 
HETATM    3  C3  UNL     1     -43.220   4.733  -1.138  1.00 20.00     0.004 C 
HETATM    4  C4  UNL     1     -43.417   3.682  -0.049  1.00 20.00     0.034 C 
HETATM    5  C5  UNL     1     -40.901   7.157   0.865  1.00 20.00     0.012 C 
HETATM    6  C6  UNL     1     -43.123   7.682   0.214  1.00 20.00     0.012 C 
HETATM    7  C7  UNL     1     -42.018   5.631  -0.839  1.00 20.00     0.012 C 
HETATM    8  C8  UNL     1     -43.367   4.269   1.324  1.00 20.00     0.152 A 
HETATM    9  C9  UNL     1     -42.744   5.616   1.586  1.00 20.00     0.159 A 
HETATM   10  C10 UNL     1     -42.212   6.462   0.457  1.00 20.00    -0.012 C 
HETATM   11  O11 UNL     1     -42.027   4.403   1.835  1.00 20.00    -0.375 OA
ENDROOT
TORSDOF 0
ENDMDL
MODEL 5
REMARK VINA RESULT:      -3.7      3.052      5.655
REMARK  0 active torsions:
REMARK  status: ('A' for Active; 'I' for Inactive)
ROOT
HETATM    1  C1  UNL     1     -36.799  16.348  -7.395  1.00 20.00     0.001 C 
HETATM    2  C2  UNL     1     -35.576  17.097  -7.918  1.00 20.00     0.001 C 
HETATM    3  C3  UNL     1     -33.907  17.334  -4.076  1.00 20.00     0.004 C 
HETATM    4  C4  UNL     1     -33.287  16.157  -3.328  1.00 20.00     0.034 C 
HETATM    5  C5  UNL     1     -36.265  15.295  -6.431  1.00 20.00     0.012 C 
HETATM    6  C6  UNL     1     -34.371  16.514  -7.183  1.00 20.00     0.012 C 
HETATM    7  C7  UNL     1     -35.193  16.925  -4.797  1.00 20.00     0.012 C 
HETATM    8  C8  UNL     1     -33.200  14.928  -4.173  1.00 20.00     0.152 A 
HETATM    9  C9  UNL     1     -34.033  14.763  -5.418  1.00 20.00     0.159 A 
HETATM   10  C10 UNL     1     -34.938  15.868  -5.902  1.00 20.00    -0.012 C 
HETATM   11  O11 UNL     1     -34.415  14.156  -4.179  1.00 20.00    -0.375 OA
ENDROOT
TORSDOF 0
ENDMDL
MODEL 6
REMARK VINA RESULT:      -3.7     15.096     15.874
REMARK  0 active torsions:
REMARK  status: ('A' for Active; 'I' for Inactive)
ROOT
HETATM    1  C1  UNL     1     -24.804  17.672  11.664  1.00 20.00     0.001 C 
HETATM    2  C2  UNL     1     -23.486  18.143  12.273  1.00 20.00     0.001 C 
HETATM    3  C3  UNL     1     -21.333  16.983   8.865  1.00 20.00     0.004 C 
HETATM    4  C4  UNL     1     -21.367  17.718   7.528  1.00 20.00     0.034 C 
HETATM    5  C5  UNL     1     -24.799  18.169  10.222  1.00 20.00     0.012 C 
HETATM    6  C6  UNL     1     -22.715  18.830  11.148  1.00 20.00     0.012 C 
HETATM    7  C7  UNL     1     -22.727  16.886   9.487  1.00 20.00     0.012 C 
HETATM    8  C8  UNL     1     -22.140  18.995   7.601  1.00 20.00     0.152 A 
HETATM    9  C9  UNL     1     -23.123  19.263   8.711  1.00 20.00     0.159 A 
HETATM   10  C10 UNL     1     -23.313  18.279   9.838  1.00 20.00    -0.012 C 
HETATM   11  O11 UNL     1     -23.557  18.812   7.424  1.00 20.00    -0.375 OA
ENDROOT
TORSDOF 0
ENDMDL
MODEL 7
REMARK VINA RESULT:      -3.6      1.183      2.269
REMARK  0 active torsions:
REMARK  status: ('A' for Active; 'I' for Inactive)
ROOT
HETATM    1  C1  UNL     1     -31.869  19.031   0.106  1.00 20.00     0.001 C 
HETATM    2  C2  UNL     1     -33.225  18.729   0.738  1.00 20.00     0.001 C 
HETATM    3  C3  UNL     1     -35.173  19.018  -2.967  1.00 20.00     0.004 C 
HETATM    4  C4  UNL     1     -35.079  17.976  -4.077  1.00 20.00     0.034 C 
HETATM    5  C5  UNL     1     -31.804  18.194  -1.167  1.00 20.00     0.012 C 
HETATM    6  C6  UNL     1     -33.946  17.787  -0.225  1.00 20.00     0.012 C 
HETATM    7  C7  UNL     1     -33.812  19.262  -2.310  1.00 20.00     0.012 C 
HETATM    8  C8  UNL     1     -34.333  16.754  -3.650  1.00 20.00     0.152 A 
HETATM    9  C9  UNL     1     -33.415  16.766  -2.454  1.00 20.00     0.159 A 
HETATM   10  C10 UNL     1     -33.269  17.997  -1.595  1.00 20.00    -0.012 C 
HETATM   11  O11 UNL     1     -32.906  16.884  -3.786  1.00 20.00    -0.375 OA
ENDROOT
TORSDOF 0
ENDMDL
MODEL 8
REMARK VINA RESULT:      -3.6      2.424      5.239
REMARK  0 active torsions:
REMARK  status: ('A' for Active; 'I' for Inactive)
ROOT
HETATM    1  C1  UNL     1     -35.123  15.879  -7.912  1.00 20.00     0.001 C 
HETATM    2  C2  UNL     1     -36.199  15.195  -7.072  1.00 20.00     0.001 C 
HETATM    3  C3  UNL     1     -33.702  15.096  -3.703  1.00 20.00     0.004 C 
HETATM    4  C4  UNL     1     -33.339  16.314  -2.859  1.00 20.00     0.034 C 
HETATM    5  C5  UNL     1     -34.534  16.972  -7.027  1.00 20.00     0.012 C 
HETATM    6  C6  UNL     1     -36.150  15.854  -5.695  1.00 20.00     0.012 C 
HETATM    7  C7  UNL     1     -33.679  15.423  -5.197  1.00 20.00     0.012 C 
HETATM    8  C8  UNL     1     -34.092  17.537  -3.270  1.00 20.00     0.152 A 
HETATM    9  C9  UNL     1     -34.754  17.640  -4.620  1.00 20.00     0.159 A 
HETATM   10  C10 UNL     1     -34.745  16.481  -5.585  1.00 20.00    -0.012 C 
HETATM   11  O11 UNL     1     -33.479  18.238  -4.368  1.00 20.00    -0.375 OA
ENDROOT
TORSDOF 0
ENDMDL
MODEL 9
REMARK VINA RESULT:      -3.6      3.444      4.787
REMARK  0 active torsions:
REMARK  status: ('A' for Active; 'I' for Inactive)
ROOT
HETATM    1  C1  UNL     1     -33.725  14.388  -4.168  1.00 20.00     0.001 C 
HETATM    2  C2  UNL     1     -33.293  15.803  -3.793  1.00 20.00     0.001 C 
HETATM    3  C3  UNL     1     -34.532  17.316  -7.505  1.00 20.00     0.004 C 
HETATM    4  C4  UNL     1     -35.988  17.507  -7.918  1.00 20.00     0.034 C 
HETATM    5  C5  UNL     1     -35.094  14.529  -4.824  1.00 20.00     0.012 C 
HETATM    6  C6  UNL     1     -34.383  16.737  -4.314  1.00 20.00     0.012 C 
HETATM    7  C7  UNL     1     -34.330  15.994  -6.761  1.00 20.00     0.012 C 
HETATM    8  C8  UNL     1     -36.938  17.238  -6.797  1.00 20.00     0.152 A 
HETATM    9  C9  UNL     1     -36.527  16.442  -5.585  1.00 20.00     0.159 A 
HETATM   10  C10 UNL     1     -35.111  15.947  -5.421  1.00 20.00    -0.012 C 
HETATM   11  O11 UNL     1     -37.266  15.843  -6.654  1.00 20.00    -0.375 OA
ENDROOT
TORSDOF 0
ENDMDL
