MODEL 1
REMARK VINA RESULT:      -4.6      0.000      0.000
REMARK  1 active torsions:
REMARK  status: ('A' for Active; 'I' for Inactive)
REMARK    1  A    between atoms: C6_6  and  C11_11 
ROOT
HETATM    1  C1  UNL     1     -34.347  15.679  -6.800  1.00 20.00     0.136 C 
HETATM    2  C2  UNL     1     -34.655  17.146  -6.455  1.00 20.00     0.085 C 
HETATM    3  C3  UNL     1     -33.466  15.586  -3.365  1.00 20.00     0.006 C 
HETATM    4  C4  UNL     1     -33.566  14.628  -4.547  1.00 20.00     0.018 C 
HETATM    5  C5  UNL     1     -34.846  16.701  -4.981  1.00 20.00     0.012 C 
HETATM    6  C6  UNL     1     -33.688  16.954  -4.008  1.00 20.00    -0.006 C 
HETATM    7  C7  UNL     1     -34.724  15.192  -5.379  1.00 20.00     0.021 C 
HETATM    8  C8  UNL     1     -35.998  14.371  -5.301  1.00 20.00     0.024 C 
HETATM    9  O12 UNL     1     -33.959  15.121  -7.805  1.00 20.00    -0.297 OA
ENDROOT
BRANCH   6  10
HETATM   10  C11 UNL     1     -34.030  18.035  -2.998  1.00 20.00    -0.018 C 
HETATM   11  C9  UNL     1     -35.480  18.485  -3.164  1.00 20.00     0.010 C 
HETATM   12  C10 UNL     1     -33.781  17.539  -1.576  1.00 20.00     0.010 C 
ENDBRANCH   6  10
TORSDOF 1
ENDMDL
MODEL 2
REMARK VINA RESULT:      -4.3      1.794      3.587
REMARK  1 active torsions:
REMARK  status: ('A' for Active; 'I' for Inactive)
REMARK    1  A    between atoms: C6_6  and  C11_11 
ROOT
HETATM    1  C1  UNL     1     -34.294  16.572  -4.342  1.00 20.00     0.136 C 
HETATM    2  C2  UNL     1     -33.208  16.094  -3.364  1.00 20.00     0.085 C 
HETATM    3  C3  UNL     1     -34.902  18.899  -1.734  1.00 20.00     0.006 C 
HETATM    4  C4  UNL     1     -35.410  18.597  -3.139  1.00 20.00     0.018 C 
HETATM    5  C5  UNL     1     -33.220  17.516  -2.742  1.00 20.00     0.012 C 
HETATM    6  C6  UNL     1     -33.992  17.710  -1.431  1.00 20.00    -0.006 C 
HETATM    7  C7  UNL     1     -34.178  18.041  -3.863  1.00 20.00     0.021 C 
HETATM    8  C8  UNL     1     -33.570  18.997  -4.873  1.00 20.00     0.024 C 
HETATM    9  O12 UNL     1     -34.977  16.010  -5.172  1.00 20.00    -0.297 OA
ENDROOT
BRANCH   6  10
HETATM   10  C11 UNL     1     -33.057  17.961  -0.262  1.00 20.00    -0.018 C 
HETATM   11  C9  UNL     1     -31.775  18.640  -0.737  1.00 20.00     0.010 C 
HETATM   12  C10 UNL     1     -33.748  18.805   0.806  1.00 20.00     0.010 C 
ENDBRANCH   6  10
TORSDOF 1
ENDMDL
MODEL 3
REMARK VINA RESULT:      -4.0     12.251     13.431
REMARK  1 active torsions:
REMARK  status: ('A' for Active; 'I' for Inactive)
REMARK    1  A    between atoms: C6_6  and  C11_11 
ROOT
HETATM    1  C1  UNL     1     -33.897   4.590   4.126  1.00 20.00     0.136 C 
HETATM    2  C2  UNL     1     -33.002   5.325   3.115  1.00 20.00     0.085 C 
HETATM    3  C3  UNL     1     -33.553   7.650   5.888  1.00 20.00     0.006 C 
HETATM    4  C4  UNL     1     -34.289   6.323   6.033  1.00 20.00     0.018 C 
HETATM    5  C5  UNL     1     -33.532   6.661   3.702  1.00 20.00     0.012 C 
HETATM    6  C6  UNL     1     -32.632   7.406   4.695  1.00 20.00    -0.006 C 
HETATM    7  C7  UNL     1     -34.577   5.904   4.587  1.00 20.00     0.021 C 
HETATM    8  C8  UNL     1     -36.033   6.047   4.180  1.00 20.00     0.024 C 
HETATM    9  O12 UNL     1     -34.020   3.424   4.439  1.00 20.00    -0.297 OA
ENDROOT
BRANCH   6  10
HETATM   10  C11 UNL     1     -32.082   8.690   4.098  1.00 20.00    -0.018 C 
HETATM   11  C9  UNL     1     -32.901   9.109   2.880  1.00 20.00     0.010 C 
HETATM   12  C10 UNL     1     -32.065   9.803   5.143  1.00 20.00     0.010 C 
ENDBRANCH   6  10
TORSDOF 1
ENDMDL
MODEL 4
REMARK VINA RESULT:      -3.9      2.294      4.242
REMARK  1 active torsions:
REMARK  status: ('A' for Active; 'I' for Inactive)
REMARK    1  A    between atoms: C6_6  and  C11_11 
ROOT
HETATM    1  C1  UNL     1     -35.239  18.492  -2.896  1.00 20.00     0.136 C 
HETATM    2  C2  UNL     1     -35.931  18.136  -4.223  1.00 20.00     0.085 C 
HETATM    3  C3  UNL     1     -33.237  15.698  -3.774  1.00 20.00     0.006 C 
HETATM    4  C4  UNL     1     -33.308  16.756  -2.679  1.00 20.00     0.018 C 
HETATM    5  C5  UNL     1     -34.607  17.456  -4.665  1.00 20.00     0.012 C 
HETATM    6  C6  UNL     1     -34.526  15.928  -4.561  1.00 20.00    -0.006 C 
HETATM    7  C7  UNL     1     -33.862  17.992  -3.397  1.00 20.00     0.021 C 
HETATM    8  C8  UNL     1     -32.833  19.083  -3.634  1.00 20.00     0.024 C 
HETATM    9  O12 UNL     1     -35.630  18.980  -1.856  1.00 20.00    -0.297 OA
ENDROOT
BRANCH   6  10
HETATM   10  C11 UNL     1     -34.509  15.273  -5.931  1.00 20.00    -0.018 C 
HETATM   11  C9  UNL     1     -35.818  14.530  -6.187  1.00 20.00     0.010 C 
HETATM   12  C10 UNL     1     -34.260  16.314  -7.019  1.00 20.00     0.010 C 
ENDBRANCH   6  10
TORSDOF 1
ENDMDL
MODEL 5
REMARK VINA RESULT:      -3.9      1.446      2.466
REMARK  1 active torsions:
REMARK  status: ('A' for Active; 'I' for Inactive)
REMARK    1  A    between atoms: C6_6  and  C11_11 
ROOT
HETATM    1  C1  UNL     1     -35.201  14.406  -4.952  1.00 20.00     0.136 C 
HETATM    2  C2  UNL     1     -34.072  14.438  -3.908  1.00 20.00     0.085 C 
HETATM    3  C3  UNL     1     -34.844  17.927  -4.701  1.00 20.00     0.006 C 
HETATM    4  C4  UNL     1     -35.650  16.913  -5.505  1.00 20.00     0.018 C 
HETATM    5  C5  UNL     1     -33.686  15.840  -4.450  1.00 20.00     0.012 C 
HETATM    6  C6  UNL     1     -34.150  17.063  -3.650  1.00 20.00    -0.006 C 
HETATM    7  C7  UNL     1     -34.708  15.710  -5.628  1.00 20.00     0.021 C 
HETATM    8  C8  UNL     1     -34.117  15.527  -7.015  1.00 20.00     0.024 C 
HETATM    9  O12 UNL     1     -36.123  13.646  -5.161  1.00 20.00    -0.297 OA
ENDROOT
BRANCH   6  10
HETATM   10  C11 UNL     1     -32.985  17.768  -2.977  1.00 20.00    -0.018 C 
HETATM   11  C9  UNL     1     -32.947  19.241  -3.376  1.00 20.00     0.010 C 
HETATM   12  C10 UNL     1     -33.075  17.623  -1.461  1.00 20.00     0.010 C 
ENDBRANCH   6  10
TORSDOF 1
ENDMDL
MODEL 6
REMARK VINA RESULT:      -3.7     24.292     25.782
REMARK  1 active torsions:
REMARK  status: ('A' for Active; 'I' for Inactive)
REMARK    1  A    between atoms: C6_6  and  C11_11 
ROOT
HETATM    1  C1  UNL     1     -28.836  -2.162  11.060  1.00 20.00     0.136 C 
HETATM    2  C2  UNL     1     -28.188  -3.339  10.311  1.00 20.00     0.085 C 
HETATM    3  C3  UNL     1     -25.498  -1.691  12.166  1.00 20.00     0.006 C 
HETATM    4  C4  UNL     1     -26.855  -1.011  12.303  1.00 20.00     0.018 C 
HETATM    5  C5  UNL     1     -26.842  -2.571  10.383  1.00 20.00     0.012 C 
HETATM    6  C6  UNL     1     -25.836  -3.001  11.459  1.00 20.00    -0.006 C 
HETATM    7  C7  UNL     1     -27.549  -1.304  10.968  1.00 20.00     0.021 C 
HETATM    8  C8  UNL     1     -27.647  -0.102  10.045  1.00 20.00     0.024 C 
HETATM    9  O12 UNL     1     -29.935  -1.980  11.539  1.00 20.00    -0.297 OA
ENDROOT
BRANCH   6  10
HETATM   10  C11 UNL     1     -24.621  -3.679  10.851  1.00 20.00    -0.018 C 
HETATM   11  C9  UNL     1     -24.342  -3.129   9.455  1.00 20.00     0.010 C 
HETATM   12  C10 UNL     1     -23.402  -3.502  11.753  1.00 20.00     0.010 C 
ENDBRANCH   6  10
TORSDOF 1
ENDMDL
MODEL 7
REMARK VINA RESULT:      -3.7     12.849     14.489
REMARK  1 active torsions:
REMARK  status: ('A' for Active; 'I' for Inactive)
REMARK    1  A    between atoms: C6_6  and  C11_11 
ROOT
HETATM    1  C1  UNL     1     -41.800  15.650   7.786  1.00 20.00     0.136 C 
HETATM    2  C2  UNL     1     -40.409  15.317   7.219  1.00 20.00     0.085 C 
HETATM    3  C3  UNL     1     -42.446  12.306   6.792  1.00 20.00     0.006 C 
HETATM    4  C4  UNL     1     -43.166  13.449   7.499  1.00 20.00     0.018 C 
HETATM    5  C5  UNL     1     -40.719  13.821   7.488  1.00 20.00     0.012 C 
HETATM    6  C6  UNL     1     -41.159  12.961   6.296  1.00 20.00    -0.006 C 
HETATM    7  C7  UNL     1     -42.043  14.188   8.237  1.00 20.00     0.021 C 
HETATM    8  C8  UNL     1     -42.047  13.976   9.741  1.00 20.00     0.024 C 
HETATM    9  O12 UNL     1     -42.453  16.671   7.851  1.00 20.00    -0.297 OA
ENDROOT
BRANCH   6  10
HETATM   10  C11 UNL     1     -40.091  11.954   5.909  1.00 20.00    -0.018 C 
HETATM   11  C9  UNL     1     -39.685  12.138   4.449  1.00 20.00     0.010 C 
HETATM   12  C10 UNL     1     -38.876  12.081   6.824  1.00 20.00     0.010 C 
ENDBRANCH   6  10
TORSDOF 1
ENDMDL
MODEL 8
REMARK VINA RESULT:      -3.6      2.406      4.530
REMARK  1 active torsions:
REMARK  status: ('A' for Active; 'I' for Inactive)
REMARK    1  A    between atoms: C6_6  and  C11_11 
ROOT
HETATM    1  C1  UNL     1     -32.906  18.478  -2.300  1.00 20.00     0.136 C 
HETATM    2  C2  UNL     1     -33.032  16.946  -2.255  1.00 20.00     0.085 C 
HETATM    3  C3  UNL     1     -34.521  18.013  -5.424  1.00 20.00     0.006 C 
HETATM    4  C4  UNL     1     -34.035  19.161  -4.547  1.00 20.00     0.018 C 
HETATM    5  C5  UNL     1     -34.228  17.072  -3.236  1.00 20.00     0.012 C 
HETATM    6  C6  UNL     1     -33.965  16.779  -4.718  1.00 20.00    -0.006 C 
HETATM    7  C7  UNL     1     -34.211  18.632  -3.119  1.00 20.00     0.021 C 
HETATM    8  C8  UNL     1     -35.369  19.263  -2.365  1.00 20.00     0.024 C 
HETATM    9  O12 UNL     1     -32.091  19.262  -1.859  1.00 20.00    -0.297 OA
ENDROOT
BRANCH   6  10
HETATM   10  C11 UNL     1     -34.633  15.489  -5.161  1.00 20.00    -0.018 C 
HETATM   11  C9  UNL     1     -34.231  15.141  -6.592  1.00 20.00     0.010 C 
HETATM   12  C10 UNL     1     -34.280  14.348  -4.211  1.00 20.00     0.010 C 
ENDBRANCH   6  10
TORSDOF 1
ENDMDL
MODEL 9
REMARK VINA RESULT:      -3.6      1.462      2.734
REMARK  1 active torsions:
REMARK  status: ('A' for Active; 'I' for Inactive)
REMARK    1  A    between atoms: C6_6  and  C11_11 
ROOT
HETATM    1  C1  UNL     1     -36.194  15.607  -7.021  1.00 20.00     0.136 C 
HETATM    2  C2  UNL     1     -36.011  15.127  -5.571  1.00 20.00     0.085 C 
HETATM    3  C3  UNL     1     -34.265  18.334  -5.827  1.00 20.00     0.006 C 
HETATM    4  C4  UNL     1     -34.881  17.854  -7.136  1.00 20.00     0.018 C 
HETATM    5  C5  UNL     1     -34.731  16.002  -5.502  1.00 20.00     0.012 C 
HETATM    6  C6  UNL     1     -34.837  17.361  -4.798  1.00 20.00    -0.006 C 
HETATM    7  C7  UNL     1     -34.822  16.326  -7.031  1.00 20.00     0.021 C 
HETATM    8  C8  UNL     1     -33.771  15.684  -7.918  1.00 20.00     0.024 C 
HETATM    9  O12 UNL     1     -37.079  15.470  -7.840  1.00 20.00    -0.297 OA
ENDROOT
BRANCH   6  10
HETATM   10  C11 UNL     1     -34.077  17.371  -3.484  1.00 20.00    -0.018 C 
HETATM   11  C9  UNL     1     -33.305  16.068  -3.300  1.00 20.00     0.010 C 
HETATM   12  C10 UNL     1     -33.133  18.569  -3.420  1.00 20.00     0.010 C 
ENDBRANCH   6  10
TORSDOF 1
ENDMDL
