MODEL 1
REMARK VINA RESULT:      -5.3      0.000      0.000
REMARK  1 active torsions:
REMARK  status: ('A' for Active; 'I' for Inactive)
REMARK    1  A    between atoms: C2_2  and  C9_9 
ROOT
HETATM    1  C1  UNL     1     -33.486   7.739   5.508  1.00 20.00     0.057 A 
HETATM    2  C2  UNL     1     -33.778   6.695   4.728  1.00 20.00    -0.069 A 
HETATM    3  C3  UNL     1     -32.572   8.581   4.727  1.00 20.00     0.189 A 
HETATM    4  C4  UNL     1     -33.138   6.717   3.370  1.00 20.00     0.086 A 
HETATM    5  C5  UNL     1     -32.264   7.972   3.384  1.00 20.00     0.167 A 
HETATM    6  C6  UNL     1     -32.559   8.928   2.243  1.00 20.00     0.061 C 
HETATM    7  O10 UNL     1     -32.102   9.626   5.153  1.00 20.00    -0.290 OA
HETATM    8  F11 UNL     1     -30.956   7.605   3.319  1.00 20.00    -0.234 F 
ENDROOT
BRANCH   2   9
HETATM    9  C9  UNL     1     -34.675   5.566   5.103  1.00 20.00     0.006 C 
HETATM   10  C7  UNL     1     -34.194   4.262   4.466  1.00 20.00     0.014 C 
HETATM   11  C8  UNL     1     -34.769   5.418   6.622  1.00 20.00     0.014 C 
ENDBRANCH   2   9
TORSDOF 1
ENDMDL
MODEL 2
REMARK VINA RESULT:      -4.5      2.178      3.983
REMARK  1 active torsions:
REMARK  status: ('A' for Active; 'I' for Inactive)
REMARK    1  A    between atoms: C2_2  and  C9_9 
ROOT
HETATM    1  C1  UNL     1     -33.253   7.963   5.245  1.00 20.00     0.057 A 
HETATM    2  C2  UNL     1     -33.047   7.555   3.989  1.00 20.00    -0.069 A 
HETATM    3  C3  UNL     1     -34.128   6.955   5.856  1.00 20.00     0.189 A 
HETATM    4  C4  UNL     1     -33.714   6.261   3.623  1.00 20.00     0.086 A 
HETATM    5  C5  UNL     1     -34.504   5.876   4.875  1.00 20.00     0.167 A 
HETATM    6  C6  UNL     1     -34.174   4.490   5.397  1.00 20.00     0.061 C 
HETATM    7  O10 UNL     1     -34.520   7.027   7.011  1.00 20.00    -0.290 OA
HETATM    8  F11 UNL     1     -35.834   5.931   4.597  1.00 20.00    -0.234 F 
ENDROOT
BRANCH   2   9
HETATM    9  C9  UNL     1     -32.217   8.269   2.980  1.00 20.00     0.006 C 
HETATM   10  C7  UNL     1     -32.045   7.414   1.723  1.00 20.00     0.014 C 
HETATM   11  C8  UNL     1     -32.826   9.627   2.626  1.00 20.00     0.014 C 
ENDBRANCH   2   9
TORSDOF 1
ENDMDL
MODEL 3
REMARK VINA RESULT:      -4.2     12.055     13.078
REMARK  1 active torsions:
REMARK  status: ('A' for Active; 'I' for Inactive)
REMARK    1  A    between atoms: C2_2  and  C9_9 
ROOT
HETATM    1  C1  UNL     1     -34.607  17.457  -4.353  1.00 20.00     0.057 A 
HETATM    2  C2  UNL     1     -33.746  16.843  -3.538  1.00 20.00    -0.069 A 
HETATM    3  C3  UNL     1     -35.102  16.423  -5.269  1.00 20.00     0.189 A 
HETATM    4  C4  UNL     1     -33.580  15.370  -3.781  1.00 20.00     0.086 A 
HETATM    5  C5  UNL     1     -34.458  15.088  -5.001  1.00 20.00     0.167 A 
HETATM    6  C6  UNL     1     -35.485  13.995  -4.769  1.00 20.00     0.061 C 
HETATM    7  O10 UNL     1     -35.911  16.652  -6.156  1.00 20.00    -0.290 OA
HETATM    8  F11 UNL     1     -33.666  14.726  -6.046  1.00 20.00    -0.234 F 
ENDROOT
BRANCH   2   9
HETATM    9  C9  UNL     1     -32.985  17.498  -2.438  1.00 20.00     0.006 C 
HETATM   10  C7  UNL     1     -32.730  18.971  -2.764  1.00 20.00     0.014 C 
HETATM   11  C8  UNL     1     -33.721  17.365  -1.103  1.00 20.00     0.014 C 
ENDBRANCH   2   9
TORSDOF 1
ENDMDL
MODEL 4
REMARK VINA RESULT:      -4.1     11.930     13.085
REMARK  1 active torsions:
REMARK  status: ('A' for Active; 'I' for Inactive)
REMARK    1  A    between atoms: C2_2  and  C9_9 
ROOT
HETATM    1  C1  UNL     1     -33.346  15.931  -3.244  1.00 20.00     0.057 A 
HETATM    2  C2  UNL     1     -33.989  17.063  -3.543  1.00 20.00    -0.069 A 
HETATM    3  C3  UNL     1     -33.708  14.973  -4.296  1.00 20.00     0.189 A 
HETATM    4  C4  UNL     1     -34.814  17.014  -4.796  1.00 20.00     0.086 A 
HETATM    5  C5  UNL     1     -34.676  15.571  -5.284  1.00 20.00     0.167 A 
HETATM    6  C6  UNL     1     -34.175  15.459  -6.711  1.00 20.00     0.061 C 
HETATM    7  O10 UNL     1     -33.291  13.825  -4.322  1.00 20.00    -0.290 OA
HETATM    8  F11 UNL     1     -35.884  14.953  -5.196  1.00 20.00    -0.234 F 
ENDROOT
BRANCH   2   9
HETATM    9  C9  UNL     1     -33.926  18.322  -2.750  1.00 20.00     0.006 C 
HETATM   10  C7  UNL     1     -33.676  18.015  -1.272  1.00 20.00     0.014 C 
HETATM   11  C8  UNL     1     -32.849  19.263  -3.292  1.00 20.00     0.014 C 
ENDBRANCH   2   9
TORSDOF 1
ENDMDL
MODEL 5
REMARK VINA RESULT:      -3.9      1.668      2.130
REMARK  1 active torsions:
REMARK  status: ('A' for Active; 'I' for Inactive)
REMARK    1  A    between atoms: C2_2  and  C9_9 
ROOT
HETATM    1  C1  UNL     1     -33.003   6.143   3.145  1.00 20.00     0.057 A 
HETATM    2  C2  UNL     1     -33.770   6.209   4.236  1.00 20.00    -0.069 A 
HETATM    3  C3  UNL     1     -32.469   7.496   2.945  1.00 20.00     0.189 A 
HETATM    4  C4  UNL     1     -33.827   7.558   4.893  1.00 20.00     0.086 A 
HETATM    5  C5  UNL     1     -32.989   8.457   3.983  1.00 20.00     0.167 A 
HETATM    6  C6  UNL     1     -31.866   9.176   4.707  1.00 20.00     0.061 C 
HETATM    7  O10 UNL     1     -31.725   7.788   2.021  1.00 20.00    -0.290 OA
HETATM    8  F11 UNL     1     -33.798   9.385   3.404  1.00 20.00    -0.234 F 
ENDROOT
BRANCH   2   9
HETATM    9  C9  UNL     1     -34.527   5.070   4.825  1.00 20.00     0.006 C 
HETATM   10  C7  UNL     1     -33.802   3.749   4.564  1.00 20.00     0.014 C 
HETATM   11  C8  UNL     1     -34.750   5.272   6.325  1.00 20.00     0.014 C 
ENDBRANCH   2   9
TORSDOF 1
ENDMDL
MODEL 6
REMARK VINA RESULT:      -3.9      2.486      4.477
REMARK  1 active torsions:
REMARK  status: ('A' for Active; 'I' for Inactive)
REMARK    1  A    between atoms: C2_2  and  C9_9 
ROOT
HETATM    1  C1  UNL     1     -33.608   6.059   3.772  1.00 20.00     0.057 A 
HETATM    2  C2  UNL     1     -33.374   7.204   4.420  1.00 20.00    -0.069 A 
HETATM    3  C3  UNL     1     -34.060   5.105   4.790  1.00 20.00     0.189 A 
HETATM    4  C4  UNL     1     -33.651   7.166   5.895  1.00 20.00     0.086 A 
HETATM    5  C5  UNL     1     -34.063   5.719   6.166  1.00 20.00     0.167 A 
HETATM    6  C6  UNL     1     -35.413   5.590   6.846  1.00 20.00     0.061 C 
HETATM    7  O10 UNL     1     -34.357   3.948   4.533  1.00 20.00    -0.290 OA
HETATM    8  F11 UNL     1     -33.122   5.127   6.950  1.00 20.00    -0.234 F 
ENDROOT
BRANCH   2   9
HETATM    9  C9  UNL     1     -32.891   8.464   3.792  1.00 20.00     0.006 C 
HETATM   10  C7  UNL     1     -32.044   9.268   4.780  1.00 20.00     0.014 C 
HETATM   11  C8  UNL     1     -32.097   8.176   2.517  1.00 20.00     0.014 C 
ENDBRANCH   2   9
TORSDOF 1
ENDMDL
MODEL 7
REMARK VINA RESULT:      -3.9     12.200     12.859
REMARK  1 active torsions:
REMARK  status: ('A' for Active; 'I' for Inactive)
REMARK    1  A    between atoms: C2_2  and  C9_9 
ROOT
HETATM    1  C1  UNL     1     -34.147  19.062  -0.483  1.00 20.00     0.057 A 
HETATM    2  C2  UNL     1     -32.854  18.836  -0.237  1.00 20.00    -0.069 A 
HETATM    3  C3  UNL     1     -34.414  18.474  -1.801  1.00 20.00     0.189 A 
HETATM    4  C4  UNL     1     -32.126  18.077  -1.308  1.00 20.00     0.086 A 
HETATM    5  C5  UNL     1     -33.170  17.879  -2.407  1.00 20.00     0.167 A 
HETATM    6  C6  UNL     1     -33.366  16.427  -2.802  1.00 20.00     0.061 C 
HETATM    7  O10 UNL     1     -35.513  18.509  -2.335  1.00 20.00    -0.290 OA
HETATM    8  F11 UNL     1     -32.797  18.583  -3.510  1.00 20.00    -0.234 F 
ENDROOT
BRANCH   2   9
HETATM    9  C9  UNL     1     -32.126  19.259   0.992  1.00 20.00     0.006 C 
HETATM   10  C7  UNL     1     -33.065  19.262   2.199  1.00 20.00     0.014 C 
HETATM   11  C8  UNL     1     -30.917  18.360   1.254  1.00 20.00     0.014 C 
ENDBRANCH   2   9
TORSDOF 1
ENDMDL
MODEL 8
REMARK VINA RESULT:      -3.9     12.168     13.117
REMARK  1 active torsions:
REMARK  status: ('A' for Active; 'I' for Inactive)
REMARK    1  A    between atoms: C2_2  and  C9_9 
ROOT
HETATM    1  C1  UNL     1     -33.353  15.860  -3.430  1.00 20.00     0.057 A 
HETATM    2  C2  UNL     1     -34.170  15.973  -4.482  1.00 20.00    -0.069 A 
HETATM    3  C3  UNL     1     -33.412  17.151  -2.734  1.00 20.00     0.189 A 
HETATM    4  C4  UNL     1     -34.869  17.296  -4.604  1.00 20.00     0.086 A 
HETATM    5  C5  UNL     1     -34.311  18.127  -3.448  1.00 20.00     0.167 A 
HETATM    6  C6  UNL     1     -35.382  18.690  -2.533  1.00 20.00     0.061 C 
HETATM    7  O10 UNL     1     -32.772  17.390  -1.722  1.00 20.00    -0.290 OA
HETATM    8  F11 UNL     1     -33.582  19.159  -3.952  1.00 20.00    -0.234 F 
ENDROOT
BRANCH   2   9
HETATM    9  C9  UNL     1     -34.429  14.906  -5.487  1.00 20.00     0.006 C 
HETATM   10  C7  UNL     1     -35.885  14.441  -5.415  1.00 20.00     0.014 C 
HETATM   11  C8  UNL     1     -34.088  15.384  -6.899  1.00 20.00     0.014 C 
ENDBRANCH   2   9
TORSDOF 1
ENDMDL
MODEL 9
REMARK VINA RESULT:      -3.8     12.286     13.812
REMARK  1 active torsions:
REMARK  status: ('A' for Active; 'I' for Inactive)
REMARK    1  A    between atoms: C2_2  and  C9_9 
ROOT
HETATM    1  C1  UNL     1     -34.355  15.271  -5.239  1.00 20.00     0.057 A 
HETATM    2  C2  UNL     1     -34.398  16.451  -4.614  1.00 20.00    -0.069 A 
HETATM    3  C3  UNL     1     -35.625  15.155  -5.965  1.00 20.00     0.189 A 
HETATM    4  C4  UNL     1     -35.645  17.252  -4.852  1.00 20.00     0.086 A 
HETATM    5  C5  UNL     1     -36.514  16.347  -5.726  1.00 20.00     0.167 A 
HETATM    6  C6  UNL     1     -36.956  16.999  -7.023  1.00 20.00     0.061 C 
HETATM    7  O10 UNL     1     -35.916  14.182  -6.645  1.00 20.00    -0.290 OA
HETATM    8  F11 UNL     1     -37.621  15.979  -5.025  1.00 20.00    -0.234 F 
ENDROOT
BRANCH   2   9
HETATM    9  C9  UNL     1     -33.321  17.002  -3.745  1.00 20.00     0.006 C 
HETATM   10  C7  UNL     1     -33.246  18.524  -3.881  1.00 20.00     0.014 C 
HETATM   11  C8  UNL     1     -33.535  16.605  -2.283  1.00 20.00     0.014 C 
ENDBRANCH   2   9
TORSDOF 1
ENDMDL
