MODEL 1
REMARK VINA RESULT:      -4.2      0.000      0.000
REMARK  0 active torsions:
REMARK  status: ('A' for Active; 'I' for Inactive)
ROOT
HETATM    1  C1  UNL     1     -33.366  16.282  -2.661  1.00 20.00     0.024 A 
HETATM    2  C2  UNL     1     -33.808  16.169  -4.013  1.00 20.00    -0.016 A 
HETATM    3  C3  UNL     1     -34.464  17.314  -4.420  1.00 20.00    -0.007 A 
HETATM    4  C4  UNL     1     -33.707  17.496  -2.102  1.00 20.00    -0.020 A 
HETATM    5  C5  UNL     1     -33.592  15.004  -4.932  1.00 20.00     0.311 C 
HETATM    6  C6  UNL     1     -35.072  17.487  -5.774  1.00 20.00     0.077 C 
HETATM    7  C7  UNL     1     -34.577  16.369  -6.713  1.00 20.00     0.277 C 
HETATM    8  C8  UNL     1     -33.432  17.990  -0.736  1.00 20.00     0.056 C 
HETATM    9  C9  UNL     1     -35.832  14.500  -5.766  1.00 20.00     0.310 C 
HETATM   10  N10 UNL     1     -34.510  15.031  -6.092  1.00 20.00     0.088 N 
HETATM   11  S11 UNL     1     -34.558  18.496  -3.204  1.00 20.00    -0.099 SA
ENDROOT
TORSDOF 0
ENDMDL
MODEL 2
REMARK VINA RESULT:      -3.5      1.391      2.285
REMARK  0 active torsions:
REMARK  status: ('A' for Active; 'I' for Inactive)
ROOT
HETATM    1  C1  UNL     1     -33.989  18.436  -4.451  1.00 20.00     0.024 A 
HETATM    2  C2  UNL     1     -34.470  17.264  -5.109  1.00 20.00    -0.016 A 
HETATM    3  C3  UNL     1     -34.153  16.126  -4.393  1.00 20.00    -0.007 A 
HETATM    4  C4  UNL     1     -33.329  18.140  -3.278  1.00 20.00    -0.020 A 
HETATM    5  C5  UNL     1     -35.249  17.210  -6.389  1.00 20.00     0.311 C 
HETATM    6  C6  UNL     1     -34.491  14.741  -4.840  1.00 20.00     0.077 C 
HETATM    7  C7  UNL     1     -35.501  14.803  -6.002  1.00 20.00     0.277 C 
HETATM    8  C8  UNL     1     -32.693  19.071  -2.320  1.00 20.00     0.056 C 
HETATM    9  C9  UNL     1     -34.006  15.612  -7.756  1.00 20.00     0.310 C 
HETATM   10  N10 UNL     1     -35.229  15.861  -6.996  1.00 20.00     0.088 N 
HETATM   11  S11 UNL     1     -33.289  16.455  -2.968  1.00 20.00    -0.099 SA
ENDROOT
TORSDOF 0
ENDMDL
MODEL 3
REMARK VINA RESULT:      -3.5      2.337      4.400
REMARK  0 active torsions:
REMARK  status: ('A' for Active; 'I' for Inactive)
ROOT
HETATM    1  C1  UNL     1     -33.618  15.863  -3.978  1.00 20.00     0.024 A 
HETATM    2  C2  UNL     1     -33.881  16.906  -3.040  1.00 20.00    -0.016 A 
HETATM    3  C3  UNL     1     -34.750  17.841  -3.566  1.00 20.00    -0.007 A 
HETATM    4  C4  UNL     1     -34.290  16.051  -5.167  1.00 20.00    -0.020 A 
HETATM    5  C5  UNL     1     -33.342  17.014  -1.645  1.00 20.00     0.311 C 
HETATM    6  C6  UNL     1     -35.191  19.069  -2.838  1.00 20.00     0.077 C 
HETATM    7  C7  UNL     1     -34.806  18.957  -1.350  1.00 20.00     0.277 C 
HETATM    8  C8  UNL     1     -34.278  15.199  -6.376  1.00 20.00     0.056 C 
HETATM    9  C9  UNL     1     -32.392  19.263  -1.563  1.00 20.00     0.310 C 
HETATM   10  N10 UNL     1     -33.467  18.385  -1.104  1.00 20.00     0.088 N 
HETATM   11  S11 UNL     1     -35.235  17.482  -5.154  1.00 20.00    -0.099 SA
ENDROOT
TORSDOF 0
ENDMDL
MODEL 4
REMARK VINA RESULT:      -3.5      2.279      4.560
REMARK  0 active torsions:
REMARK  status: ('A' for Active; 'I' for Inactive)
ROOT
HETATM    1  C1  UNL     1     -34.581  17.370  -5.755  1.00 20.00     0.024 A 
HETATM    2  C2  UNL     1     -34.123  17.746  -4.457  1.00 20.00    -0.016 A 
HETATM    3  C3  UNL     1     -33.772  16.638  -3.712  1.00 20.00    -0.007 A 
HETATM    4  C4  UNL     1     -34.563  16.003  -5.937  1.00 20.00    -0.020 A 
HETATM    5  C5  UNL     1     -33.988  19.141  -3.923  1.00 20.00     0.311 C 
HETATM    6  C6  UNL     1     -33.287  16.703  -2.301  1.00 20.00     0.077 C 
HETATM    7  C7  UNL     1     -32.935  18.160  -1.940  1.00 20.00     0.277 C 
HETATM    8  C8  UNL     1     -34.958  15.229  -7.134  1.00 20.00     0.056 C 
HETATM    9  C9  UNL     1     -35.198  19.070  -1.802  1.00 20.00     0.310 C 
HETATM   10  N10 UNL     1     -33.889  19.166  -2.447  1.00 20.00     0.088 N 
HETATM   11  S11 UNL     1     -33.995  15.175  -4.548  1.00 20.00    -0.099 SA
ENDROOT
TORSDOF 0
ENDMDL
MODEL 5
REMARK VINA RESULT:      -3.4      1.635      2.452
REMARK  0 active torsions:
REMARK  status: ('A' for Active; 'I' for Inactive)
ROOT
HETATM    1  C1  UNL     1     -34.728  17.798  -3.584  1.00 20.00     0.024 A 
HETATM    2  C2  UNL     1     -35.099  17.140  -4.796  1.00 20.00    -0.016 A 
HETATM    3  C3  UNL     1     -34.360  15.988  -4.983  1.00 20.00    -0.007 A 
HETATM    4  C4  UNL     1     -33.729  17.127  -2.913  1.00 20.00    -0.020 A 
HETATM    5  C5  UNL     1     -36.162  17.572  -5.761  1.00 20.00     0.311 C 
HETATM    6  C6  UNL     1     -34.494  15.099  -6.176  1.00 20.00     0.077 C 
HETATM    7  C7  UNL     1     -35.767  15.471  -6.961  1.00 20.00     0.277 C 
HETATM    8  C8  UNL     1     -33.079  17.484  -1.634  1.00 20.00     0.056 C 
HETATM    9  C9  UNL     1     -35.013  17.588  -7.917  1.00 20.00     0.310 C 
HETATM   10  N10 UNL     1     -36.011  16.922  -7.082  1.00 20.00     0.088 N 
HETATM   11  S11 UNL     1     -33.238  15.706  -3.738  1.00 20.00    -0.099 SA
ENDROOT
TORSDOF 0
ENDMDL
MODEL 6
REMARK VINA RESULT:      -3.4     24.593     25.705
REMARK  0 active torsions:
REMARK  status: ('A' for Active; 'I' for Inactive)
ROOT
HETATM    1  C1  UNL     1     -25.256  -3.223  10.082  1.00 20.00     0.024 A 
HETATM    2  C2  UNL     1     -26.351  -2.453  10.576  1.00 20.00    -0.016 A 
HETATM    3  C3  UNL     1     -25.948  -1.607  11.590  1.00 20.00    -0.007 A 
HETATM    4  C4  UNL     1     -24.079  -2.935  10.740  1.00 20.00    -0.020 A 
HETATM    5  C5  UNL     1     -27.766  -2.488  10.082  1.00 20.00     0.311 C 
HETATM    6  C6  UNL     1     -26.872  -0.698  12.332  1.00 20.00     0.077 C 
HETATM    7  C7  UNL     1     -28.220  -0.610  11.590  1.00 20.00     0.277 C 
HETATM    8  C8  UNL     1     -22.736  -3.516  10.522  1.00 20.00     0.056 C 
HETATM    9  C9  UNL     1     -29.081  -2.836  12.111  1.00 20.00     0.310 C 
HETATM   10  N10 UNL     1     -28.711  -1.896  11.055  1.00 20.00     0.088 N 
HETATM   11  S11 UNL     1     -24.292  -1.739  11.950  1.00 20.00    -0.099 SA
ENDROOT
TORSDOF 0
ENDMDL
MODEL 7
REMARK VINA RESULT:      -3.3      1.102      1.246
REMARK  0 active torsions:
REMARK  status: ('A' for Active; 'I' for Inactive)
ROOT
HETATM    1  C1  UNL     1     -33.306  16.872  -3.139  1.00 20.00     0.024 A 
HETATM    2  C2  UNL     1     -34.282  16.940  -4.179  1.00 20.00    -0.016 A 
HETATM    3  C3  UNL     1     -35.238  17.896  -3.902  1.00 20.00    -0.007 A 
HETATM    4  C4  UNL     1     -33.564  17.769  -2.125  1.00 20.00    -0.020 A 
HETATM    5  C5  UNL     1     -34.304  16.131  -5.441  1.00 20.00     0.311 C 
HETATM    6  C6  UNL     1     -36.411  18.180  -4.784  1.00 20.00     0.077 C 
HETATM    7  C7  UNL     1     -36.206  17.503  -6.153  1.00 20.00     0.277 C 
HETATM    8  C8  UNL     1     -32.793  18.002  -0.884  1.00 20.00     0.056 C 
HETATM    9  C9  UNL     1     -36.554  15.181  -5.482  1.00 20.00     0.310 C 
HETATM   10  N10 UNL     1     -35.635  16.143  -6.087  1.00 20.00     0.088 N 
HETATM   11  S11 UNL     1     -34.979  18.690  -2.423  1.00 20.00    -0.099 SA
ENDROOT
TORSDOF 0
ENDMDL
MODEL 8
REMARK VINA RESULT:      -3.2     12.186     13.878
REMARK  0 active torsions:
REMARK  status: ('A' for Active; 'I' for Inactive)
ROOT
HETATM    1  C1  UNL     1     -39.785  12.950   6.762  1.00 20.00     0.024 A 
HETATM    2  C2  UNL     1     -40.694  13.884   7.343  1.00 20.00    -0.016 A 
HETATM    3  C3  UNL     1     -41.652  14.280   6.431  1.00 20.00    -0.007 A 
HETATM    4  C4  UNL     1     -40.085  12.683   5.443  1.00 20.00    -0.020 A 
HETATM    5  C5  UNL     1     -40.684  14.384   8.757  1.00 20.00     0.311 C 
HETATM    6  C6  UNL     1     -42.724  15.277   6.729  1.00 20.00     0.077 C 
HETATM    7  C7  UNL     1     -42.793  15.525   8.249  1.00 20.00     0.277 C 
HETATM    8  C8  UNL     1     -39.387  11.778   4.505  1.00 20.00     0.056 C 
HETATM    9  C9  UNL     1     -40.735  16.814   8.513  1.00 20.00     0.310 C 
HETATM   10  N10 UNL     1     -41.479  15.622   8.915  1.00 20.00     0.088 N 
HETATM   11  S11 UNL     1     -41.460  13.555   4.906  1.00 20.00    -0.099 SA
ENDROOT
TORSDOF 0
ENDMDL
MODEL 9
REMARK VINA RESULT:      -3.2     12.071     13.688
REMARK  0 active torsions:
REMARK  status: ('A' for Active; 'I' for Inactive)
ROOT
HETATM    1  C1  UNL     1     -40.877  13.257   4.910  1.00 20.00     0.024 A 
HETATM    2  C2  UNL     1     -41.142  14.012   6.092  1.00 20.00    -0.016 A 
HETATM    3  C3  UNL     1     -40.298  13.641   7.119  1.00 20.00    -0.007 A 
HETATM    4  C4  UNL     1     -39.855  12.349   5.091  1.00 20.00    -0.020 A 
HETATM    5  C5  UNL     1     -42.164  15.098   6.251  1.00 20.00     0.311 C 
HETATM    6  C6  UNL     1     -40.352  14.226   8.493  1.00 20.00     0.077 C 
HETATM    7  C7  UNL     1     -41.233  15.491   8.484  1.00 20.00     0.277 C 
HETATM    8  C8  UNL     1     -39.291  11.392   4.115  1.00 20.00     0.056 C 
HETATM    9  C9  UNL     1     -43.417  14.427   8.237  1.00 20.00     0.310 C 
HETATM   10  N10 UNL     1     -42.462  15.378   7.673  1.00 20.00     0.088 N 
HETATM   11  S11 UNL     1     -39.217  12.406   6.681  1.00 20.00    -0.099 SA
ENDROOT
TORSDOF 0
ENDMDL
