MODEL 1
REMARK VINA RESULT:      -4.4      0.000      0.000
REMARK  1 active torsions:
REMARK  status: ('A' for Active; 'I' for Inactive)
REMARK    1  A    between atoms: C4_4  and  C9_9 
ROOT
HETATM    1  C1  UNL     1     -33.657  15.173  -3.826  1.00 20.00     0.014 A 
HETATM    2  C2  UNL     1     -34.328  14.396  -4.684  1.00 20.00     0.075 A 
HETATM    3  C3  UNL     1     -34.714  17.156  -4.669  1.00 20.00     0.101 A 
HETATM    4  C4  UNL     1     -33.847  16.606  -3.806  1.00 20.00    -0.039 A 
HETATM    5  C5  UNL     1     -35.294  15.000  -5.646  1.00 20.00     0.246 A 
HETATM    6  C8  UNL     1     -36.356  17.058  -6.484  1.00 20.00     0.159 C 
HETATM    7  N10 UNL     1     -35.431  16.392  -5.575  1.00 20.00    -0.329 N 
HETATM    8  O11 UNL     1     -35.897  14.262  -6.423  1.00 20.00    -0.268 OA
ENDROOT
BRANCH   4   9
HETATM    9  C9  UNL     1     -33.056  17.400  -2.815  1.00 20.00     0.012 C 
HETATM   10  C6  UNL     1     -32.989  18.865  -3.240  1.00 20.00     0.015 C 
HETATM   11  C7  UNL     1     -33.649  17.268  -1.414  1.00 20.00     0.015 C 
ENDBRANCH   4   9
TORSDOF 1
ENDMDL
MODEL 2
REMARK VINA RESULT:      -4.1      1.951      2.764
REMARK  1 active torsions:
REMARK  status: ('A' for Active; 'I' for Inactive)
REMARK    1  A    between atoms: C4_4  and  C9_9 
ROOT
HETATM    1  C1  UNL     1     -33.311  16.696  -2.108  1.00 20.00     0.014 A 
HETATM    2  C2  UNL     1     -33.651  16.087  -3.250  1.00 20.00     0.075 A 
HETATM    3  C3  UNL     1     -33.518  18.867  -3.108  1.00 20.00     0.101 A 
HETATM    4  C4  UNL     1     -33.237  18.136  -2.018  1.00 20.00    -0.039 A 
HETATM    5  C5  UNL     1     -33.965  16.894  -4.465  1.00 20.00     0.246 A 
HETATM    6  C8  UNL     1     -34.166  19.141  -5.455  1.00 20.00     0.159 C 
HETATM    7  N10 UNL     1     -33.875  18.282  -4.312  1.00 20.00    -0.329 N 
HETATM    8  O11 UNL     1     -34.275  16.309  -5.501  1.00 20.00    -0.268 OA
ENDROOT
BRANCH   4   9
HETATM    9  C9  UNL     1     -32.848  18.734  -0.704  1.00 20.00     0.012 C 
HETATM   10  C6  UNL     1     -33.721  18.171   0.415  1.00 20.00     0.015 C 
HETATM   11  C7  UNL     1     -31.369  18.491  -0.412  1.00 20.00     0.015 C 
ENDBRANCH   4   9
TORSDOF 1
ENDMDL
MODEL 3
REMARK VINA RESULT:      -4.1      1.684      2.867
REMARK  1 active torsions:
REMARK  status: ('A' for Active; 'I' for Inactive)
REMARK    1  A    between atoms: C4_4  and  C9_9 
ROOT
HETATM    1  C1  UNL     1     -34.567  18.413  -2.724  1.00 20.00     0.014 A 
HETATM    2  C2  UNL     1     -35.037  18.146  -3.947  1.00 20.00     0.075 A 
HETATM    3  C3  UNL     1     -33.350  16.346  -2.652  1.00 20.00     0.101 A 
HETATM    4  C4  UNL     1     -33.691  17.490  -2.039  1.00 20.00    -0.039 A 
HETATM    5  C5  UNL     1     -34.662  16.876  -4.635  1.00 20.00     0.246 A 
HETATM    6  C8  UNL     1     -33.400  14.765  -4.522  1.00 20.00     0.159 C 
HETATM    7  N10 UNL     1     -33.812  16.027  -3.918  1.00 20.00    -0.329 N 
HETATM    8  O11 UNL     1     -35.109  16.657  -5.759  1.00 20.00    -0.268 OA
ENDROOT
BRANCH   4   9
HETATM    9  C9  UNL     1     -33.212  17.867  -0.673  1.00 20.00     0.012 C 
HETATM   10  C6  UNL     1     -31.831  18.513  -0.754  1.00 20.00     0.015 C 
HETATM   11  C7  UNL     1     -34.207  18.799   0.015  1.00 20.00     0.015 C 
ENDBRANCH   4   9
TORSDOF 1
ENDMDL
MODEL 4
REMARK VINA RESULT:      -4.0      4.448      6.175
REMARK  1 active torsions:
REMARK  status: ('A' for Active; 'I' for Inactive)
REMARK    1  A    between atoms: C4_4  and  C9_9 
ROOT
HETATM    1  C1  UNL     1     -31.886  18.164  -1.094  1.00 20.00     0.014 A 
HETATM    2  C2  UNL     1     -31.399  18.534   0.095  1.00 20.00     0.075 A 
HETATM    3  C3  UNL     1     -34.148  18.485  -0.359  1.00 20.00     0.101 A 
HETATM    4  C4  UNL     1     -33.309  18.134  -1.345  1.00 20.00    -0.039 A 
HETATM    5  C5  UNL     1     -32.325  18.926   1.197  1.00 20.00     0.246 A 
HETATM    6  C8  UNL     1     -34.660  19.243   1.914  1.00 20.00     0.159 C 
HETATM    7  N10 UNL     1     -33.690  18.875   0.889  1.00 20.00    -0.329 N 
HETATM    8  O11 UNL     1     -31.850  19.262   2.280  1.00 20.00    -0.268 OA
ENDROOT
BRANCH   4   9
HETATM    9  C9  UNL     1     -33.768  17.707  -2.703  1.00 20.00     0.012 C 
HETATM   10  C6  UNL     1     -33.288  18.698  -3.762  1.00 20.00     0.015 C 
HETATM   11  C7  UNL     1     -33.285  16.295  -3.023  1.00 20.00     0.015 C 
ENDBRANCH   4   9
TORSDOF 1
ENDMDL
MODEL 5
REMARK VINA RESULT:      -3.9     16.028     17.991
REMARK  1 active torsions:
REMARK  status: ('A' for Active; 'I' for Inactive)
REMARK    1  A    between atoms: C4_4  and  C9_9 
ROOT
HETATM    1  C1  UNL     1     -22.409  17.799  10.302  1.00 20.00     0.014 A 
HETATM    2  C2  UNL     1     -21.921  17.980   9.070  1.00 20.00     0.075 A 
HETATM    3  C3  UNL     1     -24.588  18.554   9.638  1.00 20.00     0.101 A 
HETATM    4  C4  UNL     1     -23.790  18.092  10.613  1.00 20.00    -0.039 A 
HETATM    5  C5  UNL     1     -22.802  18.493   7.982  1.00 20.00     0.246 A 
HETATM    6  C8  UNL     1     -25.052  19.263   7.340  1.00 20.00     0.159 C 
HETATM    7  N10 UNL     1     -24.127  18.757   8.348  1.00 20.00    -0.329 N 
HETATM    8  O11 UNL     1     -22.327  18.649   6.858  1.00 20.00    -0.268 OA
ENDROOT
BRANCH   4   9
HETATM    9  C9  UNL     1     -24.253  17.861  12.016  1.00 20.00     0.012 C 
HETATM   10  C6  UNL     1     -25.460  18.742  12.329  1.00 20.00     0.015 C 
HETATM   11  C7  UNL     1     -24.582  16.388  12.246  1.00 20.00     0.015 C 
ENDBRANCH   4   9
TORSDOF 1
ENDMDL
MODEL 6
REMARK VINA RESULT:      -3.9      2.512      4.093
REMARK  1 active torsions:
REMARK  status: ('A' for Active; 'I' for Inactive)
REMARK    1  A    between atoms: C4_4  and  C9_9 
ROOT
HETATM    1  C1  UNL     1     -33.432  15.763  -3.581  1.00 20.00     0.014 A 
HETATM    2  C2  UNL     1     -33.298  16.627  -2.569  1.00 20.00     0.075 A 
HETATM    3  C3  UNL     1     -35.088  17.137  -4.642  1.00 20.00     0.101 A 
HETATM    4  C4  UNL     1     -34.356  16.013  -4.664  1.00 20.00    -0.039 A 
HETATM    5  C5  UNL     1     -34.109  17.879  -2.538  1.00 20.00     0.246 A 
HETATM    6  C8  UNL     1     -35.813  19.260  -3.659  1.00 20.00     0.159 C 
HETATM    7  N10 UNL     1     -34.984  18.061  -3.615  1.00 20.00    -0.329 N 
HETATM    8  O11 UNL     1     -33.965  18.656  -1.597  1.00 20.00    -0.268 OA
ENDROOT
BRANCH   4   9
HETATM    9  C9  UNL     1     -34.443  14.994  -5.755  1.00 20.00     0.012 C 
HETATM   10  C6  UNL     1     -35.862  14.436  -5.849  1.00 20.00     0.015 C 
HETATM   11  C7  UNL     1     -34.005  15.588  -7.092  1.00 20.00     0.015 C 
ENDBRANCH   4   9
TORSDOF 1
ENDMDL
MODEL 7
REMARK VINA RESULT:      -3.8     12.119     13.358
REMARK  1 active torsions:
REMARK  status: ('A' for Active; 'I' for Inactive)
REMARK    1  A    between atoms: C4_4  and  C9_9 
ROOT
HETATM    1  C1  UNL     1     -33.819   7.524   5.725  1.00 20.00     0.014 A 
HETATM    2  C2  UNL     1     -33.175   8.671   5.481  1.00 20.00     0.075 A 
HETATM    3  C3  UNL     1     -33.312   6.679   3.538  1.00 20.00     0.101 A 
HETATM    4  C4  UNL     1     -33.899   6.481   4.728  1.00 20.00    -0.039 A 
HETATM    5  C5  UNL     1     -32.521   8.897   4.160  1.00 20.00     0.246 A 
HETATM    6  C8  UNL     1     -32.022   7.995   1.923  1.00 20.00     0.159 C 
HETATM    7  N10 UNL     1     -32.635   7.850   3.239  1.00 20.00    -0.329 N 
HETATM    8  O11 UNL     1     -31.935   9.961   3.963  1.00 20.00    -0.268 OA
ENDROOT
BRANCH   4   9
HETATM    9  C9  UNL     1     -34.638   5.231   5.084  1.00 20.00     0.012 C 
HETATM   10  C6  UNL     1     -33.962   4.016   4.454  1.00 20.00     0.015 C 
HETATM   11  C7  UNL     1     -34.739   5.071   6.599  1.00 20.00     0.015 C 
ENDBRANCH   4   9
TORSDOF 1
ENDMDL
MODEL 8
REMARK VINA RESULT:      -3.8     11.806     12.900
REMARK  1 active torsions:
REMARK  status: ('A' for Active; 'I' for Inactive)
REMARK    1  A    between atoms: C4_4  and  C9_9 
ROOT
HETATM    1  C1  UNL     1     -32.899   6.038   2.581  1.00 20.00     0.014 A 
HETATM    2  C2  UNL     1     -33.492   5.046   3.255  1.00 20.00     0.075 A 
HETATM    3  C3  UNL     1     -33.231   7.576   4.393  1.00 20.00     0.101 A 
HETATM    4  C4  UNL     1     -32.756   7.356   3.158  1.00 20.00    -0.039 A 
HETATM    5  C5  UNL     1     -34.023   5.284   4.628  1.00 20.00     0.246 A 
HETATM    6  C8  UNL     1     -34.346   6.894   6.465  1.00 20.00     0.159 C 
HETATM    7  N10 UNL     1     -33.853   6.580   5.128  1.00 20.00    -0.329 N 
HETATM    8  O11 UNL     1     -34.563   4.354   5.225  1.00 20.00    -0.268 OA
ENDROOT
BRANCH   4   9
HETATM    9  C9  UNL     1     -32.081   8.406   2.336  1.00 20.00     0.012 C 
HETATM   10  C6  UNL     1     -32.002   7.969   0.875  1.00 20.00     0.015 C 
HETATM   11  C7  UNL     1     -32.803   9.746   2.463  1.00 20.00     0.015 C 
ENDBRANCH   4   9
TORSDOF 1
ENDMDL
MODEL 9
REMARK VINA RESULT:      -3.7      4.334      6.276
REMARK  1 active torsions:
REMARK  status: ('A' for Active; 'I' for Inactive)
REMARK    1  A    between atoms: C4_4  and  C9_9 
ROOT
HETATM    1  C1  UNL     1     -34.242  18.210  -0.885  1.00 20.00     0.014 A 
HETATM    2  C2  UNL     1     -34.306  18.636   0.382  1.00 20.00     0.075 A 
HETATM    3  C3  UNL     1     -31.843  18.180  -0.840  1.00 20.00     0.101 A 
HETATM    4  C4  UNL     1     -32.972  17.969  -1.533  1.00 20.00    -0.039 A 
HETATM    5  C5  UNL     1     -33.054  18.873   1.158  1.00 20.00     0.246 A 
HETATM    6  C8  UNL     1     -30.592  18.830   1.164  1.00 20.00     0.159 C 
HETATM    7  N10 UNL     1     -31.859  18.621   0.473  1.00 20.00    -0.329 N 
HETATM    8  O11 UNL     1     -33.142  19.263   2.320  1.00 20.00    -0.268 OA
ENDROOT
BRANCH   4   9
HETATM    9  C9  UNL     1     -32.992  17.495  -2.951  1.00 20.00     0.012 C 
HETATM   10  C6  UNL     1     -33.340  16.010  -3.010  1.00 20.00     0.015 C 
HETATM   11  C7  UNL     1     -33.973  18.315  -3.786  1.00 20.00     0.015 C 
ENDBRANCH   4   9
TORSDOF 1
ENDMDL
