MODEL 1
REMARK VINA RESULT:      -4.6      0.000      0.000
REMARK  2 active torsions:
REMARK  status: ('A' for Active; 'I' for Inactive)
REMARK    1  A    between atoms: C3_3  and  C5_5 
REMARK    2  A    between atoms: C3_3  and  O9_9 
ROOT
HETATM    1  C1  UNL     1     -34.303   5.503   6.441  1.00 20.00    -0.002 A 
HETATM    2  C2  UNL     1     -34.086   6.810   6.316  1.00 20.00     0.013 A 
HETATM    3  C4  UNL     1     -34.566   4.909   5.109  1.00 20.00     0.196 A 
HETATM    4  C5  UNL     1     -34.188   7.196   4.890  1.00 20.00     0.244 A 
HETATM    5  O8  UNL     1     -34.504   6.000   4.169  1.00 20.00    -0.368 OA
ENDROOT
BRANCH   4   6
HETATM    6  C3  UNL     1     -32.858   7.680   4.412  1.00 20.00     0.291 C 
HETATM    7  O7  UNL     1     -32.229   8.587   4.941  1.00 20.00    -0.262 OA
BRANCH   6   8
HETATM    8  O9  UNL     1     -32.477   6.962   3.317  1.00 20.00    -0.324 OA
HETATM    9  C6  UNL     1     -32.184   7.733   2.148  1.00 20.00     0.213 C 
ENDBRANCH   6   8
ENDBRANCH   4   6
TORSDOF 2
ENDMDL
MODEL 2
REMARK VINA RESULT:      -4.3      1.269      1.892
REMARK  2 active torsions:
REMARK  status: ('A' for Active; 'I' for Inactive)
REMARK    1  A    between atoms: C3_3  and  C5_5 
REMARK    2  A    between atoms: C3_3  and  O9_9 
ROOT
HETATM    1  C1  UNL     1     -34.276   6.434   6.367  1.00 20.00    -0.002 A 
HETATM    2  C2  UNL     1     -34.272   6.986   5.156  1.00 20.00     0.013 A 
HETATM    3  C4  UNL     1     -34.441   4.966   6.248  1.00 20.00     0.196 A 
HETATM    4  C5  UNL     1     -34.437   5.932   4.129  1.00 20.00     0.244 A 
HETATM    5  O8  UNL     1     -34.558   4.694   4.837  1.00 20.00    -0.368 OA
ENDROOT
BRANCH   4   6
HETATM    6  C3  UNL     1     -33.204   5.861   3.290  1.00 20.00     0.291 C 
HETATM    7  O7  UNL     1     -32.889   4.889   2.616  1.00 20.00    -0.262 OA
BRANCH   6   8
HETATM    8  O9  UNL     1     -32.509   7.029   3.400  1.00 20.00    -0.324 OA
HETATM    9  C6  UNL     1     -32.173   7.664   2.162  1.00 20.00     0.213 C 
ENDBRANCH   6   8
ENDBRANCH   4   6
TORSDOF 2
ENDMDL
MODEL 3
REMARK VINA RESULT:      -3.7     12.213     13.036
REMARK  2 active torsions:
REMARK  status: ('A' for Active; 'I' for Inactive)
REMARK    1  A    between atoms: C3_3  and  C5_5 
REMARK    2  A    between atoms: C3_3  and  O9_9 
ROOT
HETATM    1  C1  UNL     1     -33.618  16.963  -2.306  1.00 20.00    -0.002 A 
HETATM    2  C2  UNL     1     -33.625  17.372  -1.040  1.00 20.00     0.013 A 
HETATM    3  C4  UNL     1     -32.981  17.993  -3.161  1.00 20.00     0.196 A 
HETATM    4  C5  UNL     1     -32.996  18.709  -0.946  1.00 20.00     0.244 A 
HETATM    5  O8  UNL     1     -32.624  19.075  -2.279  1.00 20.00    -0.368 OA
ENDROOT
BRANCH   4   6
HETATM    6  C3  UNL     1     -31.747  18.612  -0.132  1.00 20.00     0.291 C 
HETATM    7  O7  UNL     1     -30.618  18.643  -0.603  1.00 20.00    -0.262 OA
BRANCH   6   8
HETATM    8  O9  UNL     1     -32.070  18.487   1.187  1.00 20.00    -0.324 OA
HETATM    9  C6  UNL     1     -30.960  18.424   2.088  1.00 20.00     0.213 C 
ENDBRANCH   6   8
ENDBRANCH   4   6
TORSDOF 2
ENDMDL
MODEL 4
REMARK VINA RESULT:      -3.7      1.502      2.186
REMARK  2 active torsions:
REMARK  status: ('A' for Active; 'I' for Inactive)
REMARK    1  A    between atoms: C3_3  and  C5_5 
REMARK    2  A    between atoms: C3_3  and  O9_9 
ROOT
HETATM    1  C1  UNL     1     -34.047   4.275   4.374  1.00 20.00    -0.002 A 
HETATM    2  C2  UNL     1     -34.701   5.157   5.126  1.00 20.00     0.013 A 
HETATM    3  C4  UNL     1     -33.315   4.983   3.297  1.00 20.00     0.196 A 
HETATM    4  C5  UNL     1     -34.462   6.524   4.611  1.00 20.00     0.244 A 
HETATM    5  O8  UNL     1     -33.615   6.382   3.466  1.00 20.00    -0.368 OA
ENDROOT
BRANCH   4   6
HETATM    6  C3  UNL     1     -33.719   7.316   5.636  1.00 20.00     0.291 C 
HETATM    7  O7  UNL     1     -33.325   6.861   6.701  1.00 20.00    -0.262 OA
BRANCH   6   8
HETATM    8  O9  UNL     1     -33.559   8.597   5.195  1.00 20.00    -0.324 OA
HETATM    9  C6  UNL     1     -32.224   8.960   4.831  1.00 20.00     0.213 C 
ENDBRANCH   6   8
ENDBRANCH   4   6
TORSDOF 2
ENDMDL
MODEL 5
REMARK VINA RESULT:      -3.5      1.453      3.441
REMARK  2 active torsions:
REMARK  status: ('A' for Active; 'I' for Inactive)
REMARK    1  A    between atoms: C3_3  and  C5_5 
REMARK    2  A    between atoms: C3_3  and  O9_9 
ROOT
HETATM    1  C1  UNL     1     -31.867   8.047   3.878  1.00 20.00    -0.002 A 
HETATM    2  C2  UNL     1     -32.897   7.248   3.611  1.00 20.00     0.013 A 
HETATM    3  C4  UNL     1     -32.230   8.983   4.969  1.00 20.00     0.196 A 
HETATM    4  C5  UNL     1     -34.032   7.587   4.499  1.00 20.00     0.244 A 
HETATM    5  O8  UNL     1     -33.595   8.678   5.316  1.00 20.00    -0.368 OA
ENDROOT
BRANCH   4   6
HETATM    6  C3  UNL     1     -34.321   6.429   5.397  1.00 20.00     0.291 C 
HETATM    7  O7  UNL     1     -34.070   6.411   6.594  1.00 20.00    -0.262 OA
BRANCH   6   8
HETATM    8  O9  UNL     1     -34.895   5.424   4.676  1.00 20.00    -0.324 OA
HETATM    9  C6  UNL     1     -34.093   4.250   4.510  1.00 20.00     0.213 C 
ENDBRANCH   6   8
ENDBRANCH   4   6
TORSDOF 2
ENDMDL
MODEL 6
REMARK VINA RESULT:      -3.5      1.927      2.761
REMARK  2 active torsions:
REMARK  status: ('A' for Active; 'I' for Inactive)
REMARK    1  A    between atoms: C3_3  and  C5_5 
REMARK    2  A    between atoms: C3_3  and  O9_9 
ROOT
HETATM    1  C1  UNL     1     -33.652   7.974   5.731  1.00 20.00    -0.002 A 
HETATM    2  C2  UNL     1     -34.014   7.511   4.537  1.00 20.00     0.013 A 
HETATM    3  C4  UNL     1     -34.134   7.055   6.790  1.00 20.00     0.196 A 
HETATM    4  C5  UNL     1     -34.768   6.248   4.701  1.00 20.00     0.244 A 
HETATM    5  O8  UNL     1     -34.842   6.001   6.109  1.00 20.00    -0.368 OA
ENDROOT
BRANCH   4   6
HETATM    6  C3  UNL     1     -34.000   5.128   4.079  1.00 20.00     0.291 C 
HETATM    7  O7  UNL     1     -34.109   3.955   4.411  1.00 20.00    -0.262 OA
BRANCH   6   8
HETATM    8  O9  UNL     1     -33.179   5.621   3.108  1.00 20.00    -0.324 OA
HETATM    9  C6  UNL     1     -32.827   4.697   2.073  1.00 20.00     0.213 C 
ENDBRANCH   6   8
ENDBRANCH   4   6
TORSDOF 2
ENDMDL
MODEL 7
REMARK VINA RESULT:      -3.5      9.292      9.960
REMARK  2 active torsions:
REMARK  status: ('A' for Active; 'I' for Inactive)
REMARK    1  A    between atoms: C3_3  and  C5_5 
REMARK    2  A    between atoms: C3_3  and  O9_9 
ROOT
HETATM    1  C1  UNL     1     -41.976  14.910   6.439  1.00 20.00    -0.002 A 
HETATM    2  C2  UNL     1     -41.870  13.856   5.632  1.00 20.00     0.013 A 
HETATM    3  C4  UNL     1     -41.648  14.511   7.828  1.00 20.00     0.196 A 
HETATM    4  C5  UNL     1     -41.465  12.668   6.417  1.00 20.00     0.244 A 
HETATM    5  O8  UNL     1     -41.353  13.101   7.777  1.00 20.00    -0.368 OA
ENDROOT
BRANCH   4   6
HETATM    6  C3  UNL     1     -40.114  12.216   5.968  1.00 20.00     0.291 C 
HETATM    7  O7  UNL     1     -39.225  11.854   6.728  1.00 20.00    -0.262 OA
BRANCH   6   8
HETATM    8  O9  UNL     1     -40.041  12.274   4.608  1.00 20.00    -0.324 OA
HETATM    9  C6  UNL     1     -38.887  11.660   4.026  1.00 20.00     0.213 C 
ENDBRANCH   6   8
ENDBRANCH   4   6
TORSDOF 2
ENDMDL
MODEL 8
REMARK VINA RESULT:      -3.4     11.772     12.751
REMARK  2 active torsions:
REMARK  status: ('A' for Active; 'I' for Inactive)
REMARK    1  A    between atoms: C3_3  and  C5_5 
REMARK    2  A    between atoms: C3_3  and  O9_9 
ROOT
HETATM    1  C1  UNL     1     -35.790  14.468  -5.907  1.00 20.00    -0.002 A 
HETATM    2  C2  UNL     1     -34.717  15.248  -6.022  1.00 20.00     0.013 A 
HETATM    3  C4  UNL     1     -35.701  13.676  -4.658  1.00 20.00     0.196 A 
HETATM    4  C5  UNL     1     -33.823  15.037  -4.860  1.00 20.00     0.244 A 
HETATM    5  O8  UNL     1     -34.451  14.043  -4.043  1.00 20.00    -0.368 OA
ENDROOT
BRANCH   4   6
HETATM    6  C3  UNL     1     -33.739  16.298  -4.065  1.00 20.00     0.291 C 
HETATM    7  O7  UNL     1     -33.982  17.410  -4.516  1.00 20.00    -0.262 OA
BRANCH   6   8
HETATM    8  O9  UNL     1     -33.355  16.009  -2.789  1.00 20.00    -0.324 OA
HETATM    9  C6  UNL     1     -33.514  17.071  -1.843  1.00 20.00     0.213 C 
ENDBRANCH   6   8
ENDBRANCH   4   6
TORSDOF 2
ENDMDL
MODEL 9
REMARK VINA RESULT:      -3.4      1.420      3.695
REMARK  2 active torsions:
REMARK  status: ('A' for Active; 'I' for Inactive)
REMARK    1  A    between atoms: C3_3  and  C5_5 
REMARK    2  A    between atoms: C3_3  and  O9_9 
ROOT
HETATM    1  C1  UNL     1     -31.681   7.972   3.851  1.00 20.00    -0.002 A 
HETATM    2  C2  UNL     1     -32.466   7.149   3.159  1.00 20.00     0.013 A 
HETATM    3  C4  UNL     1     -32.464   8.619   4.930  1.00 20.00     0.196 A 
HETATM    4  C5  UNL     1     -33.837   7.182   3.718  1.00 20.00     0.244 A 
HETATM    5  O8  UNL     1     -33.808   8.116   4.803  1.00 20.00    -0.368 OA
ENDROOT
BRANCH   4   6
HETATM    6  C3  UNL     1     -34.175   5.840   4.278  1.00 20.00     0.291 C 
HETATM    7  O7  UNL     1     -33.765   4.782   3.819  1.00 20.00    -0.262 OA
BRANCH   6   8
HETATM    8  O9  UNL     1     -34.997   5.989   5.357  1.00 20.00    -0.324 OA
HETATM    9  C6  UNL     1     -34.554   5.352   6.559  1.00 20.00     0.213 C 
ENDBRANCH   6   8
ENDBRANCH   4   6
TORSDOF 2
ENDMDL
