MODEL 1
REMARK VINA RESULT:      -4.8      0.000      0.000
REMARK  1 active torsions:
REMARK  status: ('A' for Active; 'I' for Inactive)
REMARK    1  A    between atoms: C5_5  and  C7_7 
ROOT
HETATM    1  C1  UNL     1     -34.472   5.436   6.454  1.00 20.00     0.003 C 
HETATM    2  C2  UNL     1     -35.099   5.182   5.086  1.00 20.00     0.003 C 
HETATM    3  C3  UNL     1     -33.990   6.887   6.368  1.00 20.00     0.041 C 
HETATM    4  C4  UNL     1     -34.152   5.893   4.116  1.00 20.00     0.041 C 
HETATM    5  C5  UNL     1     -32.574   8.011   4.445  1.00 20.00     0.167 A 
HETATM    6  C6  UNL     1     -33.643   7.052   4.919  1.00 20.00     0.088 A 
HETATM    7  O8  UNL     1     -33.963   8.345   4.377  1.00 20.00    -0.368 OA
ENDROOT
BRANCH   5   8
HETATM    8  C7  UNL     1     -31.905   7.870   3.125  1.00 20.00     0.120 C 
HETATM    9 BR9  UNL     1     -32.712   9.074   1.816  1.00 20.00    -0.094 Br
ENDBRANCH   5   8
TORSDOF 1
ENDMDL
MODEL 2
REMARK VINA RESULT:      -3.8      1.275      1.936
REMARK  1 active torsions:
REMARK  status: ('A' for Active; 'I' for Inactive)
REMARK    1  A    between atoms: C5_5  and  C7_7 
ROOT
HETATM    1  C1  UNL     1     -34.746   5.937   5.423  1.00 20.00     0.003 C 
HETATM    2  C2  UNL     1     -34.138   7.054   6.268  1.00 20.00     0.003 C 
HETATM    3  C3  UNL     1     -33.759   5.782   4.263  1.00 20.00     0.041 C 
HETATM    4  C4  UNL     1     -33.610   8.046   5.229  1.00 20.00     0.041 C 
HETATM    5  C5  UNL     1     -32.737   7.682   2.742  1.00 20.00     0.167 A 
HETATM    6  C6  UNL     1     -33.216   7.168   4.081  1.00 20.00     0.088 A 
HETATM    7  O8  UNL     1     -31.821   7.217   3.737  1.00 20.00    -0.368 OA
ENDROOT
BRANCH   5   8
HETATM    8  C7  UNL     1     -32.635   9.133   2.435  1.00 20.00     0.120 C 
HETATM    9 BR9  UNL     1     -32.788   9.440   0.513  1.00 20.00    -0.094 Br
ENDBRANCH   5   8
TORSDOF 1
ENDMDL
MODEL 3
REMARK VINA RESULT:      -3.7      9.254      9.741
REMARK  1 active torsions:
REMARK  status: ('A' for Active; 'I' for Inactive)
REMARK    1  A    between atoms: C5_5  and  C7_7 
ROOT
HETATM    1  C1  UNL     1     -38.349  11.894   5.235  1.00 20.00     0.003 C 
HETATM    2  C2  UNL     1     -39.565  11.874   4.311  1.00 20.00     0.003 C 
HETATM    3  C3  UNL     1     -38.954  12.099   6.626  1.00 20.00     0.041 C 
HETATM    4  C4  UNL     1     -40.472  12.964   4.885  1.00 20.00     0.041 C 
HETATM    5  C5  UNL     1     -40.743  13.894   7.365  1.00 20.00     0.167 A 
HETATM    6  C6  UNL     1     -40.179  12.920   6.355  1.00 20.00     0.088 A 
HETATM    7  O8  UNL     1     -41.308  12.593   7.184  1.00 20.00    -0.368 OA
ENDROOT
BRANCH   5   8
HETATM    8  C7  UNL     1     -41.637  15.017   6.976  1.00 20.00     0.120 C 
HETATM    9 BR9  UNL     1     -40.893  16.722   7.567  1.00 20.00    -0.094 Br
ENDBRANCH   5   8
TORSDOF 1
ENDMDL
MODEL 4
REMARK VINA RESULT:      -3.5     12.185     13.146
REMARK  1 active torsions:
REMARK  status: ('A' for Active; 'I' for Inactive)
REMARK    1  A    between atoms: C5_5  and  C7_7 
ROOT
HETATM    1  C1  UNL     1     -33.913  18.395  -3.568  1.00 20.00     0.003 C 
HETATM    2  C2  UNL     1     -33.609  16.983  -3.073  1.00 20.00     0.003 C 
HETATM    3  C3  UNL     1     -32.877  19.263  -2.848  1.00 20.00     0.041 C 
HETATM    4  C4  UNL     1     -33.289  17.182  -1.589  1.00 20.00     0.041 C 
HETATM    5  C5  UNL     1     -32.270  19.262  -0.278  1.00 20.00     0.167 A 
HETATM    6  C6  UNL     1     -32.663  18.543  -1.549  1.00 20.00     0.088 A 
HETATM    7  O8  UNL     1     -31.306  18.568  -1.075  1.00 20.00    -0.368 OA
ENDROOT
BRANCH   5   8
HETATM    8  C7  UNL     1     -32.496  18.678   1.070  1.00 20.00     0.120 C 
HETATM    9 BR9  UNL     1     -30.803  18.473   2.020  1.00 20.00    -0.094 Br
ENDBRANCH   5   8
TORSDOF 1
ENDMDL
MODEL 5
REMARK VINA RESULT:      -3.5     12.302     12.590
REMARK  1 active torsions:
REMARK  status: ('A' for Active; 'I' for Inactive)
REMARK    1  A    between atoms: C5_5  and  C7_7 
ROOT
HETATM    1  C1  UNL     1     -31.183  18.623   1.785  1.00 20.00     0.003 C 
HETATM    2  C2  UNL     1     -32.568  19.263   1.840  1.00 20.00     0.003 C 
HETATM    3  C3  UNL     1     -30.846  18.616   0.292  1.00 20.00     0.041 C 
HETATM    4  C4  UNL     1     -33.289  18.669   0.628  1.00 20.00     0.041 C 
HETATM    5  C5  UNL     1     -32.361  17.787  -1.705  1.00 20.00     0.167 A 
HETATM    6  C6  UNL     1     -32.186  18.467  -0.366  1.00 20.00     0.088 A 
HETATM    7  O8  UNL     1     -32.332  19.212  -1.587  1.00 20.00    -0.368 OA
ENDROOT
BRANCH   5   8
HETATM    8  C7  UNL     1     -33.664  17.229  -2.151  1.00 20.00     0.120 C 
HETATM    9 BR9  UNL     1     -33.394  15.888  -3.545  1.00 20.00    -0.094 Br
ENDBRANCH   5   8
TORSDOF 1
ENDMDL
MODEL 6
REMARK VINA RESULT:      -3.4     12.212     12.997
REMARK  1 active torsions:
REMARK  status: ('A' for Active; 'I' for Inactive)
REMARK    1  A    between atoms: C5_5  and  C7_7 
ROOT
HETATM    1  C1  UNL     1     -34.909  15.636  -5.347  1.00 20.00     0.003 C 
HETATM    2  C2  UNL     1     -33.610  14.990  -4.871  1.00 20.00     0.003 C 
HETATM    3  C3  UNL     1     -34.772  17.095  -4.901  1.00 20.00     0.041 C 
HETATM    4  C4  UNL     1     -33.371  15.626  -3.500  1.00 20.00     0.041 C 
HETATM    5  C5  UNL     1     -34.070  18.001  -2.523  1.00 20.00     0.167 A 
HETATM    6  C6  UNL     1     -33.950  17.000  -3.650  1.00 20.00     0.088 A 
HETATM    7  O8  UNL     1     -33.008  18.072  -3.479  1.00 20.00    -0.368 OA
ENDROOT
BRANCH   5   8
HETATM    8  C7  UNL     1     -33.635  17.695  -1.136  1.00 20.00     0.120 C 
HETATM    9 BR9  UNL     1     -31.894  18.498  -0.769  1.00 20.00    -0.094 Br
ENDBRANCH   5   8
TORSDOF 1
ENDMDL
MODEL 7
REMARK VINA RESULT:      -3.4     12.031     12.713
REMARK  1 active torsions:
REMARK  status: ('A' for Active; 'I' for Inactive)
REMARK    1  A    between atoms: C5_5  and  C7_7 
ROOT
HETATM    1  C1  UNL     1     -32.421  18.907   1.199  1.00 20.00     0.003 C 
HETATM    2  C2  UNL     1     -31.251  18.503   0.305  1.00 20.00     0.003 C 
HETATM    3  C3  UNL     1     -33.616  18.169   0.589  1.00 20.00     0.041 C 
HETATM    4  C4  UNL     1     -31.853  18.510  -1.102  1.00 20.00     0.041 C 
HETATM    5  C5  UNL     1     -34.339  18.079  -1.948  1.00 20.00     0.167 A 
HETATM    6  C6  UNL     1     -33.278  18.109  -0.871  1.00 20.00     0.088 A 
HETATM    7  O8  UNL     1     -33.673  16.888  -1.520  1.00 20.00    -0.368 OA
ENDROOT
BRANCH   5   8
HETATM    8  C7  UNL     1     -34.060  18.475  -3.353  1.00 20.00     0.120 C 
HETATM    9 BR9  UNL     1     -34.329  16.961  -4.558  1.00 20.00    -0.094 Br
ENDBRANCH   5   8
TORSDOF 1
ENDMDL
MODEL 8
REMARK VINA RESULT:      -3.4      9.749     10.418
REMARK  1 active torsions:
REMARK  status: ('A' for Active; 'I' for Inactive)
REMARK    1  A    between atoms: C5_5  and  C7_7 
ROOT
HETATM    1  C1  UNL     1     -41.176  16.073   7.741  1.00 20.00     0.003 C 
HETATM    2  C2  UNL     1     -40.570  15.256   8.879  1.00 20.00     0.003 C 
HETATM    3  C3  UNL     1     -41.895  15.027   6.885  1.00 20.00     0.041 C 
HETATM    4  C4  UNL     1     -40.078  13.982   8.187  1.00 20.00     0.041 C 
HETATM    5  C5  UNL     1     -40.945  12.726   6.006  1.00 20.00     0.167 A 
HETATM    6  C6  UNL     1     -41.060  13.794   7.070  1.00 20.00     0.088 A 
HETATM    7  O8  UNL     1     -41.815  12.572   7.132  1.00 20.00    -0.368 OA
ENDROOT
BRANCH   5   8
HETATM    8  C7  UNL     1     -39.814  11.763   5.963  1.00 20.00     0.120 C 
HETATM    9 BR9  UNL     1     -39.031  11.706   4.174  1.00 20.00    -0.094 Br
ENDBRANCH   5   8
TORSDOF 1
ENDMDL
MODEL 9
REMARK VINA RESULT:      -3.3     12.170     13.189
REMARK  1 active torsions:
REMARK  status: ('A' for Active; 'I' for Inactive)
REMARK    1  A    between atoms: C5_5  and  C7_7 
ROOT
HETATM    1  C1  UNL     1     -32.503  18.758  -2.080  1.00 20.00     0.003 C 
HETATM    2  C2  UNL     1     -33.223  17.700  -1.247  1.00 20.00     0.003 C 
HETATM    3  C3  UNL     1     -33.290  18.783  -3.393  1.00 20.00     0.041 C 
HETATM    4  C4  UNL     1     -33.559  16.606  -2.264  1.00 20.00     0.041 C 
HETATM    5  C5  UNL     1     -34.020  16.730  -4.882  1.00 20.00     0.167 A 
HETATM    6  C6  UNL     1     -33.774  17.371  -3.535  1.00 20.00     0.088 A 
HETATM    7  O8  UNL     1     -35.094  17.250  -4.093  1.00 20.00    -0.368 OA
ENDROOT
BRANCH   5   8
HETATM    8  C7  UNL     1     -34.048  15.256  -5.071  1.00 20.00     0.120 C 
HETATM    9 BR9  UNL     1     -35.825  14.668  -5.626  1.00 20.00    -0.094 Br
ENDBRANCH   5   8
TORSDOF 1
ENDMDL
