MODEL 1
REMARK VINA RESULT:      -4.1      0.000      0.000
REMARK  0 active torsions:
REMARK  status: ('A' for Active; 'I' for Inactive)
ROOT
HETATM    1  C1  UNL     1     -34.101   5.985   6.498  1.00 20.00    -0.029 A 
HETATM    2  C2  UNL     1     -33.918   7.272   6.183  1.00 20.00    -0.023 A 
HETATM    3  C3  UNL     1     -33.242   6.198   3.339  1.00 20.00     0.155 C 
HETATM    4  C4  UNL     1     -34.538   5.136   5.344  1.00 20.00     0.040 A 
HETATM    5  C5  UNL     1     -34.206   7.506   4.748  1.00 20.00     0.050 A 
HETATM    6  C6  UNL     1     -34.543   6.100   4.159  1.00 20.00     0.071 A 
HETATM    7  C7  UNL     1     -32.989   7.674   3.771  1.00 20.00     0.101 C 
HETATM    8  C8  UNL     1     -33.252   8.676   2.647  1.00 20.00     0.042 C 
HETATM    9  O9  UNL     1     -32.650   5.416   2.625  1.00 20.00    -0.295 OA
HETATM   10 CL10 UNL     1     -31.346   7.895   4.461  1.00 20.00    -0.111 Cl
ENDROOT
TORSDOF 0
ENDMDL
MODEL 2
REMARK VINA RESULT:      -4.0      2.203      3.484
REMARK  0 active torsions:
REMARK  status: ('A' for Active; 'I' for Inactive)
ROOT
HETATM    1  C1  UNL     1     -31.607   7.824   3.767  1.00 20.00    -0.029 A 
HETATM    2  C2  UNL     1     -32.488   7.121   3.047  1.00 20.00    -0.023 A 
HETATM    3  C3  UNL     1     -34.082   6.907   5.714  1.00 20.00     0.155 C 
HETATM    4  C4  UNL     1     -32.216   8.556   4.923  1.00 20.00     0.040 A 
HETATM    5  C5  UNL     1     -33.854   7.265   3.606  1.00 20.00     0.050 A 
HETATM    6  C6  UNL     1     -33.687   8.144   4.885  1.00 20.00     0.071 A 
HETATM    7  C7  UNL     1     -34.435   6.073   4.446  1.00 20.00     0.101 C 
HETATM    8  C8  UNL     1     -35.940   5.881   4.260  1.00 20.00     0.042 C 
HETATM    9  O9  UNL     1     -34.109   6.680   6.906  1.00 20.00    -0.295 OA
HETATM   10 CL10 UNL     1     -33.576   4.495   4.424  1.00 20.00    -0.111 Cl
ENDROOT
TORSDOF 0
ENDMDL
MODEL 3
REMARK VINA RESULT:      -3.8      9.174      9.583
REMARK  0 active torsions:
REMARK  status: ('A' for Active; 'I' for Inactive)
ROOT
HETATM    1  C1  UNL     1     -43.386   5.114   2.173  1.00 20.00    -0.029 A 
HETATM    2  C2  UNL     1     -43.417   6.443   2.023  1.00 20.00    -0.023 A 
HETATM    3  C3  UNL     1     -41.457   5.948  -0.346  1.00 20.00     0.155 C 
HETATM    4  C4  UNL     1     -43.123   4.368   0.901  1.00 20.00     0.040 A 
HETATM    5  C5  UNL     1     -43.178   6.816   0.608  1.00 20.00     0.050 A 
HETATM    6  C6  UNL     1     -42.907   5.470  -0.134  1.00 20.00     0.071 A 
HETATM    7  C7  UNL     1     -41.760   7.368   0.222  1.00 20.00     0.101 C 
HETATM    8  C8  UNL     1     -41.806   8.445  -0.861  1.00 20.00     0.042 C 
HETATM    9  O9  UNL     1     -40.463   5.414  -0.793  1.00 20.00    -0.295 OA
HETATM   10 CL10 UNL     1     -40.618   7.819   1.533  1.00 20.00    -0.111 Cl
ENDROOT
TORSDOF 0
ENDMDL
MODEL 4
REMARK VINA RESULT:      -3.8     12.749     13.876
REMARK  0 active torsions:
REMARK  status: ('A' for Active; 'I' for Inactive)
ROOT
HETATM    1  C1  UNL     1     -33.284  16.253  -3.655  1.00 20.00    -0.029 A 
HETATM    2  C2  UNL     1     -34.337  16.991  -4.024  1.00 20.00    -0.023 A 
HETATM    3  C3  UNL     1     -34.169  15.402  -6.697  1.00 20.00     0.155 C 
HETATM    4  C4  UNL     1     -33.230  14.907  -4.310  1.00 20.00     0.040 A 
HETATM    5  C5  UNL     1     -35.177  16.256  -5.000  1.00 20.00     0.050 A 
HETATM    6  C6  UNL     1     -34.427  14.911  -5.260  1.00 20.00     0.071 A 
HETATM    7  C7  UNL     1     -35.072  16.659  -6.513  1.00 20.00     0.101 C 
HETATM    8  C8  UNL     1     -36.401  16.553  -7.260  1.00 20.00     0.042 C 
HETATM    9  O9  UNL     1     -33.513  14.964  -7.620  1.00 20.00    -0.295 OA
HETATM   10 CL10 UNL     1     -34.207  18.172  -6.950  1.00 20.00    -0.111 Cl
ENDROOT
TORSDOF 0
ENDMDL
MODEL 5
REMARK VINA RESULT:      -3.7     12.423     13.468
REMARK  0 active torsions:
REMARK  status: ('A' for Active; 'I' for Inactive)
ROOT
HETATM    1  C1  UNL     1     -33.297  15.948  -3.318  1.00 20.00    -0.029 A 
HETATM    2  C2  UNL     1     -33.364  15.017  -4.276  1.00 20.00    -0.023 A 
HETATM    3  C3  UNL     1     -35.902  16.558  -5.215  1.00 20.00     0.155 C 
HETATM    4  C4  UNL     1     -33.885  17.268  -3.714  1.00 20.00     0.040 A 
HETATM    5  C5  UNL     1     -34.017  15.562  -5.491  1.00 20.00     0.050 A 
HETATM    6  C6  UNL     1     -34.435  17.018  -5.117  1.00 20.00     0.071 A 
HETATM    7  C7  UNL     1     -35.508  15.157  -5.770  1.00 20.00     0.101 C 
HETATM    8  C8  UNL     1     -35.821  14.995  -7.258  1.00 20.00     0.042 C 
HETATM    9  O9  UNL     1     -36.961  17.095  -4.959  1.00 20.00    -0.295 OA
HETATM   10 CL10 UNL     1     -36.241  13.827  -4.809  1.00 20.00    -0.111 Cl
ENDROOT
TORSDOF 0
ENDMDL
MODEL 6
REMARK VINA RESULT:      -3.7     12.696     13.845
REMARK  0 active torsions:
REMARK  status: ('A' for Active; 'I' for Inactive)
ROOT
HETATM    1  C1  UNL     1     -27.651  -0.912  10.146  1.00 20.00    -0.029 A 
HETATM    2  C2  UNL     1     -27.448  -2.231  10.064  1.00 20.00    -0.023 A 
HETATM    3  C3  UNL     1     -24.913  -1.672  11.784  1.00 20.00     0.155 C 
HETATM    4  C4  UNL     1     -27.095  -0.290  11.390  1.00 20.00     0.040 A 
HETATM    5  C5  UNL     1     -26.713  -2.723  11.254  1.00 20.00     0.050 A 
HETATM    6  C6  UNL     1     -26.404  -1.451  12.104  1.00 20.00     0.071 A 
HETATM    7  C7  UNL     1     -25.184  -3.043  11.094  1.00 20.00     0.101 C 
HETATM    8  C8  UNL     1     -24.726  -4.234  11.935  1.00 20.00     0.042 C 
HETATM    9  O9  UNL     1     -23.912  -1.021  11.999  1.00 20.00    -0.295 OA
HETATM   10 CL10 UNL     1     -24.480  -3.110   9.443  1.00 20.00    -0.111 Cl
ENDROOT
TORSDOF 0
ENDMDL
MODEL 7
REMARK VINA RESULT:      -3.6     11.946     13.201
REMARK  0 active torsions:
REMARK  status: ('A' for Active; 'I' for Inactive)
ROOT
HETATM    1  C1  UNL     1     -35.254  14.695  -5.035  1.00 20.00    -0.029 A 
HETATM    2  C2  UNL     1     -35.192  15.921  -5.566  1.00 20.00    -0.023 A 
HETATM    3  C3  UNL     1     -33.651  16.670  -2.965  1.00 20.00     0.155 C 
HETATM    4  C4  UNL     1     -34.113  14.372  -4.120  1.00 20.00     0.040 A 
HETATM    5  C5  UNL     1     -33.984  16.637  -5.089  1.00 20.00     0.050 A 
HETATM    6  C6  UNL     1     -33.299  15.665  -4.078  1.00 20.00     0.071 A 
HETATM    7  C7  UNL     1     -34.167  17.733  -3.981  1.00 20.00     0.101 C 
HETATM    8  C8  UNL     1     -33.214  18.917  -4.140  1.00 20.00     0.042 C 
HETATM    9  O9  UNL     1     -33.554  16.639  -1.755  1.00 20.00    -0.295 OA
HETATM   10 CL10 UNL     1     -35.826  18.291  -3.578  1.00 20.00    -0.111 Cl
ENDROOT
TORSDOF 0
ENDMDL
MODEL 8
REMARK VINA RESULT:      -3.5      8.954      9.634
REMARK  0 active torsions:
REMARK  status: ('A' for Active; 'I' for Inactive)
ROOT
HETATM    1  C1  UNL     1     -38.085  12.089   5.550  1.00 20.00    -0.029 A 
HETATM    2  C2  UNL     1     -38.805  12.151   6.676  1.00 20.00    -0.023 A 
HETATM    3  C3  UNL     1     -41.063  13.269   4.845  1.00 20.00     0.155 C 
HETATM    4  C4  UNL     1     -38.909  11.889   4.315  1.00 20.00     0.040 A 
HETATM    5  C5  UNL     1     -40.251  12.003   6.382  1.00 20.00     0.050 A 
HETATM    6  C6  UNL     1     -40.348  11.904   4.827  1.00 20.00     0.071 A 
HETATM    7  C7  UNL     1     -41.143  13.294   6.402  1.00 20.00     0.101 C 
HETATM    8  C8  UNL     1     -42.555  13.044   6.930  1.00 20.00     0.042 C 
HETATM    9  O9  UNL     1     -41.428  14.028   3.971  1.00 20.00    -0.295 OA
HETATM   10 CL10 UNL     1     -40.460  14.811   7.081  1.00 20.00    -0.111 Cl
ENDROOT
TORSDOF 0
ENDMDL
MODEL 9
REMARK VINA RESULT:      -3.5      1.813      3.205
REMARK  0 active torsions:
REMARK  status: ('A' for Active; 'I' for Inactive)
ROOT
HETATM    1  C1  UNL     1     -33.128   8.964   3.669  1.00 20.00    -0.029 A 
HETATM    2  C2  UNL     1     -33.808   8.515   4.730  1.00 20.00    -0.023 A 
HETATM    3  C3  UNL     1     -33.379   5.700   3.469  1.00 20.00     0.155 C 
HETATM    4  C4  UNL     1     -32.147   7.977   3.117  1.00 20.00     0.040 A 
HETATM    5  C5  UNL     1     -33.391   7.134   5.072  1.00 20.00     0.050 A 
HETATM    6  C6  UNL     1     -32.354   6.732   3.977  1.00 20.00     0.071 A 
HETATM    7  C7  UNL     1     -34.345   5.955   4.665  1.00 20.00     0.101 C 
HETATM    8  C8  UNL     1     -34.356   4.810   5.678  1.00 20.00     0.042 C 
HETATM    9  O9  UNL     1     -33.410   4.966   2.503  1.00 20.00    -0.295 OA
HETATM   10 CL10 UNL     1     -36.010   6.339   4.108  1.00 20.00    -0.111 Cl
ENDROOT
TORSDOF 0
ENDMDL
