MODEL 1
REMARK VINA RESULT:      -3.2      0.000      0.000
REMARK  5 active torsions:
REMARK  status: ('A' for Active; 'I' for Inactive)
REMARK    1  A    between atoms: C2_2  and  C6_6 
REMARK    2  A    between atoms: C2_2  and  C8_8 
REMARK    3  A    between atoms: C6_6  and  O11_11 
REMARK    4  A    between atoms: C7_7  and  O10_10 
REMARK    5  A    between atoms: C7_7  and  O11_11 
ROOT
HETATM    1  C1  UNL     1     -40.323  14.946   8.237  1.00 20.00     0.209 A 
HETATM    2  C2  UNL     1     -41.122  13.948   7.435  1.00 20.00     0.106 A 
HETATM    3  O9  UNL     1     -40.227  13.534   8.475  1.00 20.00    -0.372 OA
ENDROOT
BRANCH   2   4
HETATM    4  C6  UNL     1     -42.564  13.728   7.759  1.00 20.00     0.211 C 
BRANCH   4   5
HETATM    5  O11 UNL     1     -42.719  12.492   8.453  1.00 20.00    -0.364 OA
BRANCH   5   6
HETATM    6  C7  UNL     1     -43.413  12.654   9.688  1.00 20.00     0.337 C 
BRANCH   6   7
HETATM    7  O10 UNL     1     -42.668  12.246  10.835  1.00 20.00    -0.372 OA
HETATM    8  C5  UNL     1     -42.061  13.345  11.502  1.00 20.00     0.204 C 
ENDBRANCH   6   7
ENDBRANCH   5   6
ENDBRANCH   4   5
ENDBRANCH   2   4
BRANCH   2   9
HETATM    9  C8  UNL     1     -40.656  13.563   6.033  1.00 20.00     0.016 C 
HETATM   10  C3  UNL     1     -40.285  12.082   5.979  1.00 20.00     0.012 C 
HETATM   11  C4  UNL     1     -41.734  13.884   5.001  1.00 20.00     0.012 C 
ENDBRANCH   2   9
TORSDOF 5
ENDMDL
MODEL 2
REMARK VINA RESULT:      -3.1      1.462      2.559
REMARK  5 active torsions:
REMARK  status: ('A' for Active; 'I' for Inactive)
REMARK    1  A    between atoms: C2_2  and  C6_6 
REMARK    2  A    between atoms: C2_2  and  C8_8 
REMARK    3  A    between atoms: C6_6  and  O11_11 
REMARK    4  A    between atoms: C7_7  and  O10_10 
REMARK    5  A    between atoms: C7_7  and  O11_11 
ROOT
HETATM    1  C1  UNL     1     -40.381  12.731   5.216  1.00 20.00     0.209 A 
HETATM    2  C2  UNL     1     -41.143  13.284   6.396  1.00 20.00     0.106 A 
HETATM    3  O9  UNL     1     -40.514  11.996   6.440  1.00 20.00    -0.372 OA
ENDROOT
BRANCH   2   4
HETATM    4  C6  UNL     1     -40.496  14.301   7.279  1.00 20.00     0.211 C 
BRANCH   4   5
HETATM    5  O11 UNL     1     -40.084  13.687   8.499  1.00 20.00    -0.364 OA
BRANCH   5   6
HETATM    6  C7  UNL     1     -40.582  14.379   9.642  1.00 20.00     0.337 C 
BRANCH   6   7
HETATM    7  O10 UNL     1     -41.254  13.543  10.585  1.00 20.00    -0.372 OA
HETATM    8  C5  UNL     1     -42.664  13.719  10.552  1.00 20.00     0.204 C 
ENDBRANCH   6   7
ENDBRANCH   5   6
ENDBRANCH   4   5
ENDBRANCH   2   4
BRANCH   2   9
HETATM    9  C8  UNL     1     -42.669  13.224   6.401  1.00 20.00     0.016 C 
HETATM   10  C3  UNL     1     -43.157  12.080   7.288  1.00 20.00     0.012 C 
HETATM   11  C4  UNL     1     -43.257  14.553   6.868  1.00 20.00     0.012 C 
ENDBRANCH   2   9
TORSDOF 5
ENDMDL
MODEL 3
REMARK VINA RESULT:      -3.1      1.739      4.488
REMARK  5 active torsions:
REMARK  status: ('A' for Active; 'I' for Inactive)
REMARK    1  A    between atoms: C2_2  and  C6_6 
REMARK    2  A    between atoms: C2_2  and  C8_8 
REMARK    3  A    between atoms: C6_6  and  O11_11 
REMARK    4  A    between atoms: C7_7  and  O10_10 
REMARK    5  A    between atoms: C7_7  and  O11_11 
ROOT
HETATM    1  C1  UNL     1     -43.206  13.702   7.805  1.00 20.00     0.209 A 
HETATM    2  C2  UNL     1     -41.747  14.086   7.772  1.00 20.00     0.106 A 
HETATM    3  O9  UNL     1     -42.226  13.018   8.599  1.00 20.00    -0.372 OA
ENDROOT
BRANCH   2   4
HETATM    4  C6  UNL     1     -40.890  13.630   6.635  1.00 20.00     0.211 C 
BRANCH   4   5
HETATM    5  O11 UNL     1     -39.905  12.716   7.112  1.00 20.00    -0.364 OA
BRANCH   5   6
HETATM    6  C7  UNL     1     -39.377  11.903   6.066  1.00 20.00     0.337 C 
BRANCH   6   7
HETATM    7  O10 UNL     1     -39.810  12.280   4.759  1.00 20.00    -0.372 OA
HETATM    8  C5  UNL     1     -39.024  11.682   3.737  1.00 20.00     0.204 C 
ENDBRANCH   6   7
ENDBRANCH   5   6
ENDBRANCH   4   5
ENDBRANCH   2   4
BRANCH   2   9
HETATM    9  C8  UNL     1     -41.272  15.307   8.557  1.00 20.00     0.016 C 
HETATM   10  C3  UNL     1     -40.338  14.885   9.690  1.00 20.00     0.012 C 
HETATM   11  C4  UNL     1     -40.578  16.304   7.633  1.00 20.00     0.012 C 
ENDBRANCH   2   9
TORSDOF 5
ENDMDL
MODEL 4
REMARK VINA RESULT:      -3.1     12.734     14.303
REMARK  5 active torsions:
REMARK  status: ('A' for Active; 'I' for Inactive)
REMARK    1  A    between atoms: C2_2  and  C6_6 
REMARK    2  A    between atoms: C2_2  and  C8_8 
REMARK    3  A    between atoms: C6_6  and  O11_11 
REMARK    4  A    between atoms: C7_7  and  O10_10 
REMARK    5  A    between atoms: C7_7  and  O11_11 
ROOT
HETATM    1  C1  UNL     1     -34.179  19.079  -3.374  1.00 20.00     0.209 A 
HETATM    2  C2  UNL     1     -33.552  18.131  -2.380  1.00 20.00     0.106 A 
HETATM    3  O9  UNL     1     -34.965  18.140  -2.625  1.00 20.00    -0.372 OA
ENDROOT
BRANCH   2   4
HETATM    4  C6  UNL     1     -32.864  16.899  -2.871  1.00 20.00     0.211 C 
BRANCH   4   5
HETATM    5  O11 UNL     1     -33.774  15.801  -2.857  1.00 20.00    -0.364 OA
BRANCH   5   6
HETATM    6  C7  UNL     1     -33.731  15.055  -4.071  1.00 20.00     0.337 C 
BRANCH   6   7
HETATM    7  O10 UNL     1     -34.467  13.832  -4.032  1.00 20.00    -0.372 OA
HETATM    8  C5  UNL     1     -35.676  13.906  -4.776  1.00 20.00     0.204 C 
ENDBRANCH   6   7
ENDBRANCH   5   6
ENDBRANCH   4   5
ENDBRANCH   2   4
BRANCH   2   9
HETATM    9  C8  UNL     1     -33.165  18.641  -0.994  1.00 20.00     0.016 C 
HETATM   10  C3  UNL     1     -33.965  17.916   0.087  1.00 20.00     0.012 C 
HETATM   11  C4  UNL     1     -31.666  18.471  -0.757  1.00 20.00     0.012 C 
ENDBRANCH   2   9
TORSDOF 5
ENDMDL
MODEL 5
REMARK VINA RESULT:      -3.0     13.190     15.149
REMARK  5 active torsions:
REMARK  status: ('A' for Active; 'I' for Inactive)
REMARK    1  A    between atoms: C2_2  and  C6_6 
REMARK    2  A    between atoms: C2_2  and  C8_8 
REMARK    3  A    between atoms: C6_6  and  O11_11 
REMARK    4  A    between atoms: C7_7  and  O10_10 
REMARK    5  A    between atoms: C7_7  and  O11_11 
ROOT
HETATM    1  C1  UNL     1     -34.235  15.720  -7.585  1.00 20.00     0.209 A 
HETATM    2  C2  UNL     1     -34.831  15.743  -6.198  1.00 20.00     0.106 A 
HETATM    3  O9  UNL     1     -33.769  14.845  -6.548  1.00 20.00    -0.372 OA
ENDROOT
BRANCH   2   4
HETATM    4  C6  UNL     1     -34.422  16.814  -5.239  1.00 20.00     0.211 C 
BRANCH   4   5
HETATM    5  O11 UNL     1     -33.605  16.254  -4.212  1.00 20.00    -0.364 OA
BRANCH   5   6
HETATM    6  C7  UNL     1     -33.342  17.188  -3.168  1.00 20.00     0.337 C 
BRANCH   6   7
HETATM    7  O10 UNL     1     -33.550  16.669  -1.853  1.00 20.00    -0.372 OA
HETATM    8  C5  UNL     1     -33.545  17.690  -0.864  1.00 20.00     0.204 C 
ENDBRANCH   6   7
ENDBRANCH   5   6
ENDBRANCH   4   5
ENDBRANCH   2   4
BRANCH   2   9
HETATM    9  C8  UNL     1     -36.165  15.048  -5.940  1.00 20.00     0.016 C 
HETATM   10  C3  UNL     1     -35.998  13.931  -4.911  1.00 20.00     0.012 C 
HETATM   11  C4  UNL     1     -37.215  16.054  -5.475  1.00 20.00     0.012 C 
ENDBRANCH   2   9
TORSDOF 5
ENDMDL
MODEL 6
REMARK VINA RESULT:      -3.0      1.888      4.144
REMARK  5 active torsions:
REMARK  status: ('A' for Active; 'I' for Inactive)
REMARK    1  A    between atoms: C2_2  and  C6_6 
REMARK    2  A    between atoms: C2_2  and  C8_8 
REMARK    3  A    between atoms: C6_6  and  O11_11 
REMARK    4  A    between atoms: C7_7  and  O10_10 
REMARK    5  A    between atoms: C7_7  and  O11_11 
ROOT
HETATM    1  C1  UNL     1     -43.415  13.586   9.006  1.00 20.00     0.209 A 
HETATM    2  C2  UNL     1     -42.449  13.934   7.899  1.00 20.00     0.106 A 
HETATM    3  O9  UNL     1     -42.024  13.241   9.080  1.00 20.00    -0.372 OA
ENDROOT
BRANCH   2   4
HETATM    4  C6  UNL     1     -42.413  13.095   6.663  1.00 20.00     0.211 C 
BRANCH   4   5
HETATM    5  O11 UNL     1     -41.297  12.209   6.715  1.00 20.00    -0.364 OA
BRANCH   5   6
HETATM    6  C7  UNL     1     -40.275  12.579   5.792  1.00 20.00     0.337 C 
BRANCH   6   7
HETATM    7  O10 UNL     1     -39.493  11.483   5.315  1.00 20.00    -0.372 OA
HETATM    8  C5  UNL     1     -39.062  11.672   3.974  1.00 20.00     0.204 C 
ENDBRANCH   6   7
ENDBRANCH   5   6
ENDBRANCH   4   5
ENDBRANCH   2   4
BRANCH   2   9
HETATM    9  C8  UNL     1     -41.908  15.358   7.792  1.00 20.00     0.016 C 
HETATM   10  C3  UNL     1     -40.426  15.397   8.162  1.00 20.00     0.012 C 
HETATM   11  C4  UNL     1     -42.125  15.912   6.386  1.00 20.00     0.012 C 
ENDBRANCH   2   9
TORSDOF 5
ENDMDL
MODEL 7
REMARK VINA RESULT:      -2.9     10.558     12.475
REMARK  5 active torsions:
REMARK  status: ('A' for Active; 'I' for Inactive)
REMARK    1  A    between atoms: C2_2  and  C6_6 
REMARK    2  A    between atoms: C2_2  and  C8_8 
REMARK    3  A    between atoms: C6_6  and  O11_11 
REMARK    4  A    between atoms: C7_7  and  O10_10 
REMARK    5  A    between atoms: C7_7  and  O11_11 
ROOT
HETATM    1  C1  UNL     1     -43.006   4.962   1.888  1.00 20.00     0.209 A 
HETATM    2  C2  UNL     1     -42.794   5.865   0.696  1.00 20.00     0.106 A 
HETATM    3  O9  UNL     1     -41.789   4.938   1.127  1.00 20.00    -0.372 OA
ENDROOT
BRANCH   2   4
HETATM    4  C6  UNL     1     -43.417   5.511  -0.615  1.00 20.00     0.211 C 
BRANCH   4   5
HETATM    5  O11 UNL     1     -42.408   5.074  -1.525  1.00 20.00    -0.364 OA
BRANCH   5   6
HETATM    6  C7  UNL     1     -42.803   3.907  -2.241  1.00 20.00     0.337 C 
BRANCH   6   7
HETATM    7  O10 UNL     1     -41.900   3.526  -3.280  1.00 20.00    -0.372 OA
HETATM    8  C5  UNL     1     -42.124   2.195  -3.728  1.00 20.00     0.204 C 
ENDBRANCH   6   7
ENDBRANCH   5   6
ENDBRANCH   4   5
ENDBRANCH   2   4
BRANCH   2   9
HETATM    9  C8  UNL     1     -42.417   7.328   0.918  1.00 20.00     0.016 C 
HETATM   10  C3  UNL     1     -40.925   7.540   0.671  1.00 20.00     0.012 C 
HETATM   11  C4  UNL     1     -43.245   8.239   0.015  1.00 20.00     0.012 C 
ENDBRANCH   2   9
TORSDOF 5
ENDMDL
MODEL 8
REMARK VINA RESULT:      -2.9     13.295     15.340
REMARK  5 active torsions:
REMARK  status: ('A' for Active; 'I' for Inactive)
REMARK    1  A    between atoms: C2_2  and  C6_6 
REMARK    2  A    between atoms: C2_2  and  C8_8 
REMARK    3  A    between atoms: C6_6  and  O11_11 
REMARK    4  A    between atoms: C7_7  and  O10_10 
REMARK    5  A    between atoms: C7_7  and  O11_11 
ROOT
HETATM    1  C1  UNL     1     -33.863  15.504  -7.634  1.00 20.00     0.209 A 
HETATM    2  C2  UNL     1     -34.623  15.452  -6.331  1.00 20.00     0.106 A 
HETATM    3  O9  UNL     1     -34.587  16.638  -7.136  1.00 20.00    -0.372 OA
ENDROOT
BRANCH   2   4
HETATM    4  C6  UNL     1     -35.965  14.795  -6.287  1.00 20.00     0.211 C 
BRANCH   4   5
HETATM    5  O11 UNL     1     -36.985  15.770  -6.496  1.00 20.00    -0.364 OA
BRANCH   5   6
HETATM    6  C7  UNL     1     -37.735  16.022  -5.310  1.00 20.00     0.337 C 
BRANCH   6   7
HETATM    7  O10 UNL     1     -38.282  14.850  -4.704  1.00 20.00    -0.372 OA
HETATM    8  C5  UNL     1     -39.530  15.104  -4.071  1.00 20.00     0.204 C 
ENDBRANCH   6   7
ENDBRANCH   5   6
ENDBRANCH   4   5
ENDBRANCH   2   4
BRANCH   2   9
HETATM    9  C8  UNL     1     -33.865  15.580  -5.012  1.00 20.00     0.016 C 
HETATM   10  C3  UNL     1     -34.241  16.879  -4.302  1.00 20.00     0.012 C 
HETATM   11  C4  UNL     1     -34.143  14.378  -4.113  1.00 20.00     0.012 C 
ENDBRANCH   2   9
TORSDOF 5
ENDMDL
MODEL 9
REMARK VINA RESULT:      -2.8     13.921     15.065
REMARK  5 active torsions:
REMARK  status: ('A' for Active; 'I' for Inactive)
REMARK    1  A    between atoms: C2_2  and  C6_6 
REMARK    2  A    between atoms: C2_2  and  C8_8 
REMARK    3  A    between atoms: C6_6  and  O11_11 
REMARK    4  A    between atoms: C7_7  and  O10_10 
REMARK    5  A    between atoms: C7_7  and  O11_11 
ROOT
HETATM    1  C1  UNL     1     -33.348  19.190  -4.459  1.00 20.00     0.209 A 
HETATM    2  C2  UNL     1     -33.827  17.770  -4.282  1.00 20.00     0.106 A 
HETATM    3  O9  UNL     1     -34.452  18.867  -3.601  1.00 20.00    -0.372 OA
ENDROOT
BRANCH   2   4
HETATM    4  C6  UNL     1     -34.686  17.146  -5.333  1.00 20.00     0.211 C 
BRANCH   4   5
HETATM    5  O11 UNL     1     -35.985  16.889  -4.804  1.00 20.00    -0.364 OA
BRANCH   5   6
HETATM    6  C7  UNL     1     -36.775  16.094  -5.685  1.00 20.00     0.337 C 
BRANCH   6   7
HETATM    7  O10 UNL     1     -36.200  14.825  -6.000  1.00 20.00    -0.372 OA
HETATM    8  C5  UNL     1     -36.239  13.928  -4.898  1.00 20.00     0.204 C 
ENDBRANCH   6   7
ENDBRANCH   5   6
ENDBRANCH   4   5
ENDBRANCH   2   4
BRANCH   2   9
HETATM    9  C8  UNL     1     -33.062  16.827  -3.356  1.00 20.00     0.016 C 
HETATM   10  C3  UNL     1     -33.659  16.855  -1.950  1.00 20.00     0.012 C 
HETATM   11  C4  UNL     1     -33.066  15.406  -3.913  1.00 20.00     0.012 C 
ENDBRANCH   2   9
TORSDOF 5
ENDMDL
