MODEL 1
REMARK VINA RESULT:      -4.1      0.000      0.000
REMARK  1 active torsions:
REMARK  status: ('A' for Active; 'I' for Inactive)
REMARK    1  A    between atoms: C6_6  and  C8_8 
ROOT
HETATM    1  C1  UNL     1     -33.819   7.079   6.533  1.00 20.00     0.061 C 
HETATM    2  C2  UNL     1     -34.380   5.788   3.688  1.00 20.00     0.066 C 
HETATM    3  C3  UNL     1     -33.916   8.094   5.401  1.00 20.00     0.170 C 
HETATM    4  C4  UNL     1     -34.746   5.923   6.320  1.00 20.00     0.153 A 
HETATM    5  C5  UNL     1     -35.000   5.306   4.965  1.00 20.00     0.153 A 
HETATM    6  C6  UNL     1     -33.008   6.456   3.836  1.00 20.00     0.123 C 
HETATM    7  O9  UNL     1     -33.080   7.812   4.282  1.00 20.00    -0.386 OA
HETATM    8  O10 UNL     1     -34.101   4.707   5.904  1.00 20.00    -0.375 OA
ENDROOT
BRANCH   6   9
HETATM    9  C8  UNL     1     -32.296   6.499   2.484  1.00 20.00     0.027 C 
HETATM   10  C7  UNL     1     -32.228   7.888   1.940  1.00 20.00     0.007 C 
ENDBRANCH   6   9
TORSDOF 1
ENDMDL
MODEL 2
REMARK VINA RESULT:      -3.8     12.162     13.136
REMARK  1 active torsions:
REMARK  status: ('A' for Active; 'I' for Inactive)
REMARK    1  A    between atoms: C6_6  and  C8_8 
ROOT
HETATM    1  C1  UNL     1     -35.651  16.026  -5.273  1.00 20.00     0.061 C 
HETATM    2  C2  UNL     1     -32.829  15.558  -3.898  1.00 20.00     0.066 C 
HETATM    3  C3  UNL     1     -34.746  17.251  -5.287  1.00 20.00     0.170 C 
HETATM    4  C4  UNL     1     -34.868  14.757  -5.408  1.00 20.00     0.153 A 
HETATM    5  C5  UNL     1     -33.530  14.537  -4.741  1.00 20.00     0.153 A 
HETATM    6  C6  UNL     1     -33.744  16.552  -3.174  1.00 20.00     0.123 C 
HETATM    7  O9  UNL     1     -34.216  17.607  -4.013  1.00 20.00    -0.386 OA
HETATM    8  O10 UNL     1     -34.738  14.001  -4.192  1.00 20.00    -0.375 OA
ENDROOT
BRANCH   6   9
HETATM    9  C8  UNL     1     -32.985  17.231  -2.034  1.00 20.00     0.027 C 
HETATM   10  C7  UNL     1     -33.914  17.765  -0.993  1.00 20.00     0.007 C 
ENDBRANCH   6   9
TORSDOF 1
ENDMDL
MODEL 3
REMARK VINA RESULT:      -3.7      1.232      4.062
REMARK  1 active torsions:
REMARK  status: ('A' for Active; 'I' for Inactive)
REMARK    1  A    between atoms: C6_6  and  C8_8 
ROOT
HETATM    1  C1  UNL     1     -32.384   6.028   2.685  1.00 20.00     0.061 C 
HETATM    2  C2  UNL     1     -33.721   8.123   4.659  1.00 20.00     0.066 C 
HETATM    3  C3  UNL     1     -33.849   5.743   2.989  1.00 20.00     0.170 C 
HETATM    4  C4  UNL     1     -32.104   7.498   2.640  1.00 20.00     0.153 A 
HETATM    5  C5  UNL     1     -32.735   8.489   3.591  1.00 20.00     0.153 A 
HETATM    6  C6  UNL     1     -33.586   6.702   5.218  1.00 20.00     0.123 C 
HETATM    7  O9  UNL     1     -34.165   5.702   4.378  1.00 20.00    -0.386 OA
HETATM    8  O10 UNL     1     -31.401   8.009   3.786  1.00 20.00    -0.375 OA
ENDROOT
BRANCH   6   9
HETATM    9  C8  UNL     1     -34.312   6.594   6.559  1.00 20.00     0.027 C 
HETATM   10  C7  UNL     1     -34.879   5.228   6.771  1.00 20.00     0.007 C 
ENDBRANCH   6   9
TORSDOF 1
ENDMDL
MODEL 4
REMARK VINA RESULT:      -3.7      9.496     10.516
REMARK  1 active torsions:
REMARK  status: ('A' for Active; 'I' for Inactive)
REMARK    1  A    between atoms: C6_6  and  C8_8 
ROOT
HETATM    1  C1  UNL     1     -42.318  13.974   8.262  1.00 20.00     0.061 C 
HETATM    2  C2  UNL     1     -41.094  13.504   5.372  1.00 20.00     0.066 C 
HETATM    3  C3  UNL     1     -40.838  14.318   8.155  1.00 20.00     0.170 C 
HETATM    4  C4  UNL     1     -43.052  14.284   6.995  1.00 20.00     0.153 A 
HETATM    5  C5  UNL     1     -42.468  14.047   5.622  1.00 20.00     0.153 A 
HETATM    6  C6  UNL     1     -40.543  12.581   6.466  1.00 20.00     0.123 C 
HETATM    7  O9  UNL     1     -40.031  13.284   7.599  1.00 20.00    -0.386 OA
HETATM    8  O10 UNL     1     -43.400  13.132   6.207  1.00 20.00    -0.375 OA
ENDROOT
BRANCH   6   9
HETATM    9  C8  UNL     1     -39.376  11.759   5.920  1.00 20.00     0.027 C 
HETATM   10  C7  UNL     1     -39.341  11.772   4.427  1.00 20.00     0.007 C 
ENDBRANCH   6   9
TORSDOF 1
ENDMDL
MODEL 5
REMARK VINA RESULT:      -3.7      1.603      2.670
REMARK  1 active torsions:
REMARK  status: ('A' for Active; 'I' for Inactive)
REMARK    1  A    between atoms: C6_6  and  C8_8 
ROOT
HETATM    1  C1  UNL     1     -34.439   6.002   4.400  1.00 20.00     0.061 C 
HETATM    2  C2  UNL     1     -31.998   7.982   3.958  1.00 20.00     0.066 C 
HETATM    3  C3  UNL     1     -33.284   5.394   3.613  1.00 20.00     0.170 C 
HETATM    4  C4  UNL     1     -33.954   6.959   5.443  1.00 20.00     0.153 A 
HETATM    5  C5  UNL     1     -32.798   7.908   5.222  1.00 20.00     0.153 A 
HETATM    6  C6  UNL     1     -32.749   7.586   2.681  1.00 20.00     0.123 C 
HETATM    7  O9  UNL     1     -32.856   6.173   2.499  1.00 20.00    -0.386 OA
HETATM    8  O10 UNL     1     -34.157   8.347   5.124  1.00 20.00    -0.375 OA
ENDROOT
BRANCH   6   9
HETATM    9  C8  UNL     1     -32.008   8.111   1.452  1.00 20.00     0.027 C 
HETATM   10  C7  UNL     1     -32.712   9.279   0.841  1.00 20.00     0.007 C 
ENDBRANCH   6   9
TORSDOF 1
ENDMDL
MODEL 6
REMARK VINA RESULT:      -3.7      9.685     10.906
REMARK  1 active torsions:
REMARK  status: ('A' for Active; 'I' for Inactive)
REMARK    1  A    between atoms: C6_6  and  C8_8 
ROOT
HETATM    1  C1  UNL     1     -43.417  13.695   6.471  1.00 20.00     0.061 C 
HETATM    2  C2  UNL     1     -40.382  13.957   7.360  1.00 20.00     0.066 C 
HETATM    3  C3  UNL     1     -42.870  12.459   7.172  1.00 20.00     0.170 C 
HETATM    4  C4  UNL     1     -42.826  14.954   7.025  1.00 20.00     0.153 A 
HETATM    5  C5  UNL     1     -41.377  15.075   7.436  1.00 20.00     0.153 A 
HETATM    6  C6  UNL     1     -40.649  12.913   6.269  1.00 20.00     0.123 C 
HETATM    7  O9  UNL     1     -41.653  11.961   6.625  1.00 20.00    -0.386 OA
HETATM    8  O10 UNL     1     -41.844  15.577   6.179  1.00 20.00    -0.375 OA
ENDROOT
BRANCH   6   9
HETATM    9  C8  UNL     1     -39.382  12.103   5.996  1.00 20.00     0.027 C 
HETATM   10  C7  UNL     1     -39.244  11.766   4.547  1.00 20.00     0.007 C 
ENDBRANCH   6   9
TORSDOF 1
ENDMDL
MODEL 7
REMARK VINA RESULT:      -3.7     12.619     14.315
REMARK  1 active torsions:
REMARK  status: ('A' for Active; 'I' for Inactive)
REMARK    1  A    between atoms: C6_6  and  C8_8 
ROOT
HETATM    1  C1  UNL     1     -36.976  16.557  -6.389  1.00 20.00     0.061 C 
HETATM    2  C2  UNL     1     -34.026  15.392  -6.485  1.00 20.00     0.066 C 
HETATM    3  C3  UNL     1     -35.948  17.418  -5.666  1.00 20.00     0.170 C 
HETATM    4  C4  UNL     1     -36.392  15.892  -7.595  1.00 20.00     0.153 A 
HETATM    5  C5  UNL     1     -34.990  15.329  -7.630  1.00 20.00     0.153 A 
HETATM    6  C6  UNL     1     -34.664  15.424  -5.091  1.00 20.00     0.123 C 
HETATM    7  O9  UNL     1     -35.152  16.713  -4.717  1.00 20.00    -0.386 OA
HETATM    8  O10 UNL     1     -36.130  14.487  -7.437  1.00 20.00    -0.375 OA
ENDROOT
BRANCH   6   9
HETATM    9  C8  UNL     1     -33.629  15.045  -4.031  1.00 20.00     0.027 C 
HETATM   10  C7  UNL     1     -33.319  16.193  -3.128  1.00 20.00     0.007 C 
ENDBRANCH   6   9
TORSDOF 1
ENDMDL
MODEL 8
REMARK VINA RESULT:      -3.5     12.109     13.822
REMARK  1 active torsions:
REMARK  status: ('A' for Active; 'I' for Inactive)
REMARK    1  A    between atoms: C6_6  and  C8_8 
ROOT
HETATM    1  C1  UNL     1     -33.884  14.963  -5.702  1.00 20.00     0.061 C 
HETATM    2  C2  UNL     1     -34.958  17.486  -4.104  1.00 20.00     0.066 C 
HETATM    3  C3  UNL     1     -34.085  14.712  -4.213  1.00 20.00     0.170 C 
HETATM    4  C4  UNL     1     -34.907  15.910  -6.247  1.00 20.00     0.153 A 
HETATM    5  C5  UNL     1     -35.406  17.116  -5.485  1.00 20.00     0.153 A 
HETATM    6  C6  UNL     1     -33.538  17.042  -3.733  1.00 20.00     0.123 C 
HETATM    7  O9  UNL     1     -33.451  15.665  -3.363  1.00 20.00    -0.386 OA
HETATM    8  O10 UNL     1     -34.416  17.235  -6.512  1.00 20.00    -0.375 OA
ENDROOT
BRANCH   6   9
HETATM    9  C8  UNL     1     -33.040  17.832  -2.523  1.00 20.00     0.027 C 
HETATM   10  C7  UNL     1     -33.704  17.386  -1.261  1.00 20.00     0.007 C 
ENDBRANCH   6   9
TORSDOF 1
ENDMDL
MODEL 9
REMARK VINA RESULT:      -3.5      9.759     10.842
REMARK  1 active torsions:
REMARK  status: ('A' for Active; 'I' for Inactive)
REMARK    1  A    between atoms: C6_6  and  C8_8 
ROOT
HETATM    1  C1  UNL     1     -42.372  15.546   5.581  1.00 20.00     0.061 C 
HETATM    2  C2  UNL     1     -41.678  12.561   6.405  1.00 20.00     0.066 C 
HETATM    3  C3  UNL     1     -42.568  14.534   4.459  1.00 20.00     0.170 C 
HETATM    4  C4  UNL     1     -42.703  14.961   6.918  1.00 20.00     0.153 A 
HETATM    5  C5  UNL     1     -42.360  13.543   7.309  1.00 20.00     0.153 A 
HETATM    6  C6  UNL     1     -40.748  13.174   5.352  1.00 20.00     0.123 C 
HETATM    7  O9  UNL     1     -41.440  13.698   4.217  1.00 20.00    -0.386 OA
HETATM    8  O10 UNL     1     -41.562  14.651   7.736  1.00 20.00    -0.375 OA
ENDROOT
BRANCH   6   9
HETATM    9  C8  UNL     1     -39.797  12.108   4.807  1.00 20.00     0.027 C 
HETATM   10  C7  UNL     1     -38.519  12.062   5.579  1.00 20.00     0.007 C 
ENDBRANCH   6   9
TORSDOF 1
ENDMDL
