MODEL 1
REMARK VINA RESULT:      -5.3      0.000      0.000
REMARK  1 active torsions:
REMARK  status: ('A' for Active; 'I' for Inactive)
REMARK    1  A    between atoms: C7_7  and  C10_10 
ROOT
HETATM    1  C1  UNL     1     -34.507   5.159   6.326  1.00 20.00     0.003 C 
HETATM    2  C2  UNL     1     -34.063   6.409   6.474  1.00 20.00     0.004 C 
HETATM    3  C3  UNL     1     -33.913   4.555   3.976  1.00 20.00     0.036 C 
HETATM    4  C4  UNL     1     -33.153   5.739   3.349  1.00 20.00     0.010 C 
HETATM    5  C5  UNL     1     -35.022   5.015   4.932  1.00 20.00     0.145 C 
HETATM    6  C6  UNL     1     -34.269   7.136   5.183  1.00 20.00     0.149 C 
HETATM    7  C7  UNL     1     -33.040   6.991   4.258  1.00 20.00     0.022 C 
HETATM    8  O11 UNL     1     -35.353   6.381   4.588  1.00 20.00    -0.373 OA
ENDROOT
BRANCH   7   9
HETATM    9  C10 UNL     1     -32.871   8.242   3.390  1.00 20.00    -0.016 C 
HETATM   10  C8  UNL     1     -32.172   9.345   4.179  1.00 20.00     0.010 C 
HETATM   11  C9  UNL     1     -32.095   7.907   2.122  1.00 20.00     0.010 C 
ENDBRANCH   7   9
TORSDOF 1
ENDMDL
MODEL 2
REMARK VINA RESULT:      -5.0      0.481      1.171
REMARK  1 active torsions:
REMARK  status: ('A' for Active; 'I' for Inactive)
REMARK    1  A    between atoms: C7_7  and  C10_10 
ROOT
HETATM    1  C1  UNL     1     -34.655   5.491   6.207  1.00 20.00     0.003 C 
HETATM    2  C2  UNL     1     -33.908   6.583   6.377  1.00 20.00     0.004 C 
HETATM    3  C3  UNL     1     -34.094   4.698   3.904  1.00 20.00     0.036 C 
HETATM    4  C4  UNL     1     -33.011   5.628   3.322  1.00 20.00     0.010 C 
HETATM    5  C5  UNL     1     -35.101   5.455   4.781  1.00 20.00     0.145 C 
HETATM    6  C6  UNL     1     -33.834   7.310   5.071  1.00 20.00     0.149 C 
HETATM    7  C7  UNL     1     -32.631   6.827   4.230  1.00 20.00     0.022 C 
HETATM    8  O11 UNL     1     -35.039   6.852   4.409  1.00 20.00    -0.373 OA
ENDROOT
BRANCH   7   9
HETATM    9  C10 UNL     1     -32.085   7.970   3.369  1.00 20.00    -0.016 C 
HETATM   10  C8  UNL     1     -32.393   7.718   1.896  1.00 20.00     0.010 C 
HETATM   11  C9  UNL     1     -32.667   9.303   3.824  1.00 20.00     0.010 C 
ENDBRANCH   7   9
TORSDOF 1
ENDMDL
MODEL 3
REMARK VINA RESULT:      -4.1     12.161     13.410
REMARK  1 active torsions:
REMARK  status: ('A' for Active; 'I' for Inactive)
REMARK    1  A    between atoms: C7_7  and  C10_10 
ROOT
HETATM    1  C1  UNL     1     -33.757  16.390  -4.008  1.00 20.00     0.003 C 
HETATM    2  C2  UNL     1     -33.387  16.039  -2.775  1.00 20.00     0.004 C 
HETATM    3  C3  UNL     1     -33.231  18.828  -4.153  1.00 20.00     0.036 C 
HETATM    4  C4  UNL     1     -32.577  19.262  -2.826  1.00 20.00     0.010 C 
HETATM    5  C5  UNL     1     -34.323  17.770  -3.945  1.00 20.00     0.145 C 
HETATM    6  C6  UNL     1     -33.697  17.175  -1.851  1.00 20.00     0.149 C 
HETATM    7  C7  UNL     1     -32.505  18.151  -1.746  1.00 20.00     0.022 C 
HETATM    8  O11 UNL     1     -34.757  17.857  -2.567  1.00 20.00    -0.373 OA
ENDROOT
BRANCH   7   9
HETATM    9  C10 UNL     1     -32.455  18.790  -0.356  1.00 20.00    -0.016 C 
HETATM   10  C8  UNL     1     -33.580  18.247   0.519  1.00 20.00     0.010 C 
HETATM   11  C9  UNL     1     -31.098  18.545   0.294  1.00 20.00     0.010 C 
ENDBRANCH   7   9
TORSDOF 1
ENDMDL
MODEL 4
REMARK VINA RESULT:      -4.1      1.344      3.793
REMARK  1 active torsions:
REMARK  status: ('A' for Active; 'I' for Inactive)
REMARK    1  A    between atoms: C7_7  and  C10_10 
ROOT
HETATM    1  C1  UNL     1     -32.871   9.171   3.689  1.00 20.00     0.003 C 
HETATM    2  C2  UNL     1     -33.911   8.857   4.463  1.00 20.00     0.004 C 
HETATM    3  C3  UNL     1     -32.213   7.012   2.616  1.00 20.00     0.036 C 
HETATM    4  C4  UNL     1     -33.199   5.922   3.077  1.00 20.00     0.010 C 
HETATM    5  C5  UNL     1     -31.909   8.029   3.725  1.00 20.00     0.145 C 
HETATM    6  C6  UNL     1     -33.674   7.498   5.040  1.00 20.00     0.149 C 
HETATM    7  C7  UNL     1     -34.244   6.394   4.122  1.00 20.00     0.022 C 
HETATM    8  O11 UNL     1     -32.229   7.403   4.989  1.00 20.00    -0.373 OA
ENDROOT
BRANCH   7   9
HETATM    9  C10 UNL     1     -34.717   5.197   4.952  1.00 20.00    -0.016 C 
HETATM   10  C8  UNL     1     -33.863   3.970   4.648  1.00 20.00     0.010 C 
HETATM   11  C9  UNL     1     -34.675   5.531   6.438  1.00 20.00     0.010 C 
ENDBRANCH   7   9
TORSDOF 1
ENDMDL
MODEL 5
REMARK VINA RESULT:      -3.9     12.452     13.623
REMARK  1 active torsions:
REMARK  status: ('A' for Active; 'I' for Inactive)
REMARK    1  A    between atoms: C7_7  and  C10_10 
ROOT
HETATM    1  C1  UNL     1     -35.492  17.596  -4.596  1.00 20.00     0.003 C 
HETATM    2  C2  UNL     1     -35.747  18.485  -3.634  1.00 20.00     0.004 C 
HETATM    3  C3  UNL     1     -33.644  16.188  -3.675  1.00 20.00     0.036 C 
HETATM    4  C4  UNL     1     -33.333  16.671  -2.246  1.00 20.00     0.010 C 
HETATM    5  C5  UNL     1     -34.020  17.344  -4.612  1.00 20.00     0.145 C 
HETATM    6  C6  UNL     1     -34.453  18.855  -2.981  1.00 20.00     0.149 C 
HETATM    7  C7  UNL     1     -34.138  17.918  -1.793  1.00 20.00     0.022 C 
HETATM    8  O11 UNL     1     -33.498  18.562  -4.031  1.00 20.00    -0.373 OA
ENDROOT
BRANCH   7   9
HETATM    9  C10 UNL     1     -33.358  18.667  -0.710  1.00 20.00    -0.016 C 
HETATM   10  C8  UNL     1     -33.840  18.250   0.676  1.00 20.00     0.010 C 
HETATM   11  C9  UNL     1     -31.862  18.416  -0.862  1.00 20.00     0.010 C 
ENDBRANCH   7   9
TORSDOF 1
ENDMDL
MODEL 6
REMARK VINA RESULT:      -3.9      9.518     10.631
REMARK  1 active torsions:
REMARK  status: ('A' for Active; 'I' for Inactive)
REMARK    1  A    between atoms: C7_7  and  C10_10 
ROOT
HETATM    1  C1  UNL     1     -43.417  14.322   7.030  1.00 20.00     0.003 C 
HETATM    2  C2  UNL     1     -43.268  13.269   6.225  1.00 20.00     0.004 C 
HETATM    3  C3  UNL     1     -41.085  15.050   7.553  1.00 20.00     0.036 C 
HETATM    4  C4  UNL     1     -40.109  14.145   6.776  1.00 20.00     0.010 C 
HETATM    5  C5  UNL     1     -42.322  14.286   8.045  1.00 20.00     0.145 C 
HETATM    6  C6  UNL     1     -42.069  12.497   6.679  1.00 20.00     0.149 C 
HETATM    7  C7  UNL     1     -40.785  12.997   5.980  1.00 20.00     0.022 C 
HETATM    8  O11 UNL     1     -41.982  12.880   8.074  1.00 20.00    -0.373 OA
ENDROOT
BRANCH   7   9
HETATM    9  C10 UNL     1     -39.792  11.847   5.796  1.00 20.00    -0.016 C 
HETATM   10  C8  UNL     1     -39.393  11.719   4.329  1.00 20.00     0.010 C 
HETATM   11  C9  UNL     1     -38.564  12.058   6.675  1.00 20.00     0.010 C 
ENDBRANCH   7   9
TORSDOF 1
ENDMDL
MODEL 7
REMARK VINA RESULT:      -3.9      1.143      2.097
REMARK  1 active torsions:
REMARK  status: ('A' for Active; 'I' for Inactive)
REMARK    1  A    between atoms: C7_7  and  C10_10 
ROOT
HETATM    1  C1  UNL     1     -35.457   5.125   5.357  1.00 20.00     0.003 C 
HETATM    2  C2  UNL     1     -35.225   5.605   4.134  1.00 20.00     0.004 C 
HETATM    3  C3  UNL     1     -34.380   6.775   6.894  1.00 20.00     0.036 C 
HETATM    4  C4  UNL     1     -33.795   7.919   6.043  1.00 20.00     0.010 C 
HETATM    5  C5  UNL     1     -34.257   5.411   6.200  1.00 20.00     0.145 C 
HETATM    6  C6  UNL     1     -33.863   6.225   4.123  1.00 20.00     0.149 C 
HETATM    7  C7  UNL     1     -33.926   7.719   4.510  1.00 20.00     0.022 C 
HETATM    8  O11 UNL     1     -33.209   5.521   5.208  1.00 20.00    -0.373 OA
ENDROOT
BRANCH   7   9
HETATM    9  C10 UNL     1     -32.826   8.506   3.794  1.00 20.00    -0.016 C 
HETATM   10  C8  UNL     1     -31.897   9.164   4.810  1.00 20.00     0.010 C 
HETATM   11  C9  UNL     1     -32.044   7.594   2.856  1.00 20.00     0.010 C 
ENDBRANCH   7   9
TORSDOF 1
ENDMDL
MODEL 8
REMARK VINA RESULT:      -3.8     12.074     13.758
REMARK  1 active torsions:
REMARK  status: ('A' for Active; 'I' for Inactive)
REMARK    1  A    between atoms: C7_7  and  C10_10 
ROOT
HETATM    1  C1  UNL     1     -33.057  19.261  -3.133  1.00 20.00     0.003 C 
HETATM    2  C2  UNL     1     -33.339  18.967  -4.403  1.00 20.00     0.004 C 
HETATM    3  C3  UNL     1     -33.237  17.079  -1.929  1.00 20.00     0.036 C 
HETATM    4  C4  UNL     1     -33.562  15.981  -2.961  1.00 20.00     0.010 C 
HETATM    5  C5  UNL     1     -33.922  18.411  -2.260  1.00 20.00     0.145 C 
HETATM    6  C6  UNL     1     -34.402  17.915  -4.417  1.00 20.00     0.149 C 
HETATM    7  C7  UNL     1     -33.786  16.498  -4.407  1.00 20.00     0.022 C 
HETATM    8  O11 UNL     1     -35.040  18.121  -3.132  1.00 20.00    -0.373 OA
ENDROOT
BRANCH   7   9
HETATM    9  C10 UNL     1     -34.681  15.518  -5.169  1.00 20.00    -0.016 C 
HETATM   10  C8  UNL     1     -34.133  15.278  -6.572  1.00 20.00     0.010 C 
HETATM   11  C9  UNL     1     -34.804  14.205  -4.404  1.00 20.00     0.010 C 
ENDBRANCH   7   9
TORSDOF 1
ENDMDL
MODEL 9
REMARK VINA RESULT:      -3.7     12.384     13.641
REMARK  1 active torsions:
REMARK  status: ('A' for Active; 'I' for Inactive)
REMARK    1  A    between atoms: C7_7  and  C10_10 
ROOT
HETATM    1  C1  UNL     1     -36.301  15.604  -5.677  1.00 20.00     0.003 C 
HETATM    2  C2  UNL     1     -36.232  16.848  -5.200  1.00 20.00     0.004 C 
HETATM    3  C3  UNL     1     -34.331  14.437  -4.678  1.00 20.00     0.036 C 
HETATM    4  C4  UNL     1     -33.603  15.426  -3.747  1.00 20.00     0.010 C 
HETATM    5  C5  UNL     1     -34.908  15.126  -5.922  1.00 20.00     0.145 C 
HETATM    6  C6  UNL     1     -34.790  17.238  -5.114  1.00 20.00     0.149 C 
HETATM    7  C7  UNL     1     -34.189  16.862  -3.742  1.00 20.00     0.022 C 
HETATM    8  O11 UNL     1     -34.189  16.368  -6.105  1.00 20.00    -0.373 OA
ENDROOT
BRANCH   7   9
HETATM    9  C10 UNL     1     -33.100  17.860  -3.340  1.00 20.00    -0.016 C 
HETATM   10  C8  UNL     1     -33.463  19.263  -3.817  1.00 20.00     0.010 C 
HETATM   11  C9  UNL     1     -32.889  17.839  -1.831  1.00 20.00     0.010 C 
ENDBRANCH   7   9
TORSDOF 1
ENDMDL
