MODEL 1
REMARK VINA RESULT:      -3.5      0.000      0.000
REMARK  1 active torsions:
REMARK  status: ('A' for Active; 'I' for Inactive)
REMARK    1  A    between atoms: C8_8  and  C11_11 
ROOT
HETATM    1  C1  UNL     1     -42.296  14.463   4.523  1.00 20.00     0.131 C 
HETATM    2  C2  UNL     1     -42.508  15.709   5.339  1.00 20.00     0.079 C 
HETATM    3  C3  UNL     1     -41.617  15.441   6.545  1.00 20.00     0.018 C 
HETATM    4  C4  UNL     1     -39.768  12.441   6.314  1.00 20.00     0.002 C 
HETATM    5  C5  UNL     1     -40.320  12.955   4.995  1.00 20.00     0.013 C 
HETATM    6  C6  UNL     1     -40.355  13.374   7.372  1.00 20.00     0.011 C 
HETATM    7  C7  UNL     1     -41.751  13.322   5.349  1.00 20.00     0.064 C 
HETATM    8  C8  UNL     1     -41.668  13.916   6.772  1.00 20.00    -0.027 C 
HETATM    9  O12 UNL     1     -42.555  14.379   3.329  1.00 20.00    -0.298 OA
ENDROOT
BRANCH   8  10
HETATM   10  C11 UNL     1     -42.879  13.524   7.623  1.00 20.00    -0.013 C 
HETATM   11  C9  UNL     1     -43.305  12.093   7.314  1.00 20.00     0.010 C 
HETATM   12  C10 UNL     1     -42.562  13.687   9.105  1.00 20.00     0.010 C 
ENDBRANCH   8  10
TORSDOF 1
ENDMDL
MODEL 2
REMARK VINA RESULT:      -3.5     12.600     13.769
REMARK  1 active torsions:
REMARK  status: ('A' for Active; 'I' for Inactive)
REMARK    1  A    between atoms: C8_8  and  C11_11 
ROOT
HETATM    1  C1  UNL     1     -35.661  15.271  -6.882  1.00 20.00     0.131 C 
HETATM    2  C2  UNL     1     -35.355  16.501  -7.692  1.00 20.00     0.079 C 
HETATM    3  C3  UNL     1     -34.489  17.299  -6.726  1.00 20.00     0.018 C 
HETATM    4  C4  UNL     1     -33.796  15.607  -3.704  1.00 20.00     0.002 C 
HETATM    5  C5  UNL     1     -34.274  14.718  -4.840  1.00 20.00     0.013 C 
HETATM    6  C6  UNL     1     -33.922  17.031  -4.245  1.00 20.00     0.011 C 
HETATM    7  C7  UNL     1     -35.452  15.493  -5.403  1.00 20.00     0.064 C 
HETATM    8  C8  UNL     1     -35.029  16.976  -5.318  1.00 20.00    -0.027 C 
HETATM    9  O12 UNL     1     -36.054  14.217  -7.365  1.00 20.00    -0.298 OA
ENDROOT
BRANCH   8  10
HETATM   10  C11 UNL     1     -36.207  17.884  -4.956  1.00 20.00    -0.013 C 
HETATM   11  C9  UNL     1     -37.470  17.056  -4.743  1.00 20.00     0.010 C 
HETATM   12  C10 UNL     1     -35.883  18.706  -3.714  1.00 20.00     0.010 C 
ENDBRANCH   8  10
TORSDOF 1
ENDMDL
MODEL 3
REMARK VINA RESULT:      -3.4     13.169     14.381
REMARK  1 active torsions:
REMARK  status: ('A' for Active; 'I' for Inactive)
REMARK    1  A    between atoms: C8_8  and  C11_11 
ROOT
HETATM    1  C1  UNL     1     -35.875  15.175  -6.630  1.00 20.00     0.131 C 
HETATM    2  C2  UNL     1     -36.844  15.517  -5.533  1.00 20.00     0.079 C 
HETATM    3  C3  UNL     1     -36.419  16.937  -5.178  1.00 20.00     0.018 C 
HETATM    4  C4  UNL     1     -33.851  18.212  -7.241  1.00 20.00     0.002 C 
HETATM    5  C5  UNL     1     -34.587  17.009  -7.806  1.00 20.00     0.013 C 
HETATM    6  C6  UNL     1     -34.410  18.383  -5.829  1.00 20.00     0.011 C 
HETATM    7  C7  UNL     1     -34.655  16.066  -6.616  1.00 20.00     0.064 C 
HETATM    8  C8  UNL     1     -34.893  16.983  -5.397  1.00 20.00    -0.027 C 
HETATM    9  O12 UNL     1     -36.046  14.264  -7.431  1.00 20.00    -0.298 OA
ENDROOT
BRANCH   8  10
HETATM   10  C11 UNL     1     -34.143  16.487  -4.158  1.00 20.00    -0.013 C 
HETATM   11  C9  UNL     1     -33.257  15.297  -4.513  1.00 20.00     0.010 C 
HETATM   12  C10 UNL     1     -33.317  17.615  -3.550  1.00 20.00     0.010 C 
ENDBRANCH   8  10
TORSDOF 1
ENDMDL
MODEL 4
REMARK VINA RESULT:      -3.4      2.343      3.860
REMARK  1 active torsions:
REMARK  status: ('A' for Active; 'I' for Inactive)
REMARK    1  A    between atoms: C8_8  and  C11_11 
ROOT
HETATM    1  C1  UNL     1     -40.426  15.330   8.696  1.00 20.00     0.131 C 
HETATM    2  C2  UNL     1     -40.594  16.416   7.669  1.00 20.00     0.079 C 
HETATM    3  C3  UNL     1     -41.892  15.999   6.991  1.00 20.00     0.018 C 
HETATM    4  C4  UNL     1     -43.416  13.166   8.450  1.00 20.00     0.002 C 
HETATM    5  C5  UNL     1     -42.387  13.860   9.325  1.00 20.00     0.013 C 
HETATM    6  C6  UNL     1     -43.334  13.887   7.105  1.00 20.00     0.011 C 
HETATM    7  C7  UNL     1     -41.233  14.098   8.365  1.00 20.00     0.064 C 
HETATM    8  C8  UNL     1     -41.903  14.457   7.021  1.00 20.00    -0.027 C 
HETATM    9  O12 UNL     1     -39.700  15.428   9.678  1.00 20.00    -0.298 OA
ENDROOT
BRANCH   8  10
HETATM   10  C11 UNL     1     -41.135  13.875   5.830  1.00 20.00    -0.013 C 
HETATM   11  C9  UNL     1     -40.820  12.403   6.069  1.00 20.00     0.010 C 
HETATM   12  C10 UNL     1     -41.933  14.057   4.544  1.00 20.00     0.010 C 
ENDBRANCH   8  10
TORSDOF 1
ENDMDL
MODEL 5
REMARK VINA RESULT:      -3.3     13.117     14.181
REMARK  1 active torsions:
REMARK  status: ('A' for Active; 'I' for Inactive)
REMARK    1  A    between atoms: C8_8  and  C11_11 
ROOT
HETATM    1  C1  UNL     1     -34.062  18.065  -4.376  1.00 20.00     0.131 C 
HETATM    2  C2  UNL     1     -35.457  18.494  -4.741  1.00 20.00     0.079 C 
HETATM    3  C3  UNL     1     -36.147  17.153  -4.951  1.00 20.00     0.018 C 
HETATM    4  C4  UNL     1     -34.096  14.369  -4.231  1.00 20.00     0.002 C 
HETATM    5  C5  UNL     1     -33.616  15.685  -3.644  1.00 20.00     0.013 C 
HETATM    6  C6  UNL     1     -35.294  14.744  -5.102  1.00 20.00     0.011 C 
HETATM    7  C7  UNL     1     -33.767  16.649  -4.808  1.00 20.00     0.064 C 
HETATM    8  C8  UNL     1     -35.066  16.212  -5.520  1.00 20.00    -0.027 C 
HETATM    9  O12 UNL     1     -33.252  18.789  -3.810  1.00 20.00    -0.298 OA
ENDROOT
BRANCH   8  10
HETATM   10  C11 UNL     1     -34.955  16.352  -7.041  1.00 20.00    -0.013 C 
HETATM   11  C9  UNL     1     -33.792  15.520  -7.568  1.00 20.00     0.010 C 
HETATM   12  C10 UNL     1     -36.263  15.941  -7.708  1.00 20.00     0.010 C 
ENDBRANCH   8  10
TORSDOF 1
ENDMDL
MODEL 6
REMARK VINA RESULT:      -3.3     22.519     24.196
REMARK  1 active torsions:
REMARK  status: ('A' for Active; 'I' for Inactive)
REMARK    1  A    between atoms: C8_8  and  C11_11 
ROOT
HETATM    1  C1  UNL     1     -27.266  -3.016  10.425  1.00 20.00     0.131 C 
HETATM    2  C2  UNL     1     -27.275  -4.438  10.915  1.00 20.00     0.079 C 
HETATM    3  C3  UNL     1     -26.059  -4.455  11.833  1.00 20.00     0.018 C 
HETATM    4  C4  UNL     1     -24.495  -1.308  12.184  1.00 20.00     0.002 C 
HETATM    5  C5  UNL     1     -25.915  -1.260  11.647  1.00 20.00     0.013 C 
HETATM    6  C6  UNL     1     -24.157  -2.797  12.259  1.00 20.00     0.011 C 
HETATM    7  C7  UNL     1     -25.917  -2.359  10.598  1.00 20.00     0.064 C 
HETATM    8  C8  UNL     1     -25.044  -3.482  11.199  1.00 20.00    -0.027 C 
HETATM    9  O12 UNL     1     -28.236  -2.462   9.924  1.00 20.00    -0.298 OA
ENDROOT
BRANCH   8  10
HETATM   10  C11 UNL     1     -24.202  -4.182  10.129  1.00 20.00    -0.013 C 
HETATM   11  C9  UNL     1     -23.887  -3.220   8.988  1.00 20.00     0.010 C 
HETATM   12  C10 UNL     1     -22.920  -4.736  10.741  1.00 20.00     0.010 C 
ENDBRANCH   8  10
TORSDOF 1
ENDMDL
MODEL 7
REMARK VINA RESULT:      -3.3     13.039     14.249
REMARK  1 active torsions:
REMARK  status: ('A' for Active; 'I' for Inactive)
REMARK    1  A    between atoms: C8_8  and  C11_11 
ROOT
HETATM    1  C1  UNL     1     -33.763  15.134  -4.559  1.00 20.00     0.131 C 
HETATM    2  C2  UNL     1     -33.330  16.301  -3.715  1.00 20.00     0.079 C 
HETATM    3  C3  UNL     1     -34.511  17.251  -3.874  1.00 20.00     0.018 C 
HETATM    4  C4  UNL     1     -37.173  15.910  -5.769  1.00 20.00     0.002 C 
HETATM    5  C5  UNL     1     -36.190  14.884  -5.232  1.00 20.00     0.013 C 
HETATM    6  C6  UNL     1     -36.562  17.263  -5.405  1.00 20.00     0.011 C 
HETATM    7  C7  UNL     1     -34.842  15.510  -5.547  1.00 20.00     0.064 C 
HETATM    8  C8  UNL     1     -35.041  17.022  -5.304  1.00 20.00    -0.027 C 
HETATM    9  O12 UNL     1     -33.281  14.012  -4.469  1.00 20.00    -0.298 OA
ENDROOT
BRANCH   8  10
HETATM   10  C11 UNL     1     -34.270  17.868  -6.321  1.00 20.00    -0.013 C 
HETATM   11  C9  UNL     1     -34.256  17.181  -7.682  1.00 20.00     0.010 C 
HETATM   12  C10 UNL     1     -34.879  19.262  -6.423  1.00 20.00     0.010 C 
ENDBRANCH   8  10
TORSDOF 1
ENDMDL
MODEL 8
REMARK VINA RESULT:      -3.3     12.642     13.999
REMARK  1 active torsions:
REMARK  status: ('A' for Active; 'I' for Inactive)
REMARK    1  A    between atoms: C8_8  and  C11_11 
ROOT
HETATM    1  C1  UNL     1     -33.708  16.511  -3.169  1.00 20.00     0.131 C 
HETATM    2  C2  UNL     1     -33.682  15.214  -3.930  1.00 20.00     0.079 C 
HETATM    3  C3  UNL     1     -33.840  15.697  -5.366  1.00 20.00     0.018 C 
HETATM    4  C4  UNL     1     -33.903  19.214  -5.688  1.00 20.00     0.002 C 
HETATM    5  C5  UNL     1     -33.331  18.702  -4.377  1.00 20.00     0.013 C 
HETATM    6  C6  UNL     1     -34.418  17.965  -6.403  1.00 20.00     0.011 C 
HETATM    7  C7  UNL     1     -34.329  17.632  -3.968  1.00 20.00     0.064 C 
HETATM    8  C8  UNL     1     -34.741  16.947  -5.289  1.00 20.00    -0.027 C 
HETATM    9  O12 UNL     1     -33.292  16.638  -2.024  1.00 20.00    -0.298 OA
ENDROOT
BRANCH   8  10
HETATM   10  C11 UNL     1     -36.222  16.562  -5.293  1.00 20.00    -0.013 C 
HETATM   11  C9  UNL     1     -37.061  17.673  -4.671  1.00 20.00     0.010 C 
HETATM   12  C10 UNL     1     -36.689  16.259  -6.712  1.00 20.00     0.010 C 
ENDBRANCH   8  10
TORSDOF 1
ENDMDL
MODEL 9
REMARK VINA RESULT:      -3.3     12.578     13.877
REMARK  1 active torsions:
REMARK  status: ('A' for Active; 'I' for Inactive)
REMARK    1  A    between atoms: C8_8  and  C11_11 
ROOT
HETATM    1  C1  UNL     1     -36.197  15.898  -7.022  1.00 20.00     0.131 C 
HETATM    2  C2  UNL     1     -34.920  16.305  -7.704  1.00 20.00     0.079 C 
HETATM    3  C3  UNL     1     -33.871  15.694  -6.784  1.00 20.00     0.018 C 
HETATM    4  C4  UNL     1     -35.232  13.783  -4.144  1.00 20.00     0.002 C 
HETATM    5  C5  UNL     1     -36.182  14.045  -5.299  1.00 20.00     0.013 C 
HETATM    6  C6  UNL     1     -33.985  14.603  -4.472  1.00 20.00     0.011 C 
HETATM    7  C7  UNL     1     -35.980  15.525  -5.575  1.00 20.00     0.064 C 
HETATM    8  C8  UNL     1     -34.469  15.764  -5.364  1.00 20.00    -0.027 C 
HETATM    9  O12 UNL     1     -37.291  15.890  -7.572  1.00 20.00    -0.298 OA
ENDROOT
BRANCH   8  10
HETATM   10  C11 UNL     1     -34.193  17.124  -4.716  1.00 20.00    -0.013 C 
HETATM   11  C9  UNL     1     -35.502  17.800  -4.322  1.00 20.00     0.010 C 
HETATM   12  C10 UNL     1     -33.282  16.959  -3.504  1.00 20.00     0.010 C 
ENDBRANCH   8  10
TORSDOF 1
ENDMDL
