MODEL 1
REMARK VINA RESULT:      -4.3      0.000      0.000
REMARK  3 active torsions:
REMARK  status: ('A' for Active; 'I' for Inactive)
REMARK    1  A    between atoms: C1_1  and  C7_7 
REMARK    2  A    between atoms: C2_2  and  C8_8 
REMARK    3  A    between atoms: C7_7  and  C9_9 
ROOT
HETATM    1  C1  UNL     1     -33.571   7.884   4.728  1.00 20.00     0.062 A 
HETATM    2  C2  UNL     1     -32.230   7.431   4.224  1.00 20.00     0.064 A 
HETATM    3  S10 UNL     1     -32.339   9.094   4.680  1.00 20.00    -0.157 SA
ENDROOT
BRANCH   1   4
HETATM    4  C7  UNL     1     -34.075   7.424   6.088  1.00 20.00     0.020 C 
BRANCH   4   5
HETATM    5  C9  UNL     1     -34.843   6.092   6.041  1.00 20.00    -0.022 C 
HETATM    6  C5  UNL     1     -35.387   5.781   4.646  1.00 20.00     0.009 C 
HETATM    7  C6  UNL     1     -33.935   4.953   6.508  1.00 20.00     0.009 C 
ENDBRANCH   4   5
ENDBRANCH   1   4
BRANCH   2   8
HETATM    8  C8  UNL     1     -32.038   7.106   2.784  1.00 20.00    -0.008 C 
HETATM    9  C3  UNL     1     -32.729   5.787   2.393  1.00 20.00     0.011 C 
HETATM   10  C4  UNL     1     -32.550   8.234   1.868  1.00 20.00     0.011 C 
ENDBRANCH   2   8
TORSDOF 3
ENDMDL
MODEL 2
REMARK VINA RESULT:      -4.3     11.865     12.836
REMARK  3 active torsions:
REMARK  status: ('A' for Active; 'I' for Inactive)
REMARK    1  A    between atoms: C1_1  and  C7_7 
REMARK    2  A    between atoms: C2_2  and  C8_8 
REMARK    3  A    between atoms: C7_7  and  C9_9 
ROOT
HETATM    1  C1  UNL     1     -33.259  17.821  -1.858  1.00 20.00     0.062 A 
HETATM    2  C2  UNL     1     -33.383  18.157  -0.400  1.00 20.00     0.064 A 
HETATM    3  S10 UNL     1     -34.553  18.887  -1.442  1.00 20.00    -0.157 SA
ENDROOT
BRANCH   1   4
HETATM    4  C7  UNL     1     -33.609  16.425  -2.356  1.00 20.00     0.020 C 
BRANCH   4   5
HETATM    5  C9  UNL     1     -33.340  16.223  -3.857  1.00 20.00    -0.022 C 
HETATM    6  C5  UNL     1     -33.328  14.745  -4.253  1.00 20.00     0.009 C 
HETATM    7  C6  UNL     1     -34.391  16.971  -4.678  1.00 20.00     0.009 C 
ENDBRANCH   4   5
ENDBRANCH   1   4
BRANCH   2   8
HETATM    8  C8  UNL     1     -32.379  19.039   0.257  1.00 20.00    -0.008 C 
HETATM    9  C3  UNL     1     -32.618  19.153   1.774  1.00 20.00     0.011 C 
HETATM   10  C4  UNL     1     -30.939  18.552   0.009  1.00 20.00     0.011 C 
ENDBRANCH   2   8
TORSDOF 3
ENDMDL
MODEL 3
REMARK VINA RESULT:      -4.2      9.567     10.688
REMARK  3 active torsions:
REMARK  status: ('A' for Active; 'I' for Inactive)
REMARK    1  A    between atoms: C1_1  and  C7_7 
REMARK    2  A    between atoms: C2_2  and  C8_8 
REMARK    3  A    between atoms: C7_7  and  C9_9 
ROOT
HETATM    1  C1  UNL     1     -40.974  13.723   7.039  1.00 20.00     0.062 A 
HETATM    2  C2  UNL     1     -40.855  12.955   5.755  1.00 20.00     0.064 A 
HETATM    3  S10 UNL     1     -42.276  12.644   6.688  1.00 20.00    -0.157 SA
ENDROOT
BRANCH   1   4
HETATM    4  C7  UNL     1     -41.253  15.220   7.015  1.00 20.00     0.020 C 
BRANCH   4   5
HETATM    5  C9  UNL     1     -40.412  16.019   8.025  1.00 20.00    -0.022 C 
HETATM    6  C5  UNL     1     -41.077  17.337   8.425  1.00 20.00     0.009 C 
HETATM    7  C6  UNL     1     -40.154  15.170   9.272  1.00 20.00     0.009 C 
ENDBRANCH   4   5
ENDBRANCH   1   4
BRANCH   2   8
HETATM    8  C8  UNL     1     -39.849  11.865   5.621  1.00 20.00    -0.008 C 
HETATM    9  C3  UNL     1     -39.321  11.744   4.179  1.00 20.00     0.011 C 
HETATM   10  C4  UNL     1     -38.659  12.061   6.579  1.00 20.00     0.011 C 
ENDBRANCH   2   8
TORSDOF 3
ENDMDL
MODEL 4
REMARK VINA RESULT:      -4.2     11.715     12.741
REMARK  3 active torsions:
REMARK  status: ('A' for Active; 'I' for Inactive)
REMARK    1  A    between atoms: C1_1  and  C7_7 
REMARK    2  A    between atoms: C2_2  and  C8_8 
REMARK    3  A    between atoms: C7_7  and  C9_9 
ROOT
HETATM    1  C1  UNL     1     -33.162  17.028  -3.247  1.00 20.00     0.062 A 
HETATM    2  C2  UNL     1     -33.895  17.361  -1.979  1.00 20.00     0.064 A 
HETATM    3  S10 UNL     1     -34.586  17.987  -3.433  1.00 20.00    -0.157 SA
ENDROOT
BRANCH   1   4
HETATM    4  C7  UNL     1     -33.176  15.606  -3.791  1.00 20.00     0.020 C 
BRANCH   4   5
HETATM    5  C9  UNL     1     -34.340  15.330  -4.758  1.00 20.00    -0.022 C 
HETATM    6  C5  UNL     1     -33.876  15.217  -6.212  1.00 20.00     0.009 C 
HETATM    7  C6  UNL     1     -35.065  14.047  -4.346  1.00 20.00     0.009 C 
ENDBRANCH   4   5
ENDBRANCH   1   4
BRANCH   2   8
HETATM    8  C8  UNL     1     -33.312  18.324  -1.004  1.00 20.00    -0.008 C 
HETATM    9  C3  UNL     1     -33.868  18.112   0.417  1.00 20.00     0.011 C 
HETATM   10  C4  UNL     1     -31.775  18.240  -0.963  1.00 20.00     0.011 C 
ENDBRANCH   2   8
TORSDOF 3
ENDMDL
MODEL 5
REMARK VINA RESULT:      -4.0     11.873     13.061
REMARK  3 active torsions:
REMARK  status: ('A' for Active; 'I' for Inactive)
REMARK    1  A    between atoms: C1_1  and  C7_7 
REMARK    2  A    between atoms: C2_2  and  C8_8 
REMARK    3  A    between atoms: C7_7  and  C9_9 
ROOT
HETATM    1  C1  UNL     1     -34.088  17.396  -3.201  1.00 20.00     0.062 A 
HETATM    2  C2  UNL     1     -34.085  16.990  -4.647  1.00 20.00     0.064 A 
HETATM    3  S10 UNL     1     -35.274  18.161  -4.198  1.00 20.00    -0.157 SA
ENDROOT
BRANCH   1   4
HETATM    4  C7  UNL     1     -32.960  18.250  -2.641  1.00 20.00     0.020 C 
BRANCH   4   5
HETATM    5  C9  UNL     1     -32.575  17.890  -1.196  1.00 20.00    -0.022 C 
HETATM    6  C5  UNL     1     -31.534  18.848  -0.613  1.00 20.00     0.009 C 
HETATM    7  C6  UNL     1     -33.824  17.883  -0.312  1.00 20.00     0.009 C 
ENDBRANCH   4   5
ENDBRANCH   1   4
BRANCH   2   8
HETATM    8  C8  UNL     1     -34.550  15.633  -5.049  1.00 20.00    -0.008 C 
HETATM    9  C3  UNL     1     -34.213  15.322  -6.518  1.00 20.00     0.011 C 
HETATM   10  C4  UNL     1     -33.954  14.533  -4.150  1.00 20.00     0.011 C 
ENDBRANCH   2   8
TORSDOF 3
ENDMDL
MODEL 6
REMARK VINA RESULT:      -4.0     11.938     13.356
REMARK  3 active torsions:
REMARK  status: ('A' for Active; 'I' for Inactive)
REMARK    1  A    between atoms: C1_1  and  C7_7 
REMARK    2  A    between atoms: C2_2  and  C8_8 
REMARK    3  A    between atoms: C7_7  and  C9_9 
ROOT
HETATM    1  C1  UNL     1     -33.339  16.440  -3.750  1.00 20.00     0.062 A 
HETATM    2  C2  UNL     1     -34.525  16.188  -4.636  1.00 20.00     0.064 A 
HETATM    3  S10 UNL     1     -33.433  14.862  -4.446  1.00 20.00    -0.157 SA
ENDROOT
BRANCH   1   4
HETATM    4  C7  UNL     1     -33.520  16.575  -2.244  1.00 20.00     0.020 C 
BRANCH   4   5
HETATM    5  C9  UNL     1     -32.776  17.778  -1.640  1.00 20.00    -0.022 C 
HETATM    6  C5  UNL     1     -32.770  18.989  -2.575  1.00 20.00     0.009 C 
HETATM    7  C6  UNL     1     -33.410  18.162  -0.302  1.00 20.00     0.009 C 
ENDBRANCH   4   5
ENDBRANCH   1   4
BRANCH   2   8
HETATM    8  C8  UNL     1     -34.617  16.838  -5.973  1.00 20.00    -0.008 C 
HETATM    9  C3  UNL     1     -35.972  16.567  -6.652  1.00 20.00     0.011 C 
HETATM   10  C4  UNL     1     -34.389  18.359  -5.888  1.00 20.00     0.011 C 
ENDBRANCH   2   8
TORSDOF 3
ENDMDL
MODEL 7
REMARK VINA RESULT:      -3.8      9.705     11.006
REMARK  3 active torsions:
REMARK  status: ('A' for Active; 'I' for Inactive)
REMARK    1  A    between atoms: C1_1  and  C7_7 
REMARK    2  A    between atoms: C2_2  and  C8_8 
REMARK    3  A    between atoms: C7_7  and  C9_9 
ROOT
HETATM    1  C1  UNL     1     -41.043  13.716   5.949  1.00 20.00     0.062 A 
HETATM    2  C2  UNL     1     -42.074  14.509   6.700  1.00 20.00     0.064 A 
HETATM    3  S10 UNL     1     -42.273  14.450   4.985  1.00 20.00    -0.157 SA
ENDROOT
BRANCH   1   4
HETATM    4  C7  UNL     1     -41.018  12.198   6.051  1.00 20.00     0.020 C 
BRANCH   4   5
HETATM    5  C9  UNL     1     -39.661  11.578   5.675  1.00 20.00    -0.022 C 
HETATM    6  C5  UNL     1     -39.325  11.762   4.194  1.00 20.00     0.009 C 
HETATM    7  C6  UNL     1     -38.554  12.191   6.536  1.00 20.00     0.009 C 
ENDBRANCH   4   5
ENDBRANCH   1   4
BRANCH   2   8
HETATM    8  C8  UNL     1     -41.714  15.813   7.322  1.00 20.00    -0.008 C 
HETATM    9  C3  UNL     1     -42.740  16.245   8.386  1.00 20.00     0.011 C 
HETATM   10  C4  UNL     1     -40.312  15.778   7.958  1.00 20.00     0.011 C 
ENDBRANCH   2   8
TORSDOF 3
ENDMDL
MODEL 8
REMARK VINA RESULT:      -3.8     12.283     14.089
REMARK  3 active torsions:
REMARK  status: ('A' for Active; 'I' for Inactive)
REMARK    1  A    between atoms: C1_1  and  C7_7 
REMARK    2  A    between atoms: C2_2  and  C8_8 
REMARK    3  A    between atoms: C7_7  and  C9_9 
ROOT
HETATM    1  C1  UNL     1     -34.439  17.553  -5.628  1.00 20.00     0.062 A 
HETATM    2  C2  UNL     1     -34.484  17.500  -4.128  1.00 20.00     0.064 A 
HETATM    3  S10 UNL     1     -34.356  19.078  -4.820  1.00 20.00    -0.157 SA
ENDROOT
BRANCH   1   4
HETATM    4  C7  UNL     1     -35.684  17.238  -6.445  1.00 20.00     0.020 C 
BRANCH   4   5
HETATM    5  C9  UNL     1     -35.605  15.896  -7.192  1.00 20.00    -0.022 C 
HETATM    6  C5  UNL     1     -34.271  15.709  -7.918  1.00 20.00     0.009 C 
HETATM    7  C6  UNL     1     -35.827  14.742  -6.213  1.00 20.00     0.009 C 
ENDBRANCH   4   5
ENDBRANCH   1   4
BRANCH   2   8
HETATM    8  C8  UNL     1     -33.324  16.973  -3.358  1.00 20.00    -0.008 C 
HETATM    9  C3  UNL     1     -33.572  17.020  -1.839  1.00 20.00     0.011 C 
HETATM   10  C4  UNL     1     -32.970  15.531  -3.767  1.00 20.00     0.011 C 
ENDBRANCH   2   8
TORSDOF 3
ENDMDL
MODEL 9
REMARK VINA RESULT:      -3.8     10.316     11.493
REMARK  3 active torsions:
REMARK  status: ('A' for Active; 'I' for Inactive)
REMARK    1  A    between atoms: C1_1  and  C7_7 
REMARK    2  A    between atoms: C2_2  and  C8_8 
REMARK    3  A    between atoms: C7_7  and  C9_9 
ROOT
HETATM    1  C1  UNL     1     -40.810  14.356   7.607  1.00 20.00     0.062 A 
HETATM    2  C2  UNL     1     -40.307  15.766   7.722  1.00 20.00     0.064 A 
HETATM    3  S10 UNL     1     -40.378  14.871   9.198  1.00 20.00    -0.157 SA
ENDROOT
BRANCH   1   4
HETATM    4  C7  UNL     1     -39.956  13.288   6.940  1.00 20.00     0.020 C 
BRANCH   4   5
HETATM    5  C9  UNL     1     -40.647  12.602   5.749  1.00 20.00    -0.022 C 
HETATM    6  C5  UNL     1     -41.377  13.598   4.846  1.00 20.00     0.009 C 
HETATM    7  C6  UNL     1     -39.618  11.819   4.931  1.00 20.00     0.009 C 
ENDBRANCH   4   5
ENDBRANCH   1   4
BRANCH   2   8
HETATM    8  C8  UNL     1     -41.240  16.914   7.550  1.00 20.00    -0.008 C 
HETATM    9  C3  UNL     1     -40.502  18.195   7.117  1.00 20.00     0.011 C 
HETATM   10  C4  UNL     1     -42.351  16.603   6.529  1.00 20.00     0.011 C 
ENDBRANCH   2   8
TORSDOF 3
ENDMDL
