MODEL 1
REMARK VINA RESULT:      -4.2      0.000      0.000
REMARK  3 active torsions:
REMARK  status: ('A' for Active; 'I' for Inactive)
REMARK    1  A    between atoms: C1_1  and  C5_5 
REMARK    2  A    between atoms: C1_1  and  C6_6 
REMARK    3  A    between atoms: C4_4  and  C5_5 
ROOT
HETATM    1  C1  UNL     1     -32.607   8.281   4.539  1.00 20.00     0.137 C 
HETATM    2  O7  UNL     1     -32.087   9.367   4.796  1.00 20.00    -0.297 OA
ENDROOT
BRANCH   1   3
HETATM    3  C5  UNL     1     -33.696   7.675   5.405  1.00 20.00     0.083 C 
BRANCH   3   4
HETATM    4  C4  UNL     1     -33.944   6.226   5.133  1.00 20.00    -0.008 A 
HETATM    5  C2  UNL     1     -34.759   5.402   6.091  1.00 20.00     0.005 A 
HETATM    6  C3  UNL     1     -35.316   5.753   4.739  1.00 20.00     0.005 A 
ENDBRANCH   3   4
ENDBRANCH   1   3
BRANCH   1   7
HETATM    7  C6  UNL     1     -32.203   7.501   3.318  1.00 20.00     0.163 C 
HETATM    8 BR8  UNL     1     -32.497   8.655   1.795  1.00 20.00    -0.089 Br
ENDBRANCH   1   7
TORSDOF 3
ENDMDL
MODEL 2
REMARK VINA RESULT:      -4.0      1.452      1.493
REMARK  3 active torsions:
REMARK  status: ('A' for Active; 'I' for Inactive)
REMARK    1  A    between atoms: C1_1  and  C5_5 
REMARK    2  A    between atoms: C1_1  and  C6_6 
REMARK    3  A    between atoms: C4_4  and  C5_5 
ROOT
HETATM    1  C1  UNL     1     -32.702   7.842   4.135  1.00 20.00     0.137 C 
HETATM    2  O7  UNL     1     -32.141   8.776   4.709  1.00 20.00    -0.297 OA
ENDROOT
BRANCH   1   3
HETATM    3  C5  UNL     1     -33.989   7.225   4.651  1.00 20.00     0.083 C 
BRANCH   3   4
HETATM    4  C4  UNL     1     -33.827   6.485   5.940  1.00 20.00    -0.008 A 
HETATM    5  C2  UNL     1     -35.020   6.207   6.811  1.00 20.00     0.005 A 
HETATM    6  C3  UNL     1     -34.347   5.080   6.077  1.00 20.00     0.005 A 
ENDBRANCH   3   4
ENDBRANCH   1   3
BRANCH   1   7
HETATM    7  C6  UNL     1     -32.146   7.275   2.857  1.00 20.00     0.163 C 
HETATM    8 BR8  UNL     1     -32.899   5.505   2.658  1.00 20.00    -0.089 Br
ENDBRANCH   1   7
TORSDOF 3
ENDMDL
MODEL 3
REMARK VINA RESULT:      -4.0      2.524      3.728
REMARK  3 active torsions:
REMARK  status: ('A' for Active; 'I' for Inactive)
REMARK    1  A    between atoms: C1_1  and  C5_5 
REMARK    2  A    between atoms: C1_1  and  C6_6 
REMARK    3  A    between atoms: C4_4  and  C5_5 
ROOT
HETATM    1  C1  UNL     1     -34.439   5.980   5.864  1.00 20.00     0.137 C 
HETATM    2  O7  UNL     1     -34.571   5.110   6.726  1.00 20.00    -0.297 OA
ENDROOT
BRANCH   1   3
HETATM    3  C5  UNL     1     -33.634   7.244   6.101  1.00 20.00     0.083 C 
BRANCH   3   4
HETATM    4  C4  UNL     1     -33.446   8.075   4.872  1.00 20.00    -0.008 A 
HETATM    5  C2  UNL     1     -32.438   9.191   4.857  1.00 20.00     0.005 A 
HETATM    6  C3  UNL     1     -32.192   7.944   4.053  1.00 20.00     0.005 A 
ENDBRANCH   3   4
ENDBRANCH   1   3
BRANCH   1   7
HETATM    7  C6  UNL     1     -35.056   5.817   4.502  1.00 20.00     0.163 C 
HETATM    8 BR8  UNL     1     -33.820   4.763   3.452  1.00 20.00    -0.089 Br
ENDBRANCH   1   7
TORSDOF 3
ENDMDL
MODEL 4
REMARK VINA RESULT:      -4.0      2.651      3.009
REMARK  3 active torsions:
REMARK  status: ('A' for Active; 'I' for Inactive)
REMARK    1  A    between atoms: C1_1  and  C5_5 
REMARK    2  A    between atoms: C1_1  and  C6_6 
REMARK    3  A    between atoms: C4_4  and  C5_5 
ROOT
HETATM    1  C1  UNL     1     -33.921   4.959   3.787  1.00 20.00     0.137 C 
HETATM    2  O7  UNL     1     -33.922   3.792   4.182  1.00 20.00    -0.297 OA
ENDROOT
BRANCH   1   3
HETATM    3  C5  UNL     1     -34.866   6.008   4.345  1.00 20.00     0.083 C 
BRANCH   3   4
HETATM    4  C4  UNL     1     -34.893   6.058   5.839  1.00 20.00    -0.008 A 
HETATM    5  C2  UNL     1     -33.642   5.793   6.630  1.00 20.00     0.005 A 
HETATM    6  C3  UNL     1     -34.214   7.182   6.571  1.00 20.00     0.005 A 
ENDBRANCH   3   4
ENDBRANCH   1   3
BRANCH   1   7
HETATM    7  C6  UNL     1     -32.949   5.418   2.735  1.00 20.00     0.163 C 
HETATM    8 BR8  UNL     1     -32.436   7.224   3.199  1.00 20.00    -0.089 Br
ENDBRANCH   1   7
TORSDOF 3
ENDMDL
MODEL 5
REMARK VINA RESULT:      -3.9      2.350      3.644
REMARK  3 active torsions:
REMARK  status: ('A' for Active; 'I' for Inactive)
REMARK    1  A    between atoms: C1_1  and  C5_5 
REMARK    2  A    between atoms: C1_1  and  C6_6 
REMARK    3  A    between atoms: C4_4  and  C5_5 
ROOT
HETATM    1  C1  UNL     1     -33.985   6.978   5.730  1.00 20.00     0.137 C 
HETATM    2  O7  UNL     1     -33.399   6.561   6.730  1.00 20.00    -0.297 OA
ENDROOT
BRANCH   1   3
HETATM    3  C5  UNL     1     -33.704   8.345   5.133  1.00 20.00     0.083 C 
BRANCH   3   4
HETATM    4  C4  UNL     1     -32.442   8.403   4.333  1.00 20.00    -0.008 A 
HETATM    5  C2  UNL     1     -32.203   7.420   3.221  1.00 20.00     0.005 A 
HETATM    6  C3  UNL     1     -32.473   8.865   2.903  1.00 20.00     0.005 A 
ENDBRANCH   3   4
ENDBRANCH   1   3
BRANCH   1   7
HETATM    7  C6  UNL     1     -35.005   6.128   5.023  1.00 20.00     0.163 C 
HETATM    8 BR8  UNL     1     -34.104   4.502   4.492  1.00 20.00    -0.089 Br
ENDBRANCH   1   7
TORSDOF 3
ENDMDL
MODEL 6
REMARK VINA RESULT:      -3.9      2.265      2.448
REMARK  3 active torsions:
REMARK  status: ('A' for Active; 'I' for Inactive)
REMARK    1  A    between atoms: C1_1  and  C5_5 
REMARK    2  A    between atoms: C1_1  and  C6_6 
REMARK    3  A    between atoms: C4_4  and  C5_5 
ROOT
HETATM    1  C1  UNL     1     -33.216   6.154   3.290  1.00 20.00     0.137 C 
HETATM    2  O7  UNL     1     -33.006   5.047   2.792  1.00 20.00    -0.297 OA
ENDROOT
BRANCH   1   3
HETATM    3  C5  UNL     1     -34.476   6.467   4.076  1.00 20.00     0.083 C 
BRANCH   3   4
HETATM    4  C4  UNL     1     -34.812   5.438   5.108  1.00 20.00    -0.008 A 
HETATM    5  C2  UNL     1     -33.786   5.019   6.123  1.00 20.00     0.005 A 
HETATM    6  C3  UNL     1     -34.974   5.836   6.549  1.00 20.00     0.005 A 
ENDBRANCH   3   4
ENDBRANCH   1   3
BRANCH   1   7
HETATM    7  C6  UNL     1     -32.205   7.261   3.167  1.00 20.00     0.163 C 
HETATM    8 BR8  UNL     1     -32.509   8.462   4.651  1.00 20.00    -0.089 Br
ENDBRANCH   1   7
TORSDOF 3
ENDMDL
MODEL 7
REMARK VINA RESULT:      -3.9      2.920      4.141
REMARK  3 active torsions:
REMARK  status: ('A' for Active; 'I' for Inactive)
REMARK    1  A    between atoms: C1_1  and  C5_5 
REMARK    2  A    between atoms: C1_1  and  C6_6 
REMARK    3  A    between atoms: C4_4  and  C5_5 
ROOT
HETATM    1  C1  UNL     1     -33.692   5.572   3.782  1.00 20.00     0.137 C 
HETATM    2  O7  UNL     1     -33.148   5.214   2.736  1.00 20.00    -0.297 OA
ENDROOT
BRANCH   1   3
HETATM    3  C5  UNL     1     -33.773   7.029   4.199  1.00 20.00     0.083 C 
BRANCH   3   4
HETATM    4  C4  UNL     1     -32.486   7.773   4.038  1.00 20.00    -0.008 A 
HETATM    5  C2  UNL     1     -32.452   9.076   3.289  1.00 20.00     0.005 A 
HETATM    6  C3  UNL     1     -32.259   9.061   4.780  1.00 20.00     0.005 A 
ENDBRANCH   3   4
ENDBRANCH   1   3
BRANCH   1   7
HETATM    7  C6  UNL     1     -34.338   4.570   4.699  1.00 20.00     0.163 C 
HETATM    8 BR8  UNL     1     -34.613   5.460   6.393  1.00 20.00    -0.089 Br
ENDBRANCH   1   7
TORSDOF 3
ENDMDL
MODEL 8
REMARK VINA RESULT:      -3.9      1.472      1.655
REMARK  3 active torsions:
REMARK  status: ('A' for Active; 'I' for Inactive)
REMARK    1  A    between atoms: C1_1  and  C5_5 
REMARK    2  A    between atoms: C1_1  and  C6_6 
REMARK    3  A    between atoms: C4_4  and  C5_5 
ROOT
HETATM    1  C1  UNL     1     -32.701   7.420   3.549  1.00 20.00     0.137 C 
HETATM    2  O7  UNL     1     -32.436   6.443   2.847  1.00 20.00    -0.297 OA
ENDROOT
BRANCH   1   3
HETATM    3  C5  UNL     1     -33.208   7.286   4.973  1.00 20.00     0.083 C 
BRANCH   3   4
HETATM    4  C4  UNL     1     -34.496   6.535   5.084  1.00 20.00    -0.008 A 
HETATM    5  C2  UNL     1     -34.532   5.051   4.846  1.00 20.00     0.005 A 
HETATM    6  C3  UNL     1     -34.728   5.594   6.234  1.00 20.00     0.005 A 
ENDBRANCH   3   4
ENDBRANCH   1   3
BRANCH   1   7
HETATM    7  C6  UNL     1     -32.506   8.819   3.031  1.00 20.00     0.163 C 
HETATM    8 BR8  UNL     1     -32.416   8.692   1.103  1.00 20.00    -0.089 Br
ENDBRANCH   1   7
TORSDOF 3
ENDMDL
MODEL 9
REMARK VINA RESULT:      -3.8      3.072      4.285
REMARK  3 active torsions:
REMARK  status: ('A' for Active; 'I' for Inactive)
REMARK    1  A    between atoms: C1_1  and  C5_5 
REMARK    2  A    between atoms: C1_1  and  C6_6 
REMARK    3  A    between atoms: C4_4  and  C5_5 
ROOT
HETATM    1  C1  UNL     1     -34.036   4.989   4.122  1.00 20.00     0.137 C 
HETATM    2  O7  UNL     1     -34.029   3.797   4.435  1.00 20.00    -0.297 OA
ENDROOT
BRANCH   1   3
HETATM    3  C5  UNL     1     -33.079   5.567   3.096  1.00 20.00     0.083 C 
BRANCH   3   4
HETATM    4  C4  UNL     1     -33.072   7.062   3.056  1.00 20.00    -0.008 A 
HETATM    5  C2  UNL     1     -31.948   7.833   3.690  1.00 20.00     0.005 A 
HETATM    6  C3  UNL     1     -32.080   7.792   2.192  1.00 20.00     0.005 A 
ENDBRANCH   3   4
ENDBRANCH   1   3
BRANCH   1   7
HETATM    7  C6  UNL     1     -35.029   5.941   4.731  1.00 20.00     0.163 C 
HETATM    8 BR8  UNL     1     -34.323   6.455   6.456  1.00 20.00    -0.089 Br
ENDBRANCH   1   7
TORSDOF 3
ENDMDL
