MODEL 1
REMARK VINA RESULT:      -3.5      0.000      0.000
REMARK  1 active torsions:
REMARK  status: ('A' for Active; 'I' for Inactive)
REMARK    1  A    between atoms: C4_4  and  C7_7 
ROOT
HETATM    1  C1  UNL     1     -34.323  15.348  -6.908  1.00 20.00     0.075 C 
HETATM    2  C2  UNL     1     -34.436  14.554  -4.553  1.00 20.00     0.105 C 
HETATM    3  C3  UNL     1     -35.046  15.442  -5.630  1.00 20.00     0.164 C 
HETATM    4  C4  UNL     1     -33.619  17.039  -3.893  1.00 20.00     0.113 C 
HETATM    5  N8  UNL     1     -33.755  15.272  -7.916  1.00 20.00    -0.196 NA
HETATM    6  S9  UNL     1     -32.932  15.359  -3.940  1.00 20.00    -0.151 SA
HETATM    7  S10 UNL     1     -35.062  17.155  -5.006  1.00 20.00    -0.133 SA
ENDROOT
BRANCH   4   8
HETATM    8  C7  UNL     1     -34.042  17.391  -2.472  1.00 20.00     0.001 C 
HETATM    9  C5  UNL     1     -32.825  17.740  -1.617  1.00 20.00     0.011 C 
HETATM   10  C6  UNL     1     -35.042  18.546  -2.475  1.00 20.00     0.011 C 
ENDBRANCH   4   8
TORSDOF 1
ENDMDL
MODEL 2
REMARK VINA RESULT:      -3.4      2.140      2.998
REMARK  1 active torsions:
REMARK  status: ('A' for Active; 'I' for Inactive)
REMARK    1  A    between atoms: C4_4  and  C7_7 
ROOT
HETATM    1  C1  UNL     1     -36.877  16.254  -7.419  1.00 20.00     0.075 C 
HETATM    2  C2  UNL     1     -34.513  17.009  -7.253  1.00 20.00     0.105 C 
HETATM    3  C3  UNL     1     -35.488  15.842  -7.163  1.00 20.00     0.164 C 
HETATM    4  C4  UNL     1     -34.776  16.579  -4.603  1.00 20.00     0.113 C 
HETATM    5  N8  UNL     1     -37.972  16.577  -7.621  1.00 20.00    -0.196 NA
HETATM    6  S9  UNL     1     -34.664  17.993  -5.738  1.00 20.00    -0.151 SA
HETATM    7  S10 UNL     1     -35.315  15.090  -5.511  1.00 20.00    -0.133 SA
ENDROOT
BRANCH   4   8
HETATM    8  C7  UNL     1     -33.421  16.320  -3.958  1.00 20.00     0.001 C 
HETATM    9  C5  UNL     1     -33.473  16.605  -2.458  1.00 20.00     0.011 C 
HETATM   10  C6  UNL     1     -32.966  14.883  -4.212  1.00 20.00     0.011 C 
ENDBRANCH   4   8
TORSDOF 1
ENDMDL
MODEL 3
REMARK VINA RESULT:      -3.3      3.025      4.938
REMARK  1 active torsions:
REMARK  status: ('A' for Active; 'I' for Inactive)
REMARK    1  A    between atoms: C4_4  and  C7_7 
ROOT
HETATM    1  C1  UNL     1     -32.185  18.368  -1.069  1.00 20.00     0.075 C 
HETATM    2  C2  UNL     1     -34.496  18.794  -1.884  1.00 20.00     0.105 C 
HETATM    3  C3  UNL     1     -33.479  17.761  -1.415  1.00 20.00     0.164 C 
HETATM    4  C4  UNL     1     -33.697  17.583  -4.159  1.00 20.00     0.113 C 
HETATM    5  N8  UNL     1     -31.164  18.846  -0.794  1.00 20.00    -0.196 NA
HETATM    6  S9  UNL     1     -34.085  19.263  -3.586  1.00 20.00    -0.151 SA
HETATM    7  S10 UNL     1     -33.292  16.516  -2.734  1.00 20.00    -0.133 SA
ENDROOT
BRANCH   4   8
HETATM    8  C7  UNL     1     -34.886  17.001  -4.911  1.00 20.00     0.001 C 
HETATM    9  C5  UNL     1     -34.997  17.615  -6.305  1.00 20.00     0.011 C 
HETATM   10  C6  UNL     1     -34.774  15.480  -5.005  1.00 20.00     0.011 C 
ENDBRANCH   4   8
TORSDOF 1
ENDMDL
MODEL 4
REMARK VINA RESULT:      -3.2      1.528      2.345
REMARK  1 active torsions:
REMARK  status: ('A' for Active; 'I' for Inactive)
REMARK    1  A    between atoms: C4_4  and  C7_7 
ROOT
HETATM    1  C1  UNL     1     -35.371  15.033  -7.303  1.00 20.00     0.075 C 
HETATM    2  C2  UNL     1     -34.165  17.161  -6.853  1.00 20.00     0.105 C 
HETATM    3  C3  UNL     1     -34.111  15.638  -6.846  1.00 20.00     0.164 C 
HETATM    4  C4  UNL     1     -34.409  16.509  -4.246  1.00 20.00     0.113 C 
HETATM    5  N8  UNL     1     -36.364  14.554  -7.664  1.00 20.00    -0.196 NA
HETATM    6  S9  UNL     1     -35.126  17.701  -5.414  1.00 20.00    -0.151 SA
HETATM    7  S10 UNL     1     -33.693  15.097  -5.155  1.00 20.00    -0.133 SA
ENDROOT
BRANCH   4   8
HETATM    8  C7  UNL     1     -33.325  17.182  -3.415  1.00 20.00     0.001 C 
HETATM    9  C5  UNL     1     -33.295  18.686  -3.680  1.00 20.00     0.011 C 
HETATM   10  C6  UNL     1     -33.537  16.907  -1.926  1.00 20.00     0.011 C 
ENDBRANCH   4   8
TORSDOF 1
ENDMDL
MODEL 5
REMARK VINA RESULT:      -3.2     24.537     25.568
REMARK  1 active torsions:
REMARK  status: ('A' for Active; 'I' for Inactive)
REMARK    1  A    between atoms: C4_4  and  C7_7 
ROOT
HETATM    1  C1  UNL     1     -29.719  -2.478  10.836  1.00 20.00     0.075 C 
HETATM    2  C2  UNL     1     -27.705  -1.125  10.289  1.00 20.00     0.105 C 
HETATM    3  C3  UNL     1     -28.408  -2.471  10.168  1.00 20.00     0.164 C 
HETATM    4  C4  UNL     1     -26.419  -2.698  12.065  1.00 20.00     0.113 C 
HETATM    5  N8  UNL     1     -30.754  -2.484  11.360  1.00 20.00    -0.196 NA
HETATM    6  S9  UNL     1     -27.026  -0.988  11.964  1.00 20.00    -0.151 SA
HETATM    7  S10 UNL     1     -27.307  -3.747  10.863  1.00 20.00    -0.133 SA
ENDROOT
BRANCH   4   8
HETATM    8  C7  UNL     1     -24.925  -2.739  11.772  1.00 20.00     0.001 C 
HETATM    9  C5  UNL     1     -24.668  -3.204  10.340  1.00 20.00     0.011 C 
HETATM   10  C6  UNL     1     -24.289  -1.370  12.011  1.00 20.00     0.011 C 
ENDBRANCH   4   8
TORSDOF 1
ENDMDL
MODEL 6
REMARK VINA RESULT:      -3.2     11.869     12.896
REMARK  1 active torsions:
REMARK  status: ('A' for Active; 'I' for Inactive)
REMARK    1  A    between atoms: C4_4  and  C7_7 
ROOT
HETATM    1  C1  UNL     1     -32.212   8.001   1.756  1.00 20.00     0.075 C 
HETATM    2  C2  UNL     1     -32.066   7.976   4.238  1.00 20.00     0.105 C 
HETATM    3  C3  UNL     1     -32.032   7.163   2.951  1.00 20.00     0.164 C 
HETATM    4  C4  UNL     1     -34.476   6.768   4.164  1.00 20.00     0.113 C 
HETATM    5  N8  UNL     1     -32.353   8.661   0.812  1.00 20.00    -0.196 NA
HETATM    6  S9  UNL     1     -33.792   8.393   4.601  1.00 20.00    -0.151 SA
HETATM    7  S10 UNL     1     -33.324   5.881   3.060  1.00 20.00    -0.133 SA
ENDROOT
BRANCH   4   8
HETATM    8  C7  UNL     1     -34.711   5.945   5.424  1.00 20.00     0.001 C 
HETATM    9  C5  UNL     1     -34.070   4.564   5.294  1.00 20.00     0.011 C 
HETATM   10  C6  UNL     1     -34.168   6.672   6.653  1.00 20.00     0.011 C 
ENDBRANCH   4   8
TORSDOF 1
ENDMDL
MODEL 7
REMARK VINA RESULT:      -3.1      2.068      3.271
REMARK  1 active torsions:
REMARK  status: ('A' for Active; 'I' for Inactive)
REMARK    1  A    between atoms: C4_4  and  C7_7 
ROOT
HETATM    1  C1  UNL     1     -34.634  16.598  -4.770  1.00 20.00     0.075 C 
HETATM    2  C2  UNL     1     -33.641  18.794  -4.153  1.00 20.00     0.105 C 
HETATM    3  C3  UNL     1     -33.495  17.277  -4.135  1.00 20.00     0.164 C 
HETATM    4  C4  UNL     1     -34.223  18.110  -1.609  1.00 20.00     0.113 C 
HETATM    5  N8  UNL     1     -35.531  16.062  -5.273  1.00 20.00    -0.196 NA
HETATM    6  S9  UNL     1     -34.835  19.263  -2.872  1.00 20.00    -0.151 SA
HETATM    7  S10 UNL     1     -33.295  16.751  -2.401  1.00 20.00    -0.133 SA
ENDROOT
BRANCH   4   8
HETATM    8  C7  UNL     1     -33.317  18.842  -0.629  1.00 20.00     0.001 C 
HETATM    9  C5  UNL     1     -33.761  18.590   0.811  1.00 20.00     0.011 C 
HETATM   10  C6  UNL     1     -31.860  18.421  -0.819  1.00 20.00     0.011 C 
ENDBRANCH   4   8
TORSDOF 1
ENDMDL
MODEL 8
REMARK VINA RESULT:      -3.0      2.483      4.447
REMARK  1 active torsions:
REMARK  status: ('A' for Active; 'I' for Inactive)
REMARK    1  A    between atoms: C4_4  and  C7_7 
ROOT
HETATM    1  C1  UNL     1     -33.485  16.866  -2.485  1.00 20.00     0.075 C 
HETATM    2  C2  UNL     1     -32.927  15.161  -4.208  1.00 20.00     0.105 C 
HETATM    3  C3  UNL     1     -33.149  16.636  -3.898  1.00 20.00     0.164 C 
HETATM    4  C4  UNL     1     -35.373  15.681  -5.219  1.00 20.00     0.113 C 
HETATM    5  N8  UNL     1     -33.748  17.048  -1.370  1.00 20.00    -0.196 NA
HETATM    6  S9  UNL     1     -34.546  14.351  -4.300  1.00 20.00    -0.151 SA
HETATM    7  S10 UNL     1     -34.467  17.250  -4.999  1.00 20.00    -0.133 SA
ENDROOT
BRANCH   4   8
HETATM    8  C7  UNL     1     -35.434  15.331  -6.700  1.00 20.00     0.001 C 
HETATM    9  C5  UNL     1     -36.581  16.073  -7.384  1.00 20.00     0.011 C 
HETATM   10  C6  UNL     1     -34.107  15.651  -7.387  1.00 20.00     0.011 C 
ENDBRANCH   4   8
TORSDOF 1
ENDMDL
MODEL 9
REMARK VINA RESULT:      -2.9      2.354      2.973
REMARK  1 active torsions:
REMARK  status: ('A' for Active; 'I' for Inactive)
REMARK    1  A    between atoms: C4_4  and  C7_7 
ROOT
HETATM    1  C1  UNL     1     -36.931  18.004  -6.763  1.00 20.00     0.075 C 
HETATM    2  C2  UNL     1     -36.669  15.715  -5.825  1.00 20.00     0.105 C 
HETATM    3  C3  UNL     1     -36.884  17.195  -5.535  1.00 20.00     0.164 C 
HETATM    4  C4  UNL     1     -34.262  16.569  -4.956  1.00 20.00     0.113 C 
HETATM    5  N8  UNL     1     -36.970  18.642  -7.731  1.00 20.00    -0.196 NA
HETATM    6  S9  UNL     1     -34.922  15.467  -6.241  1.00 20.00    -0.151 SA
HETATM    7  S10 UNL     1     -35.548  17.753  -4.428  1.00 20.00    -0.133 SA
ENDROOT
BRANCH   4   8
HETATM    8  C7  UNL     1     -33.796  15.753  -3.758  1.00 20.00     0.001 C 
HETATM    9  C5  UNL     1     -32.708  14.763  -4.168  1.00 20.00     0.011 C 
HETATM   10  C6  UNL     1     -33.293  16.669  -2.643  1.00 20.00     0.011 C 
ENDBRANCH   4   8
TORSDOF 1
ENDMDL
