MODEL 1
REMARK VINA RESULT:      -4.1      0.000      0.000
REMARK  2 active torsions:
REMARK  status: ('A' for Active; 'I' for Inactive)
REMARK    1  A    between atoms: C2_2  and  C4_4 
REMARK    2  A    between atoms: C4_4  and  C5_5 
ROOT
HETATM    1  C1  UNL     1     -32.036   7.523   3.440  1.00 20.00     0.147 A 
HETATM    2  C2  UNL     1     -32.662   8.246   4.608  1.00 20.00     0.151 A 
HETATM    3  C3  UNL     1     -32.669   6.355   2.771  1.00 20.00     0.042 C 
HETATM    4  O6  UNL     1     -32.736   8.763   3.272  1.00 20.00    -0.376 OA
ENDROOT
BRANCH   2   5
HETATM    5  C4  UNL     1     -33.971   7.859   5.198  1.00 20.00     0.049 C 
BRANCH   5   6
HETATM    6  C5  UNL     1     -33.874   6.933   6.423  1.00 20.00     0.117 C 
HETATM    7 CL7  UNL     1     -34.639   5.357   6.112  1.00 20.00    -0.130 Cl
ENDBRANCH   5   6
ENDBRANCH   2   5
TORSDOF 2
ENDMDL
MODEL 2
REMARK VINA RESULT:      -4.0      2.574      3.307
REMARK  2 active torsions:
REMARK  status: ('A' for Active; 'I' for Inactive)
REMARK    1  A    between atoms: C2_2  and  C4_4 
REMARK    2  A    between atoms: C4_4  and  C5_5 
ROOT
HETATM    1  C1  UNL     1     -34.601   5.764   6.165  1.00 20.00     0.147 A 
HETATM    2  C2  UNL     1     -34.194   7.210   6.312  1.00 20.00     0.151 A 
HETATM    3  C3  UNL     1     -34.779   5.099   4.847  1.00 20.00     0.042 C 
HETATM    4  O6  UNL     1     -33.251   6.141   6.469  1.00 20.00    -0.376 OA
ENDROOT
BRANCH   2   5
HETATM    5  C4  UNL     1     -33.932   8.105   5.153  1.00 20.00     0.049 C 
BRANCH   5   6
HETATM    6  C5  UNL     1     -32.451   8.214   4.749  1.00 20.00     0.117 C 
HETATM    7 CL7  UNL     1     -32.135   7.397   3.202  1.00 20.00    -0.130 Cl
ENDBRANCH   5   6
ENDBRANCH   2   5
TORSDOF 2
ENDMDL
MODEL 3
REMARK VINA RESULT:      -3.9      2.740      3.579
REMARK  2 active torsions:
REMARK  status: ('A' for Active; 'I' for Inactive)
REMARK    1  A    between atoms: C2_2  and  C4_4 
REMARK    2  A    between atoms: C4_4  and  C5_5 
ROOT
HETATM    1  C1  UNL     1     -34.543   5.143   5.124  1.00 20.00     0.147 A 
HETATM    2  C2  UNL     1     -34.115   6.308   4.265  1.00 20.00     0.151 A 
HETATM    3  C3  UNL     1     -34.592   5.202   6.609  1.00 20.00     0.042 C 
HETATM    4  O6  UNL     1     -35.498   5.980   4.459  1.00 20.00    -0.376 OA
ENDROOT
BRANCH   2   5
HETATM    5  C4  UNL     1     -33.703   7.623   4.822  1.00 20.00     0.049 C 
BRANCH   5   6
HETATM    6  C5  UNL     1     -32.500   8.271   4.115  1.00 20.00     0.117 C 
HETATM    7 CL7  UNL     1     -32.105   7.432   2.598  1.00 20.00    -0.130 Cl
ENDBRANCH   5   6
ENDBRANCH   2   5
TORSDOF 2
ENDMDL
MODEL 4
REMARK VINA RESULT:      -3.9      2.913      3.412
REMARK  2 active torsions:
REMARK  status: ('A' for Active; 'I' for Inactive)
REMARK    1  A    between atoms: C2_2  and  C4_4 
REMARK    2  A    between atoms: C4_4  and  C5_5 
ROOT
HETATM    1  C1  UNL     1     -34.978   5.354   4.943  1.00 20.00     0.147 A 
HETATM    2  C2  UNL     1     -34.641   6.604   5.718  1.00 20.00     0.151 A 
HETATM    3  C3  UNL     1     -33.972   4.577   4.173  1.00 20.00     0.042 C 
HETATM    4  O6  UNL     1     -34.793   5.333   6.365  1.00 20.00    -0.376 OA
ENDROOT
BRANCH   2   5
HETATM    5  C4  UNL     1     -33.270   7.176   5.784  1.00 20.00     0.049 C 
BRANCH   5   6
HETATM    6  C5  UNL     1     -32.979   8.268   4.740  1.00 20.00     0.117 C 
HETATM    7 CL7  UNL     1     -32.187   7.596   3.296  1.00 20.00    -0.130 Cl
ENDBRANCH   5   6
ENDBRANCH   2   5
TORSDOF 2
ENDMDL
MODEL 5
REMARK VINA RESULT:      -3.8      2.135      2.490
REMARK  2 active torsions:
REMARK  status: ('A' for Active; 'I' for Inactive)
REMARK    1  A    between atoms: C2_2  and  C4_4 
REMARK    2  A    between atoms: C4_4  and  C5_5 
ROOT
HETATM    1  C1  UNL     1     -32.746   8.083   5.064  1.00 20.00     0.147 A 
HETATM    2  C2  UNL     1     -33.724   7.077   5.620  1.00 20.00     0.151 A 
HETATM    3  C3  UNL     1     -32.660   8.422   3.619  1.00 20.00     0.042 C 
HETATM    4  O6  UNL     1     -33.962   8.490   5.705  1.00 20.00    -0.376 OA
ENDROOT
BRANCH   2   5
HETATM    5  C4  UNL     1     -34.696   6.333   4.776  1.00 20.00     0.049 C 
BRANCH   5   6
HETATM    6  C5  UNL     1     -34.232   4.929   4.351  1.00 20.00     0.117 C 
HETATM    7 CL7  UNL     1     -33.175   4.995   2.922  1.00 20.00    -0.130 Cl
ENDBRANCH   5   6
ENDBRANCH   2   5
TORSDOF 2
ENDMDL
MODEL 6
REMARK VINA RESULT:      -3.8      2.552      3.272
REMARK  2 active torsions:
REMARK  status: ('A' for Active; 'I' for Inactive)
REMARK    1  A    between atoms: C2_2  and  C4_4 
REMARK    2  A    between atoms: C4_4  and  C5_5 
ROOT
HETATM    1  C1  UNL     1     -33.339   7.362   6.017  1.00 20.00     0.147 A 
HETATM    2  C2  UNL     1     -33.987   6.003   6.117  1.00 20.00     0.151 A 
HETATM    3  C3  UNL     1     -33.457   8.234   4.819  1.00 20.00     0.042 C 
HETATM    4  O6  UNL     1     -34.563   7.161   6.736  1.00 20.00    -0.376 OA
ENDROOT
BRANCH   2   5
HETATM    5  C4  UNL     1     -34.805   5.408   5.027  1.00 20.00     0.049 C 
BRANCH   5   6
HETATM    6  C5  UNL     1     -34.050   4.413   4.128  1.00 20.00     0.117 C 
HETATM    7 CL7  UNL     1     -33.127   5.250   2.859  1.00 20.00    -0.130 Cl
ENDBRANCH   5   6
ENDBRANCH   2   5
TORSDOF 2
ENDMDL
MODEL 7
REMARK VINA RESULT:      -3.6      1.457      1.960
REMARK  2 active torsions:
REMARK  status: ('A' for Active; 'I' for Inactive)
REMARK    1  A    between atoms: C2_2  and  C4_4 
REMARK    2  A    between atoms: C4_4  and  C5_5 
ROOT
HETATM    1  C1  UNL     1     -32.972   8.443   4.111  1.00 20.00     0.147 A 
HETATM    2  C2  UNL     1     -33.903   7.392   4.665  1.00 20.00     0.151 A 
HETATM    3  C3  UNL     1     -32.008   9.202   4.951  1.00 20.00     0.042 C 
HETATM    4  O6  UNL     1     -32.688   7.043   3.987  1.00 20.00    -0.376 OA
ENDROOT
BRANCH   2   5
HETATM    5  C4  UNL     1     -33.943   7.016   6.103  1.00 20.00     0.049 C 
BRANCH   5   6
HETATM    6  C5  UNL     1     -34.405   5.574   6.376  1.00 20.00     0.117 C 
HETATM    7 CL7  UNL     1     -34.681   4.680   4.863  1.00 20.00    -0.130 Cl
ENDBRANCH   5   6
ENDBRANCH   2   5
TORSDOF 2
ENDMDL
MODEL 8
REMARK VINA RESULT:      -3.6      2.861      3.447
REMARK  2 active torsions:
REMARK  status: ('A' for Active; 'I' for Inactive)
REMARK    1  A    between atoms: C2_2  and  C4_4 
REMARK    2  A    between atoms: C4_4  and  C5_5 
ROOT
HETATM    1  C1  UNL     1     -34.923   6.087   5.273  1.00 20.00     0.147 A 
HETATM    2  C2  UNL     1     -34.150   7.373   5.427  1.00 20.00     0.151 A 
HETATM    3  C3  UNL     1     -34.391   4.898   4.556  1.00 20.00     0.042 C 
HETATM    4  O6  UNL     1     -34.235   6.412   6.488  1.00 20.00    -0.376 OA
ENDROOT
BRANCH   2   5
HETATM    5  C4  UNL     1     -32.783   7.574   4.878  1.00 20.00     0.049 C 
BRANCH   5   6
HETATM    6  C5  UNL     1     -32.718   8.473   3.631  1.00 20.00     0.117 C 
HETATM    7 CL7  UNL     1     -32.169   7.567   2.201  1.00 20.00    -0.130 Cl
ENDBRANCH   5   6
ENDBRANCH   2   5
TORSDOF 2
ENDMDL
MODEL 9
REMARK VINA RESULT:      -3.4     11.861     12.352
REMARK  2 active torsions:
REMARK  status: ('A' for Active; 'I' for Inactive)
REMARK    1  A    between atoms: C2_2  and  C4_4 
REMARK    2  A    between atoms: C4_4  and  C5_5 
ROOT
HETATM    1  C1  UNL     1     -30.825  19.237   0.771  1.00 20.00     0.147 A 
HETATM    2  C2  UNL     1     -31.992  19.187  -0.185  1.00 20.00     0.151 A 
HETATM    3  C3  UNL     1     -30.692  18.329   1.941  1.00 20.00     0.042 C 
HETATM    4  O6  UNL     1     -30.728  18.590  -0.505  1.00 20.00    -0.376 OA
ENDROOT
BRANCH   2   5
HETATM    5  C4  UNL     1     -33.117  18.225  -0.047  1.00 20.00     0.049 C 
BRANCH   5   6
HETATM    6  C5  UNL     1     -33.952  18.027  -1.325  1.00 20.00     0.117 C 
HETATM    7 CL7  UNL     1     -33.423  16.593  -2.235  1.00 20.00    -0.130 Cl
ENDBRANCH   5   6
ENDBRANCH   2   5
TORSDOF 2
ENDMDL
