MODEL 1
REMARK VINA RESULT:      -4.2      0.000      0.000
REMARK  0 active torsions:
REMARK  status: ('A' for Active; 'I' for Inactive)
ROOT
HETATM    1  C1  UNL     1     -34.189   6.925   6.349  1.00 20.00     0.147 A 
HETATM    2  C2  UNL     1     -32.212   7.664   3.177  1.00 20.00     0.168 A 
HETATM    3  C3  UNL     1     -33.415   7.304   5.216  1.00 20.00     0.061 A 
HETATM    4  C4  UNL     1     -33.524   6.327   4.267  1.00 20.00     0.134 A 
HETATM    5  N5  UNL     1     -34.856   5.768   6.335  1.00 20.00    -0.220 NA
HETATM    6  N6  UNL     1     -32.848   6.513   3.101  1.00 20.00    -0.244 NA
HETATM    7  S7  UNL     1     -32.390   8.577   4.637  1.00 20.00    -0.078 SA
HETATM    8  S8  UNL     1     -34.554   5.044   4.846  1.00 20.00     0.032 SA
ENDROOT
TORSDOF 0
ENDMDL
MODEL 2
REMARK VINA RESULT:      -4.0      0.950      3.612
REMARK  0 active torsions:
REMARK  status: ('A' for Active; 'I' for Inactive)
ROOT
HETATM    1  C1  UNL     1     -32.816   6.537   3.078  1.00 20.00     0.147 A 
HETATM    2  C2  UNL     1     -34.743   5.970   6.316  1.00 20.00     0.168 A 
HETATM    3  C3  UNL     1     -33.573   6.219   4.242  1.00 20.00     0.061 A 
HETATM    4  C4  UNL     1     -33.438   7.241   5.139  1.00 20.00     0.134 A 
HETATM    5  N5  UNL     1     -32.137   7.686   3.025  1.00 20.00    -0.220 NA
HETATM    6  N6  UNL     1     -34.096   7.118   6.324  1.00 20.00    -0.244 NA
HETATM    7  S7  UNL     1     -34.598   4.986   4.900  1.00 20.00    -0.078 SA
HETATM    8  S8  UNL     1     -32.407   8.484   4.482  1.00 20.00     0.032 SA
ENDROOT
TORSDOF 0
ENDMDL
MODEL 3
REMARK VINA RESULT:      -4.0      1.663      2.031
REMARK  0 active torsions:
REMARK  status: ('A' for Active; 'I' for Inactive)
ROOT
HETATM    1  C1  UNL     1     -33.973   5.160   3.875  1.00 20.00     0.147 A 
HETATM    2  C2  UNL     1     -32.404   8.583   4.455  1.00 20.00     0.168 A 
HETATM    3  C3  UNL     1     -33.338   6.430   3.981  1.00 20.00     0.061 A 
HETATM    4  C4  UNL     1     -33.641   6.966   5.201  1.00 20.00     0.134 A 
HETATM    5  N5  UNL     1     -34.713   4.705   4.889  1.00 20.00    -0.220 NA
HETATM    6  N6  UNL     1     -33.118   8.189   5.489  1.00 20.00    -0.244 NA
HETATM    7  S7  UNL     1     -32.320   7.517   3.094  1.00 20.00    -0.078 SA
HETATM    8  S8  UNL     1     -34.666   5.876   6.097  1.00 20.00     0.032 SA
ENDROOT
TORSDOF 0
ENDMDL
MODEL 4
REMARK VINA RESULT:      -3.8      1.663      3.002
REMARK  0 active torsions:
REMARK  status: ('A' for Active; 'I' for Inactive)
ROOT
HETATM    1  C1  UNL     1     -33.027   8.337   5.300  1.00 20.00     0.147 A 
HETATM    2  C2  UNL     1     -34.592   4.893   4.850  1.00 20.00     0.168 A 
HETATM    3  C3  UNL     1     -33.660   7.063   5.242  1.00 20.00     0.061 A 
HETATM    4  C4  UNL     1     -33.360   6.483   4.042  1.00 20.00     0.134 A 
HETATM    5  N5  UNL     1     -32.292   8.757   4.266  1.00 20.00    -0.220 NA
HETATM    6  N6  UNL     1     -33.880   5.249   3.801  1.00 20.00    -0.244 NA
HETATM    7  S7  UNL     1     -34.674   6.008   6.171  1.00 20.00    -0.078 SA
HETATM    8  S8  UNL     1     -32.340   7.541   3.103  1.00 20.00     0.032 SA
ENDROOT
TORSDOF 0
ENDMDL
MODEL 5
REMARK VINA RESULT:      -3.8      1.715      3.107
REMARK  0 active torsions:
REMARK  status: ('A' for Active; 'I' for Inactive)
ROOT
HETATM    1  C1  UNL     1     -32.640   7.624   3.917  1.00 20.00     0.147 A 
HETATM    2  C2  UNL     1     -34.840   5.336   6.025  1.00 20.00     0.168 A 
HETATM    3  C3  UNL     1     -33.462   6.855   4.789  1.00 20.00     0.061 A 
HETATM    4  C4  UNL     1     -33.744   5.664   4.183  1.00 20.00     0.134 A 
HETATM    5  N5  UNL     1     -32.288   7.123   2.730  1.00 20.00    -0.220 NA
HETATM    6  N6  UNL     1     -34.525   4.786   4.870  1.00 20.00    -0.244 NA
HETATM    7  S7  UNL     1     -34.220   6.919   6.347  1.00 20.00    -0.078 SA
HETATM    8  S8  UNL     1     -32.985   5.595   2.615  1.00 20.00     0.032 SA
ENDROOT
TORSDOF 0
ENDMDL
MODEL 6
REMARK VINA RESULT:      -3.7      1.642      2.001
REMARK  0 active torsions:
REMARK  status: ('A' for Active; 'I' for Inactive)
ROOT
HETATM    1  C1  UNL     1     -34.570   5.005   5.020  1.00 20.00     0.147 A 
HETATM    2  C2  UNL     1     -32.286   7.230   2.934  1.00 20.00     0.168 A 
HETATM    3  C3  UNL     1     -33.720   5.751   4.155  1.00 20.00     0.061 A 
HETATM    4  C4  UNL     1     -33.394   6.925   4.773  1.00 20.00     0.134 A 
HETATM    5  N5  UNL     1     -34.906   5.508   6.210  1.00 20.00    -0.220 NA
HETATM    6  N6  UNL     1     -32.580   7.779   4.095  1.00 20.00    -0.244 NA
HETATM    7  S7  UNL     1     -32.964   5.674   2.597  1.00 20.00    -0.078 SA
HETATM    8  S8  UNL     1     -34.154   7.008   6.341  1.00 20.00     0.032 SA
ENDROOT
TORSDOF 0
ENDMDL
MODEL 7
REMARK VINA RESULT:      -3.4      1.280      1.280
REMARK  0 active torsions:
REMARK  status: ('A' for Active; 'I' for Inactive)
ROOT
HETATM    1  C1  UNL     1     -34.714   5.846   5.515  1.00 20.00     0.147 A 
HETATM    2  C2  UNL     1     -32.367   8.495   4.105  1.00 20.00     0.168 A 
HETATM    3  C3  UNL     1     -33.869   6.906   5.080  1.00 20.00     0.061 A 
HETATM    4  C4  UNL     1     -33.229   6.513   3.939  1.00 20.00     0.134 A 
HETATM    5  N5  UNL     1     -34.762   4.711   4.813  1.00 20.00    -0.220 NA
HETATM    6  N6  UNL     1     -32.372   7.402   3.369  1.00 20.00    -0.244 NA
HETATM    7  S7  UNL     1     -33.382   8.515   5.506  1.00 20.00    -0.078 SA
HETATM    8  S8  UNL     1     -33.716   4.894   3.507  1.00 20.00     0.032 SA
ENDROOT
TORSDOF 0
ENDMDL
MODEL 8
REMARK VINA RESULT:      -3.4     15.792     16.137
REMARK  0 active torsions:
REMARK  status: ('A' for Active; 'I' for Inactive)
ROOT
HETATM    1  C1  UNL     1     -22.456  17.295   9.076  1.00 20.00     0.147 A 
HETATM    2  C2  UNL     1     -25.108  18.166  11.670  1.00 20.00     0.168 A 
HETATM    3  C3  UNL     1     -23.405  17.528  10.112  1.00 20.00     0.061 A 
HETATM    4  C4  UNL     1     -24.178  18.598   9.759  1.00 20.00     0.134 A 
HETATM    5  N5  UNL     1     -22.448  18.083   7.998  1.00 20.00    -0.220 NA
HETATM    6  N6  UNL     1     -25.152  18.976  10.632  1.00 20.00    -0.244 NA
HETATM    7  S7  UNL     1     -23.908  16.919  11.655  1.00 20.00    -0.078 SA
HETATM    8  S8  UNL     1     -23.676  19.215   8.207  1.00 20.00     0.032 SA
ENDROOT
TORSDOF 0
ENDMDL
MODEL 9
REMARK VINA RESULT:      -3.3     12.819     12.983
REMARK  0 active torsions:
REMARK  status: ('A' for Active; 'I' for Inactive)
ROOT
HETATM    1  C1  UNL     1     -31.835  19.174   3.342  1.00 20.00     0.147 A 
HETATM    2  C2  UNL     1     -31.722  18.742  -0.441  1.00 20.00     0.168 A 
HETATM    3  C3  UNL     1     -31.914  19.012   1.930  1.00 20.00     0.061 A 
HETATM    4  C4  UNL     1     -30.644  18.964   1.427  1.00 20.00     0.134 A 
HETATM    5  N5  UNL     1     -30.640  19.252   3.932  1.00 20.00    -0.220 NA
HETATM    6  N6  UNL     1     -30.514  18.810   0.081  1.00 20.00    -0.244 NA
HETATM    7  S7  UNL     1     -33.065  18.856   0.643  1.00 20.00    -0.078 SA
HETATM    8  S8  UNL     1     -29.482  19.121   2.718  1.00 20.00     0.032 SA
ENDROOT
TORSDOF 0
ENDMDL
