MODEL 1
REMARK VINA RESULT:      -4.1      0.000      0.000
REMARK  2 active torsions:
REMARK  status: ('A' for Active; 'I' for Inactive)
REMARK    1  A    between atoms: C2_2  and  C3_3 
REMARK    2  A    between atoms: C3_3  and  O11_11 
ROOT
HETATM    1  C1  UNL     1     -33.779  16.614  -3.646  1.00 20.00    -0.008 C 
HETATM    2  C2  UNL     1     -34.222  15.739  -4.554  1.00 20.00     0.020 C 
HETATM    3  C4  UNL     1     -34.457  17.863  -5.536  1.00 20.00     0.022 C 
HETATM    4  C5  UNL     1     -34.105  18.019  -4.045  1.00 20.00     0.006 C 
HETATM    5  C6  UNL     1     -34.906  16.391  -5.722  1.00 20.00    -0.014 C 
HETATM    6  C7  UNL     1     -32.951  18.987  -3.824  1.00 20.00     0.014 C 
HETATM    7  C8  UNL     1     -36.430  16.261  -5.605  1.00 20.00     0.020 C 
HETATM    8  C9  UNL     1     -34.434  15.859  -7.079  1.00 20.00     0.020 C 
ENDROOT
BRANCH   2   9
HETATM    9  C3  UNL     1     -34.072  14.304  -4.364  1.00 20.00     0.172 C 
HETATM   10  O10 UNL     1     -34.979  13.540  -4.061  1.00 20.00    -0.646 OA
BRANCH   9  11
HETATM   11  O11 UNL     1     -32.786  13.941  -4.571  1.00 20.00    -0.773 OA
HETATM   12  H25 UNL     1     -32.221  14.701  -4.829  1.00 20.00     0.167 HD
ENDBRANCH   9  11
ENDBRANCH   2   9
TORSDOF 2
ENDMDL
MODEL 2
REMARK VINA RESULT:      -4.0     12.833     13.904
REMARK  2 active torsions:
REMARK  status: ('A' for Active; 'I' for Inactive)
REMARK    1  A    between atoms: C2_2  and  C3_3 
REMARK    2  A    between atoms: C3_3  and  O11_11 
ROOT
HETATM    1  C1  UNL     1     -32.834   6.466   3.241  1.00 20.00    -0.008 C 
HETATM    2  C2  UNL     1     -33.443   6.816   4.378  1.00 20.00     0.020 C 
HETATM    3  C4  UNL     1     -34.073   4.588   3.967  1.00 20.00     0.022 C 
HETATM    4  C5  UNL     1     -33.347   5.155   2.733  1.00 20.00     0.006 C 
HETATM    5  C6  UNL     1     -34.456   5.808   4.843  1.00 20.00    -0.014 C 
HETATM    6  C7  UNL     1     -32.243   4.230   2.239  1.00 20.00     0.014 C 
HETATM    7  C8  UNL     1     -35.882   6.282   4.533  1.00 20.00     0.020 C 
HETATM    8  C9  UNL     1     -34.328   5.458   6.329  1.00 20.00     0.020 C 
ENDROOT
BRANCH   2   9
HETATM    9  C3  UNL     1     -33.153   8.080   5.039  1.00 20.00     0.172 C 
HETATM   10  O10 UNL     1     -33.971   8.753   5.651  1.00 20.00    -0.646 OA
BRANCH   9  11
HETATM   11  O11 UNL     1     -31.849   8.399   4.875  1.00 20.00    -0.773 OA
HETATM   12  H25 UNL     1     -31.729   9.233   4.370  1.00 20.00     0.167 HD
ENDBRANCH   9  11
ENDBRANCH   2   9
TORSDOF 2
ENDMDL
MODEL 3
REMARK VINA RESULT:      -4.0      1.646      2.396
REMARK  2 active torsions:
REMARK  status: ('A' for Active; 'I' for Inactive)
REMARK    1  A    between atoms: C2_2  and  C3_3 
REMARK    2  A    between atoms: C3_3  and  O11_11 
ROOT
HETATM    1  C1  UNL     1     -33.292  16.638  -2.293  1.00 20.00    -0.008 C 
HETATM    2  C2  UNL     1     -33.767  16.737  -3.539  1.00 20.00     0.020 C 
HETATM    3  C4  UNL     1     -33.683  18.934  -2.703  1.00 20.00     0.022 C 
HETATM    4  C5  UNL     1     -33.423  17.936  -1.559  1.00 20.00     0.006 C 
HETATM    5  C6  UNL     1     -34.284  18.109  -3.869  1.00 20.00    -0.014 C 
HETATM    6  C7  UNL     1     -32.184  18.295  -0.752  1.00 20.00     0.014 C 
HETATM    7  C8  UNL     1     -35.817  18.138  -3.831  1.00 20.00     0.020 C 
HETATM    8  C9  UNL     1     -33.780  18.642  -5.214  1.00 20.00     0.020 C 
ENDROOT
BRANCH   2   9
HETATM    9  C3  UNL     1     -33.798  15.590  -4.435  1.00 20.00     0.172 C 
HETATM   10  O10 UNL     1     -34.814  15.108  -4.918  1.00 20.00    -0.646 OA
BRANCH   9  11
HETATM   11  O11 UNL     1     -32.543  15.138  -4.652  1.00 20.00    -0.773 OA
HETATM   12  H25 UNL     1     -31.865  15.686  -4.201  1.00 20.00     0.167 HD
ENDBRANCH   9  11
ENDBRANCH   2   9
TORSDOF 2
ENDMDL
MODEL 4
REMARK VINA RESULT:      -3.9      2.769      4.167
REMARK  2 active torsions:
REMARK  status: ('A' for Active; 'I' for Inactive)
REMARK    1  A    between atoms: C2_2  and  C3_3 
REMARK    2  A    between atoms: C3_3  and  O11_11 
ROOT
HETATM    1  C1  UNL     1     -33.056  16.237  -3.017  1.00 20.00    -0.008 C 
HETATM    2  C2  UNL     1     -33.368  17.505  -2.730  1.00 20.00     0.020 C 
HETATM    3  C4  UNL     1     -34.761  16.884  -4.521  1.00 20.00     0.022 C 
HETATM    4  C5  UNL     1     -33.692  15.798  -4.298  1.00 20.00     0.006 C 
HETATM    5  C6  UNL     1     -34.272  18.137  -3.751  1.00 20.00    -0.014 C 
HETATM    6  C7  UNL     1     -34.296  14.404  -4.221  1.00 20.00     0.014 C 
HETATM    7  C8  UNL     1     -33.483  19.077  -4.672  1.00 20.00     0.020 C 
HETATM    8  C9  UNL     1     -35.461  18.880  -3.133  1.00 20.00     0.020 C 
ENDROOT
BRANCH   2   9
HETATM    9  C3  UNL     1     -32.825  18.176  -1.559  1.00 20.00     0.172 C 
HETATM   10  O10 UNL     1     -31.881  18.956  -1.574  1.00 20.00    -0.646 OA
BRANCH   9  11
HETATM   11  O11 UNL     1     -33.515  17.812  -0.455  1.00 20.00    -0.773 OA
HETATM   12  H25 UNL     1     -34.025  16.984  -0.590  1.00 20.00     0.167 HD
ENDBRANCH   9  11
ENDBRANCH   2   9
TORSDOF 2
ENDMDL
MODEL 5
REMARK VINA RESULT:      -3.9      2.398      3.217
REMARK  2 active torsions:
REMARK  status: ('A' for Active; 'I' for Inactive)
REMARK    1  A    between atoms: C2_2  and  C3_3 
REMARK    2  A    between atoms: C3_3  and  O11_11 
ROOT
HETATM    1  C1  UNL     1     -34.691  17.359  -4.109  1.00 20.00    -0.008 C 
HETATM    2  C2  UNL     1     -35.372  16.536  -4.913  1.00 20.00     0.020 C 
HETATM    3  C4  UNL     1     -33.677  15.229  -3.937  1.00 20.00     0.022 C 
HETATM    4  C5  UNL     1     -33.432  16.716  -3.617  1.00 20.00     0.006 C 
HETATM    5  C6  UNL     1     -34.708  15.200  -5.094  1.00 20.00    -0.014 C 
HETATM    6  C7  UNL     1     -33.178  16.951  -2.135  1.00 20.00     0.014 C 
HETATM    7  C8  UNL     1     -34.006  15.119  -6.456  1.00 20.00     0.020 C 
HETATM    8  C9  UNL     1     -35.666  14.017  -4.924  1.00 20.00     0.020 C 
ENDROOT
BRANCH   2   9
HETATM    9  C3  UNL     1     -36.607  16.955  -5.560  1.00 20.00     0.172 C 
HETATM   10  O10 UNL     1     -36.701  17.299  -6.731  1.00 20.00    -0.646 OA
BRANCH   9  11
HETATM   11  O11 UNL     1     -37.631  16.907  -4.679  1.00 20.00    -0.773 OA
HETATM   12  H25 UNL     1     -37.446  17.421  -3.863  1.00 20.00     0.167 HD
ENDBRANCH   9  11
ENDBRANCH   2   9
TORSDOF 2
ENDMDL
MODEL 6
REMARK VINA RESULT:      -3.8     12.145     13.145
REMARK  2 active torsions:
REMARK  status: ('A' for Active; 'I' for Inactive)
REMARK    1  A    between atoms: C2_2  and  C3_3 
REMARK    2  A    between atoms: C3_3  and  O11_11 
ROOT
HETATM    1  C1  UNL     1     -40.469  12.829   4.613  1.00 20.00    -0.008 C 
HETATM    2  C2  UNL     1     -41.395  13.676   5.072  1.00 20.00     0.020 C 
HETATM    3  C4  UNL     1     -40.164  12.983   6.952  1.00 20.00     0.022 C 
HETATM    4  C5  UNL     1     -39.777  12.121   5.736  1.00 20.00     0.006 C 
HETATM    5  C6  UNL     1     -41.483  13.702   6.572  1.00 20.00    -0.014 C 
HETATM    6  C7  UNL     1     -38.270  12.031   5.549  1.00 20.00     0.014 C 
HETATM    7  C8  UNL     1     -42.702  12.910   7.062  1.00 20.00     0.020 C 
HETATM    8  C9  UNL     1     -41.505  15.118   7.157  1.00 20.00     0.020 C 
ENDROOT
BRANCH   2   9
HETATM    9  C3  UNL     1     -42.240  14.443   4.169  1.00 20.00     0.172 C 
HETATM   10  O10 UNL     1     -43.286  14.992   4.487  1.00 20.00    -0.646 OA
BRANCH   9  11
HETATM   11  O11 UNL     1     -41.698  14.458   2.930  1.00 20.00    -0.773 OA
HETATM   12  H25 UNL     1     -42.381  14.478   2.225  1.00 20.00     0.167 HD
ENDBRANCH   9  11
ENDBRANCH   2   9
TORSDOF 2
ENDMDL
MODEL 7
REMARK VINA RESULT:      -3.8     11.675     13.381
REMARK  2 active torsions:
REMARK  status: ('A' for Active; 'I' for Inactive)
REMARK    1  A    between atoms: C2_2  and  C3_3 
REMARK    2  A    between atoms: C3_3  and  O11_11 
ROOT
HETATM    1  C1  UNL     1     -32.448   6.981   3.699  1.00 20.00    -0.008 C 
HETATM    2  C2  UNL     1     -33.397   6.081   3.974  1.00 20.00     0.020 C 
HETATM    3  C4  UNL     1     -34.128   8.103   4.927  1.00 20.00     0.022 C 
HETATM    4  C5  UNL     1     -32.667   8.250   4.461  1.00 20.00     0.006 C 
HETATM    5  C6  UNL     1     -34.424   6.582   4.951  1.00 20.00    -0.014 C 
HETATM    6  C7  UNL     1     -32.455   9.499   3.619  1.00 20.00     0.014 C 
HETATM    7  C8  UNL     1     -34.182   5.995   6.347  1.00 20.00     0.020 C 
HETATM    8  C9  UNL     1     -35.866   6.313   4.508  1.00 20.00     0.020 C 
ENDROOT
BRANCH   2   9
HETATM    9  C3  UNL     1     -33.371   4.746   3.396  1.00 20.00     0.172 C 
HETATM   10  O10 UNL     1     -33.811   3.740   3.936  1.00 20.00    -0.646 OA
BRANCH   9  11
HETATM   11  O11 UNL     1     -32.789   4.782   2.175  1.00 20.00    -0.773 OA
HETATM   12  H25 UNL     1     -31.921   4.324   2.162  1.00 20.00     0.167 HD
ENDBRANCH   9  11
ENDBRANCH   2   9
TORSDOF 2
ENDMDL
MODEL 8
REMARK VINA RESULT:      -3.7     11.590     13.465
REMARK  2 active torsions:
REMARK  status: ('A' for Active; 'I' for Inactive)
REMARK    1  A    between atoms: C2_2  and  C3_3 
REMARK    2  A    between atoms: C3_3  and  O11_11 
ROOT
HETATM    1  C1  UNL     1     -34.103   5.619   4.417  1.00 20.00    -0.008 C 
HETATM    2  C2  UNL     1     -33.360   6.596   3.885  1.00 20.00     0.020 C 
HETATM    3  C4  UNL     1     -33.997   7.357   6.017  1.00 20.00     0.022 C 
HETATM    4  C5  UNL     1     -34.779   6.075   5.672  1.00 20.00     0.006 C 
HETATM    5  C6  UNL     1     -33.392   7.867   4.685  1.00 20.00    -0.014 C 
HETATM    6  C7  UNL     1     -34.721   5.046   6.791  1.00 20.00     0.014 C 
HETATM    7  C8  UNL     1     -34.310   8.905   4.025  1.00 20.00     0.020 C 
HETATM    8  C9  UNL     1     -32.004   8.469   4.926  1.00 20.00     0.020 C 
ENDROOT
BRANCH   2   9
HETATM    9  C3  UNL     1     -32.647   6.411   2.630  1.00 20.00     0.172 C 
HETATM   10  O10 UNL     1     -32.113   7.308   1.991  1.00 20.00    -0.646 OA
BRANCH   9  11
HETATM   11  O11 UNL     1     -32.661   5.106   2.276  1.00 20.00    -0.773 OA
HETATM   12  H25 UNL     1     -33.033   4.533   2.981  1.00 20.00     0.167 HD
ENDBRANCH   9  11
ENDBRANCH   2   9
TORSDOF 2
ENDMDL
MODEL 9
REMARK VINA RESULT:      -3.7      1.665      3.008
REMARK  2 active torsions:
REMARK  status: ('A' for Active; 'I' for Inactive)
REMARK    1  A    between atoms: C2_2  and  C3_3 
REMARK    2  A    between atoms: C3_3  and  O11_11 
ROOT
HETATM    1  C1  UNL     1     -36.917  16.114  -5.676  1.00 20.00    -0.008 C 
HETATM    2  C2  UNL     1     -36.021  15.263  -5.167  1.00 20.00     0.020 C 
HETATM    3  C4  UNL     1     -34.835  17.236  -5.649  1.00 20.00     0.022 C 
HETATM    4  C5  UNL     1     -36.248  17.321  -6.256  1.00 20.00     0.006 C 
HETATM    5  C6  UNL     1     -34.604  15.744  -5.299  1.00 20.00    -0.014 C 
HETATM    6  C7  UNL     1     -36.950  18.624  -5.902  1.00 20.00     0.014 C 
HETATM    7  C8  UNL     1     -33.884  15.016  -6.442  1.00 20.00     0.020 C 
HETATM    8  C9  UNL     1     -33.796  15.620  -4.004  1.00 20.00     0.020 C 
ENDROOT
BRANCH   2   9
HETATM    9  C3  UNL     1     -36.425  13.988  -4.593  1.00 20.00     0.172 C 
HETATM   10  O10 UNL     1     -35.699  13.009  -4.484  1.00 20.00    -0.646 OA
BRANCH   9  11
HETATM   11  O11 UNL     1     -37.717  14.046  -4.198  1.00 20.00    -0.773 OA
HETATM   12  H25 UNL     1     -37.809  14.327  -3.262  1.00 20.00     0.167 HD
ENDBRANCH   9  11
ENDBRANCH   2   9
TORSDOF 2
ENDMDL
