MODEL 1
REMARK VINA RESULT:      -4.4      0.000      0.000
REMARK  0 active torsions:
REMARK  status: ('A' for Active; 'I' for Inactive)
ROOT
HETATM    1  C1  UNL     1     -33.069   7.138   4.123  1.00 20.00     0.154 C 
HETATM    2  C2  UNL     1     -33.761   7.960   5.191  1.00 20.00     0.081 C 
HETATM    3  C3  UNL     1     -33.996   7.134   6.447  1.00 20.00     0.018 C 
HETATM    4  C4  UNL     1     -34.845   5.893   6.194  1.00 20.00     0.076 C 
HETATM    5  C5  UNL     1     -33.817   5.912   3.637  1.00 20.00     0.212 C 
HETATM    6  O6  UNL     1     -31.988   7.502   3.661  1.00 20.00    -0.295 OA
HETATM    7  S7  UNL     1     -34.041   4.764   5.018  1.00 20.00    -0.141 SA
HETATM    8 CL8  UNL     1     -32.916   5.128   2.322  1.00 20.00    -0.105 Cl
ENDROOT
TORSDOF 0
ENDMDL
MODEL 2
REMARK VINA RESULT:      -4.2      2.658      3.497
REMARK  0 active torsions:
REMARK  status: ('A' for Active; 'I' for Inactive)
ROOT
HETATM    1  C1  UNL     1     -33.875   5.325   4.066  1.00 20.00     0.154 C 
HETATM    2  C2  UNL     1     -33.359   5.703   2.693  1.00 20.00     0.081 C 
HETATM    3  C3  UNL     1     -32.202   6.688   2.797  1.00 20.00     0.018 C 
HETATM    4  C4  UNL     1     -32.580   7.975   3.522  1.00 20.00     0.076 C 
HETATM    5  C5  UNL     1     -34.418   6.461   4.909  1.00 20.00     0.212 C 
HETATM    6  O6  UNL     1     -33.888   4.147   4.422  1.00 20.00    -0.295 OA
HETATM    7  S7  UNL     1     -33.093   7.649   5.236  1.00 20.00    -0.141 SA
HETATM    8 CL8  UNL     1     -35.073   5.831   6.435  1.00 20.00    -0.105 Cl
ENDROOT
TORSDOF 0
ENDMDL
MODEL 3
REMARK VINA RESULT:      -4.1      2.079      2.549
REMARK  0 active torsions:
REMARK  status: ('A' for Active; 'I' for Inactive)
ROOT
HETATM    1  C1  UNL     1     -34.151   6.198   4.637  1.00 20.00     0.154 C 
HETATM    2  C2  UNL     1     -34.028   7.023   5.901  1.00 20.00     0.081 C 
HETATM    3  C3  UNL     1     -33.668   8.466   5.578  1.00 20.00     0.018 C 
HETATM    4  C4  UNL     1     -32.357   8.595   4.811  1.00 20.00     0.076 C 
HETATM    5  C5  UNL     1     -32.902   6.096   3.784  1.00 20.00     0.212 C 
HETATM    6  O6  UNL     1     -35.202   5.614   4.375  1.00 20.00    -0.295 OA
HETATM    7  S7  UNL     1     -32.439   7.747   3.204  1.00 20.00    -0.141 SA
HETATM    8 CL8  UNL     1     -33.191   5.015   2.404  1.00 20.00    -0.105 Cl
ENDROOT
TORSDOF 0
ENDMDL
MODEL 4
REMARK VINA RESULT:      -4.0      2.493      3.168
REMARK  0 active torsions:
REMARK  status: ('A' for Active; 'I' for Inactive)
ROOT
HETATM    1  C1  UNL     1     -33.964   6.864   5.503  1.00 20.00     0.154 C 
HETATM    2  C2  UNL     1     -34.851   5.693   5.136  1.00 20.00     0.081 C 
HETATM    3  C3  UNL     1     -34.105   4.696   4.260  1.00 20.00     0.018 C 
HETATM    4  C4  UNL     1     -33.589   5.312   2.964  1.00 20.00     0.076 C 
HETATM    5  C5  UNL     1     -33.441   7.692   4.345  1.00 20.00     0.212 C 
HETATM    6  O6  UNL     1     -33.744   7.132   6.684  1.00 20.00    -0.295 OA
HETATM    7  S7  UNL     1     -32.404   6.652   3.288  1.00 20.00    -0.141 SA
HETATM    8 CL8  UNL     1     -32.510   9.076   4.956  1.00 20.00    -0.105 Cl
ENDROOT
TORSDOF 0
ENDMDL
MODEL 5
REMARK VINA RESULT:      -3.9      2.126      2.709
REMARK  0 active torsions:
REMARK  status: ('A' for Active; 'I' for Inactive)
ROOT
HETATM    1  C1  UNL     1     -33.088   6.186   3.377  1.00 20.00     0.154 C 
HETATM    2  C2  UNL     1     -32.458   7.462   2.855  1.00 20.00     0.081 C 
HETATM    3  C3  UNL     1     -31.814   8.253   3.985  1.00 20.00     0.018 C 
HETATM    4  C4  UNL     1     -32.801   8.637   5.082  1.00 20.00     0.076 C 
HETATM    5  C5  UNL     1     -34.193   6.359   4.399  1.00 20.00     0.212 C 
HETATM    6  O6  UNL     1     -32.735   5.093   2.935  1.00 20.00    -0.295 OA
HETATM    7  S7  UNL     1     -33.523   7.167   5.873  1.00 20.00    -0.141 SA
HETATM    8 CL8  UNL     1     -34.886   4.779   4.823  1.00 20.00    -0.105 Cl
ENDROOT
TORSDOF 0
ENDMDL
MODEL 6
REMARK VINA RESULT:      -3.8      2.263      3.043
REMARK  0 active torsions:
REMARK  status: ('A' for Active; 'I' for Inactive)
ROOT
HETATM    1  C1  UNL     1     -33.192   7.703   4.843  1.00 20.00     0.154 C 
HETATM    2  C2  UNL     1     -32.135   7.740   3.758  1.00 20.00     0.081 C 
HETATM    3  C3  UNL     1     -32.579   6.949   2.536  1.00 20.00     0.018 C 
HETATM    4  C4  UNL     1     -32.872   5.486   2.848  1.00 20.00     0.076 C 
HETATM    5  C5  UNL     1     -33.542   6.331   5.384  1.00 20.00     0.212 C 
HETATM    6  O6  UNL     1     -33.678   8.748   5.273  1.00 20.00    -0.295 OA
HETATM    7  S7  UNL     1     -34.227   5.319   4.050  1.00 20.00    -0.141 SA
HETATM    8 CL8  UNL     1     -34.714   6.479   6.711  1.00 20.00    -0.105 Cl
ENDROOT
TORSDOF 0
ENDMDL
MODEL 7
REMARK VINA RESULT:      -3.7      1.960      2.446
REMARK  0 active torsions:
REMARK  status: ('A' for Active; 'I' for Inactive)
ROOT
HETATM    1  C1  UNL     1     -33.503   5.573   3.553  1.00 20.00     0.154 C 
HETATM    2  C2  UNL     1     -33.986   4.706   4.697  1.00 20.00     0.081 C 
HETATM    3  C3  UNL     1     -34.906   5.490   5.623  1.00 20.00     0.018 C 
HETATM    4  C4  UNL     1     -34.238   6.722   6.223  1.00 20.00     0.076 C 
HETATM    5  C5  UNL     1     -32.700   6.799   3.938  1.00 20.00     0.212 C 
HETATM    6  O6  UNL     1     -33.721   5.242   2.388  1.00 20.00    -0.295 OA
HETATM    7  S7  UNL     1     -33.733   7.901   4.934  1.00 20.00    -0.141 SA
HETATM    8 CL8  UNL     1     -32.128   7.638   2.480  1.00 20.00    -0.105 Cl
ENDROOT
TORSDOF 0
ENDMDL
MODEL 8
REMARK VINA RESULT:      -3.6      2.268      2.972
REMARK  0 active torsions:
REMARK  status: ('A' for Active; 'I' for Inactive)
ROOT
HETATM    1  C1  UNL     1     -32.791   7.571   3.724  1.00 20.00     0.154 C 
HETATM    2  C2  UNL     1     -32.209   6.416   2.935  1.00 20.00     0.081 C 
HETATM    3  C3  UNL     1     -33.261   5.348   2.676  1.00 20.00     0.018 C 
HETATM    4  C4  UNL     1     -33.861   4.780   3.958  1.00 20.00     0.076 C 
HETATM    5  C5  UNL     1     -33.335   7.233   5.097  1.00 20.00     0.212 C 
HETATM    6  O6  UNL     1     -32.759   8.714   3.267  1.00 20.00    -0.295 OA
HETATM    7  S7  UNL     1     -34.707   6.066   4.925  1.00 20.00    -0.141 SA
HETATM    8 CL8  UNL     1     -33.880   8.711   5.919  1.00 20.00    -0.105 Cl
ENDROOT
TORSDOF 0
ENDMDL
MODEL 9
REMARK VINA RESULT:      -3.4     12.884     13.392
REMARK  0 active torsions:
REMARK  status: ('A' for Active; 'I' for Inactive)
ROOT
HETATM    1  C1  UNL     1     -34.080  14.987  -4.372  1.00 20.00     0.154 C 
HETATM    2  C2  UNL     1     -33.032  15.753  -3.591  1.00 20.00     0.081 C 
HETATM    3  C3  UNL     1     -33.604  17.053  -3.041  1.00 20.00     0.018 C 
HETATM    4  C4  UNL     1     -34.138  17.976  -4.131  1.00 20.00     0.076 C 
HETATM    5  C5  UNL     1     -34.655  15.692  -5.584  1.00 20.00     0.212 C 
HETATM    6  O6  UNL     1     -34.384  13.840  -4.044  1.00 20.00    -0.295 OA
HETATM    7  S7  UNL     1     -35.500  17.201  -5.052  1.00 20.00    -0.141 SA
HETATM    8 CL8  UNL     1     -35.784  14.618  -6.437  1.00 20.00    -0.105 Cl
ENDROOT
TORSDOF 0
ENDMDL
