MODEL 1
REMARK VINA RESULT:      -4.6      0.000      0.000
REMARK  0 active torsions:
REMARK  status: ('A' for Active; 'I' for Inactive)
ROOT
HETATM    1  C1  UNL     1     -32.743   8.342   4.160  1.00 20.00     0.145 C 
HETATM    2  C2  UNL     1     -33.915   7.880   5.001  1.00 20.00     0.089 C 
HETATM    3  C3  UNL     1     -34.871   5.303   6.310  1.00 20.00     0.002 C 
HETATM    4  C4  UNL     1     -35.410   5.712   4.925  1.00 20.00     0.010 C 
HETATM    5  C5  UNL     1     -33.450   5.417   5.723  1.00 20.00     0.010 C 
HETATM    6  C6  UNL     1     -33.441   6.259   3.253  1.00 20.00     0.037 C 
HETATM    7  C7  UNL     1     -32.258   7.232   3.257  1.00 20.00     0.152 C 
HETATM    8  C8  UNL     1     -34.039   6.391   4.656  1.00 20.00    -0.032 C 
HETATM    9  O9  UNL     1     -32.258   9.463   4.227  1.00 20.00    -0.296 OA
HETATM   10 CL10 UNL     1     -31.898   7.855   1.651  1.00 20.00    -0.117 Cl
ENDROOT
TORSDOF 0
ENDMDL
MODEL 2
REMARK VINA RESULT:      -4.1     15.330     16.385
REMARK  0 active torsions:
REMARK  status: ('A' for Active; 'I' for Inactive)
ROOT
HETATM    1  C1  UNL     1     -24.330  16.885  11.379  1.00 20.00     0.145 C 
HETATM    2  C2  UNL     1     -23.541  16.847  10.087  1.00 20.00     0.089 C 
HETATM    3  C3  UNL     1     -21.512  18.591   8.633  1.00 20.00     0.002 C 
HETATM    4  C4  UNL     1     -23.008  18.686   8.277  1.00 20.00     0.010 C 
HETATM    5  C5  UNL     1     -21.905  18.879  10.096  1.00 20.00     0.010 C 
HETATM    6  C6  UNL     1     -24.487  19.059  10.431  1.00 20.00     0.037 C 
HETATM    7  C7  UNL     1     -24.686  18.305  11.750  1.00 20.00     0.152 C 
HETATM    8  C8  UNL     1     -23.325  18.328   9.755  1.00 20.00    -0.032 C 
HETATM    9  O9  UNL     1     -24.618  15.889  12.029  1.00 20.00    -0.296 OA
HETATM   10 CL10 UNL     1     -26.346  18.396  12.329  1.00 20.00    -0.117 Cl
ENDROOT
TORSDOF 0
ENDMDL
MODEL 3
REMARK VINA RESULT:      -3.9     12.168     12.999
REMARK  0 active torsions:
REMARK  status: ('A' for Active; 'I' for Inactive)
ROOT
HETATM    1  C1  UNL     1     -33.667  18.383  -3.668  1.00 20.00     0.145 C 
HETATM    2  C2  UNL     1     -33.834  19.065  -2.326  1.00 20.00     0.089 C 
HETATM    3  C3  UNL     1     -32.521  18.986   0.421  1.00 20.00     0.002 C 
HETATM    4  C4  UNL     1     -33.789  18.154   0.146  1.00 20.00     0.010 C 
HETATM    5  C5  UNL     1     -31.874  18.285  -0.791  1.00 20.00     0.010 C 
HETATM    6  C6  UNL     1     -33.517  16.674  -2.023  1.00 20.00     0.037 C 
HETATM    7  C7  UNL     1     -33.193  16.960  -3.493  1.00 20.00     0.152 C 
HETATM    8  C8  UNL     1     -33.315  18.023  -1.327  1.00 20.00    -0.032 C 
HETATM    9  O9  UNL     1     -33.878  18.933  -4.740  1.00 20.00    -0.296 OA
HETATM   10 CL10 UNL     1     -34.054  15.883  -4.588  1.00 20.00    -0.117 Cl
ENDROOT
TORSDOF 0
ENDMDL
MODEL 4
REMARK VINA RESULT:      -3.8     12.113     13.038
REMARK  0 active torsions:
REMARK  status: ('A' for Active; 'I' for Inactive)
ROOT
HETATM    1  C1  UNL     1     -34.752  17.535  -4.091  1.00 20.00     0.145 C 
HETATM    2  C2  UNL     1     -34.876  18.296  -2.788  1.00 20.00     0.089 C 
HETATM    3  C3  UNL     1     -33.040  19.261  -0.558  1.00 20.00     0.002 C 
HETATM    4  C4  UNL     1     -33.803  17.930  -0.409  1.00 20.00     0.010 C 
HETATM    5  C5  UNL     1     -32.466  18.713  -1.880  1.00 20.00     0.010 C 
HETATM    6  C6  UNL     1     -33.425  16.367  -2.503  1.00 20.00     0.037 C 
HETATM    7  C7  UNL     1     -33.647  16.509  -4.012  1.00 20.00     0.152 C 
HETATM    8  C8  UNL     1     -33.705  17.767  -1.951  1.00 20.00    -0.032 C 
HETATM    9  O9  UNL     1     -35.453  17.748  -5.072  1.00 20.00    -0.296 OA
HETATM   10 CL10 UNL     1     -34.153  14.997  -4.759  1.00 20.00    -0.117 Cl
ENDROOT
TORSDOF 0
ENDMDL
MODEL 5
REMARK VINA RESULT:      -3.8      9.423     10.299
REMARK  0 active torsions:
REMARK  status: ('A' for Active; 'I' for Inactive)
ROOT
HETATM    1  C1  UNL     1     -39.745  12.530   6.590  1.00 20.00     0.145 C 
HETATM    2  C2  UNL     1     -40.529  13.711   7.122  1.00 20.00     0.089 C 
HETATM    3  C3  UNL     1     -43.372  14.787   6.954  1.00 20.00     0.002 C 
HETATM    4  C4  UNL     1     -42.286  15.324   6.003  1.00 20.00     0.010 C 
HETATM    5  C5  UNL     1     -43.027  13.371   6.451  1.00 20.00     0.010 C 
HETATM    6  C6  UNL     1     -41.030  13.356   4.770  1.00 20.00     0.037 C 
HETATM    7  C7  UNL     1     -40.246  12.121   5.225  1.00 20.00     0.152 C 
HETATM    8  C8  UNL     1     -41.619  13.922   6.064  1.00 20.00    -0.032 C 
HETATM    9  O9  UNL     1     -38.839  11.982   7.205  1.00 20.00    -0.296 OA
HETATM   10 CL10 UNL     1     -38.897  11.754   4.156  1.00 20.00    -0.117 Cl
ENDROOT
TORSDOF 0
ENDMDL
MODEL 6
REMARK VINA RESULT:      -3.8     12.104     12.901
REMARK  0 active torsions:
REMARK  status: ('A' for Active; 'I' for Inactive)
ROOT
HETATM    1  C1  UNL     1     -34.057  18.680   0.337  1.00 20.00     0.145 C 
HETATM    2  C2  UNL     1     -34.466  18.705  -1.121  1.00 20.00     0.089 C 
HETATM    3  C3  UNL     1     -33.803  17.185  -3.674  1.00 20.00     0.002 C 
HETATM    4  C4  UNL     1     -33.085  18.511  -3.356  1.00 20.00     0.010 C 
HETATM    5  C5  UNL     1     -33.333  16.672  -2.298  1.00 20.00     0.010 C 
HETATM    6  C6  UNL     1     -32.053  18.486  -0.926  1.00 20.00     0.037 C 
HETATM    7  C7  UNL     1     -32.612  18.266   0.483  1.00 20.00     0.152 C 
HETATM    8  C8  UNL     1     -33.231  18.163  -1.849  1.00 20.00    -0.032 C 
HETATM    9  O9  UNL     1     -34.815  18.947   1.261  1.00 20.00    -0.296 OA
HETATM   10 CL10 UNL     1     -31.802  19.263   1.687  1.00 20.00    -0.117 Cl
ENDROOT
TORSDOF 0
ENDMDL
MODEL 7
REMARK VINA RESULT:      -3.7      1.524      2.209
REMARK  0 active torsions:
REMARK  status: ('A' for Active; 'I' for Inactive)
ROOT
HETATM    1  C1  UNL     1     -32.581   7.549   3.405  1.00 20.00     0.145 C 
HETATM    2  C2  UNL     1     -33.042   6.142   3.725  1.00 20.00     0.089 C 
HETATM    3  C3  UNL     1     -35.470   4.797   4.977  1.00 20.00     0.002 C 
HETATM    4  C4  UNL     1     -34.225   5.098   5.835  1.00 20.00     0.010 C 
HETATM    5  C5  UNL     1     -35.495   6.292   4.599  1.00 20.00     0.010 C 
HETATM    6  C6  UNL     1     -33.486   7.622   5.602  1.00 20.00     0.037 C 
HETATM    7  C7  UNL     1     -33.095   8.530   4.432  1.00 20.00     0.152 C 
HETATM    8  C8  UNL     1     -33.971   6.335   4.930  1.00 20.00    -0.032 C 
HETATM    9  O9  UNL     1     -31.896   7.835   2.433  1.00 20.00    -0.296 OA
HETATM   10 CL10 UNL     1     -31.839   9.682   4.870  1.00 20.00    -0.117 Cl
ENDROOT
TORSDOF 0
ENDMDL
MODEL 8
REMARK VINA RESULT:      -3.7      9.867     10.766
REMARK  0 active torsions:
REMARK  status: ('A' for Active; 'I' for Inactive)
ROOT
HETATM    1  C1  UNL     1     -42.094  13.132   8.030  1.00 20.00     0.145 C 
HETATM    2  C2  UNL     1     -41.897  12.423   6.707  1.00 20.00     0.089 C 
HETATM    3  C3  UNL     1     -39.576  11.604   4.914  1.00 20.00     0.002 C 
HETATM    4  C4  UNL     1     -40.336  12.917   4.643  1.00 20.00     0.010 C 
HETATM    5  C5  UNL     1     -39.331  12.114   6.349  1.00 20.00     0.010 C 
HETATM    6  C6  UNL     1     -40.492  14.404   6.819  1.00 20.00     0.037 C 
HETATM    7  C7  UNL     1     -41.039  14.193   8.235  1.00 20.00     0.152 C 
HETATM    8  C8  UNL     1     -40.589  13.020   6.172  1.00 20.00    -0.032 C 
HETATM    9  O9  UNL     1     -42.986  12.859   8.822  1.00 20.00    -0.296 OA
HETATM   10 CL10 UNL     1     -41.755  15.657   8.900  1.00 20.00    -0.117 Cl
ENDROOT
TORSDOF 0
ENDMDL
MODEL 9
REMARK VINA RESULT:      -3.7     12.443     13.314
REMARK  0 active torsions:
REMARK  status: ('A' for Active; 'I' for Inactive)
ROOT
HETATM    1  C1  UNL     1     -34.042  16.737  -3.973  1.00 20.00     0.145 C 
HETATM    2  C2  UNL     1     -33.263  16.607  -2.681  1.00 20.00     0.089 C 
HETATM    3  C3  UNL     1     -33.050  18.072  -0.020  1.00 20.00     0.002 C 
HETATM    4  C4  UNL     1     -32.050  18.378  -1.153  1.00 20.00     0.010 C 
HETATM    5  C5  UNL     1     -34.182  18.393  -1.017  1.00 20.00     0.010 C 
HETATM    6  C6  UNL     1     -33.298  18.924  -3.414  1.00 20.00     0.037 C 
HETATM    7  C7  UNL     1     -34.314  18.188  -4.293  1.00 20.00     0.152 C 
HETATM    8  C8  UNL     1     -33.183  18.049  -2.164  1.00 20.00    -0.032 C 
HETATM    9  O9  UNL     1     -34.407  15.782  -4.646  1.00 20.00    -0.296 OA
HETATM   10 CL10 UNL     1     -34.064  18.499  -6.008  1.00 20.00    -0.117 Cl
ENDROOT
TORSDOF 0
ENDMDL
