MODEL 1
REMARK VINA RESULT:      -4.5      0.000      0.000
REMARK  1 active torsions:
REMARK  status: ('A' for Active; 'I' for Inactive)
REMARK    1  A    between atoms: C6_6  and  C10_10 
ROOT
HETATM    1  C1  UNL     1     -33.287   8.160   5.630  1.00 20.00     0.054 A 
HETATM    2  C2  UNL     1     -33.876   5.942   4.560  1.00 20.00     0.060 A 
HETATM    3  C3  UNL     1     -32.528   8.447   4.568  1.00 20.00     0.025 A 
HETATM    4  C4  UNL     1     -33.111   6.240   3.497  1.00 20.00    -0.037 A 
HETATM    5  C5  UNL     1     -34.047   6.895   5.679  1.00 20.00     0.172 A 
HETATM    6  C6  UNL     1     -32.381   7.564   3.356  1.00 20.00     0.147 A 
HETATM    7  C7  UNL     1     -32.915   5.229   2.401  1.00 20.00     0.047 C 
HETATM    8  O11 UNL     1     -34.783   6.636   6.625  1.00 20.00    -0.289 OA
HETATM    9  F12 UNL     1     -31.048   7.316   3.171  1.00 20.00    -0.233 F 
ENDROOT
BRANCH   6  10
HETATM   10  C10 UNL     1     -32.862   8.339   2.125  1.00 20.00     0.026 C 
HETATM   11  C8  UNL     1     -33.015   9.820   2.455  1.00 20.00     0.014 C 
HETATM   12  C9  UNL     1     -31.897   8.141   0.961  1.00 20.00     0.014 C 
ENDBRANCH   6  10
TORSDOF 1
ENDMDL
MODEL 2
REMARK VINA RESULT:      -4.3      1.433      2.777
REMARK  1 active torsions:
REMARK  status: ('A' for Active; 'I' for Inactive)
REMARK    1  A    between atoms: C6_6  and  C10_10 
ROOT
HETATM    1  C1  UNL     1     -35.112   5.606   4.860  1.00 20.00     0.054 A 
HETATM    2  C2  UNL     1     -33.661   7.028   6.371  1.00 20.00     0.060 A 
HETATM    3  C3  UNL     1     -34.658   6.295   3.810  1.00 20.00     0.025 A 
HETATM    4  C4  UNL     1     -33.211   7.715   5.308  1.00 20.00    -0.037 A 
HETATM    5  C5  UNL     1     -34.611   5.904   6.217  1.00 20.00     0.172 A 
HETATM    6  C6  UNL     1     -33.625   7.389   3.884  1.00 20.00     0.147 A 
HETATM    7  C7  UNL     1     -32.287   8.887   5.502  1.00 20.00     0.047 C 
HETATM    8  O11 UNL     1     -34.983   5.252   7.187  1.00 20.00    -0.289 OA
HETATM    9  F12 UNL     1     -34.155   8.513   3.311  1.00 20.00    -0.233 F 
ENDROOT
BRANCH   6  10
HETATM   10  C10 UNL     1     -32.420   6.983   3.031  1.00 20.00     0.026 C 
HETATM   11  C8  UNL     1     -32.595   5.562   2.506  1.00 20.00     0.014 C 
HETATM   12  C9  UNL     1     -32.227   7.965   1.880  1.00 20.00     0.014 C 
ENDBRANCH   6  10
TORSDOF 1
ENDMDL
MODEL 3
REMARK VINA RESULT:      -4.1      2.524      3.990
REMARK  1 active torsions:
REMARK  status: ('A' for Active; 'I' for Inactive)
REMARK    1  A    between atoms: C6_6  and  C10_10 
ROOT
HETATM    1  C1  UNL     1     -33.145   8.412   3.330  1.00 20.00     0.054 A 
HETATM    2  C2  UNL     1     -32.684   6.012   2.666  1.00 20.00     0.060 A 
HETATM    3  C3  UNL     1     -33.973   7.968   4.280  1.00 20.00     0.025 A 
HETATM    4  C4  UNL     1     -33.518   5.576   3.624  1.00 20.00    -0.037 A 
HETATM    5  C5  UNL     1     -32.411   7.454   2.479  1.00 20.00     0.172 A 
HETATM    6  C6  UNL     1     -34.228   6.514   4.584  1.00 20.00     0.147 A 
HETATM    7  C7  UNL     1     -33.816   4.107   3.755  1.00 20.00     0.047 C 
HETATM    8  O11 UNL     1     -31.613   7.843   1.632  1.00 20.00    -0.289 OA
HETATM    9  F12 UNL     1     -35.575   6.293   4.502  1.00 20.00    -0.233 F 
ENDROOT
BRANCH   6  10
HETATM   10  C10 UNL     1     -33.822   6.240   6.036  1.00 20.00     0.026 C 
HETATM   11  C8  UNL     1     -33.684   7.549   6.806  1.00 20.00     0.014 C 
HETATM   12  C9  UNL     1     -34.836   5.321   6.707  1.00 20.00     0.014 C 
ENDBRANCH   6  10
TORSDOF 1
ENDMDL
MODEL 4
REMARK VINA RESULT:      -4.1      2.271      3.753
REMARK  1 active torsions:
REMARK  status: ('A' for Active; 'I' for Inactive)
REMARK    1  A    between atoms: C6_6  and  C10_10 
ROOT
HETATM    1  C1  UNL     1     -33.563   8.677   5.705  1.00 20.00     0.054 A 
HETATM    2  C2  UNL     1     -32.242   7.843   3.712  1.00 20.00     0.060 A 
HETATM    3  C3  UNL     1     -34.321   7.579   5.636  1.00 20.00     0.025 A 
HETATM    4  C4  UNL     1     -33.009   6.743   3.651  1.00 20.00    -0.037 A 
HETATM    5  C5  UNL     1     -32.441   8.865   4.764  1.00 20.00     0.172 A 
HETATM    6  C6  UNL     1     -34.118   6.458   4.649  1.00 20.00     0.147 A 
HETATM    7  C7  UNL     1     -32.818   5.749   2.538  1.00 20.00     0.047 C 
HETATM    8  O11 UNL     1     -31.707   9.844   4.841  1.00 20.00    -0.289 OA
HETATM    9  F12 UNL     1     -35.290   6.276   3.967  1.00 20.00    -0.233 F 
ENDROOT
BRANCH   6  10
HETATM   10  C10 UNL     1     -33.852   5.165   5.426  1.00 20.00     0.026 C 
HETATM   11  C8  UNL     1     -34.707   5.117   6.688  1.00 20.00     0.014 C 
HETATM   12  C9  UNL     1     -34.118   3.950   4.544  1.00 20.00     0.014 C 
ENDBRANCH   6  10
TORSDOF 1
ENDMDL
MODEL 5
REMARK VINA RESULT:      -3.9     11.308     12.972
REMARK  1 active torsions:
REMARK  status: ('A' for Active; 'I' for Inactive)
REMARK    1  A    between atoms: C6_6  and  C10_10 
ROOT
HETATM    1  C1  UNL     1     -33.607  18.766  -4.107  1.00 20.00     0.054 A 
HETATM    2  C2  UNL     1     -33.271  16.472  -3.089  1.00 20.00     0.060 A 
HETATM    3  C3  UNL     1     -34.262  18.197  -5.122  1.00 20.00     0.025 A 
HETATM    4  C4  UNL     1     -33.930  15.910  -4.115  1.00 20.00    -0.037 A 
HETATM    5  C5  UNL     1     -33.098  17.939  -2.995  1.00 20.00     0.172 A 
HETATM    6  C6  UNL     1     -34.552  16.723  -5.236  1.00 20.00     0.147 A 
HETATM    7  C7  UNL     1     -34.043  14.412  -4.210  1.00 20.00     0.047 C 
HETATM    8  O11 UNL     1     -32.534  18.449  -2.032  1.00 20.00    -0.289 OA
HETATM    9  F12 UNL     1     -34.050  16.283  -6.431  1.00 20.00    -0.233 F 
ENDROOT
BRANCH   6  10
HETATM   10  C10 UNL     1     -36.070  16.526  -5.294  1.00 20.00     0.026 C 
HETATM   11  C8  UNL     1     -36.788  17.817  -4.915  1.00 20.00     0.014 C 
HETATM   12  C9  UNL     1     -36.493  16.059  -6.682  1.00 20.00     0.014 C 
ENDBRANCH   6  10
TORSDOF 1
ENDMDL
MODEL 6
REMARK VINA RESULT:      -3.9     10.473     11.593
REMARK  1 active torsions:
REMARK  status: ('A' for Active; 'I' for Inactive)
REMARK    1  A    between atoms: C6_6  and  C10_10 
ROOT
HETATM    1  C1  UNL     1     -43.020  14.663   5.142  1.00 20.00     0.054 A 
HETATM    2  C2  UNL     1     -40.927  13.378   4.525  1.00 20.00     0.060 A 
HETATM    3  C3  UNL     1     -42.916  14.192   6.388  1.00 20.00     0.025 A 
HETATM    4  C4  UNL     1     -40.831  12.911   5.780  1.00 20.00    -0.037 A 
HETATM    5  C5  UNL     1     -42.003  14.315   4.130  1.00 20.00     0.172 A 
HETATM    6  C6  UNL     1     -41.798  13.309   6.880  1.00 20.00     0.147 A 
HETATM    7  C7  UNL     1     -39.758  11.919   6.137  1.00 20.00     0.047 C 
HETATM    8  O11 UNL     1     -42.057  14.774   2.994  1.00 20.00    -0.289 OA
HETATM    9  F12 UNL     1     -42.354  12.177   7.410  1.00 20.00    -0.233 F 
ENDROOT
BRANCH   6  10
HETATM   10  C10 UNL     1     -41.077  14.026   8.026  1.00 20.00     0.026 C 
HETATM   11  C8  UNL     1     -40.496  15.351   7.541  1.00 20.00     0.014 C 
HETATM   12  C9  UNL     1     -42.027  14.248   9.197  1.00 20.00     0.014 C 
ENDBRANCH   6  10
TORSDOF 1
ENDMDL
MODEL 7
REMARK VINA RESULT:      -3.9     11.160     12.690
REMARK  1 active torsions:
REMARK  status: ('A' for Active; 'I' for Inactive)
REMARK    1  A    between atoms: C6_6  and  C10_10 
ROOT
HETATM    1  C1  UNL     1     -34.096  14.458  -4.204  1.00 20.00     0.054 A 
HETATM    2  C2  UNL     1     -36.340  14.909  -5.286  1.00 20.00     0.060 A 
HETATM    3  C3  UNL     1     -33.760  15.733  -4.417  1.00 20.00     0.025 A 
HETATM    4  C4  UNL     1     -35.993  16.189  -5.496  1.00 20.00    -0.037 A 
HETATM    5  C5  UNL     1     -35.433  13.968  -4.594  1.00 20.00     0.172 A 
HETATM    6  C6  UNL     1     -34.666  16.767  -5.035  1.00 20.00     0.147 A 
HETATM    7  C7  UNL     1     -36.914  17.109  -6.251  1.00 20.00     0.047 C 
HETATM    8  O11 UNL     1     -35.775  12.812  -4.365  1.00 20.00    -0.289 OA
HETATM    9  F12 UNL     1     -34.020  17.307  -6.114  1.00 20.00    -0.233 F 
ENDROOT
BRANCH   6  10
HETATM   10  C10 UNL     1     -34.870  17.902  -4.027  1.00 20.00     0.026 C 
HETATM   11  C8  UNL     1     -34.074  17.633  -2.754  1.00 20.00     0.014 C 
HETATM   12  C9  UNL     1     -34.472  19.238  -4.643  1.00 20.00     0.014 C 
ENDBRANCH   6  10
TORSDOF 1
ENDMDL
MODEL 8
REMARK VINA RESULT:      -3.8     11.414     12.635
REMARK  1 active torsions:
REMARK  status: ('A' for Active; 'I' for Inactive)
REMARK    1  A    between atoms: C6_6  and  C10_10 
ROOT
HETATM    1  C1  UNL     1     -34.653  18.974  -1.993  1.00 20.00     0.054 A 
HETATM    2  C2  UNL     1     -33.470  16.735  -1.998  1.00 20.00     0.060 A 
HETATM    3  C3  UNL     1     -34.817  18.866  -3.315  1.00 20.00     0.025 A 
HETATM    4  C4  UNL     1     -33.639  16.637  -3.326  1.00 20.00    -0.037 A 
HETATM    5  C5  UNL     1     -33.998  17.888  -1.236  1.00 20.00     0.172 A 
HETATM    6  C6  UNL     1     -34.385  17.681  -4.139  1.00 20.00     0.147 A 
HETATM    7  C7  UNL     1     -33.045  15.478  -4.081  1.00 20.00     0.047 C 
HETATM    8  O11 UNL     1     -33.880  17.949  -0.017  1.00 20.00    -0.289 OA
HETATM    9  F12 UNL     1     -33.565  18.133  -5.136  1.00 20.00    -0.233 F 
ENDROOT
BRANCH   6  10
HETATM   10  C10 UNL     1     -35.620  17.082  -4.819  1.00 20.00     0.026 C 
HETATM   11  C8  UNL     1     -36.857  17.920  -4.508  1.00 20.00     0.014 C 
HETATM   12  C9  UNL     1     -35.401  16.978  -6.324  1.00 20.00     0.014 C 
ENDBRANCH   6  10
TORSDOF 1
ENDMDL
MODEL 9
REMARK VINA RESULT:      -3.8     11.414     13.049
REMARK  1 active torsions:
REMARK  status: ('A' for Active; 'I' for Inactive)
REMARK    1  A    between atoms: C6_6  and  C10_10 
ROOT
HETATM    1  C1  UNL     1     -33.557  15.294  -3.852  1.00 20.00     0.054 A 
HETATM    2  C2  UNL     1     -34.546  17.624  -3.791  1.00 20.00     0.060 A 
HETATM    3  C3  UNL     1     -34.369  14.999  -4.871  1.00 20.00     0.025 A 
HETATM    4  C4  UNL     1     -35.358  17.318  -4.815  1.00 20.00    -0.037 A 
HETATM    5  C5  UNL     1     -33.565  16.649  -3.265  1.00 20.00     0.172 A 
HETATM    6  C6  UNL     1     -35.327  15.969  -5.513  1.00 20.00     0.147 A 
HETATM    7  C7  UNL     1     -36.382  18.312  -5.292  1.00 20.00     0.047 C 
HETATM    8  O11 UNL     1     -32.795  16.951  -2.360  1.00 20.00    -0.289 OA
HETATM    9  F12 UNL     1     -36.579  15.420  -5.470  1.00 20.00    -0.233 F 
ENDROOT
BRANCH   6  10
HETATM   10  C10 UNL     1     -34.958  16.114  -6.992  1.00 20.00     0.026 C 
HETATM   11  C8  UNL     1     -33.672  15.351  -7.297  1.00 20.00     0.014 C 
HETATM   12  C9  UNL     1     -36.099  15.625  -7.876  1.00 20.00     0.014 C 
ENDBRANCH   6  10
TORSDOF 1
ENDMDL
