MODEL 1
REMARK VINA RESULT:      -4.3      0.000      0.000
REMARK  2 active torsions:
REMARK  status: ('A' for Active; 'I' for Inactive)
REMARK    1  A    between atoms: C3_3  and  C4_4 
REMARK    2  A    between atoms: C4_4  and  C5_5 
ROOT
HETATM    1  C1  UNL     1     -32.540   6.184   2.783  1.00 20.00    -0.151 C 
HETATM    2  C2  UNL     1     -32.852   5.021   2.299  1.00 20.00     0.096 C 
HETATM    3  C3  UNL     1     -32.223   7.349   3.265  1.00 20.00     0.103 C 
ENDROOT
BRANCH   3   4
HETATM    4  C4  UNL     1     -33.016   7.953   4.358  1.00 20.00     0.188 C 
HETATM    5  O9  UNL     1     -33.482   9.082   4.315  1.00 20.00    -0.290 OA
BRANCH   4   6
HETATM    6  C5  UNL     1     -33.222   7.102   5.531  1.00 20.00     0.230 A 
HETATM    7  C6  UNL     1     -34.440   6.210   5.667  1.00 20.00     0.088 A 
HETATM    8  C7  UNL     1     -34.378   5.044   6.602  1.00 20.00     0.049 C 
HETATM    9  C8  UNL     1     -35.479   6.151   4.591  1.00 20.00     0.049 C 
HETATM   10  O10 UNL     1     -34.360   7.482   6.323  1.00 20.00    -0.362 OA
ENDBRANCH   4   6
ENDBRANCH   3   4
TORSDOF 2
ENDMDL
MODEL 2
REMARK VINA RESULT:      -4.3     12.122     13.616
REMARK  2 active torsions:
REMARK  status: ('A' for Active; 'I' for Inactive)
REMARK    1  A    between atoms: C3_3  and  C4_4 
REMARK    2  A    between atoms: C4_4  and  C5_5 
ROOT
HETATM    1  C1  UNL     1     -33.294  16.315  -2.931  1.00 20.00    -0.151 C 
HETATM    2  C2  UNL     1     -33.646  17.103  -1.962  1.00 20.00     0.096 C 
HETATM    3  C3  UNL     1     -32.938  15.526  -3.901  1.00 20.00     0.103 C 
ENDROOT
BRANCH   3   4
HETATM    4  C4  UNL     1     -33.943  14.706  -4.612  1.00 20.00     0.188 C 
HETATM    5  O9  UNL     1     -34.587  13.811  -4.083  1.00 20.00    -0.290 OA
BRANCH   4   6
HETATM    6  C5  UNL     1     -34.135  15.030  -6.026  1.00 20.00     0.230 A 
HETATM    7  C6  UNL     1     -35.223  15.978  -6.488  1.00 20.00     0.088 A 
HETATM    8  C7  UNL     1     -35.086  16.639  -7.822  1.00 20.00     0.049 C 
HETATM    9  C8  UNL     1     -36.142  16.638  -5.507  1.00 20.00     0.049 C 
HETATM   10  O10 UNL     1     -35.382  14.556  -6.560  1.00 20.00    -0.362 OA
ENDBRANCH   4   6
ENDBRANCH   3   4
TORSDOF 2
ENDMDL
MODEL 3
REMARK VINA RESULT:      -4.1      1.910      2.261
REMARK  2 active torsions:
REMARK  status: ('A' for Active; 'I' for Inactive)
REMARK    1  A    between atoms: C3_3  and  C4_4 
REMARK    2  A    between atoms: C4_4  and  C5_5 
ROOT
HETATM    1  C1  UNL     1     -32.675   9.070   1.552  1.00 20.00    -0.151 C 
HETATM    2  C2  UNL     1     -32.742   9.264   0.271  1.00 20.00     0.096 C 
HETATM    3  C3  UNL     1     -32.607   8.880   2.836  1.00 20.00     0.103 C 
ENDROOT
BRANCH   3   4
HETATM    4  C4  UNL     1     -32.551   7.510   3.393  1.00 20.00     0.188 C 
HETATM    5  O9  UNL     1     -32.219   6.527   2.747  1.00 20.00    -0.290 OA
BRANCH   4   6
HETATM    6  C5  UNL     1     -32.926   7.388   4.802  1.00 20.00     0.230 A 
HETATM    7  C6  UNL     1     -34.190   6.671   5.234  1.00 20.00     0.088 A 
HETATM    8  C7  UNL     1     -34.287   6.161   6.636  1.00 20.00     0.049 C 
HETATM    9  C8  UNL     1     -35.104   6.042   4.228  1.00 20.00     0.049 C 
HETATM   10  O10 UNL     1     -34.128   8.100   5.141  1.00 20.00    -0.362 OA
ENDBRANCH   4   6
ENDBRANCH   3   4
TORSDOF 2
ENDMDL
MODEL 4
REMARK VINA RESULT:      -4.1      0.932      1.317
REMARK  2 active torsions:
REMARK  status: ('A' for Active; 'I' for Inactive)
REMARK    1  A    between atoms: C3_3  and  C4_4 
REMARK    2  A    between atoms: C4_4  and  C5_5 
ROOT
HETATM    1  C1  UNL     1     -32.180   7.874   2.122  1.00 20.00    -0.151 C 
HETATM    2  C2  UNL     1     -32.187   8.412   0.941  1.00 20.00     0.096 C 
HETATM    3  C3  UNL     1     -32.171   7.333   3.304  1.00 20.00     0.103 C 
ENDROOT
BRANCH   3   4
HETATM    4  C4  UNL     1     -32.898   7.964   4.427  1.00 20.00     0.188 C 
HETATM    5  O9  UNL     1     -33.252   9.134   4.435  1.00 20.00    -0.290 OA
BRANCH   4   6
HETATM    6  C5  UNL     1     -33.183   7.088   5.564  1.00 20.00     0.230 A 
HETATM    7  C6  UNL     1     -34.406   6.194   5.598  1.00 20.00     0.088 A 
HETATM    8  C7  UNL     1     -34.408   5.008   6.509  1.00 20.00     0.049 C 
HETATM    9  C8  UNL     1     -35.370   6.160   4.453  1.00 20.00     0.049 C 
HETATM   10  O10 UNL     1     -34.372   7.451   6.285  1.00 20.00    -0.362 OA
ENDBRANCH   4   6
ENDBRANCH   3   4
TORSDOF 2
ENDMDL
MODEL 5
REMARK VINA RESULT:      -4.1      1.001      1.199
REMARK  2 active torsions:
REMARK  status: ('A' for Active; 'I' for Inactive)
REMARK    1  A    between atoms: C3_3  and  C4_4 
REMARK    2  A    between atoms: C4_4  and  C5_5 
ROOT
HETATM    1  C1  UNL     1     -32.226   7.680   3.322  1.00 20.00    -0.151 C 
HETATM    2  C2  UNL     1     -32.225   6.960   2.243  1.00 20.00     0.096 C 
HETATM    3  C3  UNL     1     -32.222   8.403   4.402  1.00 20.00     0.103 C 
ENDROOT
BRANCH   3   4
HETATM    4  C4  UNL     1     -33.321   8.291   5.387  1.00 20.00     0.188 C 
HETATM    5  O9  UNL     1     -34.102   9.197   5.640  1.00 20.00    -0.290 OA
BRANCH   4   6
HETATM    6  C5  UNL     1     -33.428   6.999   6.066  1.00 20.00     0.230 A 
HETATM    7  C6  UNL     1     -34.455   5.963   5.654  1.00 20.00     0.088 A 
HETATM    8  C7  UNL     1     -34.225   4.533   6.025  1.00 20.00     0.049 C 
HETATM    9  C8  UNL     1     -35.395   6.216   4.517  1.00 20.00     0.049 C 
HETATM   10  O10 UNL     1     -34.664   6.826   6.779  1.00 20.00    -0.362 OA
ENDBRANCH   4   6
ENDBRANCH   3   4
TORSDOF 2
ENDMDL
MODEL 6
REMARK VINA RESULT:      -4.0      9.442     10.332
REMARK  2 active torsions:
REMARK  status: ('A' for Active; 'I' for Inactive)
REMARK    1  A    between atoms: C3_3  and  C4_4 
REMARK    2  A    between atoms: C4_4  and  C5_5 
ROOT
HETATM    1  C1  UNL     1     -39.275  11.954   5.013  1.00 20.00    -0.151 C 
HETATM    2  C2  UNL     1     -38.950  11.639   3.797  1.00 20.00     0.096 C 
HETATM    3  C3  UNL     1     -39.598  12.267   6.232  1.00 20.00     0.103 C 
ENDROOT
BRANCH   3   4
HETATM    4  C4  UNL     1     -40.944  12.796   6.544  1.00 20.00     0.188 C 
HETATM    5  O9  UNL     1     -41.907  12.089   6.805  1.00 20.00    -0.290 OA
BRANCH   4   6
HETATM    6  C5  UNL     1     -41.069  14.253   6.523  1.00 20.00     0.230 A 
HETATM    7  C6  UNL     1     -40.818  15.095   7.758  1.00 20.00     0.088 A 
HETATM    8  C7  UNL     1     -40.489  16.544   7.588  1.00 20.00     0.049 C 
HETATM    9  C8  UNL     1     -40.413  14.464   9.054  1.00 20.00     0.049 C 
HETATM   10  O10 UNL     1     -42.144  14.750   7.338  1.00 20.00    -0.362 OA
ENDBRANCH   4   6
ENDBRANCH   3   4
TORSDOF 2
ENDMDL
MODEL 7
REMARK VINA RESULT:      -4.0     12.444     13.349
REMARK  2 active torsions:
REMARK  status: ('A' for Active; 'I' for Inactive)
REMARK    1  A    between atoms: C3_3  and  C4_4 
REMARK    2  A    between atoms: C4_4  and  C5_5 
ROOT
HETATM    1  C1  UNL     1     -31.053  18.553   2.042  1.00 20.00    -0.151 C 
HETATM    2  C2  UNL     1     -30.070  18.557   2.890  1.00 20.00     0.096 C 
HETATM    3  C3  UNL     1     -32.039  18.547   1.196  1.00 20.00     0.103 C 
ENDROOT
BRANCH   3   4
HETATM    4  C4  UNL     1     -31.798  18.783  -0.244  1.00 20.00     0.188 C 
HETATM    5  O9  UNL     1     -30.720  18.599  -0.791  1.00 20.00    -0.290 OA
BRANCH   4   6
HETATM    6  C5  UNL     1     -32.951  19.263  -1.006  1.00 20.00     0.230 A 
HETATM    7  C6  UNL     1     -33.769  18.338  -1.885  1.00 20.00     0.088 A 
HETATM    8  C7  UNL     1     -35.166  18.734  -2.245  1.00 20.00     0.049 C 
HETATM    9  C8  UNL     1     -33.436  16.883  -1.997  1.00 20.00     0.049 C 
HETATM   10  O10 UNL     1     -32.765  19.203  -2.430  1.00 20.00    -0.362 OA
ENDBRANCH   4   6
ENDBRANCH   3   4
TORSDOF 2
ENDMDL
MODEL 8
REMARK VINA RESULT:      -3.9      1.404      3.380
REMARK  2 active torsions:
REMARK  status: ('A' for Active; 'I' for Inactive)
REMARK    1  A    between atoms: C3_3  and  C4_4 
REMARK    2  A    between atoms: C4_4  and  C5_5 
ROOT
HETATM    1  C1  UNL     1     -34.361   5.132   4.567  1.00 20.00    -0.151 C 
HETATM    2  C2  UNL     1     -33.954   3.988   4.109  1.00 20.00     0.096 C 
HETATM    3  C3  UNL     1     -34.772   6.277   5.024  1.00 20.00     0.103 C 
ENDROOT
BRANCH   3   4
HETATM    4  C4  UNL     1     -33.812   7.255   5.583  1.00 20.00     0.188 C 
HETATM    5  O9  UNL     1     -33.216   7.095   6.638  1.00 20.00    -0.290 OA
BRANCH   4   6
HETATM    6  C5  UNL     1     -33.604   8.461   4.781  1.00 20.00     0.230 A 
HETATM    7  C6  UNL     1     -32.704   8.464   3.562  1.00 20.00     0.088 A 
HETATM    8  C7  UNL     1     -32.890   9.532   2.531  1.00 20.00     0.049 C 
HETATM    9  C8  UNL     1     -32.000   7.220   3.116  1.00 20.00     0.049 C 
HETATM   10  O10 UNL     1     -32.256   8.958   4.830  1.00 20.00    -0.362 OA
ENDBRANCH   4   6
ENDBRANCH   3   4
TORSDOF 2
ENDMDL
MODEL 9
REMARK VINA RESULT:      -3.6      9.534     10.362
REMARK  2 active torsions:
REMARK  status: ('A' for Active; 'I' for Inactive)
REMARK    1  A    between atoms: C3_3  and  C4_4 
REMARK    2  A    between atoms: C4_4  and  C5_5 
ROOT
HETATM    1  C1  UNL     1     -39.442  12.025   5.004  1.00 20.00    -0.151 C 
HETATM    2  C2  UNL     1     -38.866  11.573   3.933  1.00 20.00     0.096 C 
HETATM    3  C3  UNL     1     -40.018  12.475   6.079  1.00 20.00     0.103 C 
ENDROOT
BRANCH   3   4
HETATM    4  C4  UNL     1     -41.137  13.439   5.987  1.00 20.00     0.188 C 
HETATM    5  O9  UNL     1     -41.593  13.851   4.931  1.00 20.00    -0.290 OA
BRANCH   4   6
HETATM    6  C5  UNL     1     -41.687  13.888   7.266  1.00 20.00     0.230 A 
HETATM    7  C6  UNL     1     -42.819  13.150   7.953  1.00 20.00     0.088 A 
HETATM    8  C7  UNL     1     -43.017  13.341   9.423  1.00 20.00     0.049 C 
HETATM    9  C8  UNL     1     -43.411  11.913   7.353  1.00 20.00     0.049 C 
HETATM   10  O10 UNL     1     -43.051  14.334   7.180  1.00 20.00    -0.362 OA
ENDBRANCH   4   6
ENDBRANCH   3   4
TORSDOF 2
ENDMDL
