MODEL 1
REMARK VINA RESULT:      -4.8      0.000      0.000
REMARK  0 active torsions:
REMARK  status: ('A' for Active; 'I' for Inactive)
ROOT
HETATM    1  C1  UNL     1     -32.859   5.742   3.133  1.00 20.00     0.050 C 
HETATM    2  C2  UNL     1     -32.566   7.046   3.211  1.00 20.00    -0.014 C 
HETATM    3  C3  UNL     1     -33.772   5.110   4.115  1.00 20.00     0.188 C 
HETATM    4  C4  UNL     1     -33.583   7.188   5.508  1.00 20.00     0.064 C 
HETATM    5  C5  UNL     1     -33.057   7.985   4.290  1.00 20.00    -0.026 C 
HETATM    6  C6  UNL     1     -34.477   6.005   5.125  1.00 20.00     0.164 C 
HETATM    7  C7  UNL     1     -34.148   8.892   3.698  1.00 20.00     0.019 C 
HETATM    8  C8  UNL     1     -31.889   8.872   4.760  1.00 20.00     0.019 C 
HETATM    9  C9  UNL     1     -34.869   5.212   6.369  1.00 20.00     0.060 C 
HETATM   10  O10 UNL     1     -33.987   3.902   4.036  1.00 20.00    -0.290 OA
HETATM   11  F11 UNL     1     -35.632   6.486   4.581  1.00 20.00    -0.235 F 
ENDROOT
TORSDOF 0
ENDMDL
MODEL 2
REMARK VINA RESULT:      -4.3      2.153      3.853
REMARK  0 active torsions:
REMARK  status: ('A' for Active; 'I' for Inactive)
ROOT
HETATM    1  C1  UNL     1     -33.456   7.458   6.339  1.00 20.00     0.050 C 
HETATM    2  C2  UNL     1     -34.154   6.345   6.087  1.00 20.00    -0.014 C 
HETATM    3  C3  UNL     1     -32.855   8.243   5.235  1.00 20.00     0.188 C 
HETATM    4  C4  UNL     1     -33.340   6.314   3.706  1.00 20.00     0.064 C 
HETATM    5  C5  UNL     1     -34.363   5.741   4.716  1.00 20.00    -0.026 C 
HETATM    6  C6  UNL     1     -33.171   7.833   3.803  1.00 20.00     0.164 C 
HETATM    7  C7  UNL     1     -35.809   6.016   4.269  1.00 20.00     0.019 C 
HETATM    8  C8  UNL     1     -34.162   4.216   4.797  1.00 20.00     0.019 C 
HETATM    9  C9  UNL     1     -32.075   8.306   2.851  1.00 20.00     0.060 C 
HETATM   10  O10 UNL     1     -32.186   9.238   5.508  1.00 20.00    -0.290 OA
HETATM   11  F11 UNL     1     -34.330   8.431   3.401  1.00 20.00    -0.235 F 
ENDROOT
TORSDOF 0
ENDMDL
MODEL 3
REMARK VINA RESULT:      -4.2     12.413     13.084
REMARK  0 active torsions:
REMARK  status: ('A' for Active; 'I' for Inactive)
ROOT
HETATM    1  C1  UNL     1     -31.436  18.691   0.299  1.00 20.00     0.050 C 
HETATM    2  C2  UNL     1     -31.625  18.500  -1.013  1.00 20.00    -0.014 C 
HETATM    3  C3  UNL     1     -32.591  18.805   1.222  1.00 20.00     0.188 C 
HETATM    4  C4  UNL     1     -34.075  19.028  -0.789  1.00 20.00     0.064 C 
HETATM    5  C5  UNL     1     -32.971  18.435  -1.698  1.00 20.00    -0.026 C 
HETATM    6  C6  UNL     1     -33.987  18.557   0.666  1.00 20.00     0.164 C 
HETATM    7  C7  UNL     1     -33.271  16.972  -2.064  1.00 20.00     0.019 C 
HETATM    8  C8  UNL     1     -32.920  19.260  -2.997  1.00 20.00     0.019 C 
HETATM    9  C9  UNL     1     -35.040  19.263   1.517  1.00 20.00     0.060 C 
HETATM   10  O10 UNL     1     -32.380  19.020   2.414  1.00 20.00    -0.290 OA
HETATM   11  F11 UNL     1     -34.268  17.223   0.714  1.00 20.00    -0.235 F 
ENDROOT
TORSDOF 0
ENDMDL
MODEL 4
REMARK VINA RESULT:      -4.0     12.499     13.650
REMARK  0 active torsions:
REMARK  status: ('A' for Active; 'I' for Inactive)
ROOT
HETATM    1  C1  UNL     1     -33.320  16.075  -3.330  1.00 20.00     0.050 C 
HETATM    2  C2  UNL     1     -33.672  17.366  -3.311  1.00 20.00    -0.014 C 
HETATM    3  C3  UNL     1     -33.903  15.145  -4.327  1.00 20.00     0.188 C 
HETATM    4  C4  UNL     1     -35.590  16.918  -4.878  1.00 20.00     0.064 C 
HETATM    5  C5  UNL     1     -34.701  18.001  -4.221  1.00 20.00    -0.026 C 
HETATM    6  C6  UNL     1     -34.799  15.721  -5.414  1.00 20.00     0.164 C 
HETATM    7  C7  UNL     1     -33.973  18.847  -5.278  1.00 20.00     0.019 C 
HETATM    8  C8  UNL     1     -35.606  18.932  -3.392  1.00 20.00     0.019 C 
HETATM    9  C9  UNL     1     -35.751  14.654  -5.951  1.00 20.00     0.060 C 
HETATM   10  O10 UNL     1     -33.585  13.957  -4.288  1.00 20.00    -0.290 OA
HETATM   11  F11 UNL     1     -34.035  16.135  -6.465  1.00 20.00    -0.235 F 
ENDROOT
TORSDOF 0
ENDMDL
MODEL 5
REMARK VINA RESULT:      -3.9      9.856     11.192
REMARK  0 active torsions:
REMARK  status: ('A' for Active; 'I' for Inactive)
ROOT
HETATM    1  C1  UNL     1     -42.216  15.299   5.728  1.00 20.00     0.050 C 
HETATM    2  C2  UNL     1     -42.049  15.522   7.037  1.00 20.00    -0.014 C 
HETATM    3  C3  UNL     1     -41.650  14.088   5.087  1.00 20.00     0.188 C 
HETATM    4  C4  UNL     1     -40.321  13.698   7.179  1.00 20.00     0.064 C 
HETATM    5  C5  UNL     1     -41.255  14.640   7.975  1.00 20.00    -0.026 C 
HETATM    6  C6  UNL     1     -41.001  13.036   5.977  1.00 20.00     0.164 C 
HETATM    7  C7  UNL     1     -42.234  13.847   8.858  1.00 20.00     0.019 C 
HETATM    8  C8  UNL     1     -40.386  15.525   8.888  1.00 20.00     0.019 C 
HETATM    9  C9  UNL     1     -39.992  12.207   5.186  1.00 20.00     0.060 C 
HETATM   10  O10 UNL     1     -41.788  13.937   3.874  1.00 20.00    -0.290 OA
HETATM   11  F11 UNL     1     -41.954  12.172   6.432  1.00 20.00    -0.235 F 
ENDROOT
TORSDOF 0
ENDMDL
MODEL 6
REMARK VINA RESULT:      -3.8     12.693     13.755
REMARK  0 active torsions:
REMARK  status: ('A' for Active; 'I' for Inactive)
ROOT
HETATM    1  C1  UNL     1     -33.497  15.527  -3.779  1.00 20.00     0.050 C 
HETATM    2  C2  UNL     1     -33.244  16.481  -2.875  1.00 20.00    -0.014 C 
HETATM    3  C3  UNL     1     -34.421  15.779  -4.910  1.00 20.00     0.188 C 
HETATM    4  C4  UNL     1     -35.150  17.877  -3.743  1.00 20.00     0.064 C 
HETATM    5  C5  UNL     1     -33.880  17.854  -2.859  1.00 20.00    -0.026 C 
HETATM    6  C6  UNL     1     -34.963  17.190  -5.099  1.00 20.00     0.164 C 
HETATM    7  C7  UNL     1     -32.844  18.886  -3.335  1.00 20.00     0.019 C 
HETATM    8  C8  UNL     1     -34.289  18.206  -1.416  1.00 20.00     0.019 C 
HETATM    9  C9  UNL     1     -36.283  17.163  -5.867  1.00 20.00     0.060 C 
HETATM   10  O10 UNL     1     -34.660  14.866  -5.698  1.00 20.00    -0.290 OA
HETATM   11  F11 UNL     1     -34.085  17.920  -5.845  1.00 20.00    -0.235 F 
ENDROOT
TORSDOF 0
ENDMDL
MODEL 7
REMARK VINA RESULT:      -3.8      1.991      3.463
REMARK  0 active torsions:
REMARK  status: ('A' for Active; 'I' for Inactive)
ROOT
HETATM    1  C1  UNL     1     -32.770   5.934   3.140  1.00 20.00     0.050 C 
HETATM    2  C2  UNL     1     -33.902   5.395   3.610  1.00 20.00    -0.014 C 
HETATM    3  C3  UNL     1     -32.269   7.226   3.669  1.00 20.00     0.188 C 
HETATM    4  C4  UNL     1     -34.491   7.537   4.792  1.00 20.00     0.064 C 
HETATM    5  C5  UNL     1     -34.801   6.027   4.648  1.00 20.00    -0.026 C 
HETATM    6  C6  UNL     1     -32.993   7.850   4.854  1.00 20.00     0.164 C 
HETATM    7  C7  UNL     1     -34.616   5.286   5.983  1.00 20.00     0.019 C 
HETATM    8  C8  UNL     1     -36.269   5.875   4.207  1.00 20.00     0.019 C 
HETATM    9  C9  UNL     1     -32.768   9.360   4.891  1.00 20.00     0.060 C 
HETATM   10  O10 UNL     1     -31.248   7.710   3.185  1.00 20.00    -0.290 OA
HETATM   11  F11 UNL     1     -32.487   7.346   6.016  1.00 20.00    -0.235 F 
ENDROOT
TORSDOF 0
ENDMDL
MODEL 8
REMARK VINA RESULT:      -3.7     10.225     11.477
REMARK  0 active torsions:
REMARK  status: ('A' for Active; 'I' for Inactive)
ROOT
HETATM    1  C1  UNL     1     -42.874  12.878   7.885  1.00 20.00     0.050 C 
HETATM    2  C2  UNL     1     -42.291  12.399   6.780  1.00 20.00    -0.014 C 
HETATM    3  C3  UNL     1     -42.337  14.081   8.565  1.00 20.00     0.188 C 
HETATM    4  C4  UNL     1     -40.283  13.872   7.140  1.00 20.00     0.064 C 
HETATM    5  C5  UNL     1     -41.039  12.959   6.144  1.00 20.00    -0.026 C 
HETATM    6  C6  UNL     1     -41.197  14.839   7.898  1.00 20.00     0.164 C 
HETATM    7  C7  UNL     1     -41.430  13.724   4.868  1.00 20.00     0.019 C 
HETATM    8  C8  UNL     1     -40.108  11.798   5.749  1.00 20.00     0.019 C 
HETATM    9  C9  UNL     1     -40.395  15.628   8.931  1.00 20.00     0.060 C 
HETATM   10  O10 UNL     1     -42.875  14.469   9.601  1.00 20.00    -0.290 OA
HETATM   11  F11 UNL     1     -41.706  15.745   7.015  1.00 20.00    -0.235 F 
ENDROOT
TORSDOF 0
ENDMDL
MODEL 9
REMARK VINA RESULT:      -3.7     12.357     13.885
REMARK  0 active torsions:
REMARK  status: ('A' for Active; 'I' for Inactive)
ROOT
HETATM    1  C1  UNL     1     -33.613  15.234  -3.805  1.00 20.00     0.050 C 
HETATM    2  C2  UNL     1     -34.206  14.921  -4.963  1.00 20.00    -0.014 C 
HETATM    3  C3  UNL     1     -33.579  16.636  -3.325  1.00 20.00     0.188 C 
HETATM    4  C4  UNL     1     -34.354  17.350  -5.601  1.00 20.00     0.064 C 
HETATM    5  C5  UNL     1     -34.838  15.914  -5.912  1.00 20.00    -0.026 C 
HETATM    6  C6  UNL     1     -34.357  17.686  -4.107  1.00 20.00     0.164 C 
HETATM    7  C7  UNL     1     -36.368  15.799  -5.802  1.00 20.00     0.019 C 
HETATM    8  C8  UNL     1     -34.428  15.567  -7.356  1.00 20.00     0.019 C 
HETATM    9  C9  UNL     1     -33.771  19.077  -3.875  1.00 20.00     0.060 C 
HETATM   10  O10 UNL     1     -32.990  16.892  -2.276  1.00 20.00    -0.290 OA
HETATM   11  F11 UNL     1     -35.647  17.721  -3.666  1.00 20.00    -0.235 F 
ENDROOT
TORSDOF 0
ENDMDL
