MODEL 1
REMARK VINA RESULT:      -4.4      0.000      0.000
REMARK  0 active torsions:
REMARK  status: ('A' for Active; 'I' for Inactive)
ROOT
HETATM    1  C1  UNL     1     -33.795   6.041   4.405  1.00 20.00     0.076 A 
HETATM    2  C2  UNL     1     -33.615   7.077   5.279  1.00 20.00     0.123 A 
HETATM    3  C3  UNL     1     -32.644   7.317   3.121  1.00 20.00     0.073 A 
HETATM    4  C4  UNL     1     -34.735   5.749   6.419  1.00 20.00     0.097 A 
HETATM    5  C5  UNL     1     -34.582   5.001   5.070  1.00 20.00     0.109 A 
HETATM    6  C6  UNL     1     -31.916   7.840   1.943  1.00 20.00     0.079 C 
HETATM    7  N7  UNL     1     -33.254   6.144   3.165  1.00 20.00    -0.248 NA
HETATM    8  N8  UNL     1     -34.172   6.929   6.504  1.00 20.00    -0.255 NA
HETATM    9  S9  UNL     1     -32.713   8.300   4.559  1.00 20.00    -0.053 SA
ENDROOT
TORSDOF 0
ENDMDL
MODEL 2
REMARK VINA RESULT:      -4.4      1.612      1.843
REMARK  0 active torsions:
REMARK  status: ('A' for Active; 'I' for Inactive)
ROOT
HETATM    1  C1  UNL     1     -33.636   6.843   4.957  1.00 20.00     0.076 A 
HETATM    2  C2  UNL     1     -33.855   5.622   4.383  1.00 20.00     0.123 A 
HETATM    3  C3  UNL     1     -32.674   7.221   3.077  1.00 20.00     0.073 A 
HETATM    4  C4  UNL     1     -34.755   5.387   6.241  1.00 20.00     0.097 A 
HETATM    5  C5  UNL     1     -34.222   6.841   6.298  1.00 20.00     0.109 A 
HETATM    6  C6  UNL     1     -31.940   7.895   1.983  1.00 20.00     0.079 C 
HETATM    7  N7  UNL     1     -32.966   7.780   4.240  1.00 20.00    -0.248 NA
HETATM    8  N8  UNL     1     -34.530   4.721   5.136  1.00 20.00    -0.255 NA
HETATM    9  S9  UNL     1     -33.200   5.577   2.835  1.00 20.00    -0.053 SA
ENDROOT
TORSDOF 0
ENDMDL
MODEL 3
REMARK VINA RESULT:      -3.7     15.617     15.825
REMARK  0 active torsions:
REMARK  status: ('A' for Active; 'I' for Inactive)
ROOT
HETATM    1  C1  UNL     1     -23.787  17.265  10.609  1.00 20.00     0.076 A 
HETATM    2  C2  UNL     1     -24.528  18.401  10.441  1.00 20.00     0.123 A 
HETATM    3  C3  UNL     1     -22.787  18.018   8.867  1.00 20.00     0.073 A 
HETATM    4  C4  UNL     1     -25.410  17.563  12.126  1.00 20.00     0.097 A 
HETATM    5  C5  UNL     1     -24.293  16.546  11.780  1.00 20.00     0.109 A 
HETATM    6  C6  UNL     1     -21.849  18.149   7.730  1.00 20.00     0.079 C 
HETATM    7  N7  UNL     1     -22.785  17.014   9.729  1.00 20.00    -0.248 NA
HETATM    8  N8  UNL     1     -25.516  18.608  11.344  1.00 20.00    -0.255 NA
HETATM    9  S9  UNL     1     -23.983  19.263   9.105  1.00 20.00    -0.053 SA
ENDROOT
TORSDOF 0
ENDMDL
MODEL 4
REMARK VINA RESULT:      -3.7     16.055     16.768
REMARK  0 active torsions:
REMARK  status: ('A' for Active; 'I' for Inactive)
ROOT
HETATM    1  C1  UNL     1     -23.981  18.716  10.833  1.00 20.00     0.076 A 
HETATM    2  C2  UNL     1     -22.728  18.693  10.289  1.00 20.00     0.123 A 
HETATM    3  C3  UNL     1     -24.539  19.036   8.787  1.00 20.00     0.073 A 
HETATM    4  C4  UNL     1     -22.322  18.388  12.304  1.00 20.00     0.097 A 
HETATM    5  C5  UNL     1     -23.867  18.511  12.278  1.00 20.00     0.109 A 
HETATM    6  C6  UNL     1     -25.348  19.263   7.568  1.00 20.00     0.079 C 
HETATM    7  N7  UNL     1     -25.039  18.909  10.006  1.00 20.00    -0.248 NA
HETATM    8  N8  UNL     1     -21.704  18.497  11.154  1.00 20.00    -0.255 NA
HETATM    9  S9  UNL     1     -22.808  18.924   8.626  1.00 20.00    -0.053 SA
ENDROOT
TORSDOF 0
ENDMDL
MODEL 5
REMARK VINA RESULT:      -3.6      1.592      3.920
REMARK  0 active torsions:
REMARK  status: ('A' for Active; 'I' for Inactive)
ROOT
HETATM    1  C1  UNL     1     -33.117   7.720   5.038  1.00 20.00     0.076 A 
HETATM    2  C2  UNL     1     -33.110   6.977   3.891  1.00 20.00     0.123 A 
HETATM    3  C3  UNL     1     -34.236   6.039   5.764  1.00 20.00     0.073 A 
HETATM    4  C4  UNL     1     -32.039   8.662   3.314  1.00 20.00     0.097 A 
HETATM    5  C5  UNL     1     -32.387   8.965   4.793  1.00 20.00     0.109 A 
HETATM    6  C6  UNL     1     -35.005   5.139   6.652  1.00 20.00     0.079 C 
HETATM    7  N7  UNL     1     -33.750   7.216   6.127  1.00 20.00    -0.248 NA
HETATM    8  N8  UNL     1     -32.466   7.521   2.831  1.00 20.00    -0.255 NA
HETATM    9  S9  UNL     1     -33.938   5.533   4.124  1.00 20.00    -0.053 SA
ENDROOT
TORSDOF 0
ENDMDL
MODEL 6
REMARK VINA RESULT:      -3.5     12.769     12.967
REMARK  0 active torsions:
REMARK  status: ('A' for Active; 'I' for Inactive)
ROOT
HETATM    1  C1  UNL     1     -31.934  18.447  -0.178  1.00 20.00     0.076 A 
HETATM    2  C2  UNL     1     -32.942  18.752   0.693  1.00 20.00     0.123 A 
HETATM    3  C3  UNL     1     -30.720  18.992   1.504  1.00 20.00     0.073 A 
HETATM    4  C4  UNL     1     -34.002  18.199  -1.007  1.00 20.00     0.097 A 
HETATM    5  C5  UNL     1     -32.527  18.031  -1.451  1.00 20.00     0.109 A 
HETATM    6  C6  UNL     1     -29.544  19.261   2.361  1.00 20.00     0.079 C 
HETATM    7  N7  UNL     1     -30.653  18.572   0.250  1.00 20.00    -0.248 NA
HETATM    8  N8  UNL     1     -34.204  18.611   0.220  1.00 20.00    -0.255 NA
HETATM    9  S9  UNL     1     -32.310  19.237   2.173  1.00 20.00    -0.053 SA
ENDROOT
TORSDOF 0
ENDMDL
MODEL 7
REMARK VINA RESULT:      -3.5     12.850     13.359
REMARK  0 active torsions:
REMARK  status: ('A' for Active; 'I' for Inactive)
ROOT
HETATM    1  C1  UNL     1     -33.002  18.696   0.107  1.00 20.00     0.076 A 
HETATM    2  C2  UNL     1     -32.063  18.689  -0.887  1.00 20.00     0.123 A 
HETATM    3  C3  UNL     1     -34.340  18.764  -1.568  1.00 20.00     0.073 A 
HETATM    4  C4  UNL     1     -30.878  18.624   0.819  1.00 20.00     0.097 A 
HETATM    5  C5  UNL     1     -32.315  18.653   1.399  1.00 20.00     0.109 A 
HETATM    6  C6  UNL     1     -35.577  18.813  -2.379  1.00 20.00     0.079 C 
HETATM    7  N7  UNL     1     -34.311  18.738  -0.245  1.00 20.00    -0.248 NA
HETATM    8  N8  UNL     1     -30.770  18.645  -0.487  1.00 20.00    -0.255 NA
HETATM    9  S9  UNL     1     -32.806  18.737  -2.394  1.00 20.00    -0.053 SA
ENDROOT
TORSDOF 0
ENDMDL
MODEL 8
REMARK VINA RESULT:      -3.5      9.925     10.449
REMARK  0 active torsions:
REMARK  status: ('A' for Active; 'I' for Inactive)
ROOT
HETATM    1  C1  UNL     1     -40.673  13.085   4.971  1.00 20.00     0.076 A 
HETATM    2  C2  UNL     1     -40.720  13.313   6.318  1.00 20.00     0.123 A 
HETATM    3  C3  UNL     1     -42.231  14.560   4.970  1.00 20.00     0.073 A 
HETATM    4  C4  UNL     1     -39.223  11.877   6.180  1.00 20.00     0.097 A 
HETATM    5  C5  UNL     1     -39.646  12.078   4.702  1.00 20.00     0.109 A 
HETATM    6  C6  UNL     1     -43.283  15.494   4.512  1.00 20.00     0.079 C 
HETATM    7  N7  UNL     1     -41.520  13.780   4.171  1.00 20.00    -0.248 NA
HETATM    8  N8  UNL     1     -39.854  12.596   7.075  1.00 20.00    -0.255 NA
HETATM    9  S9  UNL     1     -41.888  14.467   6.676  1.00 20.00    -0.053 SA
ENDROOT
TORSDOF 0
ENDMDL
MODEL 9
REMARK VINA RESULT:      -3.5     12.775     14.151
REMARK  0 active torsions:
REMARK  status: ('A' for Active; 'I' for Inactive)
ROOT
HETATM    1  C1  UNL     1     -34.697  16.803  -5.673  1.00 20.00     0.076 A 
HETATM    2  C2  UNL     1     -34.314  15.500  -5.830  1.00 20.00     0.123 A 
HETATM    3  C3  UNL     1     -33.809  16.518  -3.741  1.00 20.00     0.073 A 
HETATM    4  C4  UNL     1     -35.203  15.907  -7.664  1.00 20.00     0.097 A 
HETATM    5  C5  UNL     1     -35.353  17.249  -6.903  1.00 20.00     0.109 A 
HETATM    6  C6  UNL     1     -33.330  16.765  -2.363  1.00 20.00     0.079 C 
HETATM    7  N7  UNL     1     -34.425  17.416  -4.494  1.00 20.00    -0.248 NA
HETATM    8  N8  UNL     1     -34.607  14.932  -7.025  1.00 20.00    -0.255 NA
HETATM    9  S9  UNL     1     -33.553  14.942  -4.439  1.00 20.00    -0.053 SA
ENDROOT
TORSDOF 0
ENDMDL
