MODEL 1
REMARK VINA RESULT:      -3.8      0.000      0.000
REMARK  1 active torsions:
REMARK  status: ('A' for Active; 'I' for Inactive)
REMARK    1  A    between atoms: C2_2  and  C4_4 
ROOT
HETATM    1  C1  UNL     1     -32.630   7.923   4.403  1.00 20.00     0.171 A 
HETATM    2  C2  UNL     1     -33.716   6.976   4.869  1.00 20.00     0.175 A 
HETATM    3  C3  UNL     1     -31.954   7.819   3.082  1.00 20.00     0.044 C 
HETATM    4  O5  UNL     1     -34.017   8.273   4.329  1.00 20.00    -0.352 OA
HETATM    5 CL6  UNL     1     -34.124   5.567   3.895  1.00 20.00    -0.084 Cl
ENDROOT
BRANCH   2   6
HETATM    6  C4  UNL     1     -34.008   6.858   6.329  1.00 20.00     0.172 C 
HETATM    7 CL7  UNL     1     -34.730   5.273   6.714  1.00 20.00    -0.126 Cl
ENDBRANCH   2   6
TORSDOF 1
ENDMDL
MODEL 2
REMARK VINA RESULT:      -3.7      2.351      3.658
REMARK  1 active torsions:
REMARK  status: ('A' for Active; 'I' for Inactive)
REMARK    1  A    between atoms: C2_2  and  C4_4 
ROOT
HETATM    1  C1  UNL     1     -34.364   5.197   5.199  1.00 20.00     0.171 A 
HETATM    2  C2  UNL     1     -33.901   6.296   4.265  1.00 20.00     0.175 A 
HETATM    3  C3  UNL     1     -34.746   5.426   6.619  1.00 20.00     0.044 C 
HETATM    4  O5  UNL     1     -35.249   5.798   4.247  1.00 20.00    -0.352 OA
HETATM    5 CL6  UNL     1     -33.635   7.920   4.890  1.00 20.00    -0.084 Cl
ENDROOT
BRANCH   2   6
HETATM    6  C4  UNL     1     -33.120   5.937   3.043  1.00 20.00     0.172 C 
HETATM    7 CL7  UNL     1     -32.146   7.320   2.475  1.00 20.00    -0.126 Cl
ENDBRANCH   2   6
TORSDOF 1
ENDMDL
MODEL 3
REMARK VINA RESULT:      -3.4      2.189      3.148
REMARK  1 active torsions:
REMARK  status: ('A' for Active; 'I' for Inactive)
REMARK    1  A    between atoms: C2_2  and  C4_4 
ROOT
HETATM    1  C1  UNL     1     -34.114   5.588   4.053  1.00 20.00     0.171 A 
HETATM    2  C2  UNL     1     -34.154   6.770   4.998  1.00 20.00     0.175 A 
HETATM    3  C3  UNL     1     -33.993   4.175   4.501  1.00 20.00     0.044 C 
HETATM    4  O5  UNL     1     -35.347   6.218   4.420  1.00 20.00    -0.352 OA
HETATM    5 CL6  UNL     1     -33.886   6.522   6.721  1.00 20.00    -0.084 Cl
ENDROOT
BRANCH   2   6
HETATM    6  C4  UNL     1     -33.819   8.132   4.483  1.00 20.00     0.172 C 
HETATM    7 CL7  UNL     1     -32.059   8.414   4.509  1.00 20.00    -0.126 Cl
ENDBRANCH   2   6
TORSDOF 1
ENDMDL
MODEL 4
REMARK VINA RESULT:      -3.4      1.220      1.264
REMARK  1 active torsions:
REMARK  status: ('A' for Active; 'I' for Inactive)
REMARK    1  A    between atoms: C2_2  and  C4_4 
ROOT
HETATM    1  C1  UNL     1     -33.360   7.905   5.105  1.00 20.00     0.171 A 
HETATM    2  C2  UNL     1     -33.896   6.705   4.353  1.00 20.00     0.175 A 
HETATM    3  C3  UNL     1     -32.085   8.591   4.765  1.00 20.00     0.044 C 
HETATM    4  O5  UNL     1     -34.382   8.035   4.110  1.00 20.00    -0.352 OA
HETATM    5 CL6  UNL     1     -32.916   5.948   3.101  1.00 20.00    -0.084 Cl
ENDROOT
BRANCH   2   6
HETATM    6  C4  UNL     1     -34.902   5.817   5.011  1.00 20.00     0.172 C 
HETATM    7 CL7  UNL     1     -34.277   5.171   6.551  1.00 20.00    -0.126 Cl
ENDBRANCH   2   6
TORSDOF 1
ENDMDL
MODEL 5
REMARK VINA RESULT:      -3.3      2.179      3.684
REMARK  1 active torsions:
REMARK  status: ('A' for Active; 'I' for Inactive)
REMARK    1  A    between atoms: C2_2  and  C4_4 
ROOT
HETATM    1  C1  UNL     1     -33.342   8.228   4.893  1.00 20.00     0.171 A 
HETATM    2  C2  UNL     1     -32.700   7.955   3.549  1.00 20.00     0.175 A 
HETATM    3  C3  UNL     1     -33.789   7.159   5.826  1.00 20.00     0.044 C 
HETATM    4  O5  UNL     1     -31.922   8.292   4.709  1.00 20.00    -0.352 OA
HETATM    5 CL6  UNL     1     -32.600   6.304   2.945  1.00 20.00    -0.084 Cl
ENDROOT
BRANCH   2   6
HETATM    6  C4  UNL     1     -32.703   9.025   2.505  1.00 20.00     0.172 C 
HETATM    7 CL7  UNL     1     -32.157   8.388   0.931  1.00 20.00    -0.126 Cl
ENDBRANCH   2   6
TORSDOF 1
ENDMDL
MODEL 6
REMARK VINA RESULT:      -3.3      2.641      3.266
REMARK  1 active torsions:
REMARK  status: ('A' for Active; 'I' for Inactive)
REMARK    1  A    between atoms: C2_2  and  C4_4 
ROOT
HETATM    1  C1  UNL     1     -33.759   6.191   5.923  1.00 20.00     0.171 A 
HETATM    2  C2  UNL     1     -34.556   5.424   4.890  1.00 20.00     0.175 A 
HETATM    3  C3  UNL     1     -34.170   7.512   6.470  1.00 20.00     0.044 C 
HETATM    4  O5  UNL     1     -34.622   5.108   6.290  1.00 20.00    -0.352 OA
HETATM    5 CL6  UNL     1     -35.971   6.165   4.149  1.00 20.00    -0.084 Cl
ENDROOT
BRANCH   2   6
HETATM    6  C4  UNL     1     -33.878   4.371   4.075  1.00 20.00     0.172 C 
HETATM    7 CL7  UNL     1     -32.997   5.090   2.701  1.00 20.00    -0.126 Cl
ENDBRANCH   2   6
TORSDOF 1
ENDMDL
MODEL 7
REMARK VINA RESULT:      -3.2      2.119      3.236
REMARK  1 active torsions:
REMARK  status: ('A' for Active; 'I' for Inactive)
REMARK    1  A    between atoms: C2_2  and  C4_4 
ROOT
HETATM    1  C1  UNL     1     -34.456   6.595   6.017  1.00 20.00     0.171 A 
HETATM    2  C2  UNL     1     -33.621   7.043   4.836  1.00 20.00     0.175 A 
HETATM    3  C3  UNL     1     -34.880   5.187   6.243  1.00 20.00     0.044 C 
HETATM    4  O5  UNL     1     -33.045   6.810   6.131  1.00 20.00    -0.352 OA
HETATM    5 CL6  UNL     1     -33.240   5.900   3.551  1.00 20.00    -0.084 Cl
ENDROOT
BRANCH   2   6
HETATM    6  C4  UNL     1     -33.627   8.483   4.438  1.00 20.00     0.172 C 
HETATM    7 CL7  UNL     1     -32.087   9.274   4.867  1.00 20.00    -0.126 Cl
ENDBRANCH   2   6
TORSDOF 1
ENDMDL
MODEL 8
REMARK VINA RESULT:      -3.2     16.119     16.579
REMARK  1 active torsions:
REMARK  status: ('A' for Active; 'I' for Inactive)
REMARK    1  A    between atoms: C2_2  and  C4_4 
ROOT
HETATM    1  C1  UNL     1     -24.230  17.151  10.763  1.00 20.00     0.171 A 
HETATM    2  C2  UNL     1     -23.305  18.342  10.893  1.00 20.00     0.175 A 
HETATM    3  C3  UNL     1     -24.459  16.159  11.848  1.00 20.00     0.044 C 
HETATM    4  O5  UNL     1     -24.728  18.463  11.051  1.00 20.00    -0.352 OA
HETATM    5 CL6  UNL     1     -22.303  18.518  12.331  1.00 20.00    -0.084 Cl
ENDROOT
BRANCH   2   6
HETATM    6  C4  UNL     1     -22.785  19.004   9.659  1.00 20.00     0.172 C 
HETATM    7 CL7  UNL     1     -21.305  18.200   9.073  1.00 20.00    -0.126 Cl
ENDBRANCH   2   6
TORSDOF 1
ENDMDL
MODEL 9
REMARK VINA RESULT:      -3.1      9.320      9.741
REMARK  1 active torsions:
REMARK  status: ('A' for Active; 'I' for Inactive)
REMARK    1  A    between atoms: C2_2  and  C4_4 
ROOT
HETATM    1  C1  UNL     1     -40.256  13.844   7.370  1.00 20.00     0.171 A 
HETATM    2  C2  UNL     1     -40.572  12.962   6.180  1.00 20.00     0.175 A 
HETATM    3  C3  UNL     1     -40.692  15.261   7.486  1.00 20.00     0.044 C 
HETATM    4  O5  UNL     1     -41.329  12.894   7.400  1.00 20.00    -0.352 OA
HETATM    5 CL6  UNL     1     -41.358  13.652   4.764  1.00 20.00    -0.084 Cl
ENDROOT
BRANCH   2   6
HETATM    6  C4  UNL     1     -39.741  11.746   5.929  1.00 20.00     0.172 C 
HETATM    7 CL7  UNL     1     -39.098  11.739   4.265  1.00 20.00    -0.126 Cl
ENDBRANCH   2   6
TORSDOF 1
ENDMDL
