MODEL 1
REMARK VINA RESULT:      -4.8      0.000      0.000
REMARK  4 active torsions:
REMARK  status: ('A' for Active; 'I' for Inactive)
REMARK    1  A    between atoms: C3_3  and  C4_4 
REMARK    2  A    between atoms: C4_4  and  C5_5 
REMARK    3  A    between atoms: C5_5  and  C6_6 
REMARK    4  A    between atoms: C6_6  and  C7_7 
ROOT
HETATM    1  C1  UNL     1     -32.654   8.811   3.213  1.00 20.00     0.087 C 
HETATM    2  C2  UNL     1     -32.677   8.186   4.489  1.00 20.00     0.089 C 
HETATM    3  C3  UNL     1     -33.822   7.764   5.042  1.00 20.00    -0.016 C 
HETATM    4  N8  UNL     1     -32.629   9.323   2.172  1.00 20.00    -0.192 NA
ENDROOT
BRANCH   3   5
HETATM    5  C4  UNL     1     -33.899   7.104   6.389  1.00 20.00     0.028 C 
BRANCH   5   6
HETATM    6  C5  UNL     1     -34.538   5.717   6.292  1.00 20.00     0.005 C 
BRANCH   6   7
HETATM    7  C6  UNL     1     -34.908   5.378   4.845  1.00 20.00     0.015 C 
BRANCH   7   8
HETATM    8  C7  UNL     1     -33.954   4.383   4.194  1.00 20.00     0.114 C 
HETATM    9 CL9  UNL     1     -33.131   5.076   2.777  1.00 20.00    -0.130 Cl
ENDBRANCH   7   8
ENDBRANCH   6   7
ENDBRANCH   5   6
ENDBRANCH   3   5
TORSDOF 4
ENDMDL
MODEL 2
REMARK VINA RESULT:      -4.4      1.179      1.637
REMARK  4 active torsions:
REMARK  status: ('A' for Active; 'I' for Inactive)
REMARK    1  A    between atoms: C3_3  and  C4_4 
REMARK    2  A    between atoms: C4_4  and  C5_5 
REMARK    3  A    between atoms: C5_5  and  C6_6 
REMARK    4  A    between atoms: C6_6  and  C7_7 
ROOT
HETATM    1  C1  UNL     1     -32.226   8.019   1.814  1.00 20.00     0.087 C 
HETATM    2  C2  UNL     1     -32.221   7.568   3.161  1.00 20.00     0.089 C 
HETATM    3  C3  UNL     1     -32.808   8.272   4.138  1.00 20.00    -0.016 C 
HETATM    4  N8  UNL     1     -32.227   8.383   0.712  1.00 20.00    -0.192 NA
ENDROOT
BRANCH   3   5
HETATM    5  C4  UNL     1     -32.824   7.842   5.578  1.00 20.00     0.028 C 
BRANCH   5   6
HETATM    6  C5  UNL     1     -34.246   7.524   6.046  1.00 20.00     0.005 C 
BRANCH   6   7
HETATM    7  C6  UNL     1     -34.463   6.013   6.169  1.00 20.00     0.015 C 
BRANCH   7   8
HETATM    8  C7  UNL     1     -35.055   5.382   4.913  1.00 20.00     0.114 C 
HETATM    9 CL9  UNL     1     -33.890   4.323   4.086  1.00 20.00    -0.130 Cl
ENDBRANCH   7   8
ENDBRANCH   6   7
ENDBRANCH   5   6
ENDBRANCH   3   5
TORSDOF 4
ENDMDL
MODEL 3
REMARK VINA RESULT:      -4.0      1.969      2.699
REMARK  4 active torsions:
REMARK  status: ('A' for Active; 'I' for Inactive)
REMARK    1  A    between atoms: C3_3  and  C4_4 
REMARK    2  A    between atoms: C4_4  and  C5_5 
REMARK    3  A    between atoms: C5_5  and  C6_6 
REMARK    4  A    between atoms: C6_6  and  C7_7 
ROOT
HETATM    1  C1  UNL     1     -32.203   7.644   1.832  1.00 20.00     0.087 C 
HETATM    2  C2  UNL     1     -32.535   6.860   2.969  1.00 20.00     0.089 C 
HETATM    3  C3  UNL     1     -33.224   5.716   2.855  1.00 20.00    -0.016 C 
HETATM    4  N8  UNL     1     -31.930   8.289   0.906  1.00 20.00    -0.192 NA
ENDROOT
BRANCH   3   5
HETATM    5  C4  UNL     1     -33.604   4.857   4.027  1.00 20.00     0.028 C 
BRANCH   5   6
HETATM    6  C5  UNL     1     -34.908   5.338   4.668  1.00 20.00     0.005 C 
BRANCH   6   7
HETATM    7  C6  UNL     1     -34.717   5.626   6.160  1.00 20.00     0.015 C 
BRANCH   7   8
HETATM    8  C7  UNL     1     -33.658   6.686   6.441  1.00 20.00     0.114 C 
HETATM    9 CL9  UNL     1     -34.072   8.254   5.709  1.00 20.00    -0.130 Cl
ENDBRANCH   7   8
ENDBRANCH   6   7
ENDBRANCH   5   6
ENDBRANCH   3   5
TORSDOF 4
ENDMDL
MODEL 4
REMARK VINA RESULT:      -3.9     12.161     12.676
REMARK  4 active torsions:
REMARK  status: ('A' for Active; 'I' for Inactive)
REMARK    1  A    between atoms: C3_3  and  C4_4 
REMARK    2  A    between atoms: C4_4  and  C5_5 
REMARK    3  A    between atoms: C5_5  and  C6_6 
REMARK    4  A    between atoms: C6_6  and  C7_7 
ROOT
HETATM    1  C1  UNL     1     -28.944  18.745   3.304  1.00 20.00     0.087 C 
HETATM    2  C2  UNL     1     -29.878  19.080   2.288  1.00 20.00     0.089 C 
HETATM    3  C3  UNL     1     -30.953  18.318   2.044  1.00 20.00    -0.016 C 
HETATM    4  N8  UNL     1     -28.178  18.475   4.133  1.00 20.00    -0.192 NA
ENDROOT
BRANCH   3   5
HETATM    5  C4  UNL     1     -31.965  18.626   0.978  1.00 20.00     0.028 C 
BRANCH   5   6
HETATM    6  C5  UNL     1     -31.334  18.576  -0.416  1.00 20.00     0.005 C 
BRANCH   6   7
HETATM    7  C6  UNL     1     -32.407  18.582  -1.509  1.00 20.00     0.015 C 
BRANCH   7   8
HETATM    8  C7  UNL     1     -33.457  17.490  -1.333  1.00 20.00     0.114 C 
HETATM    9 CL9  UNL     1     -33.436  16.321  -2.673  1.00 20.00    -0.130 Cl
ENDBRANCH   7   8
ENDBRANCH   6   7
ENDBRANCH   5   6
ENDBRANCH   3   5
TORSDOF 4
ENDMDL
MODEL 5
REMARK VINA RESULT:      -3.8     11.992     12.604
REMARK  4 active torsions:
REMARK  status: ('A' for Active; 'I' for Inactive)
REMARK    1  A    between atoms: C3_3  and  C4_4 
REMARK    2  A    between atoms: C4_4  and  C5_5 
REMARK    3  A    between atoms: C5_5  and  C6_6 
REMARK    4  A    between atoms: C6_6  and  C7_7 
ROOT
HETATM    1  C1  UNL     1     -33.874  14.951  -3.887  1.00 20.00     0.087 C 
HETATM    2  C2  UNL     1     -33.254  16.179  -3.535  1.00 20.00     0.089 C 
HETATM    3  C3  UNL     1     -33.407  16.718  -2.318  1.00 20.00    -0.016 C 
HETATM    4  N8  UNL     1     -34.380  13.948  -4.180  1.00 20.00    -0.192 NA
ENDROOT
BRANCH   3   5
HETATM    5  C4  UNL     1     -32.778  18.017  -1.900  1.00 20.00     0.028 C 
BRANCH   5   6
HETATM    6  C5  UNL     1     -32.861  18.211  -0.384  1.00 20.00     0.005 C 
BRANCH   6   7
HETATM    7  C6  UNL     1     -31.496  18.582   0.202  1.00 20.00     0.015 C 
BRANCH   7   8
HETATM    8  C7  UNL     1     -31.544  18.898   1.694  1.00 20.00     0.114 C 
HETATM    9 CL9  UNL     1     -30.023  18.478   2.514  1.00 20.00    -0.130 Cl
ENDBRANCH   7   8
ENDBRANCH   6   7
ENDBRANCH   5   6
ENDBRANCH   3   5
TORSDOF 4
ENDMDL
MODEL 6
REMARK VINA RESULT:      -3.7      2.968      4.389
REMARK  4 active torsions:
REMARK  status: ('A' for Active; 'I' for Inactive)
REMARK    1  A    between atoms: C3_3  and  C4_4 
REMARK    2  A    between atoms: C4_4  and  C5_5 
REMARK    3  A    between atoms: C5_5  and  C6_6 
REMARK    4  A    between atoms: C6_6  and  C7_7 
ROOT
HETATM    1  C1  UNL     1     -34.552   5.772   6.190  1.00 20.00     0.087 C 
HETATM    2  C2  UNL     1     -34.001   7.076   6.081  1.00 20.00     0.089 C 
HETATM    3  C3  UNL     1     -33.212   7.421   5.054  1.00 20.00    -0.016 C 
HETATM    4  N8  UNL     1     -35.004   4.707   6.284  1.00 20.00    -0.192 NA
ENDROOT
BRANCH   3   5
HETATM    5  C4  UNL     1     -32.601   8.784   4.897  1.00 20.00     0.028 C 
BRANCH   5   6
HETATM    6  C5  UNL     1     -32.319   9.100   3.426  1.00 20.00     0.005 C 
BRANCH   6   7
HETATM    7  C6  UNL     1     -32.173   7.817   2.603  1.00 20.00     0.015 C 
BRANCH   7   8
HETATM    8  C7  UNL     1     -32.151   8.063   1.098  1.00 20.00     0.114 C 
HETATM    9 CL9  UNL     1     -32.778   9.673   0.676  1.00 20.00    -0.130 Cl
ENDBRANCH   7   8
ENDBRANCH   6   7
ENDBRANCH   5   6
ENDBRANCH   3   5
TORSDOF 4
ENDMDL
MODEL 7
REMARK VINA RESULT:      -3.7     12.363     12.852
REMARK  4 active torsions:
REMARK  status: ('A' for Active; 'I' for Inactive)
REMARK    1  A    between atoms: C3_3  and  C4_4 
REMARK    2  A    between atoms: C4_4  and  C5_5 
REMARK    3  A    between atoms: C5_5  and  C6_6 
REMARK    4  A    between atoms: C6_6  and  C7_7 
ROOT
HETATM    1  C1  UNL     1     -27.683  18.495   4.331  1.00 20.00     0.087 C 
HETATM    2  C2  UNL     1     -28.761  18.586   3.412  1.00 20.00     0.089 C 
HETATM    3  C3  UNL     1     -29.979  18.993   3.796  1.00 20.00    -0.016 C 
HETATM    4  N8  UNL     1     -26.799  18.419   5.080  1.00 20.00    -0.192 NA
ENDROOT
BRANCH   3   5
HETATM    5  C4  UNL     1     -31.151  19.099   2.863  1.00 20.00     0.028 C 
BRANCH   5   6
HETATM    6  C5  UNL     1     -30.964  18.208   1.632  1.00 20.00     0.005 C 
BRANCH   6   7
HETATM    7  C6  UNL     1     -31.058  19.022   0.339  1.00 20.00     0.015 C 
BRANCH   7   8
HETATM    8  C7  UNL     1     -32.018  18.424  -0.684  1.00 20.00     0.114 C 
HETATM    9 CL9  UNL     1     -33.579  17.980   0.045  1.00 20.00    -0.130 Cl
ENDBRANCH   7   8
ENDBRANCH   6   7
ENDBRANCH   5   6
ENDBRANCH   3   5
TORSDOF 4
ENDMDL
MODEL 8
REMARK VINA RESULT:      -3.7      2.109      2.728
REMARK  4 active torsions:
REMARK  status: ('A' for Active; 'I' for Inactive)
REMARK    1  A    between atoms: C3_3  and  C4_4 
REMARK    2  A    between atoms: C4_4  and  C5_5 
REMARK    3  A    between atoms: C5_5  and  C6_6 
REMARK    4  A    between atoms: C6_6  and  C7_7 
ROOT
HETATM    1  C1  UNL     1     -32.314   8.941   4.652  1.00 20.00     0.087 C 
HETATM    2  C2  UNL     1     -33.046   7.936   3.967  1.00 20.00     0.089 C 
HETATM    3  C3  UNL     1     -32.455   6.821   3.517  1.00 20.00    -0.016 C 
HETATM    4  N8  UNL     1     -31.719   9.766   5.211  1.00 20.00    -0.192 NA
ENDROOT
BRANCH   3   5
HETATM    5  C4  UNL     1     -33.186   5.733   2.782  1.00 20.00     0.028 C 
BRANCH   5   6
HETATM    6  C5  UNL     1     -33.719   4.672   3.748  1.00 20.00     0.005 C 
BRANCH   6   7
HETATM    7  C6  UNL     1     -34.868   5.224   4.596  1.00 20.00     0.015 C 
BRANCH   7   8
HETATM    8  C7  UNL     1     -34.582   5.199   6.094  1.00 20.00     0.114 C 
HETATM    9 CL9  UNL     1     -34.386   6.835   6.764  1.00 20.00    -0.130 Cl
ENDBRANCH   7   8
ENDBRANCH   6   7
ENDBRANCH   5   6
ENDBRANCH   3   5
TORSDOF 4
ENDMDL
MODEL 9
REMARK VINA RESULT:      -3.6     12.065     12.486
REMARK  4 active torsions:
REMARK  status: ('A' for Active; 'I' for Inactive)
REMARK    1  A    between atoms: C3_3  and  C4_4 
REMARK    2  A    between atoms: C4_4  and  C5_5 
REMARK    3  A    between atoms: C5_5  and  C6_6 
REMARK    4  A    between atoms: C6_6  and  C7_7 
ROOT
HETATM    1  C1  UNL     1     -31.009  18.740   2.980  1.00 20.00     0.087 C 
HETATM    2  C2  UNL     1     -30.902  18.336   1.623  1.00 20.00     0.089 C 
HETATM    3  C3  UNL     1     -31.749  18.786   0.687  1.00 20.00    -0.016 C 
HETATM    4  N8  UNL     1     -31.094  19.067   4.090  1.00 20.00    -0.192 NA
ENDROOT
BRANCH   3   5
HETATM    5  C4  UNL     1     -31.681  18.383  -0.758  1.00 20.00     0.028 C 
BRANCH   5   6
HETATM    6  C5  UNL     1     -33.071  18.374  -1.398  1.00 20.00     0.005 C 
BRANCH   6   7
HETATM    7  C6  UNL     1     -33.458  16.966  -1.862  1.00 20.00     0.015 C 
BRANCH   7   8
HETATM    8  C7  UNL     1     -33.317  16.766  -3.368  1.00 20.00     0.114 C 
HETATM    9 CL9  UNL     1     -33.681  15.095  -3.855  1.00 20.00    -0.130 Cl
ENDBRANCH   7   8
ENDBRANCH   6   7
ENDBRANCH   5   6
ENDBRANCH   3   5
TORSDOF 4
ENDMDL
