MODEL 1
REMARK VINA RESULT:      -3.1      0.000      0.000
REMARK  2 active torsions:
REMARK  status: ('A' for Active; 'I' for Inactive)
REMARK    1  A    between atoms: C3_3  and  C9_9 
REMARK    2  A    between atoms: C3_3  and  S10_10 
ROOT
HETATM    1  C1  UNL     1     -34.961  15.174  -6.577  1.00 20.00     0.010 A 
HETATM    2  C2  UNL     1     -34.923  14.784  -5.106  1.00 20.00    -0.025 A 
HETATM    3  C3  UNL     1     -35.431  16.183  -5.533  1.00 20.00     0.019 A 
HETATM    4  C4  UNL     1     -33.735  15.359  -7.402  1.00 20.00     0.012 C 
HETATM    5  C5  UNL     1     -35.903  13.712  -4.668  1.00 20.00     0.017 C 
HETATM    6  C6  UNL     1     -33.605  14.658  -4.375  1.00 20.00     0.017 C 
ENDROOT
BRANCH   3   7
HETATM    7  C9  UNL     1     -34.613  17.420  -5.244  1.00 20.00    -0.003 C 
HETATM    8  C7  UNL     1     -34.791  18.469  -6.347  1.00 20.00     0.011 C 
HETATM    9  C8  UNL     1     -34.983  18.022  -3.884  1.00 20.00     0.011 C 
ENDBRANCH   3   7
BRANCH   3  10
HETATM   10  S10 UNL     1     -37.171  16.541  -5.476  1.00 20.00    -0.171 SA
HETATM   11  H28 UNL     1     -37.409  16.085  -4.234  1.00 20.00     0.102 HD
ENDBRANCH   3  10
TORSDOF 2
ENDMDL
MODEL 2
REMARK VINA RESULT:      -3.0     13.255     14.449
REMARK  2 active torsions:
REMARK  status: ('A' for Active; 'I' for Inactive)
REMARK    1  A    between atoms: C3_3  and  C9_9 
REMARK    2  A    between atoms: C3_3  and  S10_10 
ROOT
HETATM    1  C1  UNL     1     -42.872  14.102   5.915  1.00 20.00     0.010 A 
HETATM    2  C2  UNL     1     -42.254  12.946   6.689  1.00 20.00    -0.025 A 
HETATM    3  C3  UNL     1     -42.243  14.379   7.278  1.00 20.00     0.019 A 
HETATM    4  C4  UNL     1     -42.312  14.617   4.634  1.00 20.00     0.012 C 
HETATM    5  C5  UNL     1     -43.216  11.904   7.224  1.00 20.00     0.017 C 
HETATM    6  C6  UNL     1     -40.957  12.318   6.230  1.00 20.00     0.017 C 
ENDROOT
BRANCH   3   7
HETATM    7  C9  UNL     1     -40.954  15.160   7.380  1.00 20.00    -0.003 C 
HETATM    8  C7  UNL     1     -41.204  16.662   7.209  1.00 20.00     0.011 C 
HETATM    9  C8  UNL     1     -40.250  14.894   8.715  1.00 20.00     0.011 C 
ENDBRANCH   3   7
BRANCH   3  10
HETATM   10  S10 UNL     1     -43.344  14.789   8.611  1.00 20.00    -0.171 SA
HETATM   11  H28 UNL     1     -42.435  15.345   9.431  1.00 20.00     0.102 HD
ENDBRANCH   3  10
TORSDOF 2
ENDMDL
MODEL 3
REMARK VINA RESULT:      -2.8     13.084     14.409
REMARK  2 active torsions:
REMARK  status: ('A' for Active; 'I' for Inactive)
REMARK    1  A    between atoms: C3_3  and  C9_9 
REMARK    2  A    between atoms: C3_3  and  S10_10 
ROOT
HETATM    1  C1  UNL     1     -42.000  12.765   7.158  1.00 20.00     0.010 A 
HETATM    2  C2  UNL     1     -40.931  13.239   6.183  1.00 20.00    -0.025 A 
HETATM    3  C3  UNL     1     -41.402  14.157   7.338  1.00 20.00     0.019 A 
HETATM    4  C4  UNL     1     -43.416  12.527   6.760  1.00 20.00     0.012 C 
HETATM    5  C5  UNL     1     -39.590  12.534   6.260  1.00 20.00     0.017 C 
HETATM    6  C6  UNL     1     -41.290  13.591   4.757  1.00 20.00     0.017 C 
ENDROOT
BRANCH   3   7
HETATM    7  C9  UNL     1     -42.231  15.388   7.055  1.00 20.00    -0.003 C 
HETATM    8  C7  UNL     1     -43.304  15.590   8.131  1.00 20.00     0.011 C 
HETATM    9  C8  UNL     1     -41.350  16.637   6.953  1.00 20.00     0.011 C 
ENDBRANCH   3   7
BRANCH   3  10
HETATM   10  S10 UNL     1     -40.347  14.409   8.746  1.00 20.00    -0.171 SA
HETATM   11  H28 UNL     1     -40.215  13.121   9.106  1.00 20.00     0.102 HD
ENDBRANCH   3  10
TORSDOF 2
ENDMDL
MODEL 4
REMARK VINA RESULT:      -2.8     13.432     14.711
REMARK  2 active torsions:
REMARK  status: ('A' for Active; 'I' for Inactive)
REMARK    1  A    between atoms: C3_3  and  C9_9 
REMARK    2  A    between atoms: C3_3  and  S10_10 
ROOT
HETATM    1  C1  UNL     1     -40.995  13.761   6.122  1.00 20.00     0.010 A 
HETATM    2  C2  UNL     1     -42.483  13.556   6.366  1.00 20.00    -0.025 A 
HETATM    3  C3  UNL     1     -41.681  14.568   7.220  1.00 20.00     0.019 A 
HETATM    4  C4  UNL     1     -39.973  12.712   6.393  1.00 20.00     0.012 C 
HETATM    5  C5  UNL     1     -43.417  14.043   5.275  1.00 20.00     0.017 C 
HETATM    6  C6  UNL     1     -42.992  12.281   7.001  1.00 20.00     0.017 C 
ENDROOT
BRANCH   3   7
HETATM    7  C9  UNL     1     -41.385  14.285   8.675  1.00 20.00    -0.003 C 
HETATM    8  C7  UNL     1     -40.110  15.002   9.129  1.00 20.00     0.011 C 
HETATM    9  C8  UNL     1     -42.562  14.693   9.568  1.00 20.00     0.011 C 
ENDBRANCH   3   7
BRANCH   3  10
HETATM   10  S10 UNL     1     -41.885  16.311   6.939  1.00 20.00    -0.171 SA
HETATM   11  H28 UNL     1     -42.258  16.653   8.185  1.00 20.00     0.102 HD
ENDBRANCH   3  10
TORSDOF 2
ENDMDL
MODEL 5
REMARK VINA RESULT:      -2.8      2.096      3.668
REMARK  2 active torsions:
REMARK  status: ('A' for Active; 'I' for Inactive)
REMARK    1  A    between atoms: C3_3  and  C9_9 
REMARK    2  A    between atoms: C3_3  and  S10_10 
ROOT
HETATM    1  C1  UNL     1     -33.098  17.985  -3.887  1.00 20.00     0.010 A 
HETATM    2  C2  UNL     1     -34.170  17.676  -2.850  1.00 20.00    -0.025 A 
HETATM    3  C3  UNL     1     -34.105  16.874  -4.174  1.00 20.00     0.019 A 
HETATM    4  C4  UNL     1     -33.048  19.263  -4.650  1.00 20.00     0.012 C 
HETATM    5  C5  UNL     1     -33.691  17.054  -1.552  1.00 20.00     0.017 C 
HETATM    6  C6  UNL     1     -35.313  18.637  -2.614  1.00 20.00     0.017 C 
ENDROOT
BRANCH   3   7
HETATM    7  C9  UNL     1     -35.162  17.058  -5.238  1.00 20.00    -0.003 C 
HETATM    8  C7  UNL     1     -34.540  17.060  -6.639  1.00 20.00     0.011 C 
HETATM    9  C8  UNL     1     -36.237  15.970  -5.143  1.00 20.00     0.011 C 
ENDBRANCH   3   7
BRANCH   3  10
HETATM   10  S10 UNL     1     -33.497  15.205  -4.161  1.00 20.00    -0.171 SA
HETATM   11  H28 UNL     1     -34.576  14.624  -3.608  1.00 20.00     0.102 HD
ENDBRANCH   3  10
TORSDOF 2
ENDMDL
MODEL 6
REMARK VINA RESULT:      -2.7      1.645      3.572
REMARK  2 active torsions:
REMARK  status: ('A' for Active; 'I' for Inactive)
REMARK    1  A    between atoms: C3_3  and  C9_9 
REMARK    2  A    between atoms: C3_3  and  S10_10 
ROOT
HETATM    1  C1  UNL     1     -34.271  18.095  -5.319  1.00 20.00     0.010 A 
HETATM    2  C2  UNL     1     -35.471  17.848  -4.416  1.00 20.00    -0.025 A 
HETATM    3  C3  UNL     1     -34.596  16.665  -4.897  1.00 20.00     0.019 A 
HETATM    4  C4  UNL     1     -34.393  18.584  -6.721  1.00 20.00     0.012 C 
HETATM    5  C5  UNL     1     -35.358  18.358  -2.992  1.00 20.00     0.017 C 
HETATM    6  C6  UNL     1     -36.879  18.000  -4.947  1.00 20.00     0.017 C 
ENDROOT
BRANCH   3   7
HETATM    7  C9  UNL     1     -35.128  15.673  -5.906  1.00 20.00    -0.003 C 
HETATM    8  C7  UNL     1     -34.023  15.210  -6.861  1.00 20.00     0.011 C 
HETATM    9  C8  UNL     1     -35.760  14.463  -5.210  1.00 20.00     0.011 C 
ENDBRANCH   3   7
BRANCH   3  10
HETATM   10  S10 UNL     1     -33.477  15.880  -3.761  1.00 20.00    -0.171 SA
HETATM   11  H28 UNL     1     -33.421  14.680  -4.363  1.00 20.00     0.102 HD
ENDBRANCH   3  10
TORSDOF 2
ENDMDL
MODEL 7
REMARK VINA RESULT:      -2.7     13.659     15.202
REMARK  2 active torsions:
REMARK  status: ('A' for Active; 'I' for Inactive)
REMARK    1  A    between atoms: C3_3  and  C9_9 
REMARK    2  A    between atoms: C3_3  and  S10_10 
ROOT
HETATM    1  C1  UNL     1     -42.706  15.221   8.275  1.00 20.00     0.010 A 
HETATM    2  C2  UNL     1     -41.214  15.397   8.029  1.00 20.00    -0.025 A 
HETATM    3  C3  UNL     1     -42.055  14.469   7.117  1.00 20.00     0.019 A 
HETATM    4  C4  UNL     1     -43.257  14.546   9.483  1.00 20.00     0.012 C 
HETATM    5  C5  UNL     1     -40.770  16.761   7.535  1.00 20.00     0.017 C 
HETATM    6  C6  UNL     1     -40.200  14.795   8.975  1.00 20.00     0.017 C 
ENDROOT
BRANCH   3   7
HETATM    7  C9  UNL     1     -41.886  12.969   7.179  1.00 20.00    -0.003 C 
HETATM    8  C7  UNL     1     -43.230  12.254   7.003  1.00 20.00     0.011 C 
HETATM    9  C8  UNL     1     -40.890  12.482   6.122  1.00 20.00     0.011 C 
ENDBRANCH   3   7
BRANCH   3  10
HETATM   10  S10 UNL     1     -42.472  14.997   5.472  1.00 20.00    -0.171 SA
HETATM   11  H28 UNL     1     -42.817  13.794   4.980  1.00 20.00     0.102 HD
ENDBRANCH   3  10
TORSDOF 2
ENDMDL
MODEL 8
REMARK VINA RESULT:      -2.6      1.918      3.013
REMARK  2 active torsions:
REMARK  status: ('A' for Active; 'I' for Inactive)
REMARK    1  A    between atoms: C3_3  and  C9_9 
REMARK    2  A    between atoms: C3_3  and  S10_10 
ROOT
HETATM    1  C1  UNL     1     -35.788  16.165  -5.315  1.00 20.00     0.010 A 
HETATM    2  C2  UNL     1     -34.647  16.464  -6.277  1.00 20.00    -0.025 A 
HETATM    3  C3  UNL     1     -34.540  16.865  -4.785  1.00 20.00     0.019 A 
HETATM    4  C4  UNL     1     -37.121  16.823  -5.403  1.00 20.00     0.012 C 
HETATM    5  C5  UNL     1     -33.882  15.266  -6.807  1.00 20.00     0.017 C 
HETATM    6  C6  UNL     1     -34.789  17.539  -7.331  1.00 20.00     0.017 C 
ENDROOT
BRANCH   3   7
HETATM    7  C9  UNL     1     -34.595  18.317  -4.372  1.00 20.00    -0.003 C 
HETATM    8  C7  UNL     1     -35.275  18.478  -3.008  1.00 20.00     0.011 C 
HETATM    9  C8  UNL     1     -33.194  18.935  -4.335  1.00 20.00     0.011 C 
ENDBRANCH   3   7
BRANCH   3  10
HETATM   10  S10 UNL     1     -33.487  15.933  -3.698  1.00 20.00    -0.171 SA
HETATM   11  H28 UNL     1     -32.538  16.869  -3.520  1.00 20.00     0.102 HD
ENDBRANCH   3  10
TORSDOF 2
ENDMDL
MODEL 9
REMARK VINA RESULT:      -2.6      1.565      2.342
REMARK  2 active torsions:
REMARK  status: ('A' for Active; 'I' for Inactive)
REMARK    1  A    between atoms: C3_3  and  C9_9 
REMARK    2  A    between atoms: C3_3  and  S10_10 
ROOT
HETATM    1  C1  UNL     1     -34.076  15.397  -5.897  1.00 20.00     0.010 A 
HETATM    2  C2  UNL     1     -35.558  15.427  -6.241  1.00 20.00    -0.025 A 
HETATM    3  C3  UNL     1     -34.823  16.726  -5.828  1.00 20.00     0.019 A 
HETATM    4  C4  UNL     1     -33.532  14.699  -4.698  1.00 20.00     0.012 C 
HETATM    5  C5  UNL     1     -35.917  15.177  -7.693  1.00 20.00     0.017 C 
HETATM    6  C6  UNL     1     -36.579  14.818  -5.306  1.00 20.00     0.017 C 
ENDROOT
BRANCH   3   7
HETATM    7  C9  UNL     1     -35.100  17.378  -4.493  1.00 20.00    -0.003 C 
HETATM    8  C7  UNL     1     -33.849  18.075  -3.948  1.00 20.00     0.011 C 
HETATM    9  C8  UNL     1     -36.255  18.380  -4.598  1.00 20.00     0.011 C 
ENDBRANCH   3   7
BRANCH   3  10
HETATM   10  S10 UNL     1     -34.428  17.943  -7.062  1.00 20.00    -0.171 SA
HETATM   11  H28 UNL     1     -33.299  18.409  -6.500  1.00 20.00     0.102 HD
ENDBRANCH   3  10
TORSDOF 2
ENDMDL
