MODEL 1
REMARK VINA RESULT:      -5.5      0.000      0.000
REMARK  1 active torsions:
REMARK  status: ('A' for Active; 'I' for Inactive)
REMARK    1  A    between atoms: C7_7  and  C10_10 
ROOT
HETATM    1  C1  UNL     1     -32.817   8.515   5.401  1.00 20.00    -0.023 C 
HETATM    2  C2  UNL     1     -33.741   8.523   4.379  1.00 20.00    -0.012 C 
HETATM    3  C3  UNL     1     -35.047   6.089   4.699  1.00 20.00     0.140 C 
HETATM    4  C4  UNL     1     -34.754   5.319   6.005  1.00 20.00     0.080 C 
HETATM    5  C5  UNL     1     -33.438   5.996   6.539  1.00 20.00     0.017 C 
HETATM    6  C6  UNL     1     -33.605   7.412   6.043  1.00 20.00     0.028 C 
HETATM    7  C7  UNL     1     -33.810   7.004   4.498  1.00 20.00     0.048 C 
HETATM    8  O11 UNL     1     -36.047   5.941   4.015  1.00 20.00    -0.297 OA
ENDROOT
BRANCH   7   9
HETATM    9  C10 UNL     1     -32.778   6.307   3.589  1.00 20.00    -0.002 C 
HETATM   10  C8  UNL     1     -33.385   5.054   2.976  1.00 20.00     0.011 C 
HETATM   11  C9  UNL     1     -32.298   7.270   2.512  1.00 20.00     0.011 C 
ENDBRANCH   7   9
TORSDOF 1
ENDMDL
MODEL 2
REMARK VINA RESULT:      -3.8     12.516     13.965
REMARK  1 active torsions:
REMARK  status: ('A' for Active; 'I' for Inactive)
REMARK    1  A    between atoms: C7_7  and  C10_10 
ROOT
HETATM    1  C1  UNL     1     -33.895  15.111  -3.905  1.00 20.00    -0.023 C 
HETATM    2  C2  UNL     1     -33.690  15.924  -4.998  1.00 20.00    -0.012 C 
HETATM    3  C3  UNL     1     -33.185  18.403  -3.846  1.00 20.00     0.140 C 
HETATM    4  C4  UNL     1     -32.958  18.418  -2.320  1.00 20.00     0.080 C 
HETATM    5  C5  UNL     1     -33.533  17.030  -1.853  1.00 20.00     0.017 C 
HETATM    6  C6  UNL     1     -33.248  16.166  -3.057  1.00 20.00     0.028 C 
HETATM    7  C7  UNL     1     -34.014  17.117  -4.107  1.00 20.00     0.048 C 
HETATM    8  O11 UNL     1     -32.788  19.263  -4.616  1.00 20.00    -0.297 OA
ENDROOT
BRANCH   7   9
HETATM    9  C10 UNL     1     -35.519  17.450  -4.114  1.00 20.00    -0.002 C 
HETATM   10  C8  UNL     1     -35.776  18.725  -3.324  1.00 20.00     0.011 C 
HETATM   11  C9  UNL     1     -36.018  17.582  -5.546  1.00 20.00     0.011 C 
ENDBRANCH   7   9
TORSDOF 1
ENDMDL
MODEL 3
REMARK VINA RESULT:      -3.8     12.407     13.948
REMARK  1 active torsions:
REMARK  status: ('A' for Active; 'I' for Inactive)
REMARK    1  A    between atoms: C7_7  and  C10_10 
ROOT
HETATM    1  C1  UNL     1     -35.634  18.074  -4.819  1.00 20.00    -0.023 C 
HETATM    2  C2  UNL     1     -34.377  17.913  -5.357  1.00 20.00    -0.012 C 
HETATM    3  C3  UNL     1     -34.497  15.371  -6.476  1.00 20.00     0.140 C 
HETATM    4  C4  UNL     1     -35.895  14.722  -6.558  1.00 20.00     0.080 C 
HETATM    5  C5  UNL     1     -36.752  15.576  -5.552  1.00 20.00     0.017 C 
HETATM    6  C6  UNL     1     -36.096  16.930  -5.673  1.00 20.00     0.028 C 
HETATM    7  C7  UNL     1     -34.612  16.408  -5.327  1.00 20.00     0.048 C 
HETATM    8  O11 UNL     1     -33.548  15.069  -7.183  1.00 20.00    -0.297 OA
ENDROOT
BRANCH   7   9
HETATM    9  C10 UNL     1     -34.148  15.778  -3.998  1.00 20.00    -0.002 C 
HETATM   10  C8  UNL     1     -33.670  14.353  -4.235  1.00 20.00     0.011 C 
HETATM   11  C9  UNL     1     -33.051  16.629  -3.374  1.00 20.00     0.011 C 
ENDBRANCH   7   9
TORSDOF 1
ENDMDL
MODEL 4
REMARK VINA RESULT:      -3.8      9.463     10.782
REMARK  1 active torsions:
REMARK  status: ('A' for Active; 'I' for Inactive)
REMARK    1  A    between atoms: C7_7  and  C10_10 
ROOT
HETATM    1  C1  UNL     1     -39.443  12.805   5.440  1.00 20.00    -0.023 C 
HETATM    2  C2  UNL     1     -39.709  12.262   6.678  1.00 20.00    -0.012 C 
HETATM    3  C3  UNL     1     -42.341  13.026   7.142  1.00 20.00     0.140 C 
HETATM    4  C4  UNL     1     -43.102  13.632   5.944  1.00 20.00     0.080 C 
HETATM    5  C5  UNL     1     -41.953  14.021   4.942  1.00 20.00     0.017 C 
HETATM    6  C6  UNL     1     -40.922  12.960   5.241  1.00 20.00     0.028 C 
HETATM    7  C7  UNL     1     -40.843  13.271   6.820  1.00 20.00     0.048 C 
HETATM    8  O11 UNL     1     -42.871  12.503   8.109  1.00 20.00    -0.297 OA
ENDROOT
BRANCH   7   9
HETATM    9  C10 UNL     1     -40.369  14.584   7.473  1.00 20.00    -0.002 C 
HETATM   10  C8  UNL     1     -41.358  15.702   7.176  1.00 20.00     0.011 C 
HETATM   11  C9  UNL     1     -40.196  14.388   8.973  1.00 20.00     0.011 C 
ENDBRANCH   7   9
TORSDOF 1
ENDMDL
MODEL 5
REMARK VINA RESULT:      -3.6     12.416     13.874
REMARK  1 active torsions:
REMARK  status: ('A' for Active; 'I' for Inactive)
REMARK    1  A    between atoms: C7_7  and  C10_10 
ROOT
HETATM    1  C1  UNL     1     -34.621  18.156  -4.243  1.00 20.00    -0.023 C 
HETATM    2  C2  UNL     1     -35.806  17.747  -4.814  1.00 20.00    -0.012 C 
HETATM    3  C3  UNL     1     -35.439  15.009  -5.125  1.00 20.00     0.140 C 
HETATM    4  C4  UNL     1     -34.208  14.397  -4.424  1.00 20.00     0.080 C 
HETATM    5  C5  UNL     1     -33.307  15.649  -4.112  1.00 20.00     0.017 C 
HETATM    6  C6  UNL     1     -34.347  16.722  -3.898  1.00 20.00     0.028 C 
HETATM    7  C7  UNL     1     -35.078  16.506  -5.317  1.00 20.00     0.048 C 
HETATM    8  O11 UNL     1     -36.437  14.384  -5.447  1.00 20.00    -0.297 OA
ENDROOT
BRANCH   7   9
HETATM    9  C10 UNL     1     -34.458  16.726  -6.710  1.00 20.00    -0.002 C 
HETATM   10  C8  UNL     1     -33.933  15.409  -7.263  1.00 20.00     0.011 C 
HETATM   11  C9  UNL     1     -35.487  17.344  -7.647  1.00 20.00     0.011 C 
ENDBRANCH   7   9
TORSDOF 1
ENDMDL
MODEL 6
REMARK VINA RESULT:      -3.6     12.240     13.955
REMARK  1 active torsions:
REMARK  status: ('A' for Active; 'I' for Inactive)
REMARK    1  A    between atoms: C7_7  and  C10_10 
ROOT
HETATM    1  C1  UNL     1     -32.988  15.145  -4.408  1.00 20.00    -0.023 C 
HETATM    2  C2  UNL     1     -34.167  15.241  -3.702  1.00 20.00    -0.012 C 
HETATM    3  C3  UNL     1     -36.078  15.475  -5.707  1.00 20.00     0.140 C 
HETATM    4  C4  UNL     1     -35.598  15.204  -7.149  1.00 20.00     0.080 C 
HETATM    5  C5  UNL     1     -34.032  15.310  -7.036  1.00 20.00     0.017 C 
HETATM    6  C6  UNL     1     -33.798  14.820  -5.628  1.00 20.00     0.028 C 
HETATM    7  C7  UNL     1     -34.794  15.880  -4.935  1.00 20.00     0.048 C 
HETATM    8  O11 UNL     1     -37.237  15.389  -5.334  1.00 20.00    -0.297 OA
ENDROOT
BRANCH   7   9
HETATM    9  C10 UNL     1     -34.642  17.414  -4.930  1.00 20.00    -0.002 C 
HETATM   10  C8  UNL     1     -35.449  18.023  -6.068  1.00 20.00     0.011 C 
HETATM   11  C9  UNL     1     -35.077  17.977  -3.585  1.00 20.00     0.011 C 
ENDBRANCH   7   9
TORSDOF 1
ENDMDL
MODEL 7
REMARK VINA RESULT:      -3.6     12.230     13.864
REMARK  1 active torsions:
REMARK  status: ('A' for Active; 'I' for Inactive)
REMARK    1  A    between atoms: C7_7  and  C10_10 
ROOT
HETATM    1  C1  UNL     1     -33.572  16.095  -3.333  1.00 20.00    -0.023 C 
HETATM    2  C2  UNL     1     -33.349  14.990  -4.125  1.00 20.00    -0.012 C 
HETATM    3  C3  UNL     1     -34.208  15.834  -6.631  1.00 20.00     0.140 C 
HETATM    4  C4  UNL     1     -34.503  17.341  -6.784  1.00 20.00     0.080 C 
HETATM    5  C5  UNL     1     -34.632  17.839  -5.297  1.00 20.00     0.017 C 
HETATM    6  C6  UNL     1     -33.676  16.914  -4.586  1.00 20.00     0.028 C 
HETATM    7  C7  UNL     1     -34.364  15.556  -5.112  1.00 20.00     0.048 C 
HETATM    8  O11 UNL     1     -33.938  15.081  -7.554  1.00 20.00    -0.297 OA
ENDROOT
BRANCH   7   9
HETATM    9  C10 UNL     1     -35.796  15.075  -4.806  1.00 20.00    -0.002 C 
HETATM   10  C8  UNL     1     -36.753  15.567  -5.883  1.00 20.00     0.011 C 
HETATM   11  C9  UNL     1     -35.825  13.557  -4.697  1.00 20.00     0.011 C 
ENDBRANCH   7   9
TORSDOF 1
ENDMDL
MODEL 8
REMARK VINA RESULT:      -3.5     12.347     13.738
REMARK  1 active torsions:
REMARK  status: ('A' for Active; 'I' for Inactive)
REMARK    1  A    between atoms: C7_7  and  C10_10 
ROOT
HETATM    1  C1  UNL     1     -28.687  -2.480  10.834  1.00 20.00    -0.023 C 
HETATM    2  C2  UNL     1     -27.845  -1.814   9.971  1.00 20.00    -0.012 C 
HETATM    3  C3  UNL     1     -25.450  -3.199  10.241  1.00 20.00     0.140 C 
HETATM    4  C4  UNL     1     -25.511  -4.530  11.020  1.00 20.00     0.080 C 
HETATM    5  C5  UNL     1     -26.878  -4.438  11.793  1.00 20.00     0.017 C 
HETATM    6  C6  UNL     1     -27.709  -3.617  10.837  1.00 20.00     0.028 C 
HETATM    7  C7  UNL     1     -26.670  -2.389  10.754  1.00 20.00     0.048 C 
HETATM    8  O11 UNL     1     -24.586  -2.908   9.429  1.00 20.00    -0.297 OA
ENDROOT
BRANCH   7   9
HETATM    9  C10 UNL     1     -26.245  -1.468  11.915  1.00 20.00    -0.002 C 
HETATM   10  C8  UNL     1     -24.741  -1.557  12.127  1.00 20.00     0.011 C 
HETATM   11  C9  UNL     1     -26.676  -0.036  11.629  1.00 20.00     0.011 C 
ENDBRANCH   7   9
TORSDOF 1
ENDMDL
MODEL 9
REMARK VINA RESULT:      -3.4     12.552     13.875
REMARK  1 active torsions:
REMARK  status: ('A' for Active; 'I' for Inactive)
REMARK    1  A    between atoms: C7_7  and  C10_10 
ROOT
HETATM    1  C1  UNL     1     -33.726  17.273  -1.315  1.00 20.00    -0.023 C 
HETATM    2  C2  UNL     1     -32.712  17.349  -2.243  1.00 20.00    -0.012 C 
HETATM    3  C3  UNL     1     -33.921  18.643  -4.386  1.00 20.00     0.140 C 
HETATM    4  C4  UNL     1     -35.309  19.262  -4.120  1.00 20.00     0.080 C 
HETATM    5  C5  UNL     1     -35.775  18.553  -2.795  1.00 20.00     0.017 C 
HETATM    6  C6  UNL     1     -34.457  18.325  -2.096  1.00 20.00     0.028 C 
HETATM    7  C7  UNL     1     -33.777  17.526  -3.318  1.00 20.00     0.048 C 
HETATM    8  O11 UNL     1     -33.162  18.994  -5.276  1.00 20.00    -0.297 OA
ENDROOT
BRANCH   7   9
HETATM    9  C10 UNL     1     -34.240  16.175  -3.900  1.00 20.00    -0.002 C 
HETATM   10  C8  UNL     1     -34.906  16.390  -5.252  1.00 20.00     0.011 C 
HETATM   11  C9  UNL     1     -33.056  15.225  -4.016  1.00 20.00     0.011 C 
ENDBRANCH   7   9
TORSDOF 1
ENDMDL
