MODEL 1
REMARK VINA RESULT:      -4.6      0.000      0.000
REMARK  2 active torsions:
REMARK  status: ('A' for Active; 'I' for Inactive)
REMARK    1  A    between atoms: C2_2  and  C5_5 
REMARK    2  A    between atoms: C7_7  and  C10_10 
ROOT
HETATM    1  C1  UNL     1     -33.853   6.590   3.436  1.00 20.00    -0.006 A 
HETATM    2  C2  UNL     1     -32.821   7.437   3.449  1.00 20.00     0.005 A 
HETATM    3  C3  UNL     1     -32.880   8.118   4.756  1.00 20.00     0.159 A 
HETATM    4  C6  UNL     1     -34.061   7.661   5.566  1.00 20.00     0.092 A 
HETATM    5  C7  UNL     1     -34.696   6.586   4.679  1.00 20.00     0.019 A 
HETATM    6  O11 UNL     1     -32.073   8.959   5.125  1.00 20.00    -0.292 OA
ENDROOT
BRANCH   5   7
HETATM    7  C10 UNL     1     -34.700   5.215   5.347  1.00 20.00    -0.015 C 
HETATM    8  C8  UNL     1     -33.950   4.195   4.490  1.00 20.00     0.010 C 
HETATM    9  C9  UNL     1     -34.085   5.293   6.744  1.00 20.00     0.010 C 
ENDBRANCH   5   7
BRANCH   2  10
HETATM   10  C5  UNL     1     -31.847   7.672   2.437  1.00 20.00     0.004 C 
HETATM   11  C4  UNL     1     -32.195   8.296   1.288  1.00 20.00     0.012 C 
ENDBRANCH   2  10
TORSDOF 2
ENDMDL
MODEL 2
REMARK VINA RESULT:      -4.5      1.070      4.284
REMARK  2 active torsions:
REMARK  status: ('A' for Active; 'I' for Inactive)
REMARK    1  A    between atoms: C2_2  and  C5_5 
REMARK    2  A    between atoms: C7_7  and  C10_10 
ROOT
HETATM    1  C1  UNL     1     -33.150   6.477   3.253  1.00 20.00    -0.006 A 
HETATM    2  C2  UNL     1     -33.835   6.599   4.392  1.00 20.00     0.005 A 
HETATM    3  C3  UNL     1     -33.460   7.914   4.944  1.00 20.00     0.159 A 
HETATM    4  C6  UNL     1     -32.446   8.610   4.079  1.00 20.00     0.092 A 
HETATM    5  C7  UNL     1     -32.272   7.645   2.903  1.00 20.00     0.019 A 
HETATM    6  O11 UNL     1     -33.911   8.372   5.984  1.00 20.00    -0.292 OA
ENDROOT
BRANCH   5   7
HETATM    7  C10 UNL     1     -32.680   8.274   1.575  1.00 20.00    -0.015 C 
HETATM    8  C8  UNL     1     -32.932   9.772   1.743  1.00 20.00     0.010 C 
HETATM    9  C9  UNL     1     -31.612   8.028   0.511  1.00 20.00     0.010 C 
ENDBRANCH   5   7
BRANCH   2  10
HETATM   10  C5  UNL     1     -34.743   5.679   4.990  1.00 20.00     0.004 C 
HETATM   11  C4  UNL     1     -34.479   5.159   6.211  1.00 20.00     0.012 C 
ENDBRANCH   2  10
TORSDOF 2
ENDMDL
MODEL 3
REMARK VINA RESULT:      -4.3     11.860     12.919
REMARK  2 active torsions:
REMARK  status: ('A' for Active; 'I' for Inactive)
REMARK    1  A    between atoms: C2_2  and  C5_5 
REMARK    2  A    between atoms: C7_7  and  C10_10 
ROOT
HETATM    1  C1  UNL     1     -33.379  16.858  -1.747  1.00 20.00    -0.006 A 
HETATM    2  C2  UNL     1     -33.638  16.734  -3.051  1.00 20.00     0.005 A 
HETATM    3  C3  UNL     1     -34.524  17.862  -3.392  1.00 20.00     0.159 A 
HETATM    4  C6  UNL     1     -34.842  18.701  -2.185  1.00 20.00     0.092 A 
HETATM    5  C7  UNL     1     -34.022  18.037  -1.075  1.00 20.00     0.019 A 
HETATM    6  O11 UNL     1     -34.955  18.078  -4.515  1.00 20.00    -0.292 OA
ENDROOT
BRANCH   5   7
HETATM    7  C10 UNL     1     -32.981  18.980  -0.484  1.00 20.00    -0.015 C 
HETATM    8  C8  UNL     1     -33.279  19.259   0.989  1.00 20.00     0.010 C 
HETATM    9  C9  UNL     1     -31.575  18.402  -0.643  1.00 20.00     0.010 C 
ENDBRANCH   5   7
BRANCH   2  10
HETATM   10  C5  UNL     1     -33.182  15.737  -3.960  1.00 20.00     0.004 C 
HETATM   11  C4  UNL     1     -33.885  14.593  -4.125  1.00 20.00     0.012 C 
ENDBRANCH   2  10
TORSDOF 2
ENDMDL
MODEL 4
REMARK VINA RESULT:      -4.2      9.555     10.839
REMARK  2 active torsions:
REMARK  status: ('A' for Active; 'I' for Inactive)
REMARK    1  A    between atoms: C2_2  and  C5_5 
REMARK    2  A    between atoms: C7_7  and  C10_10 
ROOT
HETATM    1  C1  UNL     1     -40.311  13.185   6.826  1.00 20.00    -0.006 A 
HETATM    2  C2  UNL     1     -40.429  12.952   5.516  1.00 20.00     0.005 A 
HETATM    3  C3  UNL     1     -41.430  13.919   5.028  1.00 20.00     0.159 A 
HETATM    4  C6  UNL     1     -41.971  14.768   6.145  1.00 20.00     0.092 A 
HETATM    5  C7  UNL     1     -41.171  14.294   7.361  1.00 20.00     0.019 A 
HETATM    6  O11 UNL     1     -41.783  14.007   3.861  1.00 20.00    -0.292 OA
ENDROOT
BRANCH   5   7
HETATM    7  C10 UNL     1     -40.329  15.410   7.970  1.00 20.00    -0.015 C 
HETATM    8  C8  UNL     1     -40.953  16.775   7.678  1.00 20.00     0.010 C 
HETATM    9  C9  UNL     1     -40.171  15.207   9.476  1.00 20.00     0.010 C 
ENDBRANCH   5   7
BRANCH   2  10
HETATM   10  C5  UNL     1     -39.757  11.983   4.718  1.00 20.00     0.004 C 
HETATM   11  C4  UNL     1     -38.425  11.792   4.856  1.00 20.00     0.012 C 
ENDBRANCH   2  10
TORSDOF 2
ENDMDL
MODEL 5
REMARK VINA RESULT:      -4.0      9.379     10.754
REMARK  2 active torsions:
REMARK  status: ('A' for Active; 'I' for Inactive)
REMARK    1  A    between atoms: C2_2  and  C5_5 
REMARK    2  A    between atoms: C7_7  and  C10_10 
ROOT
HETATM    1  C1  UNL     1     -40.401  14.105   6.550  1.00 20.00    -0.006 A 
HETATM    2  C2  UNL     1     -41.061  14.415   7.668  1.00 20.00     0.005 A 
HETATM    3  C3  UNL     1     -42.152  13.429   7.774  1.00 20.00     0.159 A 
HETATM    4  C6  UNL     1     -42.158  12.482   6.607  1.00 20.00     0.092 A 
HETATM    5  C7  UNL     1     -40.934  12.920   5.798  1.00 20.00     0.019 A 
HETATM    6  O11 UNL     1     -42.958  13.397   8.693  1.00 20.00    -0.292 OA
ENDROOT
BRANCH   5   7
HETATM    7  C10 UNL     1     -39.890  11.813   5.685  1.00 20.00    -0.015 C 
HETATM    8  C8  UNL     1     -39.350  11.725   4.258  1.00 20.00     0.010 C 
HETATM    9  C9  UNL     1     -38.749  12.045   6.674  1.00 20.00     0.010 C 
ENDBRANCH   5   7
BRANCH   2  10
HETATM   10  C5  UNL     1     -40.805  15.469   8.592  1.00 20.00     0.004 C 
HETATM   11  C4  UNL     1     -40.099  15.229   9.720  1.00 20.00     0.012 C 
ENDBRANCH   2  10
TORSDOF 2
ENDMDL
MODEL 6
REMARK VINA RESULT:      -4.0     12.001     13.819
REMARK  2 active torsions:
REMARK  status: ('A' for Active; 'I' for Inactive)
REMARK    1  A    between atoms: C2_2  and  C5_5 
REMARK    2  A    between atoms: C7_7  and  C10_10 
ROOT
HETATM    1  C1  UNL     1     -34.651  17.043  -4.632  1.00 20.00    -0.006 A 
HETATM    2  C2  UNL     1     -33.870  16.218  -3.931  1.00 20.00     0.005 A 
HETATM    3  C3  UNL     1     -34.002  14.898  -4.576  1.00 20.00     0.159 A 
HETATM    4  C6  UNL     1     -34.966  14.940  -5.729  1.00 20.00     0.092 A 
HETATM    5  C7  UNL     1     -35.371  16.416  -5.791  1.00 20.00     0.019 A 
HETATM    6  O11 UNL     1     -33.410  13.895  -4.207  1.00 20.00    -0.292 OA
ENDROOT
BRANCH   5   7
HETATM    7  C10 UNL     1     -34.978  17.067  -7.112  1.00 20.00    -0.015 C 
HETATM    8  C8  UNL     1     -34.305  18.418  -6.868  1.00 20.00     0.010 C 
HETATM    9  C9  UNL     1     -34.056  16.150  -7.914  1.00 20.00     0.010 C 
ENDBRANCH   5   7
BRANCH   2  10
HETATM   10  C5  UNL     1     -33.064  16.504  -2.791  1.00 20.00     0.004 C 
HETATM   11  C4  UNL     1     -33.578  17.204  -1.753  1.00 20.00     0.012 C 
ENDBRANCH   2  10
TORSDOF 2
ENDMDL
MODEL 7
REMARK VINA RESULT:      -4.0     11.728     13.111
REMARK  2 active torsions:
REMARK  status: ('A' for Active; 'I' for Inactive)
REMARK    1  A    between atoms: C2_2  and  C5_5 
REMARK    2  A    between atoms: C7_7  and  C10_10 
ROOT
HETATM    1  C1  UNL     1     -33.329  16.806  -3.280  1.00 20.00    -0.006 A 
HETATM    2  C2  UNL     1     -33.822  17.554  -2.290  1.00 20.00     0.005 A 
HETATM    3  C3  UNL     1     -34.998  18.240  -2.857  1.00 20.00     0.159 A 
HETATM    4  C6  UNL     1     -35.195  17.895  -4.307  1.00 20.00     0.092 A 
HETATM    5  C7  UNL     1     -34.080  16.881  -4.578  1.00 20.00     0.019 A 
HETATM    6  O11 UNL     1     -35.714  19.004  -2.226  1.00 20.00    -0.292 OA
ENDROOT
BRANCH   5   7
HETATM    7  C10 UNL     1     -34.626  15.518  -4.988  1.00 20.00    -0.015 C 
HETATM    8  C8  UNL     1     -34.378  15.263  -6.475  1.00 20.00     0.010 C 
HETATM    9  C9  UNL     1     -33.999  14.409  -4.144  1.00 20.00     0.010 C 
ENDBRANCH   5   7
BRANCH   2  10
HETATM   10  C5  UNL     1     -33.345  17.697  -0.956  1.00 20.00     0.004 C 
HETATM   11  C4  UNL     1     -32.167  18.319  -0.717  1.00 20.00     0.012 C 
ENDBRANCH   2  10
TORSDOF 2
ENDMDL
MODEL 8
REMARK VINA RESULT:      -3.9     11.919     13.133
REMARK  2 active torsions:
REMARK  status: ('A' for Active; 'I' for Inactive)
REMARK    1  A    between atoms: C2_2  and  C5_5 
REMARK    2  A    between atoms: C7_7  and  C10_10 
ROOT
HETATM    1  C1  UNL     1     -34.644  17.239  -4.733  1.00 20.00    -0.006 A 
HETATM    2  C2  UNL     1     -34.987  15.973  -4.982  1.00 20.00     0.005 A 
HETATM    3  C3  UNL     1     -34.057  15.145  -4.192  1.00 20.00     0.159 A 
HETATM    4  C6  UNL     1     -33.063  15.989  -3.444  1.00 20.00     0.092 A 
HETATM    5  C7  UNL     1     -33.496  17.418  -3.781  1.00 20.00     0.019 A 
HETATM    6  O11 UNL     1     -34.086  13.923  -4.163  1.00 20.00    -0.292 OA
ENDROOT
BRANCH   5   7
HETATM    7  C10 UNL     1     -33.915  18.202  -2.542  1.00 20.00    -0.015 C 
HETATM    8  C8  UNL     1     -35.375  18.640  -2.650  1.00 20.00     0.010 C 
HETATM    9  C9  UNL     1     -33.699  17.370  -1.278  1.00 20.00     0.010 C 
ENDBRANCH   5   7
BRANCH   2  10
HETATM   10  C5  UNL     1     -36.021  15.478  -5.828  1.00 20.00     0.004 C 
HETATM   11  C4  UNL     1     -35.749  15.141  -7.109  1.00 20.00     0.012 C 
ENDBRANCH   2  10
TORSDOF 2
ENDMDL
MODEL 9
REMARK VINA RESULT:      -3.7      1.991      4.395
REMARK  2 active torsions:
REMARK  status: ('A' for Active; 'I' for Inactive)
REMARK    1  A    between atoms: C2_2  and  C5_5 
REMARK    2  A    between atoms: C7_7  and  C10_10 
ROOT
HETATM    1  C1  UNL     1     -34.061   6.877   4.001  1.00 20.00    -0.006 A 
HETATM    2  C2  UNL     1     -34.272   5.816   4.784  1.00 20.00     0.005 A 
HETATM    3  C3  UNL     1     -33.729   4.661   4.044  1.00 20.00     0.159 A 
HETATM    4  C6  UNL     1     -33.185   5.068   2.703  1.00 20.00     0.092 A 
HETATM    5  C7  UNL     1     -33.373   6.587   2.698  1.00 20.00     0.019 A 
HETATM    6  O11 UNL     1     -33.734   3.514   4.468  1.00 20.00    -0.292 OA
ENDROOT
BRANCH   5   7
HETATM    7  C10 UNL     1     -32.048   7.333   2.587  1.00 20.00    -0.015 C 
HETATM    8  C8  UNL     1     -32.024   8.206   1.333  1.00 20.00     0.010 C 
HETATM    9  C9  UNL     1     -31.800   8.182   3.834  1.00 20.00     0.010 C 
ENDBRANCH   5   7
BRANCH   2  10
HETATM   10  C5  UNL     1     -34.890   5.761   6.066  1.00 20.00     0.004 C 
HETATM   11  C4  UNL     1     -34.569   6.668   7.016  1.00 20.00     0.012 C 
ENDBRANCH   2  10
TORSDOF 2
ENDMDL
