MODEL 1
REMARK VINA RESULT:      -4.1      0.000      0.000
REMARK  1 active torsions:
REMARK  status: ('A' for Active; 'I' for Inactive)
REMARK    1  A    between atoms: C8_8  and  C11_11 
ROOT
HETATM    1  C1  UNL     1     -34.464  18.095  -4.774  1.00 20.00    -0.079 C 
HETATM    2  C2  UNL     1     -36.663  15.642  -5.566  1.00 20.00     0.132 C 
HETATM    3  C3  UNL     1     -33.574  19.072  -4.929  1.00 20.00     0.015 C 
HETATM    4  C4  UNL     1     -35.915  18.017  -4.208  1.00 20.00     0.047 C 
HETATM    5  C5  UNL     1     -35.608  14.841  -6.336  1.00 20.00     0.080 C 
HETATM    6  C6  UNL     1     -34.372  15.811  -6.357  1.00 20.00     0.022 C 
HETATM    7  C7  UNL     1     -36.017  16.998  -5.333  1.00 20.00     0.072 C 
HETATM    8  C8  UNL     1     -34.490  16.602  -5.051  1.00 20.00    -0.004 C 
HETATM    9  O12 UNL     1     -37.765  15.225  -5.246  1.00 20.00    -0.298 OA
ENDROOT
BRANCH   8  10
HETATM   10  C11 UNL     1     -34.032  15.769  -3.846  1.00 20.00    -0.009 C 
HETATM   11  C9  UNL     1     -33.204  14.577  -4.311  1.00 20.00     0.011 C 
HETATM   12  C10 UNL     1     -33.238  16.636  -2.876  1.00 20.00     0.011 C 
ENDBRANCH   8  10
TORSDOF 1
ENDMDL
MODEL 2
REMARK VINA RESULT:      -3.9      1.437      3.057
REMARK  1 active torsions:
REMARK  status: ('A' for Active; 'I' for Inactive)
REMARK    1  A    between atoms: C8_8  and  C11_11 
ROOT
HETATM    1  C1  UNL     1     -33.649  16.738  -2.983  1.00 20.00    -0.079 C 
HETATM    2  C2  UNL     1     -34.727  15.623  -5.996  1.00 20.00     0.132 C 
HETATM    3  C3  UNL     1     -33.663  17.052  -1.690  1.00 20.00     0.015 C 
HETATM    4  C4  UNL     1     -32.877  15.693  -3.847  1.00 20.00     0.047 C 
HETATM    5  C5  UNL     1     -35.882  16.628  -6.039  1.00 20.00     0.080 C 
HETATM    6  C6  UNL     1     -35.836  17.283  -4.611  1.00 20.00     0.022 C 
HETATM    7  C7  UNL     1     -34.218  15.688  -4.565  1.00 20.00     0.072 C 
HETATM    8  C8  UNL     1     -34.354  17.248  -4.227  1.00 20.00    -0.004 C 
HETATM    9  O12 UNL     1     -34.351  14.944  -6.939  1.00 20.00    -0.298 OA
ENDROOT
BRANCH   8  10
HETATM   10  C11 UNL     1     -33.562  18.350  -4.945  1.00 20.00    -0.009 C 
HETATM   11  C9  UNL     1     -34.481  19.151  -5.860  1.00 20.00     0.011 C 
HETATM   12  C10 UNL     1     -32.880  19.259  -3.929  1.00 20.00     0.011 C 
ENDBRANCH   8  10
TORSDOF 1
ENDMDL
MODEL 3
REMARK VINA RESULT:      -3.7      1.897      3.994
REMARK  1 active torsions:
REMARK  status: ('A' for Active; 'I' for Inactive)
REMARK    1  A    between atoms: C8_8  and  C11_11 
ROOT
HETATM    1  C1  UNL     1     -34.111  15.553  -5.563  1.00 20.00    -0.079 C 
HETATM    2  C2  UNL     1     -33.621  17.123  -2.601  1.00 20.00     0.132 C 
HETATM    3  C3  UNL     1     -33.921  15.186  -6.829  1.00 20.00     0.015 C 
HETATM    4  C4  UNL     1     -34.055  14.814  -4.191  1.00 20.00     0.047 C 
HETATM    5  C5  UNL     1     -33.716  18.513  -3.237  1.00 20.00     0.080 C 
HETATM    6  C6  UNL     1     -33.773  18.197  -4.775  1.00 20.00     0.022 C 
HETATM    7  C7  UNL     1     -33.504  16.171  -3.781  1.00 20.00     0.072 C 
HETATM    8  C8  UNL     1     -34.484  16.843  -4.856  1.00 20.00    -0.004 C 
HETATM    9  O12 UNL     1     -33.635  16.897  -1.401  1.00 20.00    -0.298 OA
ENDROOT
BRANCH   8  10
HETATM   10  C11 UNL     1     -35.999  16.991  -4.656  1.00 20.00    -0.009 C 
HETATM   11  C9  UNL     1     -36.395  18.462  -4.688  1.00 20.00     0.011 C 
HETATM   12  C10 UNL     1     -36.751  16.203  -5.722  1.00 20.00     0.011 C 
ENDBRANCH   8  10
TORSDOF 1
ENDMDL
MODEL 4
REMARK VINA RESULT:      -3.7      1.260      2.466
REMARK  1 active torsions:
REMARK  status: ('A' for Active; 'I' for Inactive)
REMARK    1  A    between atoms: C8_8  and  C11_11 
ROOT
HETATM    1  C1  UNL     1     -34.756  16.560  -6.969  1.00 20.00    -0.079 C 
HETATM    2  C2  UNL     1     -35.800  14.135  -4.844  1.00 20.00     0.132 C 
HETATM    3  C3  UNL     1     -34.049  17.170  -7.918  1.00 20.00     0.015 C 
HETATM    4  C4  UNL     1     -36.243  16.111  -6.831  1.00 20.00     0.047 C 
HETATM    5  C5  UNL     1     -34.421  14.012  -4.188  1.00 20.00     0.080 C 
HETATM    6  C6  UNL     1     -33.517  14.932  -5.086  1.00 20.00     0.022 C 
HETATM    7  C7  UNL     1     -35.556  14.975  -6.088  1.00 20.00     0.072 C 
HETATM    8  C8  UNL     1     -34.465  16.031  -5.576  1.00 20.00    -0.004 C 
HETATM    9  O12 UNL     1     -36.829  13.638  -4.415  1.00 20.00    -0.298 OA
ENDROOT
BRANCH   8  10
HETATM   10  C11 UNL     1     -34.732  17.072  -4.480  1.00 20.00    -0.009 C 
HETATM   11  C9  UNL     1     -33.740  16.902  -3.336  1.00 20.00     0.011 C 
HETATM   12  C10 UNL     1     -34.656  18.480  -5.060  1.00 20.00     0.011 C 
ENDBRANCH   8  10
TORSDOF 1
ENDMDL
MODEL 5
REMARK VINA RESULT:      -3.5      1.580      3.403
REMARK  1 active torsions:
REMARK  status: ('A' for Active; 'I' for Inactive)
REMARK    1  A    between atoms: C8_8  and  C11_11 
ROOT
HETATM    1  C1  UNL     1     -34.521  16.820  -6.960  1.00 20.00    -0.079 C 
HETATM    2  C2  UNL     1     -34.091  14.782  -4.288  1.00 20.00     0.132 C 
HETATM    3  C3  UNL     1     -34.239  17.702  -7.917  1.00 20.00     0.015 C 
HETATM    4  C4  UNL     1     -34.929  15.315  -6.945  1.00 20.00     0.047 C 
HETATM    5  C5  UNL     1     -33.649  15.937  -3.384  1.00 20.00     0.080 C 
HETATM    6  C6  UNL     1     -33.536  17.145  -4.381  1.00 20.00     0.022 C 
HETATM    7  C7  UNL     1     -34.069  15.367  -5.691  1.00 20.00     0.072 C 
HETATM    8  C8  UNL     1     -34.600  16.858  -5.444  1.00 20.00    -0.004 C 
HETATM    9  O12 UNL     1     -34.377  13.659  -3.904  1.00 20.00    -0.298 OA
ENDROOT
BRANCH   8  10
HETATM   10  C11 UNL     1     -36.009  17.191  -4.933  1.00 20.00    -0.009 C 
HETATM   11  C9  UNL     1     -35.953  18.349  -3.945  1.00 20.00     0.011 C 
HETATM   12  C10 UNL     1     -36.931  17.518  -6.102  1.00 20.00     0.011 C 
ENDBRANCH   8  10
TORSDOF 1
ENDMDL
MODEL 6
REMARK VINA RESULT:      -3.5     13.083     14.076
REMARK  1 active torsions:
REMARK  status: ('A' for Active; 'I' for Inactive)
REMARK    1  A    between atoms: C8_8  and  C11_11 
ROOT
HETATM    1  C1  UNL     1     -42.625  13.423   7.902  1.00 20.00    -0.079 C 
HETATM    2  C2  UNL     1     -42.269  14.541   4.723  1.00 20.00     0.132 C 
HETATM    3  C3  UNL     1     -43.192  13.159   9.078  1.00 20.00     0.015 C 
HETATM    4  C4  UNL     1     -42.071  12.550   6.735  1.00 20.00     0.047 C 
HETATM    5  C5  UNL     1     -42.626  15.979   5.110  1.00 20.00     0.080 C 
HETATM    6  C6  UNL     1     -43.072  15.844   6.611  1.00 20.00     0.022 C 
HETATM    7  C7  UNL     1     -42.647  13.714   5.942  1.00 20.00     0.072 C 
HETATM    8  C8  UNL     1     -42.232  14.682   7.150  1.00 20.00    -0.004 C 
HETATM    9  O12 UNL     1     -41.794  14.198   3.652  1.00 20.00    -0.298 OA
ENDROOT
BRANCH   8  10
HETATM   10  C11 UNL     1     -40.789  15.117   7.439  1.00 20.00    -0.009 C 
HETATM   11  C9  UNL     1     -40.694  16.638   7.481  1.00 20.00     0.011 C 
HETATM   12  C10 UNL     1     -40.305  14.506   8.749  1.00 20.00     0.011 C 
ENDBRANCH   8  10
TORSDOF 1
ENDMDL
MODEL 7
REMARK VINA RESULT:      -3.4     24.766     26.292
REMARK  1 active torsions:
REMARK  status: ('A' for Active; 'I' for Inactive)
REMARK    1  A    between atoms: C8_8  and  C11_11 
ROOT
HETATM    1  C1  UNL     1     -24.936  -2.206  11.207  1.00 20.00    -0.079 C 
HETATM    2  C2  UNL     1     -28.038  -0.886  11.545  1.00 20.00     0.132 C 
HETATM    3  C3  UNL     1     -23.788  -2.568  10.640  1.00 20.00     0.015 C 
HETATM    4  C4  UNL     1     -25.330  -1.198  12.331  1.00 20.00     0.047 C 
HETATM    5  C5  UNL     1     -28.622  -1.787  10.452  1.00 20.00     0.080 C 
HETATM    6  C6  UNL     1     -27.351  -2.498   9.862  1.00 20.00     0.022 C 
HETATM    7  C7  UNL     1     -26.533  -1.050  11.410  1.00 20.00     0.072 C 
HETATM    8  C8  UNL     1     -26.392  -2.605  11.052  1.00 20.00    -0.004 C 
HETATM    9  O12 UNL     1     -28.693  -0.206  12.319  1.00 20.00    -0.298 OA
ENDROOT
BRANCH   8  10
HETATM   10  C11 UNL     1     -26.799  -3.741  12.000  1.00 20.00    -0.009 C 
HETATM   11  C9  UNL     1     -28.055  -4.435  11.487  1.00 20.00     0.011 C 
HETATM   12  C10 UNL     1     -25.654  -4.736  12.155  1.00 20.00     0.011 C 
ENDBRANCH   8  10
TORSDOF 1
ENDMDL
MODEL 8
REMARK VINA RESULT:      -3.4     13.208     14.296
REMARK  1 active torsions:
REMARK  status: ('A' for Active; 'I' for Inactive)
REMARK    1  A    between atoms: C8_8  and  C11_11 
ROOT
HETATM    1  C1  UNL     1     -41.154  13.048   6.119  1.00 20.00    -0.079 C 
HETATM    2  C2  UNL     1     -42.476  14.698   8.766  1.00 20.00     0.132 C 
HETATM    3  C3  UNL     1     -40.244  12.493   5.320  1.00 20.00     0.015 C 
HETATM    4  C4  UNL     1     -42.334  12.500   6.979  1.00 20.00     0.047 C 
HETATM    5  C5  UNL     1     -41.644  15.955   8.493  1.00 20.00     0.080 C 
HETATM    6  C6  UNL     1     -40.678  15.498   7.342  1.00 20.00     0.022 C 
HETATM    7  C7  UNL     1     -41.857  13.631   7.877  1.00 20.00     0.072 C 
HETATM    8  C8  UNL     1     -41.488  14.462   6.558  1.00 20.00    -0.004 C 
HETATM    9  O12 UNL     1     -43.415  14.632   9.544  1.00 20.00    -0.298 OA
ENDROOT
BRANCH   8  10
HETATM   10  C11 UNL     1     -42.529  15.132   5.651  1.00 20.00    -0.009 C 
HETATM   11  C9  UNL     1     -42.376  16.647   5.699  1.00 20.00     0.011 C 
HETATM   12  C10 UNL     1     -42.394  14.618   4.222  1.00 20.00     0.011 C 
ENDBRANCH   8  10
TORSDOF 1
ENDMDL
MODEL 9
REMARK VINA RESULT:      -3.3      1.432      3.303
REMARK  1 active torsions:
REMARK  status: ('A' for Active; 'I' for Inactive)
REMARK    1  A    between atoms: C8_8  and  C11_11 
ROOT
HETATM    1  C1  UNL     1     -34.669  15.142  -5.179  1.00 20.00    -0.079 C 
HETATM    2  C2  UNL     1     -37.574  16.635  -6.080  1.00 20.00     0.132 C 
HETATM    3  C3  UNL     1     -33.591  14.839  -4.458  1.00 20.00     0.015 C 
HETATM    4  C4  UNL     1     -35.942  14.360  -5.625  1.00 20.00     0.047 C 
HETATM    5  C5  UNL     1     -36.957  18.037  -6.027  1.00 20.00     0.080 C 
HETATM    6  C6  UNL     1     -35.531  17.774  -5.423  1.00 20.00     0.022 C 
HETATM    7  C7  UNL     1     -36.544  15.740  -5.409  1.00 20.00     0.072 C 
HETATM    8  C8  UNL     1     -35.163  16.372  -5.919  1.00 20.00    -0.004 C 
HETATM    9  O12 UNL     1     -38.662  16.364  -6.563  1.00 20.00    -0.298 OA
ENDROOT
BRANCH   8  10
HETATM   10  C11 UNL     1     -34.724  16.394  -7.390  1.00 20.00    -0.009 C 
HETATM   11  C9  UNL     1     -34.237  17.785  -7.776  1.00 20.00     0.011 C 
HETATM   12  C10 UNL     1     -33.638  15.351  -7.632  1.00 20.00     0.011 C 
ENDBRANCH   8  10
TORSDOF 1
ENDMDL
