MODEL 1
REMARK VINA RESULT:      -3.8      0.000      0.000
REMARK  0 active torsions:
REMARK  status: ('A' for Active; 'I' for Inactive)
ROOT
HETATM    1  C1  UNL     1     -33.287   6.052   3.650  1.00 20.00     0.161 C 
HETATM    2  C2  UNL     1     -32.441   7.243   3.269  1.00 20.00     0.091 C 
HETATM    3  C3  UNL     1     -32.317   8.105   4.509  1.00 20.00     0.084 C 
HETATM    4  C4  UNL     1     -34.255   6.301   4.792  1.00 20.00     0.141 C 
HETATM    5  C5  UNL     1     -34.007   5.338   5.941  1.00 20.00     0.053 C 
HETATM    6  O6  UNL     1     -33.223   4.987   3.040  1.00 20.00    -0.295 OA
HETATM    7  S7  UNL     1     -33.938   8.018   5.298  1.00 20.00    -0.135 SA
HETATM    8 CL8  UNL     1     -35.905   6.129   4.158  1.00 20.00    -0.099 Cl
ENDROOT
TORSDOF 0
ENDMDL
MODEL 2
REMARK VINA RESULT:      -3.7      2.322      2.594
REMARK  0 active torsions:
REMARK  status: ('A' for Active; 'I' for Inactive)
ROOT
HETATM    1  C1  UNL     1     -33.664   7.428   4.968  1.00 20.00     0.161 C 
HETATM    2  C2  UNL     1     -32.432   7.750   4.157  1.00 20.00     0.091 C 
HETATM    3  C3  UNL     1     -32.520   6.932   2.884  1.00 20.00     0.084 C 
HETATM    4  C4  UNL     1     -34.255   6.055   4.704  1.00 20.00     0.141 C 
HETATM    5  C5  UNL     1     -35.701   6.160   4.245  1.00 20.00     0.053 C 
HETATM    6  O6  UNL     1     -34.110   8.205   5.810  1.00 20.00    -0.295 OA
HETATM    7  S7  UNL     1     -33.206   5.345   3.401  1.00 20.00    -0.135 SA
HETATM    8 CL8  UNL     1     -34.126   5.107   6.200  1.00 20.00    -0.099 Cl
ENDROOT
TORSDOF 0
ENDMDL
MODEL 3
REMARK VINA RESULT:      -3.4     12.808     13.219
REMARK  0 active torsions:
REMARK  status: ('A' for Active; 'I' for Inactive)
ROOT
HETATM    1  C1  UNL     1     -33.759  15.096  -4.415  1.00 20.00     0.161 C 
HETATM    2  C2  UNL     1     -33.237  16.176  -3.497  1.00 20.00     0.091 C 
HETATM    3  C3  UNL     1     -34.212  17.333  -3.586  1.00 20.00     0.084 C 
HETATM    4  C4  UNL     1     -34.607  15.601  -5.568  1.00 20.00     0.141 C 
HETATM    5  C5  UNL     1     -35.993  14.976  -5.544  1.00 20.00     0.053 C 
HETATM    6  O6  UNL     1     -33.470  13.912  -4.257  1.00 20.00    -0.295 OA
HETATM    7  S7  UNL     1     -34.696  17.400  -5.322  1.00 20.00    -0.135 SA
HETATM    8 CL8  UNL     1     -33.758  15.215  -7.080  1.00 20.00    -0.099 Cl
ENDROOT
TORSDOF 0
ENDMDL
MODEL 4
REMARK VINA RESULT:      -3.0      9.029      9.173
REMARK  0 active torsions:
REMARK  status: ('A' for Active; 'I' for Inactive)
ROOT
HETATM    1  C1  UNL     1     -41.070   6.095  -0.223  1.00 20.00     0.161 C 
HETATM    2  C2  UNL     1     -40.814   7.578  -0.114  1.00 20.00     0.091 C 
HETATM    3  C3  UNL     1     -41.524   8.054   1.138  1.00 20.00     0.084 C 
HETATM    4  C4  UNL     1     -42.354   5.623   0.436  1.00 20.00     0.141 C 
HETATM    5  C5  UNL     1     -42.072   4.570   1.495  1.00 20.00     0.053 C 
HETATM    6  O6  UNL     1     -40.317   5.348  -0.843  1.00 20.00    -0.295 OA
HETATM    7  S7  UNL     1     -43.069   7.122   1.177  1.00 20.00    -0.135 SA
HETATM    8 CL8  UNL     1     -43.417   4.984  -0.835  1.00 20.00    -0.099 Cl
ENDROOT
TORSDOF 0
ENDMDL
MODEL 5
REMARK VINA RESULT:      -2.9     15.829     16.535
REMARK  0 active torsions:
REMARK  status: ('A' for Active; 'I' for Inactive)
ROOT
HETATM    1  C1  UNL     1     -23.794  16.953  10.710  1.00 20.00     0.161 C 
HETATM    2  C2  UNL     1     -23.178  16.555   9.390  1.00 20.00     0.091 C 
HETATM    3  C3  UNL     1     -22.114  17.588   9.077  1.00 20.00     0.084 C 
HETATM    4  C4  UNL     1     -23.721  18.436  11.022  1.00 20.00     0.141 C 
HETATM    5  C5  UNL     1     -22.989  18.685  12.331  1.00 20.00     0.053 C 
HETATM    6  O6  UNL     1     -24.353  16.136  11.439  1.00 20.00    -0.295 OA
HETATM    7  S7  UNL     1     -22.817  19.158   9.620  1.00 20.00    -0.135 SA
HETATM    8 CL8  UNL     1     -25.381  19.063  11.088  1.00 20.00    -0.099 Cl
ENDROOT
TORSDOF 0
ENDMDL
MODEL 6
REMARK VINA RESULT:      -2.9     10.760     11.120
REMARK  0 active torsions:
REMARK  status: ('A' for Active; 'I' for Inactive)
ROOT
HETATM    1  C1  UNL     1     -40.873  13.966   7.551  1.00 20.00     0.161 C 
HETATM    2  C2  UNL     1     -40.863  15.443   7.241  1.00 20.00     0.091 C 
HETATM    3  C3  UNL     1     -42.050  15.708   6.336  1.00 20.00     0.084 C 
HETATM    4  C4  UNL     1     -41.533  13.101   6.492  1.00 20.00     0.141 C 
HETATM    5  C5  UNL     1     -42.685  12.301   7.078  1.00 20.00     0.053 C 
HETATM    6  O6  UNL     1     -40.339  13.509   8.559  1.00 20.00    -0.295 OA
HETATM    7  S7  UNL     1     -42.125  14.278   5.239  1.00 20.00    -0.135 SA
HETATM    8 CL8  UNL     1     -40.292  12.030   5.810  1.00 20.00    -0.099 Cl
ENDROOT
TORSDOF 0
ENDMDL
MODEL 7
REMARK VINA RESULT:      -2.9     13.386     14.096
REMARK  0 active torsions:
REMARK  status: ('A' for Active; 'I' for Inactive)
ROOT
HETATM    1  C1  UNL     1     -34.236  15.764  -6.797  1.00 20.00     0.161 C 
HETATM    2  C2  UNL     1     -34.498  17.138  -7.364  1.00 20.00     0.091 C 
HETATM    3  C3  UNL     1     -34.571  18.090  -6.187  1.00 20.00     0.084 C 
HETATM    4  C4  UNL     1     -34.734  15.559  -5.378  1.00 20.00     0.141 C 
HETATM    5  C5  UNL     1     -33.599  15.158  -4.450  1.00 20.00     0.053 C 
HETATM    6  O6  UNL     1     -33.707  14.876  -7.461  1.00 20.00    -0.295 OA
HETATM    7  S7  UNL     1     -35.433  17.167  -4.898  1.00 20.00    -0.135 SA
HETATM    8 CL8  UNL     1     -35.999  14.313  -5.417  1.00 20.00    -0.099 Cl
ENDROOT
TORSDOF 0
ENDMDL
MODEL 8
REMARK VINA RESULT:      -2.9      8.923      9.501
REMARK  0 active torsions:
REMARK  status: ('A' for Active; 'I' for Inactive)
ROOT
HETATM    1  C1  UNL     1     -41.332   5.815   0.014  1.00 20.00     0.161 C 
HETATM    2  C2  UNL     1     -42.049   4.676   0.698  1.00 20.00     0.091 C 
HETATM    3  C3  UNL     1     -43.417   5.197   1.093  1.00 20.00     0.084 C 
HETATM    4  C4  UNL     1     -41.788   7.198   0.439  1.00 20.00     0.141 C 
HETATM    5  C5  UNL     1     -42.283   8.002  -0.753  1.00 20.00     0.053 C 
HETATM    6  O6  UNL     1     -40.416   5.621  -0.783  1.00 20.00    -0.295 OA
HETATM    7  S7  UNL     1     -43.131   6.896   1.627  1.00 20.00    -0.135 SA
HETATM    8 CL8  UNL     1     -40.420   8.006   1.232  1.00 20.00    -0.099 Cl
ENDROOT
TORSDOF 0
ENDMDL
MODEL 9
REMARK VINA RESULT:      -2.9      9.309      9.832
REMARK  0 active torsions:
REMARK  status: ('A' for Active; 'I' for Inactive)
ROOT
HETATM    1  C1  UNL     1     -41.358   6.868   0.474  1.00 20.00     0.161 C 
HETATM    2  C2  UNL     1     -40.792   5.728  -0.338  1.00 20.00     0.091 C 
HETATM    3  C3  UNL     1     -41.847   5.354  -1.361  1.00 20.00     0.084 C 
HETATM    4  C4  UNL     1     -42.874   6.903   0.546  1.00 20.00     0.141 C 
HETATM    5  C5  UNL     1     -43.417   8.220   0.013  1.00 20.00     0.053 C 
HETATM    6  O6  UNL     1     -40.635   7.665   1.067  1.00 20.00    -0.295 OA
HETATM    7  S7  UNL     1     -43.417   5.507  -0.484  1.00 20.00    -0.135 SA
HETATM    8 CL8  UNL     1     -43.347   6.655   2.239  1.00 20.00    -0.099 Cl
ENDROOT
TORSDOF 0
ENDMDL
