MODEL 1
REMARK VINA RESULT:      -5.2      0.000      0.000
REMARK  1 active torsions:
REMARK  status: ('A' for Active; 'I' for Inactive)
REMARK    1  A    between atoms: C7_7  and  C10_10 
ROOT
HETATM    1  C1  UNL     1     -34.478   4.703   5.697  1.00 20.00    -0.018 C 
HETATM    2  C2  UNL     1     -34.078   5.735   6.460  1.00 20.00    -0.024 C 
HETATM    3  C3  UNL     1     -33.537   5.719   3.752  1.00 20.00     0.139 C 
HETATM    4  C4  UNL     1     -35.403   6.620   4.785  1.00 20.00     0.025 C 
HETATM    5  C5  UNL     1     -34.861   5.257   4.352  1.00 20.00     0.078 C 
HETATM    6  C6  UNL     1     -34.159   6.989   5.608  1.00 20.00     0.020 C 
HETATM    7  C7  UNL     1     -33.013   6.918   4.557  1.00 20.00     0.067 C 
HETATM    8  O11 UNL     1     -32.966   5.194   2.809  1.00 20.00    -0.297 OA
ENDROOT
BRANCH   7   9
HETATM    9  C10 UNL     1     -32.876   8.162   3.700  1.00 20.00    -0.011 C 
HETATM   10  C8  UNL     1     -32.264   9.314   4.500  1.00 20.00     0.010 C 
HETATM   11  C9  UNL     1     -32.035   7.876   2.453  1.00 20.00     0.010 C 
ENDBRANCH   7   9
TORSDOF 1
ENDMDL
MODEL 2
REMARK VINA RESULT:      -4.6      1.020      3.576
REMARK  1 active torsions:
REMARK  status: ('A' for Active; 'I' for Inactive)
REMARK    1  A    between atoms: C7_7  and  C10_10 
ROOT
HETATM    1  C1  UNL     1     -32.480   8.569   2.207  1.00 20.00    -0.018 C 
HETATM    2  C2  UNL     1     -33.328   9.152   3.072  1.00 20.00    -0.024 C 
HETATM    3  C3  UNL     1     -32.888   6.428   3.181  1.00 20.00     0.139 C 
HETATM    4  C4  UNL     1     -31.728   8.063   4.338  1.00 20.00     0.025 C 
HETATM    5  C5  UNL     1     -31.785   7.452   2.937  1.00 20.00     0.078 C 
HETATM    6  C6  UNL     1     -33.228   8.396   4.386  1.00 20.00     0.020 C 
HETATM    7  C7  UNL     1     -33.899   7.007   4.181  1.00 20.00     0.067 C 
HETATM    8  O11 UNL     1     -32.974   5.338   2.636  1.00 20.00    -0.297 OA
ENDROOT
BRANCH   7   9
HETATM    9  C10 UNL     1     -33.994   6.170   5.442  1.00 20.00    -0.011 C 
HETATM   10  C8  UNL     1     -34.238   7.052   6.669  1.00 20.00     0.010 C 
HETATM   11  C9  UNL     1     -35.099   5.118   5.318  1.00 20.00     0.010 C 
ENDBRANCH   7   9
TORSDOF 1
ENDMDL
MODEL 3
REMARK VINA RESULT:      -4.6      9.266     10.354
REMARK  1 active torsions:
REMARK  status: ('A' for Active; 'I' for Inactive)
REMARK    1  A    between atoms: C7_7  and  C10_10 
ROOT
HETATM    1  C1  UNL     1     -43.382  13.745   6.368  1.00 20.00    -0.018 C 
HETATM    2  C2  UNL     1     -42.860  12.670   6.983  1.00 20.00    -0.024 C 
HETATM    3  C3  UNL     1     -41.571  13.793   4.814  1.00 20.00     0.139 C 
HETATM    4  C4  UNL     1     -41.244  14.323   7.044  1.00 20.00     0.025 C 
HETATM    5  C5  UNL     1     -42.237  14.610   5.916  1.00 20.00     0.078 C 
HETATM    6  C6  UNL     1     -41.348  12.795   6.911  1.00 20.00     0.020 C 
HETATM    7  C7  UNL     1     -40.926  12.545   5.435  1.00 20.00     0.067 C 
HETATM    8  O11 UNL     1     -41.585  14.068   3.624  1.00 20.00    -0.297 OA
ENDROOT
BRANCH   7   9
HETATM    9  C10 UNL     1     -39.426  12.512   5.213  1.00 20.00    -0.011 C 
HETATM   10  C8  UNL     1     -38.700  11.984   6.453  1.00 20.00     0.010 C 
HETATM   11  C9  UNL     1     -39.072  11.661   3.991  1.00 20.00     0.010 C 
ENDBRANCH   7   9
TORSDOF 1
ENDMDL
MODEL 4
REMARK VINA RESULT:      -4.3      1.328      1.923
REMARK  1 active torsions:
REMARK  status: ('A' for Active; 'I' for Inactive)
REMARK    1  A    between atoms: C7_7  and  C10_10 
ROOT
HETATM    1  C1  UNL     1     -34.456   6.154   6.618  1.00 20.00    -0.018 C 
HETATM    2  C2  UNL     1     -33.627   7.144   6.244  1.00 20.00    -0.024 C 
HETATM    3  C3  UNL     1     -34.101   5.015   4.550  1.00 20.00     0.139 C 
HETATM    4  C4  UNL     1     -35.275   7.009   4.628  1.00 20.00     0.025 C 
HETATM    5  C5  UNL     1     -35.184   5.685   5.388  1.00 20.00     0.078 C 
HETATM    6  C6  UNL     1     -33.773   7.318   4.743  1.00 20.00     0.020 C 
HETATM    7  C7  UNL     1     -33.112   6.085   4.061  1.00 20.00     0.067 C 
HETATM    8  O11 UNL     1     -34.011   3.816   4.337  1.00 20.00    -0.297 OA
ENDROOT
BRANCH   7   9
HETATM    9  C10 UNL     1     -33.063   6.163   2.547  1.00 20.00    -0.011 C 
HETATM   10  C8  UNL     1     -32.132   7.286   2.086  1.00 20.00     0.010 C 
HETATM   11  C9  UNL     1     -32.619   4.827   1.945  1.00 20.00     0.010 C 
ENDBRANCH   7   9
TORSDOF 1
ENDMDL
MODEL 5
REMARK VINA RESULT:      -4.3     12.310     13.567
REMARK  1 active torsions:
REMARK  status: ('A' for Active; 'I' for Inactive)
REMARK    1  A    between atoms: C7_7  and  C10_10 
ROOT
HETATM    1  C1  UNL     1     -35.863  14.842  -6.295  1.00 20.00    -0.018 C 
HETATM    2  C2  UNL     1     -36.387  15.958  -5.758  1.00 20.00    -0.024 C 
HETATM    3  C3  UNL     1     -33.943  15.011  -4.887  1.00 20.00     0.139 C 
HETATM    4  C4  UNL     1     -34.309  16.532  -6.594  1.00 20.00     0.025 C 
HETATM    5  C5  UNL     1     -34.371  15.023  -6.350  1.00 20.00     0.078 C 
HETATM    6  C6  UNL     1     -35.233  16.883  -5.416  1.00 20.00     0.020 C 
HETATM    7  C7  UNL     1     -34.486  16.270  -4.195  1.00 20.00     0.067 C 
HETATM    8  O11 UNL     1     -33.306  14.122  -4.343  1.00 20.00    -0.297 OA
ENDROOT
BRANCH   7   9
HETATM    9  C10 UNL     1     -33.373  17.141  -3.645  1.00 20.00    -0.011 C 
HETATM   10  C8  UNL     1     -33.635  18.619  -3.943  1.00 20.00     0.010 C 
HETATM   11  C9  UNL     1     -33.204  16.927  -2.139  1.00 20.00     0.010 C 
ENDBRANCH   7   9
TORSDOF 1
ENDMDL
MODEL 6
REMARK VINA RESULT:      -4.1      1.575      2.386
REMARK  1 active torsions:
REMARK  status: ('A' for Active; 'I' for Inactive)
REMARK    1  A    between atoms: C7_7  and  C10_10 
ROOT
HETATM    1  C1  UNL     1     -35.545   5.214   5.460  1.00 20.00    -0.018 C 
HETATM    2  C2  UNL     1     -35.676   5.781   4.249  1.00 20.00    -0.024 C 
HETATM    3  C3  UNL     1     -33.615   6.542   5.923  1.00 20.00     0.139 C 
HETATM    4  C4  UNL     1     -33.555   4.864   4.328  1.00 20.00     0.025 C 
HETATM    5  C5  UNL     1     -34.073   5.098   5.749  1.00 20.00     0.078 C 
HETATM    6  C6  UNL     1     -34.280   6.082   3.734  1.00 20.00     0.020 C 
HETATM    7  C7  UNL     1     -33.715   7.266   4.571  1.00 20.00     0.067 C 
HETATM    8  O11 UNL     1     -33.265   7.051   6.976  1.00 20.00    -0.297 OA
ENDROOT
BRANCH   7   9
HETATM    9  C10 UNL     1     -32.366   7.775   4.099  1.00 20.00    -0.011 C 
HETATM   10  C8  UNL     1     -32.277   7.755   2.572  1.00 20.00     0.010 C 
HETATM   11  C9  UNL     1     -32.099   9.187   4.627  1.00 20.00     0.010 C 
ENDBRANCH   7   9
TORSDOF 1
ENDMDL
MODEL 7
REMARK VINA RESULT:      -4.0      9.475     10.644
REMARK  1 active torsions:
REMARK  status: ('A' for Active; 'I' for Inactive)
REMARK    1  A    between atoms: C7_7  and  C10_10 
ROOT
HETATM    1  C1  UNL     1     -42.486  15.187   6.966  1.00 20.00    -0.018 C 
HETATM    2  C2  UNL     1     -42.163  15.067   5.667  1.00 20.00    -0.024 C 
HETATM    3  C3  UNL     1     -40.753  13.667   7.584  1.00 20.00     0.139 C 
HETATM    4  C4  UNL     1     -42.626  12.937   6.436  1.00 20.00     0.025 C 
HETATM    5  C5  UNL     1     -42.266  13.847   7.612  1.00 20.00     0.078 C 
HETATM    6  C6  UNL     1     -41.686  13.643   5.446  1.00 20.00     0.020 C 
HETATM    7  C7  UNL     1     -40.294  13.502   6.127  1.00 20.00     0.067 C 
HETATM    8  O11 UNL     1     -40.019  13.692   8.560  1.00 20.00    -0.297 OA
ENDROOT
BRANCH   7   9
HETATM    9  C10 UNL     1     -39.618  12.165   5.893  1.00 20.00    -0.011 C 
HETATM   10  C8  UNL     1     -39.653  11.785   4.411  1.00 20.00     0.010 C 
HETATM   11  C9  UNL     1     -38.174  12.185   6.400  1.00 20.00     0.010 C 
ENDBRANCH   7   9
TORSDOF 1
ENDMDL
MODEL 8
REMARK VINA RESULT:      -4.0     12.334     14.226
REMARK  1 active torsions:
REMARK  status: ('A' for Active; 'I' for Inactive)
REMARK    1  A    between atoms: C7_7  and  C10_10 
ROOT
HETATM    1  C1  UNL     1     -35.978  16.632  -7.637  1.00 20.00    -0.018 C 
HETATM    2  C2  UNL     1     -34.692  16.254  -7.727  1.00 20.00    -0.024 C 
HETATM    3  C3  UNL     1     -35.812  16.793  -5.261  1.00 20.00     0.139 C 
HETATM    4  C4  UNL     1     -35.735  14.739  -6.325  1.00 20.00     0.025 C 
HETATM    5  C5  UNL     1     -36.537  16.041  -6.371  1.00 20.00     0.078 C 
HETATM    6  C6  UNL     1     -34.372  15.431  -6.491  1.00 20.00     0.020 C 
HETATM    7  C7  UNL     1     -34.327  16.403  -5.278  1.00 20.00     0.067 C 
HETATM    8  O11 UNL     1     -36.324  17.607  -4.507  1.00 20.00    -0.297 OA
ENDROOT
BRANCH   7   9
HETATM    9  C10 UNL     1     -33.895  15.755  -3.976  1.00 20.00    -0.011 C 
HETATM   10  C8  UNL     1     -32.852  14.663  -4.226  1.00 20.00     0.010 C 
HETATM   11  C9  UNL     1     -33.344  16.799  -3.001  1.00 20.00     0.010 C 
ENDBRANCH   7   9
TORSDOF 1
ENDMDL
MODEL 9
REMARK VINA RESULT:      -3.9     13.208     14.478
REMARK  1 active torsions:
REMARK  status: ('A' for Active; 'I' for Inactive)
REMARK    1  A    between atoms: C7_7  and  C10_10 
ROOT
HETATM    1  C1  UNL     1     -23.283  -4.132  11.366  1.00 20.00    -0.018 C 
HETATM    2  C2  UNL     1     -24.489  -4.714  11.252  1.00 20.00    -0.024 C 
HETATM    3  C3  UNL     1     -24.284  -1.967  11.444  1.00 20.00     0.139 C 
HETATM    4  C4  UNL     1     -24.301  -3.220   9.497  1.00 20.00     0.025 C 
HETATM    5  C5  UNL     1     -23.335  -2.829  10.618  1.00 20.00     0.078 C 
HETATM    6  C6  UNL     1     -25.373  -3.775  10.449  1.00 20.00     0.020 C 
HETATM    7  C7  UNL     1     -25.701  -2.552  11.353  1.00 20.00     0.067 C 
HETATM    8  O11 UNL     1     -23.960  -0.992  12.105  1.00 20.00    -0.297 OA
ENDROOT
BRANCH   7   9
HETATM    9  C10 UNL     1     -26.682  -1.570  10.741  1.00 20.00    -0.011 C 
HETATM   10  C8  UNL     1     -27.794  -2.305   9.987  1.00 20.00     0.010 C 
HETATM   11  C9  UNL     1     -27.284  -0.657  11.812  1.00 20.00     0.010 C 
ENDBRANCH   7   9
TORSDOF 1
ENDMDL
