MODEL 1
REMARK VINA RESULT:      -3.5      0.000      0.000
REMARK  1 active torsions:
REMARK  status: ('A' for Active; 'I' for Inactive)
REMARK    1  A    between atoms: C3_3  and  C9_9 
ROOT
HETATM    1  C1  UNL     1     -33.906   7.864   3.979  1.00 20.00     0.069 C 
HETATM    2  C2  UNL     1     -32.606   7.691   3.207  1.00 20.00     0.069 C 
HETATM    3  C3  UNL     1     -34.218   6.443   4.426  1.00 20.00     0.076 C 
HETATM    4  C4  UNL     1     -32.629   8.462   1.886  1.00 20.00     0.042 C 
HETATM    5  C5  UNL     1     -31.368   8.084   4.014  1.00 20.00     0.042 C 
HETATM    6  C6  UNL     1     -35.689   6.091   4.199  1.00 20.00     0.043 C 
HETATM    7  N10 UNL     1     -32.543   6.249   2.905  1.00 20.00    -0.187 NA
HETATM    8  N11 UNL     1     -33.394   5.590   3.549  1.00 20.00    -0.186 NA
ENDROOT
BRANCH   3   9
HETATM    9  C9  UNL     1     -33.839   6.170   5.882  1.00 20.00     0.009 C 
HETATM   10  C7  UNL     1     -33.993   7.436   6.721  1.00 20.00     0.012 C 
HETATM   11  C8  UNL     1     -34.688   5.038   6.454  1.00 20.00     0.012 C 
ENDBRANCH   3   9
TORSDOF 1
ENDMDL
MODEL 2
REMARK VINA RESULT:      -3.4     10.106     10.899
REMARK  1 active torsions:
REMARK  status: ('A' for Active; 'I' for Inactive)
REMARK    1  A    between atoms: C3_3  and  C9_9 
ROOT
HETATM    1  C1  UNL     1     -40.563  14.341   6.826  1.00 20.00     0.069 C 
HETATM    2  C2  UNL     1     -40.473  12.923   6.280  1.00 20.00     0.069 C 
HETATM    3  C3  UNL     1     -41.553  14.192   7.973  1.00 20.00     0.076 C 
HETATM    4  C4  UNL     1     -40.545  12.903   4.752  1.00 20.00     0.042 C 
HETATM    5  C5  UNL     1     -39.226  12.174   6.749  1.00 20.00     0.042 C 
HETATM    6  C6  UNL     1     -42.596  15.310   7.967  1.00 20.00     0.043 C 
HETATM    7  N10 UNL     1     -41.669  12.244   6.812  1.00 20.00    -0.187 NA
HETATM    8  N11 UNL     1     -42.239  12.913   7.707  1.00 20.00    -0.186 NA
ENDROOT
BRANCH   3   9
HETATM    9  C9  UNL     1     -40.881  14.118   9.345  1.00 20.00     0.009 C 
HETATM   10  C7  UNL     1     -40.067  15.382   9.610  1.00 20.00     0.012 C 
HETATM   11  C8  UNL     1     -41.922  13.907  10.440  1.00 20.00     0.012 C 
ENDBRANCH   3   9
TORSDOF 1
ENDMDL
MODEL 3
REMARK VINA RESULT:      -3.4     12.236     14.160
REMARK  1 active torsions:
REMARK  status: ('A' for Active; 'I' for Inactive)
REMARK    1  A    between atoms: C3_3  and  C9_9 
ROOT
HETATM    1  C1  UNL     1     -36.788  16.257  -5.760  1.00 20.00     0.069 C 
HETATM    2  C2  UNL     1     -36.917  16.538  -7.251  1.00 20.00     0.069 C 
HETATM    3  C3  UNL     1     -35.810  15.091  -5.726  1.00 20.00     0.076 C 
HETATM    4  C4  UNL     1     -38.376  16.741  -7.661  1.00 20.00     0.042 C 
HETATM    5  C5  UNL     1     -36.078  17.729  -7.714  1.00 20.00     0.042 C 
HETATM    6  C6  UNL     1     -36.275  13.993  -4.769  1.00 20.00     0.043 C 
HETATM    7  N10 UNL     1     -36.415  15.315  -7.904  1.00 20.00    -0.187 NA
HETATM    8  N11 UNL     1     -35.829  14.551  -7.099  1.00 20.00    -0.186 NA
ENDROOT
BRANCH   3   9
HETATM    9  C9  UNL     1     -34.381  15.511  -5.379  1.00 20.00     0.009 C 
HETATM   10  C7  UNL     1     -34.380  16.861  -4.666  1.00 20.00     0.012 C 
HETATM   11  C8  UNL     1     -33.704  14.447  -4.520  1.00 20.00     0.012 C 
ENDBRANCH   3   9
TORSDOF 1
ENDMDL
MODEL 4
REMARK VINA RESULT:      -3.4     12.567     14.012
REMARK  1 active torsions:
REMARK  status: ('A' for Active; 'I' for Inactive)
REMARK    1  A    between atoms: C3_3  and  C9_9 
ROOT
HETATM    1  C1  UNL     1     -34.505  17.152  -5.617  1.00 20.00     0.069 C 
HETATM    2  C2  UNL     1     -36.020  17.042  -5.715  1.00 20.00     0.069 C 
HETATM    3  C3  UNL     1     -34.300  17.637  -4.189  1.00 20.00     0.076 C 
HETATM    4  C4  UNL     1     -36.545  17.645  -7.020  1.00 20.00     0.042 C 
HETATM    5  C5  UNL     1     -36.533  15.610  -5.563  1.00 20.00     0.042 C 
HETATM    6  C6  UNL     1     -33.280  18.775  -4.122  1.00 20.00     0.043 C 
HETATM    7  N10 UNL     1     -36.524  17.854  -4.591  1.00 20.00    -0.187 NA
HETATM    8  N11 UNL     1     -35.616  18.167  -3.785  1.00 20.00    -0.186 NA
ENDROOT
BRANCH   3   9
HETATM    9  C9  UNL     1     -33.896  16.522  -3.224  1.00 20.00     0.009 C 
HETATM   10  C7  UNL     1     -33.053  15.472  -3.942  1.00 20.00     0.012 C 
HETATM   11  C8  UNL     1     -33.140  17.096  -2.028  1.00 20.00     0.012 C 
ENDBRANCH   3   9
TORSDOF 1
ENDMDL
MODEL 5
REMARK VINA RESULT:      -3.4     16.063     16.581
REMARK  1 active torsions:
REMARK  status: ('A' for Active; 'I' for Inactive)
REMARK    1  A    between atoms: C3_3  and  C9_9 
ROOT
HETATM    1  C1  UNL     1     -23.525  17.349   9.735  1.00 20.00     0.069 C 
HETATM    2  C2  UNL     1     -22.259  18.060   9.281  1.00 20.00     0.069 C 
HETATM    3  C3  UNL     1     -23.716  17.881  11.149  1.00 20.00     0.076 C 
HETATM    4  C4  UNL     1     -21.293  17.100   8.585  1.00 20.00     0.042 C 
HETATM    5  C5  UNL     1     -22.533  19.263   8.378  1.00 20.00     0.042 C 
HETATM    6  C6  UNL     1     -24.057  16.761  12.131  1.00 20.00     0.043 C 
HETATM    7  N10 UNL     1     -21.630  18.531  10.529  1.00 20.00    -0.187 NA
HETATM    8  N11 UNL     1     -22.400  18.437  11.515  1.00 20.00    -0.186 NA
ENDROOT
BRANCH   3   9
HETATM    9  C9  UNL     1     -24.766  18.989  11.241  1.00 20.00     0.009 C 
HETATM   10  C7  UNL     1     -25.454  19.187   9.892  1.00 20.00     0.012 C 
HETATM   11  C8  UNL     1     -25.789  18.668  12.326  1.00 20.00     0.012 C 
ENDBRANCH   3   9
TORSDOF 1
ENDMDL
MODEL 6
REMARK VINA RESULT:      -3.2     10.884     12.123
REMARK  1 active torsions:
REMARK  status: ('A' for Active; 'I' for Inactive)
REMARK    1  A    between atoms: C3_3  and  C9_9 
ROOT
HETATM    1  C1  UNL     1     -42.500  14.770   8.437  1.00 20.00     0.069 C 
HETATM    2  C2  UNL     1     -42.551  13.954   9.721  1.00 20.00     0.069 C 
HETATM    3  C3  UNL     1     -41.159  14.365   7.840  1.00 20.00     0.076 C 
HETATM    4  C4  UNL     1     -43.020  14.799  10.906  1.00 20.00     0.042 C 
HETATM    5  C5  UNL     1     -43.417  12.700   9.604  1.00 20.00     0.042 C 
HETATM    6  C6  UNL     1     -40.376  15.579   7.338  1.00 20.00     0.043 C 
HETATM    7  N10 UNL     1     -41.153  13.551   9.960  1.00 20.00    -0.187 NA
HETATM    8  N11 UNL     1     -40.418  13.768   8.967  1.00 20.00    -0.186 NA
ENDROOT
BRANCH   3   9
HETATM    9  C9  UNL     1     -41.283  13.329   6.722  1.00 20.00     0.009 C 
HETATM   10  C7  UNL     1     -41.889  13.962   5.473  1.00 20.00     0.012 C 
HETATM   11  C8  UNL     1     -39.922  12.714   6.410  1.00 20.00     0.012 C 
ENDBRANCH   3   9
TORSDOF 1
ENDMDL
MODEL 7
REMARK VINA RESULT:      -3.2     12.446     13.590
REMARK  1 active torsions:
REMARK  status: ('A' for Active; 'I' for Inactive)
REMARK    1  A    between atoms: C3_3  and  C9_9 
ROOT
HETATM    1  C1  UNL     1     -27.127  -3.780  11.191  1.00 20.00     0.069 C 
HETATM    2  C2  UNL     1     -28.549  -3.397  10.807  1.00 20.00     0.069 C 
HETATM    3  C3  UNL     1     -26.331  -2.546  10.786  1.00 20.00     0.076 C 
HETATM    4  C4  UNL     1     -29.261  -4.538  10.078  1.00 20.00     0.042 C 
HETATM    5  C5  UNL     1     -29.392  -2.936  11.996  1.00 20.00     0.042 C 
HETATM    6  C6  UNL     1     -25.052  -2.922  10.038  1.00 20.00     0.043 C 
HETATM    7  N10 UNL     1     -28.390  -2.271   9.868  1.00 20.00    -0.187 NA
HETATM    8  N11 UNL     1     -27.218  -1.822   9.857  1.00 20.00    -0.186 NA
ENDROOT
BRANCH   3   9
HETATM    9  C9  UNL     1     -25.993  -1.632  11.965  1.00 20.00     0.009 C 
HETATM   10  C7  UNL     1     -24.480  -1.529  12.145  1.00 20.00     0.012 C 
HETATM   11  C8  UNL     1     -26.607  -0.250  11.763  1.00 20.00     0.012 C 
ENDBRANCH   3   9
TORSDOF 1
ENDMDL
MODEL 8
REMARK VINA RESULT:      -3.2     10.979     12.116
REMARK  1 active torsions:
REMARK  status: ('A' for Active; 'I' for Inactive)
REMARK    1  A    between atoms: C3_3  and  C9_9 
ROOT
HETATM    1  C1  UNL     1     -40.713  14.841   8.204  1.00 20.00     0.069 C 
HETATM    2  C2  UNL     1     -41.553  14.465   9.416  1.00 20.00     0.069 C 
HETATM    3  C3  UNL     1     -41.315  13.979   7.103  1.00 20.00     0.076 C 
HETATM    4  C4  UNL     1     -40.684  14.227  10.652  1.00 20.00     0.042 C 
HETATM    5  C5  UNL     1     -42.640  15.491   9.738  1.00 20.00     0.042 C 
HETATM    6  C6  UNL     1     -40.232  13.302   6.262  1.00 20.00     0.043 C 
HETATM    7  N10 UNL     1     -42.193  13.190   9.043  1.00 20.00    -0.187 NA
HETATM    8  N11 UNL     1     -42.068  12.934   7.821  1.00 20.00    -0.186 NA
ENDROOT
BRANCH   3   9
HETATM    9  C9  UNL     1     -42.275  14.746   6.193  1.00 20.00     0.009 C 
HETATM   10  C7  UNL     1     -41.998  16.245   6.265  1.00 20.00     0.012 C 
HETATM   11  C8  UNL     1     -42.164  14.245   4.755  1.00 20.00     0.012 C 
ENDBRANCH   3   9
TORSDOF 1
ENDMDL
MODEL 9
REMARK VINA RESULT:      -3.1     12.589     14.092
REMARK  1 active torsions:
REMARK  status: ('A' for Active; 'I' for Inactive)
REMARK    1  A    between atoms: C3_3  and  C9_9 
ROOT
HETATM    1  C1  UNL     1     -33.686  16.223  -4.241  1.00 20.00     0.069 C 
HETATM    2  C2  UNL     1     -33.879  17.487  -3.415  1.00 20.00     0.069 C 
HETATM    3  C3  UNL     1     -34.852  16.286  -5.219  1.00 20.00     0.076 C 
HETATM    4  C4  UNL     1     -33.708  17.214  -1.920  1.00 20.00     0.042 C 
HETATM    5  C5  UNL     1     -32.959  18.631  -3.840  1.00 20.00     0.042 C 
HETATM    6  C6  UNL     1     -35.556  14.934  -5.343  1.00 20.00     0.043 C 
HETATM    7  N10 UNL     1     -35.279  17.881  -3.659  1.00 20.00    -0.187 NA
HETATM    8  N11 UNL     1     -35.792  17.247  -4.612  1.00 20.00    -0.186 NA
ENDROOT
BRANCH   3   9
HETATM    9  C9  UNL     1     -34.451  16.791  -6.605  1.00 20.00     0.009 C 
HETATM   10  C7  UNL     1     -34.037  15.626  -7.499  1.00 20.00     0.012 C 
HETATM   11  C8  UNL     1     -35.594  17.578  -7.239  1.00 20.00     0.012 C 
ENDBRANCH   3   9
TORSDOF 1
ENDMDL
