MODEL 1
REMARK VINA RESULT:      -3.4      0.000      0.000
REMARK  0 active torsions:
REMARK  status: ('A' for Active; 'I' for Inactive)
ROOT
HETATM    1  C1  UNL     1     -31.521  19.085   0.229  1.00 20.00     0.001 C 
HETATM    2  C2  UNL     1     -32.843  19.067   0.991  1.00 20.00     0.001 C 
HETATM    3  C3  UNL     1     -31.702  18.146  -0.965  1.00 20.00     0.011 C 
HETATM    4  C4  UNL     1     -33.723  18.049   0.273  1.00 20.00     0.011 C 
HETATM    5  C5  UNL     1     -33.793  19.263  -1.956  1.00 20.00     0.096 C 
HETATM    6  C6  UNL     1     -33.660  16.774  -1.913  1.00 20.00     0.096 C 
HETATM    7  C7  UNL     1     -33.225  18.053  -1.182  1.00 20.00    -0.022 C 
HETATM    8  S8  UNL     1     -33.477  19.018  -3.726  1.00 20.00    -0.097 SA
HETATM    9  S9  UNL     1     -33.296  16.979  -3.674  1.00 20.00    -0.097 SA
ENDROOT
TORSDOF 0
ENDMDL
MODEL 2
REMARK VINA RESULT:      -3.2     12.144     12.930
REMARK  0 active torsions:
REMARK  status: ('A' for Active; 'I' for Inactive)
ROOT
HETATM    1  C1  UNL     1     -39.308  12.155   6.357  1.00 20.00     0.001 C 
HETATM    2  C2  UNL     1     -39.920  12.057   4.962  1.00 20.00     0.001 C 
HETATM    3  C3  UNL     1     -40.032  13.302   7.063  1.00 20.00     0.011 C 
HETATM    4  C4  UNL     1     -40.916  13.208   4.863  1.00 20.00     0.011 C 
HETATM    5  C5  UNL     1     -42.429  12.431   6.747  1.00 20.00     0.096 C 
HETATM    6  C6  UNL     1     -41.981  14.866   6.451  1.00 20.00     0.096 C 
HETATM    7  C7  UNL     1     -41.368  13.464   6.310  1.00 20.00    -0.022 C 
HETATM    8  S8  UNL     1     -43.180  12.994   8.300  1.00 20.00    -0.097 SA
HETATM    9  S9  UNL     1     -42.745  14.984   8.088  1.00 20.00    -0.097 SA
ENDROOT
TORSDOF 0
ENDMDL
MODEL 3
REMARK VINA RESULT:      -3.2      2.500      3.683
REMARK  0 active torsions:
REMARK  status: ('A' for Active; 'I' for Inactive)
ROOT
HETATM    1  C1  UNL     1     -33.800  16.984  -3.220  1.00 20.00     0.001 C 
HETATM    2  C2  UNL     1     -33.621  18.307  -3.960  1.00 20.00     0.001 C 
HETATM    3  C3  UNL     1     -33.073  17.139  -1.884  1.00 20.00     0.011 C 
HETATM    4  C4  UNL     1     -32.719  19.160  -3.075  1.00 20.00     0.011 C 
HETATM    5  C5  UNL     1     -34.292  19.256  -1.085  1.00 20.00     0.096 C 
HETATM    6  C6  UNL     1     -31.835  19.062  -0.705  1.00 20.00     0.096 C 
HETATM    7  C7  UNL     1     -32.982  18.660  -1.645  1.00 20.00    -0.022 C 
HETATM    8  S8  UNL     1     -34.359  18.931   0.700  1.00 20.00    -0.097 SA
HETATM    9  S9  UNL     1     -32.345  18.699   0.994  1.00 20.00    -0.097 SA
ENDROOT
TORSDOF 0
ENDMDL
MODEL 4
REMARK VINA RESULT:      -3.1      0.985      2.249
REMARK  0 active torsions:
REMARK  status: ('A' for Active; 'I' for Inactive)
ROOT
HETATM    1  C1  UNL     1     -34.025  18.453   0.232  1.00 20.00     0.001 C 
HETATM    2  C2  UNL     1     -32.507  18.447   0.389  1.00 20.00     0.001 C 
HETATM    3  C3  UNL     1     -34.304  18.820  -1.226  1.00 20.00     0.011 C 
HETATM    4  C4  UNL     1     -31.948  18.900  -0.955  1.00 20.00     0.011 C 
HETATM    5  C5  UNL     1     -32.887  16.972  -2.313  1.00 20.00     0.096 C 
HETATM    6  C6  UNL     1     -32.841  19.263  -3.296  1.00 20.00     0.096 C 
HETATM    7  C7  UNL     1     -33.007  18.476  -1.986  1.00 20.00    -0.022 C 
HETATM    8  S8  UNL     1     -33.898  16.615  -3.777  1.00 20.00    -0.097 SA
HETATM    9  S9  UNL     1     -33.919  18.515  -4.543  1.00 20.00    -0.097 SA
ENDROOT
TORSDOF 0
ENDMDL
MODEL 5
REMARK VINA RESULT:      -3.0      1.827      2.318
REMARK  0 active torsions:
REMARK  status: ('A' for Active; 'I' for Inactive)
ROOT
HETATM    1  C1  UNL     1     -32.522  19.210  -1.715  1.00 20.00     0.001 C 
HETATM    2  C2  UNL     1     -33.048  18.078  -0.837  1.00 20.00     0.001 C 
HETATM    3  C3  UNL     1     -32.824  18.809  -3.159  1.00 20.00     0.011 C 
HETATM    4  C4  UNL     1     -33.557  17.009  -1.799  1.00 20.00     0.011 C 
HETATM    5  C5  UNL     1     -35.352  18.439  -2.883  1.00 20.00     0.096 C 
HETATM    6  C6  UNL     1     -34.043  16.838  -4.277  1.00 20.00     0.096 C 
HETATM    7  C7  UNL     1     -33.967  17.779  -3.064  1.00 20.00    -0.022 C 
HETATM    8  S8  UNL     1     -35.937  19.011  -4.502  1.00 20.00    -0.097 SA
HETATM    9  S9  UNL     1     -34.805  17.744  -5.646  1.00 20.00    -0.097 SA
ENDROOT
TORSDOF 0
ENDMDL
MODEL 6
REMARK VINA RESULT:      -3.0      4.160      5.399
REMARK  0 active torsions:
REMARK  status: ('A' for Active; 'I' for Inactive)
ROOT
HETATM    1  C1  UNL     1     -33.641  15.793  -3.508  1.00 20.00     0.001 C 
HETATM    2  C2  UNL     1     -33.592  14.546  -4.388  1.00 20.00     0.001 C 
HETATM    3  C3  UNL     1     -34.031  16.950  -4.428  1.00 20.00     0.011 C 
HETATM    4  C4  UNL     1     -33.864  15.028  -5.808  1.00 20.00     0.011 C 
HETATM    5  C5  UNL     1     -36.196  15.924  -5.358  1.00 20.00     0.096 C 
HETATM    6  C6  UNL     1     -34.681  17.156  -6.909  1.00 20.00     0.096 C 
HETATM    7  C7  UNL     1     -34.723  16.292  -5.639  1.00 20.00    -0.022 C 
HETATM    8  S8  UNL     1     -37.209  17.420  -5.531  1.00 20.00    -0.097 SA
HETATM    9  S9  UNL     1     -35.929  18.458  -6.746  1.00 20.00    -0.097 SA
ENDROOT
TORSDOF 0
ENDMDL
MODEL 7
REMARK VINA RESULT:      -2.8      2.710      3.738
REMARK  0 active torsions:
REMARK  status: ('A' for Active; 'I' for Inactive)
ROOT
HETATM    1  C1  UNL     1     -33.290  16.056  -3.420  1.00 20.00     0.001 C 
HETATM    2  C2  UNL     1     -33.265  17.016  -2.234  1.00 20.00     0.001 C 
HETATM    3  C3  UNL     1     -34.403  16.549  -4.346  1.00 20.00     0.011 C 
HETATM    4  C4  UNL     1     -34.422  17.984  -2.457  1.00 20.00     0.011 C 
HETATM    5  C5  UNL     1     -33.555  18.958  -4.635  1.00 20.00     0.096 C 
HETATM    6  C6  UNL     1     -36.000  18.566  -4.348  1.00 20.00     0.096 C 
HETATM    7  C7  UNL     1     -34.606  18.034  -3.982  1.00 20.00    -0.022 C 
HETATM    8  S8  UNL     1     -34.041  19.263  -6.356  1.00 20.00    -0.097 SA
HETATM    9  S9  UNL     1     -36.039  18.868  -6.132  1.00 20.00    -0.097 SA
ENDROOT
TORSDOF 0
ENDMDL
MODEL 8
REMARK VINA RESULT:      -2.8      4.491      5.481
REMARK  0 active torsions:
REMARK  status: ('A' for Active; 'I' for Inactive)
ROOT
HETATM    1  C1  UNL     1     -33.959  14.393  -4.252  1.00 20.00     0.001 C 
HETATM    2  C2  UNL     1     -33.230  15.667  -3.834  1.00 20.00     0.001 C 
HETATM    3  C3  UNL     1     -35.305  14.839  -4.825  1.00 20.00     0.011 C 
HETATM    4  C4  UNL     1     -34.207  16.809  -4.089  1.00 20.00     0.011 C 
HETATM    5  C5  UNL     1     -34.393  16.462  -6.597  1.00 20.00     0.096 C 
HETATM    6  C6  UNL     1     -36.414  17.113  -5.291  1.00 20.00     0.096 C 
HETATM    7  C7  UNL     1     -35.104  16.312  -5.235  1.00 20.00    -0.022 C 
HETATM    8  S8  UNL     1     -35.612  16.210  -7.918  1.00 20.00    -0.097 SA
HETATM    9  S9  UNL     1     -37.278  16.675  -6.820  1.00 20.00    -0.097 SA
ENDROOT
TORSDOF 0
ENDMDL
MODEL 9
REMARK VINA RESULT:      -2.7     11.603     12.599
REMARK  0 active torsions:
REMARK  status: ('A' for Active; 'I' for Inactive)
ROOT
HETATM    1  C1  UNL     1     -40.418  12.991   4.781  1.00 20.00     0.001 C 
HETATM    2  C2  UNL     1     -40.559  12.064   5.985  1.00 20.00     0.001 C 
HETATM    3  C3  UNL     1     -41.553  14.010   4.889  1.00 20.00     0.011 C 
HETATM    4  C4  UNL     1     -41.825  12.512   6.708  1.00 20.00     0.011 C 
HETATM    5  C5  UNL     1     -41.020  14.856   7.256  1.00 20.00     0.096 C 
HETATM    6  C6  UNL     1     -43.401  14.490   6.613  1.00 20.00     0.096 C 
HETATM    7  C7  UNL     1     -41.962  14.006   6.376  1.00 20.00    -0.022 C 
HETATM    8  S8  UNL     1     -41.483  16.602   7.083  1.00 20.00    -0.097 SA
HETATM    9  S9  UNL     1     -43.417  16.296   6.484  1.00 20.00    -0.097 SA
ENDROOT
TORSDOF 0
ENDMDL
