MODEL 1
REMARK VINA RESULT:      -4.1      0.000      0.000
REMARK  2 active torsions:
REMARK  status: ('A' for Active; 'I' for Inactive)
REMARK    1  A    between atoms: C1_1  and  C4_4 
REMARK    2  A    between atoms: C1_1  and  C5_5 
ROOT
HETATM    1  C1  UNL     1     -33.514   6.870   4.404  1.00 20.00     0.163 C 
HETATM    2  O6  UNL     1     -32.776   6.751   3.424  1.00 20.00    -0.295 OA
ENDROOT
BRANCH   1   3
HETATM    3  C4  UNL     1     -33.535   8.140   5.236  1.00 20.00     0.194 C 
HETATM    4 CL7  UNL     1     -32.139   9.162   4.846  1.00 20.00    -0.122 Cl
ENDBRANCH   1   3
BRANCH   1   5
HETATM    5  C5  UNL     1     -34.439   5.721   4.837  1.00 20.00     0.091 C 
HETATM    6  C2  UNL     1     -34.570   5.672   6.362  1.00 20.00     0.041 C 
HETATM    7  C3  UNL     1     -33.965   4.363   4.319  1.00 20.00     0.041 C 
HETATM    8 CL8  UNL     1     -36.049   6.096   4.142  1.00 20.00    -0.112 Cl
ENDBRANCH   1   5
TORSDOF 2
ENDMDL
MODEL 2
REMARK VINA RESULT:      -4.0      1.174      1.609
REMARK  2 active torsions:
REMARK  status: ('A' for Active; 'I' for Inactive)
REMARK    1  A    between atoms: C1_1  and  C4_4 
REMARK    2  A    between atoms: C1_1  and  C5_5 
ROOT
HETATM    1  C1  UNL     1     -33.490   6.803   4.446  1.00 20.00     0.163 C 
HETATM    2  O6  UNL     1     -32.794   6.690   3.434  1.00 20.00    -0.295 OA
ENDROOT
BRANCH   1   3
HETATM    3  C4  UNL     1     -33.388   8.017   5.352  1.00 20.00     0.194 C 
HETATM    4 CL7  UNL     1     -32.174   9.152   4.736  1.00 20.00    -0.122 Cl
ENDBRANCH   1   3
BRANCH   1   5
HETATM    5  C5  UNL     1     -34.485   5.700   4.842  1.00 20.00     0.091 C 
HETATM    6  C2  UNL     1     -35.871   5.979   4.252  1.00 20.00     0.041 C 
HETATM    7  C3  UNL     1     -34.597   5.531   6.357  1.00 20.00     0.041 C 
HETATM    8 CL8  UNL     1     -33.856   4.185   4.117  1.00 20.00    -0.112 Cl
ENDBRANCH   1   5
TORSDOF 2
ENDMDL
MODEL 3
REMARK VINA RESULT:      -3.9      1.167      1.621
REMARK  2 active torsions:
REMARK  status: ('A' for Active; 'I' for Inactive)
REMARK    1  A    between atoms: C1_1  and  C4_4 
REMARK    2  A    between atoms: C1_1  and  C5_5 
ROOT
HETATM    1  C1  UNL     1     -33.501   6.905   4.383  1.00 20.00     0.163 C 
HETATM    2  O6  UNL     1     -32.750   6.792   3.412  1.00 20.00    -0.295 OA
ENDROOT
BRANCH   1   3
HETATM    3  C4  UNL     1     -33.494   8.147   5.256  1.00 20.00     0.194 C 
HETATM    4 CL7  UNL     1     -32.118   9.188   4.845  1.00 20.00    -0.122 Cl
ENDBRANCH   1   3
BRANCH   1   5
HETATM    5  C5  UNL     1     -34.470   5.774   4.763  1.00 20.00     0.091 C 
HETATM    6  C2  UNL     1     -33.947   4.420   4.271  1.00 20.00     0.041 C 
HETATM    7  C3  UNL     1     -35.880   6.007   4.221  1.00 20.00     0.041 C 
HETATM    8 CL8  UNL     1     -34.517   5.746   6.555  1.00 20.00    -0.112 Cl
ENDBRANCH   1   5
TORSDOF 2
ENDMDL
MODEL 4
REMARK VINA RESULT:      -3.8      1.279      1.410
REMARK  2 active torsions:
REMARK  status: ('A' for Active; 'I' for Inactive)
REMARK    1  A    between atoms: C1_1  and  C4_4 
REMARK    2  A    between atoms: C1_1  and  C5_5 
ROOT
HETATM    1  C1  UNL     1     -33.613   7.115   4.725  1.00 20.00     0.163 C 
HETATM    2  O6  UNL     1     -33.781   8.038   5.526  1.00 20.00    -0.295 OA
ENDROOT
BRANCH   1   3
HETATM    3  C4  UNL     1     -32.612   7.220   3.588  1.00 20.00     0.194 C 
HETATM    4 CL7  UNL     1     -32.588   8.866   2.931  1.00 20.00    -0.122 Cl
ENDBRANCH   1   3
BRANCH   1   5
HETATM    5  C5  UNL     1     -34.430   5.818   4.838  1.00 20.00     0.091 C 
HETATM    6  C2  UNL     1     -34.618   5.418   6.304  1.00 20.00     0.041 C 
HETATM    7  C3  UNL     1     -33.796   4.660   4.067  1.00 20.00     0.041 C 
HETATM    8 CL8  UNL     1     -36.040   6.189   4.140  1.00 20.00    -0.112 Cl
ENDBRANCH   1   5
TORSDOF 2
ENDMDL
MODEL 5
REMARK VINA RESULT:      -3.6      1.554      1.715
REMARK  2 active torsions:
REMARK  status: ('A' for Active; 'I' for Inactive)
REMARK    1  A    between atoms: C1_1  and  C4_4 
REMARK    2  A    between atoms: C1_1  and  C5_5 
ROOT
HETATM    1  C1  UNL     1     -33.304   6.192   3.740  1.00 20.00     0.163 C 
HETATM    2  O6  UNL     1     -33.183   5.257   2.943  1.00 20.00    -0.295 OA
ENDROOT
BRANCH   1   3
HETATM    3  C4  UNL     1     -32.486   7.463   3.606  1.00 20.00     0.194 C 
HETATM    4 CL7  UNL     1     -32.142   7.805   1.900  1.00 20.00    -0.122 Cl
ENDBRANCH   1   3
BRANCH   1   5
HETATM    5  C5  UNL     1     -34.284   6.097   4.920  1.00 20.00     0.091 C 
HETATM    6  C2  UNL     1     -34.075   7.259   5.896  1.00 20.00     0.041 C 
HETATM    7  C3  UNL     1     -34.168   4.770   5.670  1.00 20.00     0.041 C 
HETATM    8 CL8  UNL     1     -35.925   6.240   4.211  1.00 20.00    -0.112 Cl
ENDBRANCH   1   5
TORSDOF 2
ENDMDL
MODEL 6
REMARK VINA RESULT:      -3.4     15.919     16.955
REMARK  2 active torsions:
REMARK  status: ('A' for Active; 'I' for Inactive)
REMARK    1  A    between atoms: C1_1  and  C4_4 
REMARK    2  A    between atoms: C1_1  and  C5_5 
ROOT
HETATM    1  C1  UNL     1     -22.635  18.410  11.257  1.00 20.00     0.163 C 
HETATM    2  O6  UNL     1     -22.026  18.411  12.330  1.00 20.00    -0.295 OA
ENDROOT
BRANCH   1   3
HETATM    3  C4  UNL     1     -21.946  18.761   9.951  1.00 20.00     0.194 C 
HETATM    4 CL7  UNL     1     -21.586  17.294   9.023  1.00 20.00    -0.122 Cl
ENDBRANCH   1   3
BRANCH   1   5
HETATM    5  C5  UNL     1     -24.132  18.066  11.203  1.00 20.00     0.091 C 
HETATM    6  C2  UNL     1     -24.893  18.769  12.331  1.00 20.00     0.041 C 
HETATM    7  C3  UNL     1     -24.389  16.561  11.270  1.00 20.00     0.041 C 
HETATM    8 CL8  UNL     1     -24.727  18.704   9.636  1.00 20.00    -0.112 Cl
ENDBRANCH   1   5
TORSDOF 2
ENDMDL
MODEL 7
REMARK VINA RESULT:      -3.4     16.199     16.499
REMARK  2 active torsions:
REMARK  status: ('A' for Active; 'I' for Inactive)
REMARK    1  A    between atoms: C1_1  and  C4_4 
REMARK    2  A    between atoms: C1_1  and  C5_5 
ROOT
HETATM    1  C1  UNL     1     -24.725  18.650  11.052  1.00 20.00     0.163 C 
HETATM    2  O6  UNL     1     -25.039  19.056   9.930  1.00 20.00    -0.295 OA
ENDROOT
BRANCH   1   3
HETATM    3  C4  UNL     1     -25.455  19.113  12.300  1.00 20.00     0.194 C 
HETATM    4 CL7  UNL     1     -27.106  18.465  12.332  1.00 20.00    -0.122 Cl
ENDBRANCH   1   3
BRANCH   1   5
HETATM    5  C5  UNL     1     -23.561  17.663  11.233  1.00 20.00     0.091 C 
HETATM    6  C2  UNL     1     -22.587  18.160  12.306  1.00 20.00     0.041 C 
HETATM    7  C3  UNL     1     -22.803  17.408   9.931  1.00 20.00     0.041 C 
HETATM    8 CL8  UNL     1     -24.298  16.131  11.805  1.00 20.00    -0.112 Cl
ENDBRANCH   1   5
TORSDOF 2
ENDMDL
MODEL 8
REMARK VINA RESULT:      -3.3     12.255     13.109
REMARK  2 active torsions:
REMARK  status: ('A' for Active; 'I' for Inactive)
REMARK    1  A    between atoms: C1_1  and  C4_4 
REMARK    2  A    between atoms: C1_1  and  C5_5 
ROOT
HETATM    1  C1  UNL     1     -33.952  15.016  -4.272  1.00 20.00     0.163 C 
HETATM    2  O6  UNL     1     -34.053  13.862  -3.848  1.00 20.00    -0.295 OA
ENDROOT
BRANCH   1   3
HETATM    3  C4  UNL     1     -32.987  16.011  -3.652  1.00 20.00     0.194 C 
HETATM    4 CL7  UNL     1     -33.589  16.562  -2.078  1.00 20.00    -0.122 Cl
ENDBRANCH   1   3
BRANCH   1   5
HETATM    5  C5  UNL     1     -34.820  15.502  -5.444  1.00 20.00     0.091 C 
HETATM    6  C2  UNL     1     -34.106  15.277  -6.781  1.00 20.00     0.041 C 
HETATM    7  C3  UNL     1     -35.210  16.974  -5.311  1.00 20.00     0.041 C 
HETATM    8 CL8  UNL     1     -36.299  14.487  -5.415  1.00 20.00    -0.112 Cl
ENDBRANCH   1   5
TORSDOF 2
ENDMDL
MODEL 9
REMARK VINA RESULT:      -3.2      2.165      3.025
REMARK  2 active torsions:
REMARK  status: ('A' for Active; 'I' for Inactive)
REMARK    1  A    between atoms: C1_1  and  C4_4 
REMARK    2  A    between atoms: C1_1  and  C5_5 
ROOT
HETATM    1  C1  UNL     1     -33.810   5.088   4.092  1.00 20.00     0.163 C 
HETATM    2  O6  UNL     1     -33.949   3.891   4.357  1.00 20.00    -0.295 OA
ENDROOT
BRANCH   1   3
HETATM    3  C4  UNL     1     -32.897   5.555   2.972  1.00 20.00     0.194 C 
HETATM    4 CL7  UNL     1     -32.839   4.349   1.674  1.00 20.00    -0.122 Cl
ENDBRANCH   1   3
BRANCH   1   5
HETATM    5  C5  UNL     1     -34.548   6.164   4.905  1.00 20.00     0.091 C 
HETATM    6  C2  UNL     1     -33.834   7.515   4.794  1.00 20.00     0.041 C 
HETATM    7  C3  UNL     1     -34.700   5.783   6.377  1.00 20.00     0.041 C 
HETATM    8 CL8  UNL     1     -36.170   6.319   4.157  1.00 20.00    -0.112 Cl
ENDBRANCH   1   5
TORSDOF 2
ENDMDL
