MODEL 1
REMARK VINA RESULT:      -3.4      0.000      0.000
REMARK  1 active torsions:
REMARK  status: ('A' for Active; 'I' for Inactive)
REMARK    1  A    between atoms: C3_3  and  C7_7 
ROOT
HETATM    1  C1  UNL     1     -32.321   8.009   4.741  1.00 20.00     0.089 C 
HETATM    2  C2  UNL     1     -32.118   7.619   3.284  1.00 20.00     0.053 C 
HETATM    3  C3  UNL     1     -34.480   6.497   4.133  1.00 20.00     0.112 C 
HETATM    4  C4  UNL     1     -32.486   8.724   2.295  1.00 20.00     0.022 C 
HETATM    5  S8  UNL     1     -34.093   7.980   5.112  1.00 20.00    -0.152 SA
HETATM    6  S9  UNL     1     -33.123   6.131   2.971  1.00 20.00    -0.148 SA
ENDROOT
BRANCH   3   7
HETATM    7  C7  UNL     1     -34.695   5.305   5.057  1.00 20.00     0.001 C 
HETATM    8  C5  UNL     1     -33.792   4.139   4.655  1.00 20.00     0.011 C 
HETATM    9  C6  UNL     1     -34.444   5.698   6.513  1.00 20.00     0.011 C 
ENDBRANCH   3   7
TORSDOF 1
ENDMDL
MODEL 2
REMARK VINA RESULT:      -3.1     12.344     13.850
REMARK  1 active torsions:
REMARK  status: ('A' for Active; 'I' for Inactive)
REMARK    1  A    between atoms: C3_3  and  C7_7 
ROOT
HETATM    1  C1  UNL     1     -34.366  16.843  -6.828  1.00 20.00     0.089 C 
HETATM    2  C2  UNL     1     -34.451  15.340  -6.601  1.00 20.00     0.053 C 
HETATM    3  C3  UNL     1     -34.413  16.562  -4.137  1.00 20.00     0.112 C 
HETATM    4  C4  UNL     1     -35.856  14.769  -6.787  1.00 20.00     0.022 C 
HETATM    5  S8  UNL     1     -35.082  17.691  -5.397  1.00 20.00    -0.152 SA
HETATM    6  S9  UNL     1     -33.853  15.008  -4.911  1.00 20.00    -0.148 SA
ENDROOT
BRANCH   3   7
HETATM    7  C7  UNL     1     -33.246  17.222  -3.415  1.00 20.00     0.001 C 
HETATM    8  C5  UNL     1     -33.154  18.704  -3.779  1.00 20.00     0.011 C 
HETATM    9  C6  UNL     1     -33.379  17.050  -1.902  1.00 20.00     0.011 C 
ENDBRANCH   3   7
TORSDOF 1
ENDMDL
MODEL 3
REMARK VINA RESULT:      -3.0     12.312     14.030
REMARK  1 active torsions:
REMARK  status: ('A' for Active; 'I' for Inactive)
REMARK    1  A    between atoms: C3_3  and  C7_7 
ROOT
HETATM    1  C1  UNL     1     -34.553  17.175  -7.233  1.00 20.00     0.089 C 
HETATM    2  C2  UNL     1     -35.613  16.092  -7.092  1.00 20.00     0.053 C 
HETATM    3  C3  UNL     1     -34.739  16.745  -4.568  1.00 20.00     0.112 C 
HETATM    4  C4  UNL     1     -37.045  16.614  -7.211  1.00 20.00     0.022 C 
HETATM    5  S8  UNL     1     -34.504  18.146  -5.705  1.00 20.00    -0.152 SA
HETATM    6  S9  UNL     1     -35.366  15.291  -5.474  1.00 20.00    -0.148 SA
ENDROOT
BRANCH   3   7
HETATM    7  C7  UNL     1     -33.419  16.396  -3.894  1.00 20.00     0.001 C 
HETATM    8  C5  UNL     1     -33.503  16.635  -2.386  1.00 20.00     0.011 C 
HETATM    9  C6  UNL     1     -33.030  14.947  -4.184  1.00 20.00     0.011 C 
ENDBRANCH   3   7
TORSDOF 1
ENDMDL
MODEL 4
REMARK VINA RESULT:      -3.0     12.413     13.528
REMARK  1 active torsions:
REMARK  status: ('A' for Active; 'I' for Inactive)
REMARK    1  A    between atoms: C3_3  and  C7_7 
ROOT
HETATM    1  C1  UNL     1     -35.123  14.785  -5.220  1.00 20.00     0.089 C 
HETATM    2  C2  UNL     1     -35.082  15.890  -6.265  1.00 20.00     0.053 C 
HETATM    3  C3  UNL     1     -33.605  16.725  -4.102  1.00 20.00     0.112 C 
HETATM    4  C4  UNL     1     -34.091  15.627  -7.398  1.00 20.00     0.022 C 
HETATM    5  S8  UNL     1     -33.645  14.909  -4.181  1.00 20.00    -0.152 SA
HETATM    6  S9  UNL     1     -34.660  17.440  -5.406  1.00 20.00    -0.148 SA
ENDROOT
BRANCH   3   7
HETATM    7  C7  UNL     1     -34.091  17.196  -2.737  1.00 20.00     0.001 C 
HETATM    8  C5  UNL     1     -32.909  17.458  -1.803  1.00 20.00     0.011 C 
HETATM    9  C6  UNL     1     -34.952  18.451  -2.873  1.00 20.00     0.011 C 
ENDBRANCH   3   7
TORSDOF 1
ENDMDL
MODEL 5
REMARK VINA RESULT:      -2.9     12.370     13.958
REMARK  1 active torsions:
REMARK  status: ('A' for Active; 'I' for Inactive)
REMARK    1  A    between atoms: C3_3  and  C7_7 
ROOT
HETATM    1  C1  UNL     1     -36.545  16.498  -5.302  1.00 20.00     0.089 C 
HETATM    2  C2  UNL     1     -36.743  17.880  -4.695  1.00 20.00     0.053 C 
HETATM    3  C3  UNL     1     -34.055  17.303  -4.613  1.00 20.00     0.112 C 
HETATM    4  C4  UNL     1     -36.923  18.986  -5.734  1.00 20.00     0.022 C 
HETATM    5  S8  UNL     1     -34.862  16.385  -5.961  1.00 20.00    -0.152 SA
HETATM    6  S9  UNL     1     -35.294  18.229  -3.647  1.00 20.00    -0.148 SA
ENDROOT
BRANCH   3   7
HETATM    7  C7  UNL     1     -33.312  16.338  -3.699  1.00 20.00     0.001 C 
HETATM    8  C5  UNL     1     -33.510  16.722  -2.233  1.00 20.00     0.011 C 
HETATM    9  C6  UNL     1     -33.773  14.901  -3.942  1.00 20.00     0.011 C 
ENDBRANCH   3   7
TORSDOF 1
ENDMDL
MODEL 6
REMARK VINA RESULT:      -2.8     12.064     13.673
REMARK  1 active torsions:
REMARK  status: ('A' for Active; 'I' for Inactive)
REMARK    1  A    between atoms: C3_3  and  C7_7 
ROOT
HETATM    1  C1  UNL     1     -32.946  15.138  -4.199  1.00 20.00     0.089 C 
HETATM    2  C2  UNL     1     -33.169  16.575  -3.750  1.00 20.00     0.053 C 
HETATM    3  C3  UNL     1     -35.391  15.782  -5.161  1.00 20.00     0.112 C 
HETATM    4  C4  UNL     1     -33.598  16.703  -2.289  1.00 20.00     0.022 C 
HETATM    5  S8  UNL     1     -34.556  14.342  -4.428  1.00 20.00    -0.152 SA
HETATM    6  S9  UNL     1     -34.432  17.300  -4.845  1.00 20.00    -0.148 SA
ENDROOT
BRANCH   3   7
HETATM    7  C7  UNL     1     -35.549  15.582  -6.663  1.00 20.00     0.001 C 
HETATM    8  C5  UNL     1     -36.776  16.331  -7.182  1.00 20.00     0.011 C 
HETATM    9  C6  UNL     1     -34.292  16.036  -7.404  1.00 20.00     0.011 C 
ENDBRANCH   3   7
TORSDOF 1
ENDMDL
MODEL 7
REMARK VINA RESULT:      -2.8     12.493     13.726
REMARK  1 active torsions:
REMARK  status: ('A' for Active; 'I' for Inactive)
REMARK    1  A    between atoms: C3_3  and  C7_7 
ROOT
HETATM    1  C1  UNL     1     -34.774  18.517  -1.914  1.00 20.00     0.089 C 
HETATM    2  C2  UNL     1     -33.629  17.601  -1.505  1.00 20.00     0.053 C 
HETATM    3  C3  UNL     1     -33.835  17.516  -4.246  1.00 20.00     0.112 C 
HETATM    4  C4  UNL     1     -32.333  18.344  -1.185  1.00 20.00     0.022 C 
HETATM    5  S8  UNL     1     -34.486  19.090  -3.608  1.00 20.00    -0.152 SA
HETATM    6  S9  UNL     1     -33.360  16.421  -2.867  1.00 20.00    -0.148 SA
ENDROOT
BRANCH   3   7
HETATM    7  C7  UNL     1     -34.888  16.828  -5.104  1.00 20.00     0.001 C 
HETATM    8  C5  UNL     1     -35.037  17.538  -6.450  1.00 20.00     0.011 C 
HETATM    9  C6  UNL     1     -34.537  15.355  -5.314  1.00 20.00     0.011 C 
ENDBRANCH   3   7
TORSDOF 1
ENDMDL
MODEL 8
REMARK VINA RESULT:      -2.7      9.989     10.908
REMARK  1 active torsions:
REMARK  status: ('A' for Active; 'I' for Inactive)
REMARK    1  A    between atoms: C3_3  and  C7_7 
ROOT
HETATM    1  C1  UNL     1     -42.632  13.278   8.260  1.00 20.00     0.089 C 
HETATM    2  C2  UNL     1     -41.930  14.628   8.231  1.00 20.00     0.053 C 
HETATM    3  C3  UNL     1     -41.150  13.228   5.997  1.00 20.00     0.112 C 
HETATM    4  C4  UNL     1     -42.819  15.772   7.745  1.00 20.00     0.022 C 
HETATM    5  S8  UNL     1     -42.784  12.662   6.564  1.00 20.00    -0.152 SA
HETATM    6  S9  UNL     1     -40.470  14.462   7.154  1.00 20.00    -0.148 SA
ENDROOT
BRANCH   3   7
HETATM    7  C7  UNL     1     -40.197  12.045   5.895  1.00 20.00     0.001 C 
HETATM    8  C5  UNL     1     -39.608  11.944   4.488  1.00 20.00     0.011 C 
HETATM    9  C6  UNL     1     -39.082  12.157   6.934  1.00 20.00     0.011 C 
ENDBRANCH   3   7
TORSDOF 1
ENDMDL
MODEL 9
REMARK VINA RESULT:      -2.7     10.429     11.525
REMARK  1 active torsions:
REMARK  status: ('A' for Active; 'I' for Inactive)
REMARK    1  A    between atoms: C3_3  and  C7_7 
ROOT
HETATM    1  C1  UNL     1     -42.344  15.038   8.181  1.00 20.00     0.089 C 
HETATM    2  C2  UNL     1     -43.276  13.839   8.279  1.00 20.00     0.053 C 
HETATM    3  C3  UNL     1     -40.961  13.005   7.052  1.00 20.00     0.112 C 
HETATM    4  C4  UNL     1     -43.299  13.189   9.662  1.00 20.00     0.022 C 
HETATM    5  S8  UNL     1     -40.635  14.445   8.116  1.00 20.00    -0.152 SA
HETATM    6  S9  UNL     1     -42.745  12.630   7.023  1.00 20.00    -0.148 SA
ENDROOT
BRANCH   3   7
HETATM    7  C7  UNL     1     -40.475  13.285   5.636  1.00 20.00     0.001 C 
HETATM    8  C5  UNL     1     -39.850  12.033   5.021  1.00 20.00     0.011 C 
HETATM    9  C6  UNL     1     -41.621  13.794   4.762  1.00 20.00     0.011 C 
ENDBRANCH   3   7
TORSDOF 1
ENDMDL
