MODEL 1
REMARK VINA RESULT:      -4.6      0.000      0.000
REMARK  1 active torsions:
REMARK  status: ('A' for Active; 'I' for Inactive)
REMARK    1  A    between atoms: C3_3  and  C6_6 
ROOT
HETATM    1  C1  UNL     1     -33.851   7.652   4.809  1.00 20.00    -0.009 C 
HETATM    2  C2  UNL     1     -32.808   7.906   3.998  1.00 20.00    -0.086 C 
HETATM    3  C4  UNL     1     -32.316   6.895   2.991  1.00 20.00     0.037 C 
HETATM    4  C5  UNL     1     -33.888   5.232   4.050  1.00 20.00     0.023 C 
HETATM    5  C6  UNL     1     -34.597   6.353   4.812  1.00 20.00     0.110 C 
HETATM    6  C7  UNL     1     -33.314   5.754   2.728  1.00 20.00    -0.014 C 
HETATM    7  C8  UNL     1     -32.065   9.208   4.046  1.00 20.00     0.043 C 
HETATM    8  C9  UNL     1     -32.653   4.630   1.932  1.00 20.00     0.010 C 
ENDROOT
BRANCH   5   9
HETATM    9  C3  UNL     1     -34.708   5.899   6.253  1.00 20.00     0.180 C 
HETATM   10  O10 UNL     1     -34.856   4.656   6.417  1.00 20.00    -0.647 OA
HETATM   11  O11 UNL     1     -34.638   6.827   7.107  1.00 20.00    -0.647 OA
ENDBRANCH   5   9
TORSDOF 1
ENDMDL
MODEL 2
REMARK VINA RESULT:      -4.5      2.177      3.907
REMARK  1 active torsions:
REMARK  status: ('A' for Active; 'I' for Inactive)
REMARK    1  A    between atoms: C3_3  and  C6_6 
ROOT
HETATM    1  C1  UNL     1     -33.095   6.674   3.161  1.00 20.00    -0.009 C 
HETATM    2  C2  UNL     1     -33.362   5.358   3.250  1.00 20.00    -0.086 C 
HETATM    3  C4  UNL     1     -34.017   4.757   4.469  1.00 20.00     0.037 C 
HETATM    4  C5  UNL     1     -33.728   6.994   5.598  1.00 20.00     0.023 C 
HETATM    5  C6  UNL     1     -33.391   7.651   4.258  1.00 20.00     0.110 C 
HETATM    6  C7  UNL     1     -34.668   5.800   5.394  1.00 20.00    -0.014 C 
HETATM    7  C8  UNL     1     -33.021   4.404   2.143  1.00 20.00     0.043 C 
HETATM    8  C9  UNL     1     -35.056   5.171   6.730  1.00 20.00     0.010 C 
ENDROOT
BRANCH   5   9
HETATM    9  C3  UNL     1     -32.139   8.475   4.478  1.00 20.00     0.180 C 
HETATM   10  O10 UNL     1     -32.277   9.470   5.243  1.00 20.00    -0.647 OA
HETATM   11  O11 UNL     1     -31.116   8.059   3.866  1.00 20.00    -0.647 OA
ENDBRANCH   5   9
TORSDOF 1
ENDMDL
MODEL 3
REMARK VINA RESULT:      -4.2     15.638     16.926
REMARK  1 active torsions:
REMARK  status: ('A' for Active; 'I' for Inactive)
REMARK    1  A    between atoms: C3_3  and  C6_6 
ROOT
HETATM    1  C1  UNL     1     -23.710  19.038   8.009  1.00 20.00    -0.009 C 
HETATM    2  C2  UNL     1     -24.908  19.037   8.621  1.00 20.00    -0.086 C 
HETATM    3  C4  UNL     1     -25.046  18.804  10.106  1.00 20.00     0.037 C 
HETATM    4  C5  UNL     1     -22.593  18.217  10.134  1.00 20.00     0.023 C 
HETATM    5  C6  UNL     1     -22.419  18.784   8.724  1.00 20.00     0.110 C 
HETATM    6  C7  UNL     1     -23.720  18.945  10.875  1.00 20.00    -0.014 C 
HETATM    7  C8  UNL     1     -26.184  19.262   7.865  1.00 20.00     0.043 C 
HETATM    8  C9  UNL     1     -23.866  18.425  12.303  1.00 20.00     0.010 C 
ENDROOT
BRANCH   5   9
HETATM    9  C3  UNL     1     -21.657  17.745   7.926  1.00 20.00     0.180 C 
HETATM   10  O10 UNL     1     -21.295  16.726   8.576  1.00 20.00    -0.647 OA
HETATM   11  O11 UNL     1     -21.482  18.036   6.710  1.00 20.00    -0.647 OA
ENDBRANCH   5   9
TORSDOF 1
ENDMDL
MODEL 4
REMARK VINA RESULT:      -4.2      2.323      3.486
REMARK  1 active torsions:
REMARK  status: ('A' for Active; 'I' for Inactive)
REMARK    1  A    between atoms: C3_3  and  C6_6 
ROOT
HETATM    1  C1  UNL     1     -33.200   7.237   5.296  1.00 20.00    -0.009 C 
HETATM    2  C2  UNL     1     -34.060   6.203   5.255  1.00 20.00    -0.086 C 
HETATM    3  C4  UNL     1     -34.129   5.269   4.071  1.00 20.00     0.037 C 
HETATM    4  C5  UNL     1     -32.574   6.850   2.869  1.00 20.00     0.023 C 
HETATM    5  C6  UNL     1     -32.262   7.575   4.179  1.00 20.00     0.110 C 
HETATM    6  C7  UNL     1     -32.914   5.378   3.132  1.00 20.00    -0.014 C 
HETATM    7  C8  UNL     1     -35.009   5.916   6.381  1.00 20.00     0.043 C 
HETATM    8  C9  UNL     1     -33.173   4.630   1.826  1.00 20.00     0.010 C 
ENDROOT
BRANCH   5   9
HETATM    9  C3  UNL     1     -32.403   9.058   3.902  1.00 20.00     0.180 C 
HETATM   10  O10 UNL     1     -32.771   9.354   2.731  1.00 20.00    -0.647 OA
HETATM   11  O11 UNL     1     -32.134   9.807   4.881  1.00 20.00    -0.647 OA
ENDBRANCH   5   9
TORSDOF 1
ENDMDL
MODEL 5
REMARK VINA RESULT:      -4.2     12.176     13.571
REMARK  1 active torsions:
REMARK  status: ('A' for Active; 'I' for Inactive)
REMARK    1  A    between atoms: C3_3  and  C6_6 
ROOT
HETATM    1  C1  UNL     1     -34.668  16.071  -5.996  1.00 20.00    -0.009 C 
HETATM    2  C2  UNL     1     -34.445  17.358  -5.671  1.00 20.00    -0.086 C 
HETATM    3  C4  UNL     1     -33.925  17.759  -4.312  1.00 20.00     0.037 C 
HETATM    4  C5  UNL     1     -34.260  15.365  -3.594  1.00 20.00     0.023 C 
HETATM    5  C6  UNL     1     -34.451  14.932  -5.048  1.00 20.00     0.110 C 
HETATM    6  C7  UNL     1     -33.337  16.586  -3.509  1.00 20.00    -0.014 C 
HETATM    7  C8  UNL     1     -34.706  18.476  -6.637  1.00 20.00     0.043 C 
HETATM    8  C9  UNL     1     -33.094  16.993  -2.057  1.00 20.00     0.010 C 
ENDROOT
BRANCH   5   9
HETATM    9  C3  UNL     1     -35.695  14.068  -5.088  1.00 20.00     0.180 C 
HETATM   10  O10 UNL     1     -35.677  13.062  -4.326  1.00 20.00    -0.647 OA
HETATM   11  O11 UNL     1     -36.592  14.469  -5.881  1.00 20.00    -0.647 OA
ENDBRANCH   5   9
TORSDOF 1
ENDMDL
MODEL 6
REMARK VINA RESULT:      -4.1     12.153     13.662
REMARK  1 active torsions:
REMARK  status: ('A' for Active; 'I' for Inactive)
REMARK    1  A    between atoms: C3_3  and  C6_6 
ROOT
HETATM    1  C1  UNL     1     -34.465  17.286  -4.868  1.00 20.00    -0.009 C 
HETATM    2  C2  UNL     1     -35.084  18.242  -4.152  1.00 20.00    -0.086 C 
HETATM    3  C4  UNL     1     -34.871  18.390  -2.666  1.00 20.00     0.037 C 
HETATM    4  C5  UNL     1     -33.598  16.214  -2.738  1.00 20.00     0.023 C 
HETATM    5  C6  UNL     1     -33.540  16.274  -4.265  1.00 20.00     0.110 C 
HETATM    6  C7  UNL     1     -33.642  17.626  -2.142  1.00 20.00    -0.014 C 
HETATM    7  C8  UNL     1     -36.031  19.218  -4.786  1.00 20.00     0.043 C 
HETATM    8  C9  UNL     1     -33.645  17.579  -0.616  1.00 20.00     0.010 C 
ENDROOT
BRANCH   5   9
HETATM    9  C3  UNL     1     -33.968  14.912  -4.773  1.00 20.00     0.180 C 
HETATM   10  O10 UNL     1     -34.033  14.006  -3.896  1.00 20.00    -0.647 OA
HETATM   11  O11 UNL     1     -34.204  14.859  -6.012  1.00 20.00    -0.647 OA
ENDBRANCH   5   9
TORSDOF 1
ENDMDL
MODEL 7
REMARK VINA RESULT:      -4.0     12.384     13.500
REMARK  1 active torsions:
REMARK  status: ('A' for Active; 'I' for Inactive)
REMARK    1  A    between atoms: C3_3  and  C6_6 
ROOT
HETATM    1  C1  UNL     1     -34.665  18.442  -2.454  1.00 20.00    -0.009 C 
HETATM    2  C2  UNL     1     -35.040  18.227  -3.728  1.00 20.00    -0.086 C 
HETATM    3  C4  UNL     1     -34.573  17.021  -4.506  1.00 20.00     0.037 C 
HETATM    4  C5  UNL     1     -33.012  16.521  -2.588  1.00 20.00     0.023 C 
HETATM    5  C6  UNL     1     -33.741  17.533  -1.702  1.00 20.00     0.110 C 
HETATM    6  C7  UNL     1     -33.971  15.915  -3.620  1.00 20.00    -0.014 C 
HETATM    7  C8  UNL     1     -35.941  19.178  -4.460  1.00 20.00     0.043 C 
HETATM    8  C9  UNL     1     -33.267  14.862  -4.474  1.00 20.00     0.010 C 
ENDROOT
BRANCH   5   9
HETATM    9  C3  UNL     1     -32.676  18.400  -1.062  1.00 20.00     0.180 C 
HETATM   10  O10 UNL     1     -32.626  18.349   0.198  1.00 20.00    -0.647 OA
HETATM   11  O11 UNL     1     -31.976  19.065  -1.876  1.00 20.00    -0.647 OA
ENDBRANCH   5   9
TORSDOF 1
ENDMDL
MODEL 8
REMARK VINA RESULT:      -3.9      9.872     11.105
REMARK  1 active torsions:
REMARK  status: ('A' for Active; 'I' for Inactive)
REMARK    1  A    between atoms: C3_3  and  C6_6 
ROOT
HETATM    1  C1  UNL     1     -40.587  13.732   7.493  1.00 20.00    -0.009 C 
HETATM    2  C2  UNL     1     -40.886  15.035   7.636  1.00 20.00    -0.086 C 
HETATM    3  C4  UNL     1     -41.712  15.782   6.617  1.00 20.00     0.037 C 
HETATM    4  C5  UNL     1     -41.544  13.742   5.143  1.00 20.00     0.023 C 
HETATM    5  C6  UNL     1     -41.015  12.912   6.314  1.00 20.00     0.110 C 
HETATM    6  C7  UNL     1     -42.467  14.859   5.644  1.00 20.00    -0.014 C 
HETATM    7  C8  UNL     1     -40.412  15.832   8.815  1.00 20.00     0.043 C 
HETATM    8  C9  UNL     1     -43.045  15.659   4.479  1.00 20.00     0.010 C 
ENDROOT
BRANCH   5   9
HETATM    9  C3  UNL     1     -39.792  12.174   5.809  1.00 20.00     0.180 C 
HETATM   10  O10 UNL     1     -39.724  12.039   4.556  1.00 20.00    -0.647 OA
HETATM   11  O11 UNL     1     -38.997  11.788   6.711  1.00 20.00    -0.647 OA
ENDBRANCH   5   9
TORSDOF 1
ENDMDL
MODEL 9
REMARK VINA RESULT:      -3.9      9.698     10.781
REMARK  1 active torsions:
REMARK  status: ('A' for Active; 'I' for Inactive)
REMARK    1  A    between atoms: C3_3  and  C6_6 
ROOT
HETATM    1  C1  UNL     1     -42.051  14.352   6.660  1.00 20.00    -0.009 C 
HETATM    2  C2  UNL     1     -42.049  14.367   5.315  1.00 20.00    -0.086 C 
HETATM    3  C4  UNL     1     -41.095  13.522   4.507  1.00 20.00     0.037 C 
HETATM    4  C5  UNL     1     -39.934  12.953   6.673  1.00 20.00     0.023 C 
HETATM    5  C6  UNL     1     -41.102  13.529   7.476  1.00 20.00     0.110 C 
HETATM    6  C7  UNL     1     -40.420  12.407   5.326  1.00 20.00    -0.014 C 
HETATM    7  C8  UNL     1     -42.994  15.231   4.531  1.00 20.00     0.043 C 
HETATM    8  C9  UNL     1     -39.271  11.779   4.539  1.00 20.00     0.010 C 
ENDROOT
BRANCH   5   9
HETATM    9  C3  UNL     1     -40.503  14.440   8.528  1.00 20.00     0.180 C 
HETATM   10  O10 UNL     1     -40.438  13.951   9.690  1.00 20.00    -0.647 OA
HETATM   11  O11 UNL     1     -40.146  15.574   8.104  1.00 20.00    -0.647 OA
ENDBRANCH   5   9
TORSDOF 1
ENDMDL
