MODEL 1
REMARK VINA RESULT:      -3.5      0.000      0.000
REMARK  1 active torsions:
REMARK  status: ('A' for Active; 'I' for Inactive)
REMARK    1  A    between atoms: C3_3  and  C7_7 
ROOT
HETATM    1  C1  UNL     1     -35.473  18.475  -3.174  1.00 20.00     0.255 C 
HETATM    2  C2  UNL     1     -33.381  17.728  -3.347  1.00 20.00     0.157 C 
HETATM    3  C3  UNL     1     -33.552  18.521  -2.067  1.00 20.00     0.164 C 
HETATM    4  C4  UNL     1     -33.368  16.210  -3.206  1.00 20.00     0.043 C 
HETATM    5  O8  UNL     1     -34.543  18.105  -4.091  1.00 20.00    -0.314 OA
HETATM    6  O9  UNL     1     -34.970  18.590  -1.918  1.00 20.00    -0.313 OA
HETATM    7  S10 UNL     1     -37.049  18.752  -3.545  1.00 20.00    -0.025 SA
ENDROOT
BRANCH   3   8
HETATM    8  C7  UNL     1     -32.915  17.944  -0.818  1.00 20.00     0.010 C 
HETATM    9  C5  UNL     1     -31.546  18.579  -0.558  1.00 20.00     0.012 C 
HETATM   10  C6  UNL     1     -33.825  18.133   0.397  1.00 20.00     0.012 C 
ENDBRANCH   3   8
TORSDOF 1
ENDMDL
MODEL 2
REMARK VINA RESULT:      -3.5     11.087     12.244
REMARK  1 active torsions:
REMARK  status: ('A' for Active; 'I' for Inactive)
REMARK    1  A    between atoms: C3_3  and  C7_7 
ROOT
HETATM    1  C1  UNL     1     -41.171  15.030   7.063  1.00 20.00     0.255 C 
HETATM    2  C2  UNL     1     -42.215  13.373   6.000  1.00 20.00     0.157 C 
HETATM    3  C3  UNL     1     -40.745  13.393   5.630  1.00 20.00     0.164 C 
HETATM    4  C4  UNL     1     -42.645  12.313   7.008  1.00 20.00     0.043 C 
HETATM    5  O8  UNL     1     -42.391  14.662   6.595  1.00 20.00    -0.314 OA
HETATM    6  O9  UNL     1     -40.168  14.216   6.643  1.00 20.00    -0.313 OA
HETATM    7  S10 UNL     1     -40.931  16.328   8.043  1.00 20.00    -0.025 SA
ENDROOT
BRANCH   3   8
HETATM    8  C7  UNL     1     -40.040  12.052   5.571  1.00 20.00     0.010 C 
HETATM    9  C5  UNL     1     -39.423  11.817   4.190  1.00 20.00     0.012 C 
HETATM   10  C6  UNL     1     -38.965  11.951   6.655  1.00 20.00     0.012 C 
ENDBRANCH   3   8
TORSDOF 1
ENDMDL
MODEL 3
REMARK VINA RESULT:      -3.4     12.409     13.331
REMARK  1 active torsions:
REMARK  status: ('A' for Active; 'I' for Inactive)
REMARK    1  A    between atoms: C3_3  and  C7_7 
ROOT
HETATM    1  C1  UNL     1     -40.606  14.559   9.557  1.00 20.00     0.255 C 
HETATM    2  C2  UNL     1     -40.381  15.462   7.532  1.00 20.00     0.157 C 
HETATM    3  C3  UNL     1     -40.392  13.949   7.436  1.00 20.00     0.164 C 
HETATM    4  C4  UNL     1     -41.673  16.174   7.146  1.00 20.00     0.043 C 
HETATM    5  O8  UNL     1     -40.148  15.671   8.928  1.00 20.00    -0.314 OA
HETATM    6  O9  UNL     1     -40.914  13.549   8.703  1.00 20.00    -0.313 OA
HETATM    7  S10 UNL     1     -40.775  14.446  11.188  1.00 20.00    -0.025 SA
ENDROOT
BRANCH   3   8
HETATM    8  C7  UNL     1     -41.210  13.345   6.311  1.00 20.00     0.010 C 
HETATM    9  C5  UNL     1     -40.330  12.495   5.391  1.00 20.00     0.012 C 
HETATM   10  C6  UNL     1     -42.363  12.505   6.864  1.00 20.00     0.012 C 
ENDBRANCH   3   8
TORSDOF 1
ENDMDL
MODEL 4
REMARK VINA RESULT:      -3.4     11.340     12.449
REMARK  1 active torsions:
REMARK  status: ('A' for Active; 'I' for Inactive)
REMARK    1  A    between atoms: C3_3  and  C7_7 
ROOT
HETATM    1  C1  UNL     1     -40.299  12.563   5.373  1.00 20.00     0.255 C 
HETATM    2  C2  UNL     1     -41.700  13.182   6.991  1.00 20.00     0.157 C 
HETATM    3  C3  UNL     1     -41.701  14.206   5.873  1.00 20.00     0.164 C 
HETATM    4  C4  UNL     1     -42.885  12.224   7.033  1.00 20.00     0.043 C 
HETATM    5  O8  UNL     1     -40.518  12.429   6.706  1.00 20.00    -0.314 OA
HETATM    6  O9  UNL     1     -41.088  13.504   4.793  1.00 20.00    -0.313 OA
HETATM    7  S10 UNL     1     -39.194  11.673   4.543  1.00 20.00    -0.025 SA
ENDROOT
BRANCH   3   8
HETATM    8  C7  UNL     1     -43.052  14.752   5.452  1.00 20.00     0.010 C 
HETATM    9  C5  UNL     1     -43.227  16.199   5.919  1.00 20.00     0.012 C 
HETATM   10  C6  UNL     1     -43.230  14.660   3.935  1.00 20.00     0.012 C 
ENDBRANCH   3   8
TORSDOF 1
ENDMDL
MODEL 5
REMARK VINA RESULT:      -3.3      2.093      2.661
REMARK  1 active torsions:
REMARK  status: ('A' for Active; 'I' for Inactive)
REMARK    1  A    between atoms: C3_3  and  C7_7 
ROOT
HETATM    1  C1  UNL     1     -33.652  16.245  -3.495  1.00 20.00     0.255 C 
HETATM    2  C2  UNL     1     -34.212  18.395  -3.316  1.00 20.00     0.157 C 
HETATM    3  C3  UNL     1     -34.012  17.786  -1.942  1.00 20.00     0.164 C 
HETATM    4  C4  UNL     1     -33.076  19.263  -3.844  1.00 20.00     0.043 C 
HETATM    5  O8  UNL     1     -34.319  17.234  -4.144  1.00 20.00    -0.314 OA
HETATM    6  O9  UNL     1     -33.308  16.578  -2.224  1.00 20.00    -0.313 OA
HETATM    7  S10 UNL     1     -33.294  14.794  -4.178  1.00 20.00    -0.025 SA
ENDROOT
BRANCH   3   8
HETATM    8  C7  UNL     1     -33.248  18.622  -0.933  1.00 20.00     0.010 C 
HETATM    9  C5  UNL     1     -33.938  18.596   0.434  1.00 20.00     0.012 C 
HETATM   10  C6  UNL     1     -31.802  18.138  -0.805  1.00 20.00     0.012 C 
ENDBRANCH   3   8
TORSDOF 1
ENDMDL
MODEL 6
REMARK VINA RESULT:      -3.3      2.861      4.056
REMARK  1 active torsions:
REMARK  status: ('A' for Active; 'I' for Inactive)
REMARK    1  A    between atoms: C3_3  and  C7_7 
ROOT
HETATM    1  C1  UNL     1     -36.720  16.465  -5.728  1.00 20.00     0.255 C 
HETATM    2  C2  UNL     1     -35.480  14.614  -5.694  1.00 20.00     0.157 C 
HETATM    3  C3  UNL     1     -34.688  15.789  -5.153  1.00 20.00     0.164 C 
HETATM    4  C4  UNL     1     -36.041  13.643  -4.661  1.00 20.00     0.043 C 
HETATM    5  O8  UNL     1     -36.573  15.265  -6.346  1.00 20.00    -0.314 OA
HETATM    6  O9  UNL     1     -35.698  16.761  -4.885  1.00 20.00    -0.313 OA
HETATM    7  S10 UNL     1     -38.007  17.457  -5.972  1.00 20.00    -0.025 SA
ENDROOT
BRANCH   3   8
HETATM    8  C7  UNL     1     -33.855  15.534  -3.912  1.00 20.00     0.010 C 
HETATM    9  C5  UNL     1     -32.573  14.773  -4.261  1.00 20.00     0.012 C 
HETATM   10  C6  UNL     1     -33.514  16.846  -3.203  1.00 20.00     0.012 C 
ENDBRANCH   3   8
TORSDOF 1
ENDMDL
MODEL 7
REMARK VINA RESULT:      -3.2     10.435     11.453
REMARK  1 active torsions:
REMARK  status: ('A' for Active; 'I' for Inactive)
REMARK    1  A    between atoms: C3_3  and  C7_7 
ROOT
HETATM    1  C1  UNL     1     -42.324  14.420   4.450  1.00 20.00     0.255 C 
HETATM    2  C2  UNL     1     -41.471  13.749   6.396  1.00 20.00     0.157 C 
HETATM    3  C3  UNL     1     -40.937  12.894   5.264  1.00 20.00     0.164 C 
HETATM    4  C4  UNL     1     -40.531  14.821   6.937  1.00 20.00     0.043 C 
HETATM    5  O8  UNL     1     -42.589  14.395   5.781  1.00 20.00    -0.314 OA
HETATM    6  O9  UNL     1     -41.252  13.663   4.103  1.00 20.00    -0.313 OA
HETATM    7  S10 UNL     1     -43.209  15.283   3.367  1.00 20.00    -0.025 SA
ENDROOT
BRANCH   3   8
HETATM    8  C7  UNL     1     -39.457  12.568   5.298  1.00 20.00     0.010 C 
HETATM    9  C5  UNL     1     -39.089  11.826   6.585  1.00 20.00     0.012 C 
HETATM   10  C6  UNL     1     -39.050  11.741   4.076  1.00 20.00     0.012 C 
ENDBRANCH   3   8
TORSDOF 1
ENDMDL
MODEL 8
REMARK VINA RESULT:      -3.1      2.850      4.782
REMARK  1 active torsions:
REMARK  status: ('A' for Active; 'I' for Inactive)
REMARK    1  A    between atoms: C3_3  and  C7_7 
ROOT
HETATM    1  C1  UNL     1     -33.514  17.648  -3.553  1.00 20.00     0.255 C 
HETATM    2  C2  UNL     1     -33.865  15.464  -3.830  1.00 20.00     0.157 C 
HETATM    3  C3  UNL     1     -34.624  16.256  -4.876  1.00 20.00     0.164 C 
HETATM    4  C4  UNL     1     -32.575  14.796  -4.291  1.00 20.00     0.043 C 
HETATM    5  O8  UNL     1     -33.535  16.474  -2.872  1.00 20.00    -0.314 OA
HETATM    6  O9  UNL     1     -34.012  17.544  -4.812  1.00 20.00    -0.313 OA
HETATM    7  S10 UNL     1     -32.942  19.052  -2.920  1.00 20.00    -0.025 SA
ENDROOT
BRANCH   3   8
HETATM    8  C7  UNL     1     -34.588  15.721  -6.293  1.00 20.00     0.010 C 
HETATM    9  C5  UNL     1     -35.787  14.809  -6.566  1.00 20.00     0.012 C 
HETATM   10  C6  UNL     1     -34.552  16.864  -7.309  1.00 20.00     0.012 C 
ENDBRANCH   3   8
TORSDOF 1
ENDMDL
MODEL 9
REMARK VINA RESULT:      -3.1      2.370      4.101
REMARK  1 active torsions:
REMARK  status: ('A' for Active; 'I' for Inactive)
REMARK    1  A    between atoms: C3_3  and  C7_7 
ROOT
HETATM    1  C1  UNL     1     -33.619  17.782  -2.318  1.00 20.00     0.255 C 
HETATM    2  C2  UNL     1     -34.442  18.048  -4.372  1.00 20.00     0.157 C 
HETATM    3  C3  UNL     1     -33.762  16.699  -4.247  1.00 20.00     0.164 C 
HETATM    4  C4  UNL     1     -35.965  18.046  -4.314  1.00 20.00     0.043 C 
HETATM    5  O8  UNL     1     -33.946  18.740  -3.222  1.00 20.00    -0.314 OA
HETATM    6  O9  UNL     1     -33.643  16.527  -2.836  1.00 20.00    -0.313 OA
HETATM    7  S10 UNL     1     -33.237  18.107  -0.753  1.00 20.00    -0.025 SA
ENDROOT
BRANCH   3   8
HETATM    8  C7  UNL     1     -34.480  15.516  -4.867  1.00 20.00     0.010 C 
HETATM    9  C5  UNL     1     -34.099  15.355  -6.341  1.00 20.00     0.012 C 
HETATM   10  C6  UNL     1     -34.175  14.228  -4.099  1.00 20.00     0.012 C 
ENDBRANCH   3   8
TORSDOF 1
ENDMDL
