MODEL 1
REMARK VINA RESULT:      -3.7      0.000      0.000
REMARK  1 active torsions:
REMARK  status: ('A' for Active; 'I' for Inactive)
REMARK    1  A    between atoms: C2_2  and  C4_4 
ROOT
HETATM    1  C1  UNL     1     -33.565   8.044   4.466  1.00 20.00     0.171 A 
HETATM    2  C2  UNL     1     -33.749   6.550   4.302  1.00 20.00     0.175 A 
HETATM    3  C3  UNL     1     -32.605   8.850   3.666  1.00 20.00     0.044 C 
HETATM    4  O5  UNL     1     -32.947   7.108   5.357  1.00 20.00    -0.352 OA
HETATM    5 CL6  UNL     1     -32.921   5.703   3.001  1.00 20.00    -0.084 Cl
ENDROOT
BRANCH   2   6
HETATM    6  C4  UNL     1     -35.008   5.909   4.790  1.00 20.00     0.172 C 
HETATM    7 CL7  UNL     1     -34.818   5.306   6.457  1.00 20.00    -0.126 Cl
ENDBRANCH   2   6
TORSDOF 1
ENDMDL
MODEL 2
REMARK VINA RESULT:      -3.7      1.738      3.220
REMARK  1 active torsions:
REMARK  status: ('A' for Active; 'I' for Inactive)
REMARK    1  A    between atoms: C2_2  and  C4_4 
ROOT
HETATM    1  C1  UNL     1     -33.921   6.721   5.803  1.00 20.00     0.171 A 
HETATM    2  C2  UNL     1     -33.457   6.811   4.364  1.00 20.00     0.175 A 
HETATM    3  C3  UNL     1     -34.543   5.507   6.396  1.00 20.00     0.044 C 
HETATM    4  O5  UNL     1     -34.716   7.355   4.794  1.00 20.00    -0.352 OA
HETATM    5 CL6  UNL     1     -33.488   5.377   3.344  1.00 20.00    -0.084 Cl
ENDROOT
BRANCH   2   6
HETATM    6  C4  UNL     1     -32.460   7.854   3.980  1.00 20.00     0.172 C 
HETATM    7 CL7  UNL     1     -32.124   7.809   2.229  1.00 20.00    -0.126 Cl
ENDBRANCH   2   6
TORSDOF 1
ENDMDL
MODEL 3
REMARK VINA RESULT:      -3.4      2.752      2.824
REMARK  1 active torsions:
REMARK  status: ('A' for Active; 'I' for Inactive)
REMARK    1  A    between atoms: C2_2  and  C4_4 
ROOT
HETATM    1  C1  UNL     1     -33.313   5.038   4.043  1.00 20.00     0.171 A 
HETATM    2  C2  UNL     1     -34.580   5.310   4.826  1.00 20.00     0.175 A 
HETATM    3  C3  UNL     1     -33.189   5.244   2.576  1.00 20.00     0.044 C 
HETATM    4  O5  UNL     1     -34.208   3.984   4.415  1.00 20.00    -0.352 OA
HETATM    5 CL6  UNL     1     -35.958   6.061   4.029  1.00 20.00    -0.084 Cl
ENDROOT
BRANCH   2   6
HETATM    6  C4  UNL     1     -34.498   5.517   6.304  1.00 20.00     0.172 C 
HETATM    7 CL7  UNL     1     -34.201   7.231   6.697  1.00 20.00    -0.126 Cl
ENDBRANCH   2   6
TORSDOF 1
ENDMDL
MODEL 4
REMARK VINA RESULT:      -3.4      1.494      2.014
REMARK  1 active torsions:
REMARK  status: ('A' for Active; 'I' for Inactive)
REMARK    1  A    between atoms: C2_2  and  C4_4 
ROOT
HETATM    1  C1  UNL     1     -33.154   7.588   4.048  1.00 20.00     0.171 A 
HETATM    2  C2  UNL     1     -34.092   6.846   4.978  1.00 20.00     0.175 A 
HETATM    3  C3  UNL     1     -32.000   8.400   4.515  1.00 20.00     0.044 C 
HETATM    4  O5  UNL     1     -34.433   8.121   4.410  1.00 20.00    -0.352 OA
HETATM    5 CL6  UNL     1     -33.744   6.781   6.702  1.00 20.00    -0.084 Cl
ENDROOT
BRANCH   2   6
HETATM    6  C4  UNL     1     -34.914   5.719   4.443  1.00 20.00     0.172 C 
HETATM    7 CL7  UNL     1     -33.985   4.197   4.425  1.00 20.00    -0.126 Cl
ENDBRANCH   2   6
TORSDOF 1
ENDMDL
MODEL 5
REMARK VINA RESULT:      -3.3      1.639      2.769
REMARK  1 active torsions:
REMARK  status: ('A' for Active; 'I' for Inactive)
REMARK    1  A    between atoms: C2_2  and  C4_4 
ROOT
HETATM    1  C1  UNL     1     -33.285   7.495   5.521  1.00 20.00     0.171 A 
HETATM    2  C2  UNL     1     -33.658   6.752   4.255  1.00 20.00     0.175 A 
HETATM    3  C3  UNL     1     -34.029   7.370   6.802  1.00 20.00     0.044 C 
HETATM    4  O5  UNL     1     -34.026   8.125   4.470  1.00 20.00    -0.352 OA
HETATM    5 CL6  UNL     1     -34.937   5.544   4.295  1.00 20.00    -0.084 Cl
ENDROOT
BRANCH   2   6
HETATM    6  C4  UNL     1     -32.635   6.573   3.182  1.00 20.00     0.172 C 
HETATM    7 CL7  UNL     1     -32.797   4.979   2.399  1.00 20.00    -0.126 Cl
ENDBRANCH   2   6
TORSDOF 1
ENDMDL
MODEL 6
REMARK VINA RESULT:      -3.2      1.872      2.336
REMARK  1 active torsions:
REMARK  status: ('A' for Active; 'I' for Inactive)
REMARK    1  A    between atoms: C2_2  and  C4_4 
ROOT
HETATM    1  C1  UNL     1     -33.579   5.522   3.968  1.00 20.00     0.171 A 
HETATM    2  C2  UNL     1     -33.713   6.847   4.690  1.00 20.00     0.175 A 
HETATM    3  C3  UNL     1     -32.992   5.378   2.610  1.00 20.00     0.044 C 
HETATM    4  O5  UNL     1     -34.818   6.241   3.999  1.00 20.00    -0.352 OA
HETATM    5 CL6  UNL     1     -33.005   8.299   3.992  1.00 20.00    -0.084 Cl
ENDROOT
BRANCH   2   6
HETATM    6  C4  UNL     1     -33.876   6.858   6.175  1.00 20.00     0.172 C 
HETATM    7 CL7  UNL     1     -34.835   5.460   6.728  1.00 20.00    -0.126 Cl
ENDBRANCH   2   6
TORSDOF 1
ENDMDL
MODEL 7
REMARK VINA RESULT:      -3.1      9.973     10.321
REMARK  1 active torsions:
REMARK  status: ('A' for Active; 'I' for Inactive)
REMARK    1  A    between atoms: C2_2  and  C4_4 
ROOT
HETATM    1  C1  UNL     1     -43.305   5.713   0.525  1.00 20.00     0.171 A 
HETATM    2  C2  UNL     1     -42.273   6.393  -0.350  1.00 20.00     0.175 A 
HETATM    3  C3  UNL     1     -43.125   4.360   1.115  1.00 20.00     0.044 C 
HETATM    4  O5  UNL     1     -43.417   5.721  -0.903  1.00 20.00    -0.352 OA
HETATM    5 CL6  UNL     1     -40.694   5.650  -0.581  1.00 20.00    -0.084 Cl
ENDROOT
BRANCH   2   6
HETATM    6  C4  UNL     1     -42.318   7.877  -0.518  1.00 20.00     0.172 C 
HETATM    7 CL7  UNL     1     -40.772   8.626  -0.040  1.00 20.00    -0.126 Cl
ENDBRANCH   2   6
TORSDOF 1
ENDMDL
MODEL 8
REMARK VINA RESULT:      -3.0      9.406      9.821
REMARK  1 active torsions:
REMARK  status: ('A' for Active; 'I' for Inactive)
REMARK    1  A    between atoms: C2_2  and  C4_4 
ROOT
HETATM    1  C1  UNL     1     -39.385  12.303   5.698  1.00 20.00     0.171 A 
HETATM    2  C2  UNL     1     -40.541  13.221   6.035  1.00 20.00     0.175 A 
HETATM    3  C3  UNL     1     -39.126  11.766   4.336  1.00 20.00     0.044 C 
HETATM    4  O5  UNL     1     -40.584  11.810   6.306  1.00 20.00    -0.352 OA
HETATM    5 CL6  UNL     1     -41.569  13.842   4.749  1.00 20.00    -0.084 Cl
ENDROOT
BRANCH   2   6
HETATM    6  C4  UNL     1     -40.474  14.060   7.269  1.00 20.00     0.172 C 
HETATM    7 CL7  UNL     1     -41.250  15.645   7.012  1.00 20.00    -0.126 Cl
ENDBRANCH   2   6
TORSDOF 1
ENDMDL
MODEL 9
REMARK VINA RESULT:      -2.9     16.082     16.313
REMARK  1 active torsions:
REMARK  status: ('A' for Active; 'I' for Inactive)
REMARK    1  A    between atoms: C2_2  and  C4_4 
ROOT
HETATM    1  C1  UNL     1     -23.294  18.390  10.406  1.00 20.00     0.171 A 
HETATM    2  C2  UNL     1     -24.022  17.939  11.655  1.00 20.00     0.175 A 
HETATM    3  C3  UNL     1     -22.671  17.457   9.430  1.00 20.00     0.044 C 
HETATM    4  O5  UNL     1     -22.662  18.403  11.692  1.00 20.00    -0.352 OA
HETATM    5 CL6  UNL     1     -24.311  16.224  11.928  1.00 20.00    -0.084 Cl
ENDROOT
BRANCH   2   6
HETATM    6  C4  UNL     1     -24.984  18.869  12.319  1.00 20.00     0.172 C 
HETATM    7 CL7  UNL     1     -26.632  18.186  12.332  1.00 20.00    -0.126 Cl
ENDBRANCH   2   6
TORSDOF 1
ENDMDL
