MODEL 1
REMARK VINA RESULT:      -4.2      0.000      0.000
REMARK  0 active torsions:
REMARK  status: ('A' for Active; 'I' for Inactive)
ROOT
HETATM    1  C1  UNL     1     -43.104  13.363   7.133  1.00 20.00    -0.029 C 
HETATM    2  C2  UNL     1     -42.149  12.509   6.753  1.00 20.00    -0.013 C 
HETATM    3  C3  UNL     1     -40.805  13.191   4.832  1.00 20.00     0.139 C 
HETATM    4  C4  UNL     1     -42.643  14.781   7.052  1.00 20.00     0.032 C 
HETATM    5  C5  UNL     1     -39.721  12.258   4.348  1.00 20.00     0.079 C 
HETATM    6  C6  UNL     1     -39.351  11.507   5.621  1.00 20.00     0.009 C 
HETATM    7  C7  UNL     1     -39.590  12.516   6.740  1.00 20.00     0.022 C 
HETATM    8  C8  UNL     1     -41.110  14.648   6.926  1.00 20.00     0.004 C 
HETATM    9  C9  UNL     1     -40.892  13.226   6.355  1.00 20.00     0.041 C 
HETATM   10  C10 UNL     1     -40.450  14.882   8.291  1.00 20.00     0.011 C 
HETATM   11  O11 UNL     1     -41.520  13.834   4.072  1.00 20.00    -0.297 OA
ENDROOT
TORSDOF 0
ENDMDL
MODEL 2
REMARK VINA RESULT:      -4.1      9.396     10.637
REMARK  0 active torsions:
REMARK  status: ('A' for Active; 'I' for Inactive)
ROOT
HETATM    1  C1  UNL     1     -35.545   5.769   4.452  1.00 20.00    -0.029 C 
HETATM    2  C2  UNL     1     -35.002   6.955   4.161  1.00 20.00    -0.013 C 
HETATM    3  C3  UNL     1     -33.005   7.558   5.432  1.00 20.00     0.139 C 
HETATM    4  C4  UNL     1     -34.504   4.724   4.682  1.00 20.00     0.032 C 
HETATM    5  C5  UNL     1     -32.357   8.893   5.157  1.00 20.00     0.079 C 
HETATM    6  C6  UNL     1     -32.741   9.145   3.705  1.00 20.00     0.009 C 
HETATM    7  C7  UNL     1     -32.821   7.752   3.086  1.00 20.00     0.022 C 
HETATM    8  C8  UNL     1     -33.224   5.368   4.106  1.00 20.00     0.004 C 
HETATM    9  C9  UNL     1     -33.502   6.889   4.153  1.00 20.00     0.041 C 
HETATM   10  C10 UNL     1     -32.953   4.825   2.697  1.00 20.00     0.011 C 
HETATM   11  O11 UNL     1     -33.110   7.085   6.558  1.00 20.00    -0.297 OA
ENDROOT
TORSDOF 0
ENDMDL
MODEL 3
REMARK VINA RESULT:      -4.1     10.791     12.388
REMARK  0 active torsions:
REMARK  status: ('A' for Active; 'I' for Inactive)
ROOT
HETATM    1  C1  UNL     1     -33.335  16.628  -2.824  1.00 20.00    -0.029 C 
HETATM    2  C2  UNL     1     -33.589  16.947  -1.551  1.00 20.00    -0.013 C 
HETATM    3  C3  UNL     1     -32.366  18.866  -0.664  1.00 20.00     0.139 C 
HETATM    4  C4  UNL     1     -33.195  17.842  -3.681  1.00 20.00     0.032 C 
HETATM    5  C5  UNL     1     -32.601  19.263   0.773  1.00 20.00     0.079 C 
HETATM    6  C6  UNL     1     -34.024  18.775   1.014  1.00 20.00     0.009 C 
HETATM    7  C7  UNL     1     -34.705  18.908  -0.345  1.00 20.00     0.022 C 
HETATM    8  C8  UNL     1     -33.787  18.966  -2.803  1.00 20.00     0.004 C 
HETATM    9  C9  UNL     1     -33.656  18.433  -1.356  1.00 20.00     0.041 C 
HETATM   10  C10 UNL     1     -35.229  19.262  -3.232  1.00 20.00     0.011 C 
HETATM   11  O11 UNL     1     -31.261  18.895  -1.194  1.00 20.00    -0.297 OA
ENDROOT
TORSDOF 0
ENDMDL
MODEL 4
REMARK VINA RESULT:      -3.7     12.579     13.764
REMARK  0 active torsions:
REMARK  status: ('A' for Active; 'I' for Inactive)
ROOT
HETATM    1  C1  UNL     1     -36.664  15.533  -6.037  1.00 20.00    -0.029 C 
HETATM    2  C2  UNL     1     -36.096  16.262  -5.073  1.00 20.00    -0.013 C 
HETATM    3  C3  UNL     1     -33.977  15.417  -4.200  1.00 20.00     0.139 C 
HETATM    4  C4  UNL     1     -35.654  15.008  -7.003  1.00 20.00     0.032 C 
HETATM    5  C5  UNL     1     -33.296  16.192  -3.097  1.00 20.00     0.079 C 
HETATM    6  C6  UNL     1     -33.788  17.611  -3.350  1.00 20.00     0.009 C 
HETATM    7  C7  UNL     1     -33.978  17.683  -4.863  1.00 20.00     0.022 C 
HETATM    8  C8  UNL     1     -34.399  15.853  -6.696  1.00 20.00     0.004 C 
HETATM    9  C9  UNL     1     -34.606  16.338  -5.242  1.00 20.00     0.041 C 
HETATM   10  C10 UNL     1     -34.268  16.987  -7.721  1.00 20.00     0.011 C 
HETATM   11  O11 UNL     1     -34.009  14.192  -4.234  1.00 20.00    -0.297 OA
ENDROOT
TORSDOF 0
ENDMDL
MODEL 5
REMARK VINA RESULT:      -3.7      1.685      2.923
REMARK  0 active torsions:
REMARK  status: ('A' for Active; 'I' for Inactive)
ROOT
HETATM    1  C1  UNL     1     -40.359  15.579   8.705  1.00 20.00    -0.029 C 
HETATM    2  C2  UNL     1     -40.579  15.392   7.401  1.00 20.00    -0.013 C 
HETATM    3  C3  UNL     1     -40.423  13.086   6.609  1.00 20.00     0.139 C 
HETATM    4  C4  UNL     1     -40.975  14.499   9.531  1.00 20.00     0.032 C 
HETATM    5  C5  UNL     1     -40.646  12.816   5.141  1.00 20.00     0.079 C 
HETATM    6  C6  UNL     1     -41.570  13.959   4.739  1.00 20.00     0.009 C 
HETATM    7  C7  UNL     1     -42.386  14.246   5.997  1.00 20.00     0.022 C 
HETATM    8  C8  UNL     1     -41.946  13.811   8.547  1.00 20.00     0.004 C 
HETATM    9  C9  UNL     1     -41.379  14.147   7.147  1.00 20.00     0.041 C 
HETATM   10  C10 UNL     1     -43.375  14.318   8.781  1.00 20.00     0.011 C 
HETATM   11  O11 UNL     1     -39.569  12.510   7.272  1.00 20.00    -0.297 OA
ENDROOT
TORSDOF 0
ENDMDL
MODEL 6
REMARK VINA RESULT:      -3.6     20.356     22.291
REMARK  0 active torsions:
REMARK  status: ('A' for Active; 'I' for Inactive)
ROOT
HETATM    1  C1  UNL     1     -27.942  -3.707  11.407  1.00 20.00    -0.029 C 
HETATM    2  C2  UNL     1     -26.833  -3.240  11.989  1.00 20.00    -0.013 C 
HETATM    3  C3  UNL     1     -24.926  -2.862  10.511  1.00 20.00     0.139 C 
HETATM    4  C4  UNL     1     -28.184  -3.065  10.081  1.00 20.00     0.032 C 
HETATM    5  C5  UNL     1     -23.641  -2.349  11.116  1.00 20.00     0.079 C 
HETATM    6  C6  UNL     1     -24.142  -1.580  12.332  1.00 20.00     0.009 C 
HETATM    7  C7  UNL     1     -25.510  -1.051  11.909  1.00 20.00     0.022 C 
HETATM    8  C8  UNL     1     -27.247  -1.838  10.106  1.00 20.00     0.004 C 
HETATM    9  C9  UNL     1     -26.154  -2.207  11.137  1.00 20.00     0.041 C 
HETATM   10  C10 UNL     1     -28.045  -0.578  10.465  1.00 20.00     0.011 C 
HETATM   11  O11 UNL     1     -24.956  -3.705   9.623  1.00 20.00    -0.297 OA
ENDROOT
TORSDOF 0
ENDMDL
MODEL 7
REMARK VINA RESULT:      -3.6     11.006     12.757
REMARK  0 active torsions:
REMARK  status: ('A' for Active; 'I' for Inactive)
ROOT
HETATM    1  C1  UNL     1     -33.478  19.006  -4.607  1.00 20.00    -0.029 C 
HETATM    2  C2  UNL     1     -33.068  19.181  -3.347  1.00 20.00    -0.013 C 
HETATM    3  C3  UNL     1     -34.733  18.758  -1.611  1.00 20.00     0.139 C 
HETATM    4  C4  UNL     1     -34.358  17.807  -4.741  1.00 20.00     0.032 C 
HETATM    5  C5  UNL     1     -34.331  18.956  -0.169  1.00 20.00     0.079 C 
HETATM    6  C6  UNL     1     -32.832  18.691  -0.214  1.00 20.00     0.009 C 
HETATM    7  C7  UNL     1     -32.661  17.663  -1.328  1.00 20.00     0.022 C 
HETATM    8  C8  UNL     1     -34.117  17.042  -3.421  1.00 20.00     0.004 C 
HETATM    9  C9  UNL     1     -33.616  18.123  -2.434  1.00 20.00     0.041 C 
HETATM   10  C10 UNL     1     -33.122  15.898  -3.654  1.00 20.00     0.011 C 
HETATM   11  O11 UNL     1     -35.832  19.077  -2.048  1.00 20.00    -0.297 OA
ENDROOT
TORSDOF 0
ENDMDL
MODEL 8
REMARK VINA RESULT:      -3.6     12.693     13.964
REMARK  0 active torsions:
REMARK  status: ('A' for Active; 'I' for Inactive)
ROOT
HETATM    1  C1  UNL     1     -36.785  17.160  -6.252  1.00 20.00    -0.029 C 
HETATM    2  C2  UNL     1     -36.116  16.719  -5.182  1.00 20.00    -0.013 C 
HETATM    3  C3  UNL     1     -34.111  15.403  -5.640  1.00 20.00     0.139 C 
HETATM    4  C4  UNL     1     -35.861  17.620  -7.331  1.00 20.00     0.032 C 
HETATM    5  C5  UNL     1     -33.323  14.865  -4.469  1.00 20.00     0.079 C 
HETATM    6  C6  UNL     1     -33.634  15.881  -3.378  1.00 20.00     0.009 C 
HETATM    7  C7  UNL     1     -33.833  17.195  -4.129  1.00 20.00     0.022 C 
HETATM    8  C8  UNL     1     -34.505  17.752  -6.604  1.00 20.00     0.004 C 
HETATM    9  C9  UNL     1     -34.631  16.814  -5.380  1.00 20.00     0.041 C 
HETATM   10  C10 UNL     1     -34.245  19.220  -6.243  1.00 20.00     0.011 C 
HETATM   11  O11 UNL     1     -34.298  14.764  -6.669  1.00 20.00    -0.297 OA
ENDROOT
TORSDOF 0
ENDMDL
MODEL 9
REMARK VINA RESULT:      -3.5     12.420     13.585
REMARK  0 active torsions:
REMARK  status: ('A' for Active; 'I' for Inactive)
ROOT
HETATM    1  C1  UNL     1     -34.517  15.350  -7.282  1.00 20.00    -0.029 C 
HETATM    2  C2  UNL     1     -33.748  15.616  -6.222  1.00 20.00    -0.013 C 
HETATM    3  C3  UNL     1     -34.608  17.293  -4.669  1.00 20.00     0.139 C 
HETATM    4  C4  UNL     1     -35.964  15.309  -6.919  1.00 20.00     0.032 C 
HETATM    5  C5  UNL     1     -33.774  17.647  -3.461  1.00 20.00     0.079 C 
HETATM    6  C6  UNL     1     -32.990  16.363  -3.224  1.00 20.00     0.009 C 
HETATM    7  C7  UNL     1     -33.927  15.254  -3.695  1.00 20.00     0.022 C 
HETATM    8  C8  UNL     1     -35.941  15.215  -5.378  1.00 20.00     0.004 C 
HETATM    9  C9  UNL     1     -34.566  15.799  -4.977  1.00 20.00     0.041 C 
HETATM   10  C10 UNL     1     -36.154  13.760  -4.940  1.00 20.00     0.011 C 
HETATM   11  O11 UNL     1     -35.237  18.125  -5.313  1.00 20.00    -0.297 OA
ENDROOT
TORSDOF 0
ENDMDL
