MODEL 1
REMARK VINA RESULT:      -4.2      0.000      0.000
REMARK  4 active torsions:
REMARK  status: ('A' for Active; 'I' for Inactive)
REMARK    1  A    between atoms: C1_1  and  C6_6 
REMARK    2  A    between atoms: C1_1  and  C7_7 
REMARK    3  A    between atoms: C6_6  and  C8_8 
REMARK    4  A    between atoms: C7_7  and  C9_9 
ROOT
HETATM    1  C1  UNL     1     -33.051   8.223   4.843  1.00 20.00     0.161 C 
HETATM    2  O10 UNL     1     -32.050   8.592   5.456  1.00 20.00    -0.295 OA
ENDROOT
BRANCH   1   3
HETATM    3  C6  UNL     1     -33.190   8.389   3.336  1.00 20.00     0.085 C 
BRANCH   3   4
HETATM    4  C8  UNL     1     -32.136   7.610   2.535  1.00 20.00    -0.016 C 
HETATM    5  C2  UNL     1     -32.002   8.154   1.110  1.00 20.00     0.010 C 
HETATM    6  C3  UNL     1     -32.504   6.126   2.490  1.00 20.00     0.010 C 
ENDBRANCH   3   4
ENDBRANCH   1   3
BRANCH   1   7
HETATM    7  C7  UNL     1     -34.205   7.558   5.573  1.00 20.00     0.242 C 
HETATM    8  F11 UNL     1     -34.052   7.695   6.921  1.00 20.00    -0.241 F 
BRANCH   7   9
HETATM    9  C9  UNL     1     -34.347   6.066   5.242  1.00 20.00     0.019 C 
HETATM   10  C4  UNL     1     -34.395   5.208   6.509  1.00 20.00     0.012 C 
HETATM   11  C5  UNL     1     -35.611   5.830   4.413  1.00 20.00     0.012 C 
ENDBRANCH   7   9
ENDBRANCH   1   7
TORSDOF 4
ENDMDL
MODEL 2
REMARK VINA RESULT:      -4.2      9.421     10.455
REMARK  4 active torsions:
REMARK  status: ('A' for Active; 'I' for Inactive)
REMARK    1  A    between atoms: C1_1  and  C6_6 
REMARK    2  A    between atoms: C1_1  and  C7_7 
REMARK    3  A    between atoms: C6_6  and  C8_8 
REMARK    4  A    between atoms: C7_7  and  C9_9 
ROOT
HETATM    1  C1  UNL     1     -41.608  13.169   6.439  1.00 20.00     0.161 C 
HETATM    2  O10 UNL     1     -42.124  12.221   7.031  1.00 20.00    -0.295 OA
ENDROOT
BRANCH   1   3
HETATM    3  C6  UNL     1     -40.770  12.983   5.181  1.00 20.00     0.085 C 
BRANCH   3   4
HETATM    4  C8  UNL     1     -39.756  11.835   5.285  1.00 20.00    -0.016 C 
HETATM    5  C2  UNL     1     -38.759  12.071   6.422  1.00 20.00     0.010 C 
HETATM    6  C3  UNL     1     -39.004  11.678   3.961  1.00 20.00     0.010 C 
ENDBRANCH   3   4
ENDBRANCH   1   3
BRANCH   1   7
HETATM    7  C7  UNL     1     -41.804  14.591   6.934  1.00 20.00     0.242 C 
HETATM    8  F11 UNL     1     -42.243  15.388   5.917  1.00 20.00    -0.241 F 
BRANCH   7   9
HETATM    9  C9  UNL     1     -40.528  15.205   7.524  1.00 20.00     0.019 C 
HETATM   10  C4  UNL     1     -40.625  16.729   7.622  1.00 20.00     0.012 C 
HETATM   11  C5  UNL     1     -40.256  14.617   8.911  1.00 20.00     0.012 C 
ENDBRANCH   7   9
ENDBRANCH   1   7
TORSDOF 4
ENDMDL
MODEL 3
REMARK VINA RESULT:      -4.1      1.141      1.618
REMARK  4 active torsions:
REMARK  status: ('A' for Active; 'I' for Inactive)
REMARK    1  A    between atoms: C1_1  and  C6_6 
REMARK    2  A    between atoms: C1_1  and  C7_7 
REMARK    3  A    between atoms: C6_6  and  C8_8 
REMARK    4  A    between atoms: C7_7  and  C9_9 
ROOT
HETATM    1  C1  UNL     1     -32.495   7.936   3.816  1.00 20.00     0.161 C 
HETATM    2  O10 UNL     1     -31.501   8.351   4.410  1.00 20.00    -0.295 OA
ENDROOT
BRANCH   1   3
HETATM    3  C6  UNL     1     -32.451   7.508   2.355  1.00 20.00     0.085 C 
BRANCH   3   4
HETATM    4  C8  UNL     1     -32.147   8.662   1.389  1.00 20.00    -0.016 C 
HETATM    5  C2  UNL     1     -33.060   9.863   1.648  1.00 20.00     0.010 C 
HETATM    6  C3  UNL     1     -32.310   8.191  -0.058  1.00 20.00     0.010 C 
ENDBRANCH   3   4
ENDBRANCH   1   3
BRANCH   1   7
HETATM    7  C7  UNL     1     -33.830   7.812   4.531  1.00 20.00     0.242 C 
HETATM    8  F11 UNL     1     -33.903   8.715   5.551  1.00 20.00    -0.241 F 
BRANCH   7   9
HETATM    9  C9  UNL     1     -34.081   6.408   5.098  1.00 20.00     0.019 C 
HETATM   10  C4  UNL     1     -34.281   6.437   6.615  1.00 20.00     0.012 C 
HETATM   11  C5  UNL     1     -35.309   5.785   4.430  1.00 20.00     0.012 C 
ENDBRANCH   7   9
ENDBRANCH   1   7
TORSDOF 4
ENDMDL
MODEL 4
REMARK VINA RESULT:      -4.1      9.310     10.634
REMARK  4 active torsions:
REMARK  status: ('A' for Active; 'I' for Inactive)
REMARK    1  A    between atoms: C1_1  and  C6_6 
REMARK    2  A    between atoms: C1_1  and  C7_7 
REMARK    3  A    between atoms: C6_6  and  C8_8 
REMARK    4  A    between atoms: C7_7  and  C9_9 
ROOT
HETATM    1  C1  UNL     1     -41.682  13.131   6.753  1.00 20.00     0.161 C 
HETATM    2  O10 UNL     1     -42.312  12.095   6.959  1.00 20.00    -0.295 OA
ENDROOT
BRANCH   1   3
HETATM    3  C6  UNL     1     -41.860  14.377   7.610  1.00 20.00     0.085 C 
BRANCH   3   4
HETATM    4  C8  UNL     1     -40.543  15.109   7.908  1.00 20.00    -0.016 C 
HETATM    5  C2  UNL     1     -40.155  14.985   9.383  1.00 20.00     0.010 C 
HETATM    6  C3  UNL     1     -40.668  16.587   7.528  1.00 20.00     0.010 C 
ENDBRANCH   3   4
ENDBRANCH   1   3
BRANCH   1   7
HETATM    7  C7  UNL     1     -40.666  13.210   5.626  1.00 20.00     0.242 C 
HETATM    8  F11 UNL     1     -41.300  13.406   4.434  1.00 20.00    -0.241 F 
BRANCH   7   9
HETATM    9  C9  UNL     1     -39.789  11.955   5.517  1.00 20.00     0.019 C 
HETATM   10  C4  UNL     1     -39.183  11.807   4.119  1.00 20.00     0.012 C 
HETATM   11  C5  UNL     1     -38.670  12.006   6.559  1.00 20.00     0.012 C 
ENDBRANCH   7   9
ENDBRANCH   1   7
TORSDOF 4
ENDMDL
MODEL 5
REMARK VINA RESULT:      -4.0     11.571     12.562
REMARK  4 active torsions:
REMARK  status: ('A' for Active; 'I' for Inactive)
REMARK    1  A    between atoms: C1_1  and  C6_6 
REMARK    2  A    between atoms: C1_1  and  C7_7 
REMARK    3  A    between atoms: C6_6  and  C8_8 
REMARK    4  A    between atoms: C7_7  and  C9_9 
ROOT
HETATM    1  C1  UNL     1     -33.386  17.681  -3.478  1.00 20.00     0.161 C 
HETATM    2  O10 UNL     1     -32.924  18.704  -3.983  1.00 20.00    -0.295 OA
ENDROOT
BRANCH   1   3
HETATM    3  C6  UNL     1     -34.419  16.818  -4.189  1.00 20.00     0.085 C 
BRANCH   3   4
HETATM    4  C8  UNL     1     -33.812  15.608  -4.914  1.00 20.00    -0.016 C 
HETATM    5  C2  UNL     1     -34.291  15.528  -6.366  1.00 20.00     0.010 C 
HETATM    6  C3  UNL     1     -34.177  14.318  -4.177  1.00 20.00     0.010 C 
ENDBRANCH   3   4
ENDBRANCH   1   3
BRANCH   1   7
HETATM    7  C7  UNL     1     -32.923  17.215  -2.108  1.00 20.00     0.242 C 
HETATM    8  F11 UNL     1     -33.753  16.240  -1.637  1.00 20.00    -0.241 F 
BRANCH   7   9
HETATM    9  C9  UNL     1     -32.860  18.349  -1.077  1.00 20.00     0.019 C 
HETATM   10  C4  UNL     1     -33.825  18.111   0.087  1.00 20.00     0.012 C 
HETATM   11  C5  UNL     1     -31.434  18.491  -0.540  1.00 20.00     0.012 C 
ENDBRANCH   7   9
ENDBRANCH   1   7
TORSDOF 4
ENDMDL
MODEL 6
REMARK VINA RESULT:      -4.0      1.645      4.245
REMARK  4 active torsions:
REMARK  status: ('A' for Active; 'I' for Inactive)
REMARK    1  A    between atoms: C1_1  and  C6_6 
REMARK    2  A    between atoms: C1_1  and  C7_7 
REMARK    3  A    between atoms: C6_6  and  C8_8 
REMARK    4  A    between atoms: C7_7  and  C9_9 
ROOT
HETATM    1  C1  UNL     1     -32.733   8.056   4.378  1.00 20.00     0.161 C 
HETATM    2  O10 UNL     1     -31.831   8.785   4.788  1.00 20.00    -0.295 OA
ENDROOT
BRANCH   1   3
HETATM    3  C6  UNL     1     -33.889   7.613   5.265  1.00 20.00     0.085 C 
BRANCH   3   4
HETATM    4  C8  UNL     1     -34.228   6.121   5.127  1.00 20.00    -0.016 C 
HETATM    5  C2  UNL     1     -35.539   5.914   4.365  1.00 20.00     0.010 C 
HETATM    6  C3  UNL     1     -34.328   5.477   6.512  1.00 20.00     0.010 C 
ENDBRANCH   3   4
ENDBRANCH   1   3
BRANCH   1   7
HETATM    7  C7  UNL     1     -32.744   7.572   2.938  1.00 20.00     0.242 C 
HETATM    8  F11 UNL     1     -32.023   6.420   2.822  1.00 20.00    -0.241 F 
BRANCH   7   9
HETATM    9  C9  UNL     1     -32.184   8.606   1.951  1.00 20.00     0.019 C 
HETATM   10  C4  UNL     1     -31.960   8.000   0.563  1.00 20.00     0.012 C 
HETATM   11  C5  UNL     1     -33.136   9.798   1.843  1.00 20.00     0.012 C 
ENDBRANCH   7   9
ENDBRANCH   1   7
TORSDOF 4
ENDMDL
MODEL 7
REMARK VINA RESULT:      -4.0     12.004     13.185
REMARK  4 active torsions:
REMARK  status: ('A' for Active; 'I' for Inactive)
REMARK    1  A    between atoms: C1_1  and  C6_6 
REMARK    2  A    between atoms: C1_1  and  C7_7 
REMARK    3  A    between atoms: C6_6  and  C8_8 
REMARK    4  A    between atoms: C7_7  and  C9_9 
ROOT
HETATM    1  C1  UNL     1     -34.005  14.777  -4.553  1.00 20.00     0.161 C 
HETATM    2  O10 UNL     1     -34.493  13.802  -3.983  1.00 20.00    -0.295 OA
ENDROOT
BRANCH   1   3
HETATM    3  C6  UNL     1     -33.064  15.745  -3.849  1.00 20.00     0.085 C 
BRANCH   3   4
HETATM    4  C8  UNL     1     -33.783  16.950  -3.223  1.00 20.00    -0.016 C 
HETATM    5  C2  UNL     1     -33.327  18.265  -3.860  1.00 20.00     0.010 C 
HETATM    6  C3  UNL     1     -33.524  16.988  -1.715  1.00 20.00     0.010 C 
ENDBRANCH   3   4
ENDBRANCH   1   3
BRANCH   1   7
HETATM    7  C7  UNL     1     -34.310  15.052  -6.016  1.00 20.00     0.242 C 
HETATM    8  F11 UNL     1     -33.820  16.272  -6.378  1.00 20.00    -0.241 F 
BRANCH   7   9
HETATM    9  C9  UNL     1     -35.810  15.008  -6.337  1.00 20.00     0.019 C 
HETATM   10  C4  UNL     1     -36.589  16.064  -5.549  1.00 20.00     0.012 C 
HETATM   11  C5  UNL     1     -36.032  15.218  -7.836  1.00 20.00     0.012 C 
ENDBRANCH   7   9
ENDBRANCH   1   7
TORSDOF 4
ENDMDL
MODEL 8
REMARK VINA RESULT:      -4.0      2.246      2.976
REMARK  4 active torsions:
REMARK  status: ('A' for Active; 'I' for Inactive)
REMARK    1  A    between atoms: C1_1  and  C6_6 
REMARK    2  A    between atoms: C1_1  and  C7_7 
REMARK    3  A    between atoms: C6_6  and  C8_8 
REMARK    4  A    between atoms: C7_7  and  C9_9 
ROOT
HETATM    1  C1  UNL     1     -32.923   5.746   3.014  1.00 20.00     0.161 C 
HETATM    2  O10 UNL     1     -33.227   5.191   1.959  1.00 20.00    -0.295 OA
ENDROOT
BRANCH   1   3
HETATM    3  C6  UNL     1     -32.053   6.995   3.056  1.00 20.00     0.085 C 
BRANCH   3   4
HETATM    4  C8  UNL     1     -32.831   8.271   3.409  1.00 20.00    -0.016 C 
HETATM    5  C2  UNL     1     -32.765   9.296   2.274  1.00 20.00     0.010 C 
HETATM    6  C3  UNL     1     -32.273   8.886   4.694  1.00 20.00     0.010 C 
ENDBRANCH   3   4
ENDBRANCH   1   3
BRANCH   1   7
HETATM    7  C7  UNL     1     -33.427   5.211   4.344  1.00 20.00     0.242 C 
HETATM    8  F11 UNL     1     -33.937   3.956   4.184  1.00 20.00    -0.241 F 
BRANCH   7   9
HETATM    9  C9  UNL     1     -34.501   6.102   4.983  1.00 20.00     0.019 C 
HETATM   10  C4  UNL     1     -35.850   5.960   4.272  1.00 20.00     0.012 C 
HETATM   11  C5  UNL     1     -34.662   5.750   6.463  1.00 20.00     0.012 C 
ENDBRANCH   7   9
ENDBRANCH   1   7
TORSDOF 4
ENDMDL
MODEL 9
REMARK VINA RESULT:      -3.9      2.152      4.393
REMARK  4 active torsions:
REMARK  status: ('A' for Active; 'I' for Inactive)
REMARK    1  A    between atoms: C1_1  and  C6_6 
REMARK    2  A    between atoms: C1_1  and  C7_7 
REMARK    3  A    between atoms: C6_6  and  C8_8 
REMARK    4  A    between atoms: C7_7  and  C9_9 
ROOT
HETATM    1  C1  UNL     1     -33.093   6.102   3.162  1.00 20.00     0.161 C 
HETATM    2  O10 UNL     1     -32.867   5.006   2.650  1.00 20.00    -0.295 OA
ENDROOT
BRANCH   1   3
HETATM    3  C6  UNL     1     -34.243   6.324   4.135  1.00 20.00     0.085 C 
BRANCH   3   4
HETATM    4  C8  UNL     1     -33.853   6.102   5.603  1.00 20.00    -0.016 C 
HETATM    5  C2  UNL     1     -34.632   4.937   6.219  1.00 20.00     0.010 C 
HETATM    6  C3  UNL     1     -34.105   7.377   6.411  1.00 20.00     0.010 C 
ENDBRANCH   3   4
ENDBRANCH   1   3
BRANCH   1   7
HETATM    7  C7  UNL     1     -32.209   7.299   2.854  1.00 20.00     0.242 C 
HETATM    8  F11 UNL     1     -31.103   7.285   3.652  1.00 20.00    -0.241 F 
BRANCH   7   9
HETATM    9  C9  UNL     1     -32.930   8.641   3.033  1.00 20.00     0.019 C 
HETATM   10  C4  UNL     1     -32.344   9.447   4.195  1.00 20.00     0.012 C 
HETATM   11  C5  UNL     1     -32.841   9.461   1.744  1.00 20.00     0.012 C 
ENDBRANCH   7   9
ENDBRANCH   1   7
TORSDOF 4
ENDMDL
