MODEL 1
REMARK VINA RESULT:      -3.8      0.000      0.000
REMARK  1 active torsions:
REMARK  status: ('A' for Active; 'I' for Inactive)
REMARK    1  A    between atoms: C4_4  and  C7_7 
ROOT
HETATM    1  C1  UNL     1     -34.134  15.213  -6.626  1.00 20.00     0.075 C 
HETATM    2  C2  UNL     1     -35.653  16.547  -5.176  1.00 20.00     0.105 C 
HETATM    3  C3  UNL     1     -34.806  15.290  -5.319  1.00 20.00     0.164 C 
HETATM    4  C4  UNL     1     -33.453  17.067  -3.704  1.00 20.00     0.113 C 
HETATM    5  N8  UNL     1     -33.605  15.153  -7.656  1.00 20.00    -0.196 NA
HETATM    6  S9  UNL     1     -34.544  17.946  -4.860  1.00 20.00    -0.151 SA
HETATM    7  S10 UNL     1     -33.598  15.265  -3.954  1.00 20.00    -0.133 SA
ENDROOT
BRANCH   4   8
HETATM    8  C7  UNL     1     -33.827  17.414  -2.268  1.00 20.00     0.001 C 
HETATM    9  C5  UNL     1     -32.592  17.837  -1.474  1.00 20.00     0.011 C 
HETATM   10  C6  UNL     1     -34.884  18.518  -2.237  1.00 20.00     0.011 C 
ENDBRANCH   4   8
TORSDOF 1
ENDMDL
MODEL 2
REMARK VINA RESULT:      -3.4      1.665      2.544
REMARK  1 active torsions:
REMARK  status: ('A' for Active; 'I' for Inactive)
REMARK    1  A    between atoms: C4_4  and  C7_7 
ROOT
HETATM    1  C1  UNL     1     -36.050  15.908  -7.529  1.00 20.00     0.075 C 
HETATM    2  C2  UNL     1     -33.870  15.196  -6.566  1.00 20.00     0.105 C 
HETATM    3  C3  UNL     1     -34.693  16.335  -7.153  1.00 20.00     0.164 C 
HETATM    4  C4  UNL     1     -34.570  16.672  -4.420  1.00 20.00     0.113 C 
HETATM    5  N8  UNL     1     -37.120  15.571  -7.825  1.00 20.00    -0.196 NA
HETATM    6  S9  UNL     1     -34.420  14.916  -4.862  1.00 20.00    -0.151 SA
HETATM    7  S10 UNL     1     -34.741  17.685  -5.928  1.00 20.00    -0.133 SA
ENDROOT
BRANCH   4   8
HETATM    8  C7  UNL     1     -33.339  17.121  -3.641  1.00 20.00     0.001 C 
HETATM    9  C5  UNL     1     -33.110  18.622  -3.811  1.00 20.00     0.011 C 
HETATM   10  C6  UNL     1     -33.478  16.767  -2.161  1.00 20.00     0.011 C 
ENDBRANCH   4   8
TORSDOF 1
ENDMDL
MODEL 3
REMARK VINA RESULT:      -3.3      3.330      4.773
REMARK  1 active torsions:
REMARK  status: ('A' for Active; 'I' for Inactive)
REMARK    1  A    between atoms: C4_4  and  C7_7 
ROOT
HETATM    1  C1  UNL     1     -31.990  18.314  -0.715  1.00 20.00     0.075 C 
HETATM    2  C2  UNL     1     -33.456  16.920  -2.163  1.00 20.00     0.105 C 
HETATM    3  C3  UNL     1     -33.366  17.854  -0.963  1.00 20.00     0.164 C 
HETATM    4  C4  UNL     1     -34.427  19.263  -3.082  1.00 20.00     0.113 C 
HETATM    5  N8  UNL     1     -30.906  18.676  -0.519  1.00 20.00    -0.196 NA
HETATM    6  S9  UNL     1     -33.354  17.921  -3.671  1.00 20.00    -0.151 SA
HETATM    7  S10 UNL     1     -34.489  19.260  -1.258  1.00 20.00    -0.133 SA
ENDROOT
BRANCH   4   8
HETATM    8  C7  UNL     1     -35.834  19.089  -3.640  1.00 20.00     0.001 C 
HETATM    9  C5  UNL     1     -35.901  17.877  -4.569  1.00 20.00     0.011 C 
HETATM   10  C6  UNL     1     -36.851  18.950  -2.508  1.00 20.00     0.011 C 
ENDBRANCH   4   8
TORSDOF 1
ENDMDL
MODEL 4
REMARK VINA RESULT:      -3.3      3.129      4.956
REMARK  1 active torsions:
REMARK  status: ('A' for Active; 'I' for Inactive)
REMARK    1  A    between atoms: C4_4  and  C7_7 
ROOT
HETATM    1  C1  UNL     1     -31.725  18.730  -0.866  1.00 20.00     0.075 C 
HETATM    2  C2  UNL     1     -34.024  17.851  -1.226  1.00 20.00     0.105 C 
HETATM    3  C3  UNL     1     -33.045  18.993  -1.461  1.00 20.00     0.164 C 
HETATM    4  C4  UNL     1     -33.288  17.561  -3.804  1.00 20.00     0.113 C 
HETATM    5  N8  UNL     1     -30.685  18.522  -0.397  1.00 20.00    -0.196 NA
HETATM    6  S9  UNL     1     -33.609  16.502  -2.364  1.00 20.00    -0.151 SA
HETATM    7  S10 UNL     1     -32.916  19.263  -3.260  1.00 20.00    -0.133 SA
ENDROOT
BRANCH   4   8
HETATM    8  C7  UNL     1     -34.503  17.574  -4.724  1.00 20.00     0.001 C 
HETATM    9  C5  UNL     1     -34.226  18.408  -5.974  1.00 20.00     0.011 C 
HETATM   10  C6  UNL     1     -34.902  16.150  -5.111  1.00 20.00     0.011 C 
ENDBRANCH   4   8
TORSDOF 1
ENDMDL
MODEL 5
REMARK VINA RESULT:      -3.2      2.181      3.137
REMARK  1 active torsions:
REMARK  status: ('A' for Active; 'I' for Inactive)
REMARK    1  A    between atoms: C4_4  and  C7_7 
ROOT
HETATM    1  C1  UNL     1     -37.004  16.644  -7.337  1.00 20.00     0.075 C 
HETATM    2  C2  UNL     1     -34.933  15.302  -7.023  1.00 20.00     0.105 C 
HETATM    3  C3  UNL     1     -35.540  16.688  -7.189  1.00 20.00     0.164 C 
HETATM    4  C4  UNL     1     -34.884  16.341  -4.534  1.00 20.00     0.113 C 
HETATM    5  N8  UNL     1     -38.157  16.608  -7.453  1.00 20.00    -0.196 NA
HETATM    6  S9  UNL     1     -35.242  14.745  -5.325  1.00 20.00    -0.151 SA
HETATM    7  S10 UNL     1     -35.053  17.694  -5.748  1.00 20.00    -0.133 SA
ENDROOT
BRANCH   4   8
HETATM    8  C7  UNL     1     -33.469  16.337  -3.969  1.00 20.00     0.001 C 
HETATM    9  C5  UNL     1     -33.476  16.724  -2.490  1.00 20.00     0.011 C 
HETATM   10  C6  UNL     1     -32.815  14.968  -4.159  1.00 20.00     0.011 C 
ENDBRANCH   4   8
TORSDOF 1
ENDMDL
MODEL 6
REMARK VINA RESULT:      -3.1      2.380      4.466
REMARK  1 active torsions:
REMARK  status: ('A' for Active; 'I' for Inactive)
REMARK    1  A    between atoms: C4_4  and  C7_7 
ROOT
HETATM    1  C1  UNL     1     -33.532  17.094  -2.338  1.00 20.00     0.075 C 
HETATM    2  C2  UNL     1     -33.971  17.931  -4.639  1.00 20.00     0.105 C 
HETATM    3  C3  UNL     1     -33.210  16.943  -3.765  1.00 20.00     0.164 C 
HETATM    4  C4  UNL     1     -35.257  15.591  -5.023  1.00 20.00     0.113 C 
HETATM    5  N8  UNL     1     -33.787  17.213  -1.213  1.00 20.00    -0.196 NA
HETATM    6  S9  UNL     1     -35.678  17.345  -4.805  1.00 20.00    -0.151 SA
HETATM    7  S10 UNL     1     -33.591  15.260  -4.354  1.00 20.00    -0.133 SA
ENDROOT
BRANCH   4   8
HETATM    8  C7  UNL     1     -35.295  15.226  -6.501  1.00 20.00     0.001 C 
HETATM    9  C5  UNL     1     -36.225  16.166  -7.267  1.00 20.00     0.011 C 
HETATM   10  C6  UNL     1     -33.890  15.259  -7.102  1.00 20.00     0.011 C 
ENDBRANCH   4   8
TORSDOF 1
ENDMDL
MODEL 7
REMARK VINA RESULT:      -3.0      2.160      2.694
REMARK  1 active torsions:
REMARK  status: ('A' for Active; 'I' for Inactive)
REMARK    1  A    between atoms: C4_4  and  C7_7 
ROOT
HETATM    1  C1  UNL     1     -35.217  14.052  -4.793  1.00 20.00     0.075 C 
HETATM    2  C2  UNL     1     -33.146  15.410  -4.558  1.00 20.00     0.105 C 
HETATM    3  C3  UNL     1     -34.415  15.149  -5.358  1.00 20.00     0.164 C 
HETATM    4  C4  UNL     1     -34.793  17.424  -3.848  1.00 20.00     0.113 C 
HETATM    5  N8  UNL     1     -35.849  13.188  -4.348  1.00 20.00    -0.196 NA
HETATM    6  S9  UNL     1     -33.598  16.311  -3.052  1.00 20.00    -0.151 SA
HETATM    7  S10 UNL     1     -35.370  16.701  -5.422  1.00 20.00    -0.133 SA
ENDROOT
BRANCH   4   8
HETATM    8  C7  UNL     1     -34.147  18.778  -4.116  1.00 20.00     0.001 C 
HETATM    9  C5  UNL     1     -32.863  18.934  -3.302  1.00 20.00     0.011 C 
HETATM   10  C6  UNL     1     -33.858  18.952  -5.607  1.00 20.00     0.011 C 
ENDBRANCH   4   8
TORSDOF 1
ENDMDL
MODEL 8
REMARK VINA RESULT:      -3.0      2.467      3.284
REMARK  1 active torsions:
REMARK  status: ('A' for Active; 'I' for Inactive)
REMARK    1  A    between atoms: C4_4  and  C7_7 
ROOT
HETATM    1  C1  UNL     1     -36.113  18.804  -7.178  1.00 20.00     0.075 C 
HETATM    2  C2  UNL     1     -34.690  16.765  -7.124  1.00 20.00     0.105 C 
HETATM    3  C3  UNL     1     -34.766  18.272  -6.921  1.00 20.00     0.164 C 
HETATM    4  C4  UNL     1     -34.722  17.064  -4.443  1.00 20.00     0.113 C 
HETATM    5  N8  UNL     1     -37.176  19.223  -7.381  1.00 20.00    -0.196 NA
HETATM    6  S9  UNL     1     -35.449  15.959  -5.688  1.00 20.00    -0.151 SA
HETATM    7  S10 UNL     1     -34.224  18.640  -5.219  1.00 20.00    -0.133 SA
ENDROOT
BRANCH   4   8
HETATM    8  C7  UNL     1     -33.506  16.404  -3.806  1.00 20.00     0.001 C 
HETATM    9  C5  UNL     1     -33.422  16.747  -2.319  1.00 20.00     0.011 C 
HETATM   10  C6  UNL     1     -33.550  14.888  -4.002  1.00 20.00     0.011 C 
ENDBRANCH   4   8
TORSDOF 1
ENDMDL
MODEL 9
REMARK VINA RESULT:      -2.9     24.727     25.732
REMARK  1 active torsions:
REMARK  status: ('A' for Active; 'I' for Inactive)
REMARK    1  A    between atoms: C4_4  and  C7_7 
ROOT
HETATM    1  C1  UNL     1     -29.982  -2.507  11.727  1.00 20.00     0.075 C 
HETATM    2  C2  UNL     1     -28.056  -0.959  12.009  1.00 20.00     0.105 C 
HETATM    3  C3  UNL     1     -28.653  -2.322  12.330  1.00 20.00     0.164 C 
HETATM    4  C4  UNL     1     -26.719  -2.656  10.394  1.00 20.00     0.113 C 
HETATM    5  N8  UNL     1     -31.029  -2.652  11.250  1.00 20.00    -0.196 NA
HETATM    6  S9  UNL     1     -27.445  -0.993  10.303  1.00 20.00    -0.151 SA
HETATM    7  S10 UNL     1     -27.484  -3.599  11.758  1.00 20.00    -0.133 SA
ENDROOT
BRANCH   4   8
HETATM    8  C7  UNL     1     -25.216  -2.558  10.623  1.00 20.00     0.001 C 
HETATM    9  C5  UNL     1     -24.831  -3.185  11.963  1.00 20.00     0.011 C 
HETATM   10  C6  UNL     1     -24.451  -3.227   9.481  1.00 20.00     0.011 C 
ENDBRANCH   4   8
TORSDOF 1
ENDMDL
