MODEL 1
REMARK VINA RESULT:      -3.6      0.000      0.000
REMARK  1 active torsions:
REMARK  status: ('A' for Active; 'I' for Inactive)
REMARK    1  A    between atoms: C4_4  and  C7_7 
ROOT
HETATM    1  C1  UNL     1     -35.564  15.156  -6.991  1.00 20.00     0.268 C 
HETATM    2  C2  UNL     1     -34.427  15.923  -7.593  1.00 20.00     0.184 C 
HETATM    3  C3  UNL     1     -35.277  17.690  -5.623  1.00 20.00     0.107 C 
HETATM    4  C4  UNL     1     -35.181  16.363  -4.888  1.00 20.00     0.144 C 
HETATM    5  O8  UNL     1     -36.218  14.357  -7.657  1.00 20.00    -0.264 OA
HETATM    6  O9  UNL     1     -35.784  15.304  -5.662  1.00 20.00    -0.314 OA
HETATM    7  S10 UNL     1     -34.460  17.688  -7.240  1.00 20.00    -0.157 SA
ENDROOT
BRANCH   4   8
HETATM    8  C7  UNL     1     -33.797  15.977  -4.381  1.00 20.00     0.008 C 
HETATM    9  C5  UNL     1     -33.454  16.749  -3.108  1.00 20.00     0.012 C 
HETATM   10  C6  UNL     1     -33.712  14.472  -4.134  1.00 20.00     0.012 C 
ENDBRANCH   4   8
TORSDOF 1
ENDMDL
MODEL 2
REMARK VINA RESULT:      -3.4      1.920      3.233
REMARK  1 active torsions:
REMARK  status: ('A' for Active; 'I' for Inactive)
REMARK    1  A    between atoms: C4_4  and  C7_7 
ROOT
HETATM    1  C1  UNL     1     -35.783  14.054  -4.883  1.00 20.00     0.268 C 
HETATM    2  C2  UNL     1     -34.466  14.756  -4.991  1.00 20.00     0.184 C 
HETATM    3  C3  UNL     1     -35.749  15.672  -7.281  1.00 20.00     0.107 C 
HETATM    4  C4  UNL     1     -36.790  15.870  -6.191  1.00 20.00     0.144 C 
HETATM    5  O8  UNL     1     -35.883  12.968  -4.315  1.00 20.00    -0.264 OA
HETATM    6  O9  UNL     1     -36.878  14.700  -5.350  1.00 20.00    -0.314 OA
HETATM    7  S10 UNL     1     -34.082  15.351  -6.647  1.00 20.00    -0.157 SA
ENDROOT
BRANCH   4   8
HETATM    8  C7  UNL     1     -36.666  17.150  -5.373  1.00 20.00     0.008 C 
HETATM    9  C5  UNL     1     -36.324  18.336  -6.273  1.00 20.00     0.012 C 
HETATM   10  C6  UNL     1     -37.955  17.421  -4.598  1.00 20.00     0.012 C 
ENDBRANCH   4   8
TORSDOF 1
ENDMDL
MODEL 3
REMARK VINA RESULT:      -3.2     25.227     25.852
REMARK  1 active torsions:
REMARK  status: ('A' for Active; 'I' for Inactive)
REMARK    1  A    between atoms: C4_4  and  C7_7 
ROOT
HETATM    1  C1  UNL     1     -29.815  -2.480  11.282  1.00 20.00     0.268 C 
HETATM    2  C2  UNL     1     -29.084  -3.585  11.981  1.00 20.00     0.184 C 
HETATM    3  C3  UNL     1     -27.199  -2.811  10.091  1.00 20.00     0.107 C 
HETATM    4  C4  UNL     1     -27.643  -1.493  10.705  1.00 20.00     0.144 C 
HETATM    5  O8  UNL     1     -31.042  -2.474  11.208  1.00 20.00    -0.264 OA
HETATM    6  O9  UNL     1     -29.082  -1.440  10.818  1.00 20.00    -0.314 OA
HETATM    7  S10 UNL     1     -27.708  -4.266  11.042  1.00 20.00    -0.157 SA
ENDROOT
BRANCH   4   8
HETATM    8  C7  UNL     1     -26.957  -1.097  12.006  1.00 20.00     0.008 C 
HETATM    9  C5  UNL     1     -25.454  -1.362  11.927  1.00 20.00     0.012 C 
HETATM   10  C6  UNL     1     -27.225   0.372  12.332  1.00 20.00     0.012 C 
ENDBRANCH   4   8
TORSDOF 1
ENDMDL
MODEL 4
REMARK VINA RESULT:      -3.2     14.400     15.458
REMARK  1 active torsions:
REMARK  status: ('A' for Active; 'I' for Inactive)
REMARK    1  A    between atoms: C4_4  and  C7_7 
ROOT
HETATM    1  C1  UNL     1     -41.334  13.912   9.455  1.00 20.00     0.268 C 
HETATM    2  C2  UNL     1     -42.730  14.203   8.999  1.00 20.00     0.184 C 
HETATM    3  C3  UNL     1     -41.252  15.679   7.167  1.00 20.00     0.107 C 
HETATM    4  C4  UNL     1     -40.565  14.323   7.161  1.00 20.00     0.144 C 
HETATM    5  O8  UNL     1     -41.087  13.657  10.632  1.00 20.00    -0.264 OA
HETATM    6  O9  UNL     1     -40.368  13.845   8.509  1.00 20.00    -0.314 OA
HETATM    7  S10 UNL     1     -42.877  15.670   7.967  1.00 20.00    -0.157 SA
ENDROOT
BRANCH   4   8
HETATM    8  C7  UNL     1     -41.192  13.260   6.268  1.00 20.00     0.008 C 
HETATM    9  C5  UNL     1     -41.649  13.869   4.943  1.00 20.00     0.012 C 
HETATM   10  C6  UNL     1     -40.211  12.116   6.020  1.00 20.00     0.012 C 
ENDBRANCH   4   8
TORSDOF 1
ENDMDL
MODEL 5
REMARK VINA RESULT:      -3.1      2.088      2.754
REMARK  1 active torsions:
REMARK  status: ('A' for Active; 'I' for Inactive)
REMARK    1  A    between atoms: C4_4  and  C7_7 
ROOT
HETATM    1  C1  UNL     1     -36.687  17.302  -5.063  1.00 20.00     0.268 C 
HETATM    2  C2  UNL     1     -36.914  15.860  -5.396  1.00 20.00     0.184 C 
HETATM    3  C3  UNL     1     -34.359  16.246  -6.419  1.00 20.00     0.107 C 
HETATM    4  C4  UNL     1     -34.275  16.848  -5.026  1.00 20.00     0.144 C 
HETATM    5  O8  UNL     1     -37.623  18.095  -4.984  1.00 20.00    -0.264 OA
HETATM    6  O9  UNL     1     -35.422  17.682  -4.759  1.00 20.00    -0.314 OA
HETATM    7  S10 UNL     1     -35.830  15.221  -6.683  1.00 20.00    -0.157 SA
ENDROOT
BRANCH   4   8
HETATM    8  C7  UNL     1     -34.008  15.868  -3.890  1.00 20.00     0.008 C 
HETATM    9  C5  UNL     1     -33.072  14.751  -4.348  1.00 20.00     0.012 C 
HETATM   10  C6  UNL     1     -33.423  16.593  -2.678  1.00 20.00     0.012 C 
ENDBRANCH   4   8
TORSDOF 1
ENDMDL
MODEL 6
REMARK VINA RESULT:      -3.1      3.250      4.648
REMARK  1 active torsions:
REMARK  status: ('A' for Active; 'I' for Inactive)
REMARK    1  A    between atoms: C4_4  and  C7_7 
ROOT
HETATM    1  C1  UNL     1     -32.970  18.649  -2.464  1.00 20.00     0.268 C 
HETATM    2  C2  UNL     1     -34.241  18.393  -1.716  1.00 20.00     0.184 C 
HETATM    3  C3  UNL     1     -35.198  18.674  -4.310  1.00 20.00     0.107 C 
HETATM    4  C4  UNL     1     -34.033  17.710  -4.467  1.00 20.00     0.144 C 
HETATM    5  O8  UNL     1     -32.010  19.194  -1.923  1.00 20.00    -0.264 OA
HETATM    6  O9  UNL     1     -32.882  18.174  -3.729  1.00 20.00    -0.314 OA
HETATM    7  S10 UNL     1     -35.728  18.903  -2.593  1.00 20.00    -0.157 SA
ENDROOT
BRANCH   4   8
HETATM    8  C7  UNL     1     -34.336  16.244  -4.183  1.00 20.00     0.008 C 
HETATM    9  C5  UNL     1     -35.195  15.644  -5.295  1.00 20.00     0.012 C 
HETATM   10  C6  UNL     1     -33.042  15.447  -4.019  1.00 20.00     0.012 C 
ENDBRANCH   4   8
TORSDOF 1
ENDMDL
MODEL 7
REMARK VINA RESULT:      -3.0      2.121      2.967
REMARK  1 active torsions:
REMARK  status: ('A' for Active; 'I' for Inactive)
REMARK    1  A    between atoms: C4_4  and  C7_7 
ROOT
HETATM    1  C1  UNL     1     -33.894  15.023  -4.865  1.00 20.00     0.268 C 
HETATM    2  C2  UNL     1     -34.058  15.087  -6.351  1.00 20.00     0.184 C 
HETATM    3  C3  UNL     1     -36.250  16.574  -5.509  1.00 20.00     0.107 C 
HETATM    4  C4  UNL     1     -35.100  17.155  -4.702  1.00 20.00     0.144 C 
HETATM    5  O8  UNL     1     -33.348  14.064  -4.323  1.00 20.00    -0.264 OA
HETATM    6  O9  UNL     1     -34.284  16.102  -4.145  1.00 20.00    -0.314 OA
HETATM    7  S10 UNL     1     -35.717  15.531  -6.891  1.00 20.00    -0.157 SA
ENDROOT
BRANCH   4   8
HETATM    8  C7  UNL     1     -34.259  18.214  -5.404  1.00 20.00     0.008 C 
HETATM    9  C5  UNL     1     -35.152  19.218  -6.131  1.00 20.00     0.012 C 
HETATM   10  C6  UNL     1     -33.350  18.930  -4.406  1.00 20.00     0.012 C 
ENDBRANCH   4   8
TORSDOF 1
ENDMDL
MODEL 8
REMARK VINA RESULT:      -3.0     24.834     26.126
REMARK  1 active torsions:
REMARK  status: ('A' for Active; 'I' for Inactive)
REMARK    1  A    between atoms: C4_4  and  C7_7 
ROOT
HETATM    1  C1  UNL     1     -25.267  -2.394  10.930  1.00 20.00     0.268 C 
HETATM    2  C2  UNL     1     -25.735  -1.684  12.162  1.00 20.00     0.184 C 
HETATM    3  C3  UNL     1     -27.630  -0.845  10.311  1.00 20.00     0.107 C 
HETATM    4  C4  UNL     1     -27.577  -2.349  10.101  1.00 20.00     0.144 C 
HETATM    5  O8  UNL     1     -24.080  -2.666  10.762  1.00 20.00    -0.264 OA
HETATM    6  O9  UNL     1     -26.209  -2.810  10.050  1.00 20.00    -0.314 OA
HETATM    7  S10 UNL     1     -26.830  -0.292  11.839  1.00 20.00    -0.157 SA
ENDROOT
BRANCH   4   8
HETATM    8  C7  UNL     1     -28.423  -3.187  11.052  1.00 20.00     0.008 C 
HETATM    9  C5  UNL     1     -29.850  -2.646  11.123  1.00 20.00     0.012 C 
HETATM   10  C6  UNL     1     -28.427  -4.653  10.622  1.00 20.00     0.012 C 
ENDBRANCH   4   8
TORSDOF 1
ENDMDL
MODEL 9
REMARK VINA RESULT:      -3.0      2.143      3.027
REMARK  1 active torsions:
REMARK  status: ('A' for Active; 'I' for Inactive)
REMARK    1  A    between atoms: C4_4  and  C7_7 
ROOT
HETATM    1  C1  UNL     1     -34.132  15.522  -6.513  1.00 20.00     0.268 C 
HETATM    2  C2  UNL     1     -34.189  14.903  -5.152  1.00 20.00     0.184 C 
HETATM    3  C3  UNL     1     -34.072  17.603  -4.505  1.00 20.00     0.107 C 
HETATM    4  C4  UNL     1     -35.156  17.543  -5.569  1.00 20.00     0.144 C 
HETATM    5  O8  UNL     1     -33.633  14.926  -7.466  1.00 20.00    -0.264 OA
HETATM    6  O9  UNL     1     -34.736  16.724  -6.681  1.00 20.00    -0.314 OA
HETATM    7  S10 UNL     1     -33.625  15.984  -3.827  1.00 20.00    -0.157 SA
ENDROOT
BRANCH   4   8
HETATM    8  C7  UNL     1     -36.550  17.169  -5.082  1.00 20.00     0.008 C 
HETATM    9  C5  UNL     1     -37.095  18.234  -4.131  1.00 20.00     0.012 C 
HETATM   10  C6  UNL     1     -37.499  16.971  -6.263  1.00 20.00     0.012 C 
ENDBRANCH   4   8
TORSDOF 1
ENDMDL
