MODEL 1
REMARK VINA RESULT:      -3.9      0.000      0.000
REMARK  1 active torsions:
REMARK  status: ('A' for Active; 'I' for Inactive)
REMARK    1  A    between atoms: C4_4  and  C7_7 
ROOT
HETATM    1  C1  UNL     1     -22.233  18.490   8.301  1.00 20.00     0.075 C 
HETATM    2  C2  UNL     1     -21.742  18.135  10.690  1.00 20.00     0.105 C 
HETATM    3  C3  UNL     1     -22.493  18.970   9.664  1.00 20.00     0.164 C 
HETATM    4  C4  UNL     1     -24.110  18.656  11.863  1.00 20.00     0.113 C 
HETATM    5  N8  UNL     1     -22.027  18.111   7.224  1.00 20.00    -0.196 NA
HETATM    6  S9  UNL     1     -22.351  18.627  12.320  1.00 20.00    -0.151 SA
HETATM    7  S10 UNL     1     -24.271  18.884  10.061  1.00 20.00    -0.133 SA
ENDROOT
BRANCH   4   8
HETATM    8  C7  UNL     1     -24.779  17.351  12.276  1.00 20.00     0.001 C 
HETATM    9  C5  UNL     1     -26.298  17.515  12.330  1.00 20.00     0.011 C 
HETATM   10  C6  UNL     1     -24.396  16.221  11.320  1.00 20.00     0.011 C 
ENDBRANCH   4   8
TORSDOF 1
ENDMDL
MODEL 2
REMARK VINA RESULT:      -3.5     18.057     19.150
REMARK  1 active torsions:
REMARK  status: ('A' for Active; 'I' for Inactive)
REMARK    1  A    between atoms: C4_4  and  C7_7 
ROOT
HETATM    1  C1  UNL     1     -33.551  17.104  -2.239  1.00 20.00     0.075 C 
HETATM    2  C2  UNL     1     -34.629  17.685  -4.377  1.00 20.00     0.105 C 
HETATM    3  C3  UNL     1     -33.494  16.936  -3.696  1.00 20.00     0.164 C 
HETATM    4  C4  UNL     1     -34.390  15.408  -5.796  1.00 20.00     0.113 C 
HETATM    5  N8  UNL     1     -33.595  17.239  -1.087  1.00 20.00    -0.196 NA
HETATM    6  S9  UNL     1     -34.627  17.181  -6.114  1.00 20.00    -0.151 SA
HETATM    7  S10 UNL     1     -33.622  15.177  -4.157  1.00 20.00    -0.133 SA
ENDROOT
BRANCH   4   8
HETATM    8  C7  UNL     1     -35.730  14.684  -5.840  1.00 20.00     0.001 C 
HETATM    9  C5  UNL     1     -35.878  13.745  -4.644  1.00 20.00     0.011 C 
HETATM   10  C6  UNL     1     -36.884  15.687  -5.880  1.00 20.00     0.011 C 
ENDBRANCH   4   8
TORSDOF 1
ENDMDL
MODEL 3
REMARK VINA RESULT:      -3.5      1.534      2.045
REMARK  1 active torsions:
REMARK  status: ('A' for Active; 'I' for Inactive)
REMARK    1  A    between atoms: C4_4  and  C7_7 
ROOT
HETATM    1  C1  UNL     1     -21.435  17.593   6.913  1.00 20.00     0.075 C 
HETATM    2  C2  UNL     1     -21.343  17.490   9.374  1.00 20.00     0.105 C 
HETATM    3  C3  UNL     1     -21.605  18.359   8.153  1.00 20.00     0.164 C 
HETATM    4  C4  UNL     1     -23.405  19.059  10.107  1.00 20.00     0.113 C 
HETATM    5  N8  UNL     1     -21.299  16.987   5.933  1.00 20.00    -0.196 NA
HETATM    6  S9  UNL     1     -21.851  18.445  10.823  1.00 20.00    -0.151 SA
HETATM    7  S10 UNL     1     -23.299  19.021   8.287  1.00 20.00    -0.133 SA
ENDROOT
BRANCH   4   8
HETATM    8  C7  UNL     1     -24.572  18.195  10.570  1.00 20.00     0.001 C 
HETATM    9  C5  UNL     1     -24.117  17.197  11.635  1.00 20.00     0.011 C 
HETATM   10  C6  UNL     1     -25.710  19.064  11.104  1.00 20.00     0.011 C 
ENDBRANCH   4   8
TORSDOF 1
ENDMDL
MODEL 4
REMARK VINA RESULT:      -3.4     18.027     19.067
REMARK  1 active torsions:
REMARK  status: ('A' for Active; 'I' for Inactive)
REMARK    1  A    between atoms: C4_4  and  C7_7 
ROOT
HETATM    1  C1  UNL     1     -36.279  15.984  -6.604  1.00 20.00     0.075 C 
HETATM    2  C2  UNL     1     -34.792  14.887  -4.973  1.00 20.00     0.105 C 
HETATM    3  C3  UNL     1     -34.937  15.991  -6.011  1.00 20.00     0.164 C 
HETATM    4  C4  UNL     1     -33.429  16.963  -3.930  1.00 20.00     0.113 C 
HETATM    5  N8  UNL     1     -37.340  15.977  -7.074  1.00 20.00    -0.196 NA
HETATM    6  S9  UNL     1     -33.223  15.167  -4.119  1.00 20.00    -0.151 SA
HETATM    7  S10 UNL     1     -34.591  17.583  -5.191  1.00 20.00    -0.133 SA
ENDROOT
BRANCH   4   8
HETATM    8  C7  UNL     1     -33.963  17.284  -2.539  1.00 20.00     0.001 C 
HETATM    9  C5  UNL     1     -32.819  17.627  -1.586  1.00 20.00     0.011 C 
HETATM   10  C6  UNL     1     -34.971  18.432  -2.599  1.00 20.00     0.011 C 
ENDBRANCH   4   8
TORSDOF 1
ENDMDL
MODEL 5
REMARK VINA RESULT:      -3.3     19.286     20.390
REMARK  1 active torsions:
REMARK  status: ('A' for Active; 'I' for Inactive)
REMARK    1  A    between atoms: C4_4  and  C7_7 
ROOT
HETATM    1  C1  UNL     1     -38.174  16.579  -6.191  1.00 20.00     0.075 C 
HETATM    2  C2  UNL     1     -36.094  15.358  -6.695  1.00 20.00     0.105 C 
HETATM    3  C3  UNL     1     -36.727  16.709  -6.396  1.00 20.00     0.164 C 
HETATM    4  C4  UNL     1     -34.284  16.610  -5.142  1.00 20.00     0.113 C 
HETATM    5  N8  UNL     1     -39.319  16.476  -6.030  1.00 20.00    -0.196 NA
HETATM    6  S9  UNL     1     -34.301  15.592  -6.648  1.00 20.00    -0.151 SA
HETATM    7  S10 UNL     1     -35.914  17.396  -4.915  1.00 20.00    -0.133 SA
ENDROOT
BRANCH   4   8
HETATM    8  C7  UNL     1     -33.958  15.746  -3.930  1.00 20.00     0.001 C 
HETATM    9  C5  UNL     1     -33.029  14.596  -4.319  1.00 20.00     0.011 C 
HETATM   10  C6  UNL     1     -33.330  16.589  -2.819  1.00 20.00     0.011 C 
ENDBRANCH   4   8
TORSDOF 1
ENDMDL
MODEL 6
REMARK VINA RESULT:      -3.3     18.015     19.149
REMARK  1 active torsions:
REMARK  status: ('A' for Active; 'I' for Inactive)
REMARK    1  A    between atoms: C4_4  and  C7_7 
ROOT
HETATM    1  C1  UNL     1     -33.545  17.324  -2.037  1.00 20.00     0.075 C 
HETATM    2  C2  UNL     1     -34.466  18.145  -4.170  1.00 20.00     0.105 C 
HETATM    3  C3  UNL     1     -33.429  17.257  -3.498  1.00 20.00     0.164 C 
HETATM    4  C4  UNL     1     -34.336  15.964  -5.746  1.00 20.00     0.113 C 
HETATM    5  N8  UNL     1     -33.637  17.378  -0.881  1.00 20.00    -0.196 NA
HETATM    6  S9  UNL     1     -34.417  17.770  -5.939  1.00 20.00    -0.151 SA
HETATM    7  S10 UNL     1     -33.673  15.553  -4.098  1.00 20.00    -0.133 SA
ENDROOT
BRANCH   4   8
HETATM    8  C7  UNL     1     -35.726  15.359  -5.905  1.00 20.00     0.001 C 
HETATM    9  C5  UNL     1     -36.047  15.120  -7.380  1.00 20.00     0.011 C 
HETATM   10  C6  UNL     1     -35.842  14.056  -5.114  1.00 20.00     0.011 C 
ENDBRANCH   4   8
TORSDOF 1
ENDMDL
MODEL 7
REMARK VINA RESULT:      -3.2     18.257     19.257
REMARK  1 active torsions:
REMARK  status: ('A' for Active; 'I' for Inactive)
REMARK    1  A    between atoms: C4_4  and  C7_7 
ROOT
HETATM    1  C1  UNL     1     -35.284  15.008  -6.521  1.00 20.00     0.075 C 
HETATM    2  C2  UNL     1     -34.300  15.448  -4.305  1.00 20.00     0.105 C 
HETATM    3  C3  UNL     1     -34.301  15.809  -5.783  1.00 20.00     0.164 C 
HETATM    4  C4  UNL     1     -33.945  18.117  -4.336  1.00 20.00     0.113 C 
HETATM    5  N8  UNL     1     -36.062  14.374  -7.105  1.00 20.00    -0.196 NA
HETATM    6  S9  UNL     1     -33.272  16.674  -3.462  1.00 20.00    -0.151 SA
HETATM    7  S10 UNL     1     -34.664  17.590  -5.927  1.00 20.00    -0.133 SA
ENDROOT
BRANCH   4   8
HETATM    8  C7  UNL     1     -35.017  18.790  -3.487  1.00 20.00     0.001 C 
HETATM    9  C5  UNL     1     -36.413  18.383  -3.956  1.00 20.00     0.011 C 
HETATM   10  C6  UNL     1     -34.828  18.450  -2.009  1.00 20.00     0.011 C 
ENDBRANCH   4   8
TORSDOF 1
ENDMDL
MODEL 8
REMARK VINA RESULT:      -3.2     17.924     19.001
REMARK  1 active torsions:
REMARK  status: ('A' for Active; 'I' for Inactive)
REMARK    1  A    between atoms: C4_4  and  C7_7 
ROOT
HETATM    1  C1  UNL     1     -37.764  18.416  -3.423  1.00 20.00     0.075 C 
HETATM    2  C2  UNL     1     -36.306  17.116  -4.925  1.00 20.00     0.105 C 
HETATM    3  C3  UNL     1     -36.531  18.444  -4.218  1.00 20.00     0.164 C 
HETATM    4  C4  UNL     1     -33.840  17.893  -4.171  1.00 20.00     0.113 C 
HETATM    5  N8  UNL     1     -38.740  18.394  -2.795  1.00 20.00    -0.196 NA
HETATM    6  S9  UNL     1     -34.642  17.169  -5.632  1.00 20.00    -0.151 SA
HETATM    7  S10 UNL     1     -35.079  18.774  -3.165  1.00 20.00    -0.133 SA
ENDROOT
BRANCH   4   8
HETATM    8  C7  UNL     1     -33.186  16.798  -3.337  1.00 20.00     0.001 C 
HETATM    9  C5  UNL     1     -33.595  16.920  -1.869  1.00 20.00     0.011 C 
HETATM   10  C6  UNL     1     -33.549  15.416  -3.880  1.00 20.00     0.011 C 
ENDBRANCH   4   8
TORSDOF 1
ENDMDL
MODEL 9
REMARK VINA RESULT:      -3.2     20.242     21.617
REMARK  1 active torsions:
REMARK  status: ('A' for Active; 'I' for Inactive)
REMARK    1  A    between atoms: C4_4  and  C7_7 
ROOT
HETATM    1  C1  UNL     1     -30.104  -2.786  11.151  1.00 20.00     0.075 C 
HETATM    2  C2  UNL     1     -28.197  -4.224  11.756  1.00 20.00     0.105 C 
HETATM    3  C3  UNL     1     -28.829  -3.345  10.687  1.00 20.00     0.164 C 
HETATM    4  C4  UNL     1     -26.112  -2.944  10.631  1.00 20.00     0.113 C 
HETATM    5  N8  UNL     1     -31.113  -2.344  11.518  1.00 20.00    -0.196 NA
HETATM    6  S9  UNL     1     -26.525  -4.622  11.192  1.00 20.00    -0.151 SA
HETATM    7  S10 UNL     1     -27.644  -2.022  10.273  1.00 20.00    -0.133 SA
ENDROOT
BRANCH   4   8
HETATM    8  C7  UNL     1     -25.314  -2.215  11.705  1.00 20.00     0.001 C 
HETATM    9  C5  UNL     1     -23.842  -2.107  11.306  1.00 20.00     0.011 C 
HETATM   10  C6  UNL     1     -25.901  -0.827  11.966  1.00 20.00     0.011 C 
ENDBRANCH   4   8
TORSDOF 1
ENDMDL
