MODEL 1
REMARK VINA RESULT:      -5.5      0.000      0.000
REMARK  1 active torsions:
REMARK  status: ('A' for Active; 'I' for Inactive)
REMARK    1  A    between atoms: C1_1  and  C10_10 
ROOT
HETATM    1  C1  UNL     1     -33.041   7.273   3.916  1.00 20.00     0.025 C 
HETATM    2  C2  UNL     1     -34.002   6.644   4.581  1.00 20.00    -0.038 C 
HETATM    3  C3  UNL     1     -32.750   8.473   4.727  1.00 20.00     0.290 C 
HETATM    4  C4  UNL     1     -34.494   5.244   4.580  1.00 20.00     0.038 C 
HETATM    5  C5  UNL     1     -34.903   5.060   6.053  1.00 20.00     0.007 C 
HETATM    6  C6  UNL     1     -34.342   6.275   6.809  1.00 20.00     0.037 C 
HETATM    7  C7  UNL     1     -34.431   7.382   5.778  1.00 20.00     0.162 C 
HETATM    8  O11 UNL     1     -31.937   9.336   4.440  1.00 20.00    -0.260 OA
HETATM    9  O12 UNL     1     -33.487   8.432   5.885  1.00 20.00    -0.308 OA
ENDROOT
BRANCH   1  10
HETATM   10  C10 UNL     1     -32.229   6.856   2.754  1.00 20.00     0.017 C 
HETATM   11  C8  UNL     1     -32.669   5.479   2.243  1.00 20.00     0.015 C 
HETATM   12  C9  UNL     1     -32.297   7.886   1.620  1.00 20.00     0.015 C 
ENDBRANCH   1  10
TORSDOF 1
ENDMDL
MODEL 2
REMARK VINA RESULT:      -5.1      0.929      3.627
REMARK  1 active torsions:
REMARK  status: ('A' for Active; 'I' for Inactive)
REMARK    1  A    between atoms: C1_1  and  C10_10 
ROOT
HETATM    1  C1  UNL     1     -33.566   6.639   4.681  1.00 20.00     0.025 C 
HETATM    2  C2  UNL     1     -32.740   7.052   3.727  1.00 20.00    -0.038 C 
HETATM    3  C3  UNL     1     -33.610   7.756   5.646  1.00 20.00     0.290 C 
HETATM    4  C4  UNL     1     -32.532   6.649   2.314  1.00 20.00     0.038 C 
HETATM    5  C5  UNL     1     -32.153   7.992   1.663  1.00 20.00     0.007 C 
HETATM    6  C6  UNL     1     -32.459   9.076   2.708  1.00 20.00     0.037 C 
HETATM    7  C7  UNL     1     -32.164   8.373   4.017  1.00 20.00     0.162 C 
HETATM    8  O11 UNL     1     -34.241   7.759   6.690  1.00 20.00    -0.260 OA
HETATM    9  O12 UNL     1     -32.884   8.814   5.154  1.00 20.00    -0.308 OA
ENDROOT
BRANCH   1  10
HETATM   10  C10 UNL     1     -34.455   5.460   4.754  1.00 20.00     0.017 C 
HETATM   11  C8  UNL     1     -34.490   4.887   6.176  1.00 20.00     0.015 C 
HETATM   12  C9  UNL     1     -35.877   5.796   4.287  1.00 20.00     0.015 C 
ENDBRANCH   1  10
TORSDOF 1
ENDMDL
MODEL 3
REMARK VINA RESULT:      -5.1      0.989      3.526
REMARK  1 active torsions:
REMARK  status: ('A' for Active; 'I' for Inactive)
REMARK    1  A    between atoms: C1_1  and  C10_10 
ROOT
HETATM    1  C1  UNL     1     -33.653   6.621   4.868  1.00 20.00     0.025 C 
HETATM    2  C2  UNL     1     -32.816   6.995   3.907  1.00 20.00    -0.038 C 
HETATM    3  C3  UNL     1     -33.648   7.746   5.825  1.00 20.00     0.290 C 
HETATM    4  C4  UNL     1     -32.630   6.574   2.496  1.00 20.00     0.038 C 
HETATM    5  C5  UNL     1     -32.204   7.896   1.833  1.00 20.00     0.007 C 
HETATM    6  C6  UNL     1     -32.463   9.000   2.872  1.00 20.00     0.037 C 
HETATM    7  C7  UNL     1     -32.189   8.296   4.185  1.00 20.00     0.162 C 
HETATM    8  O11 UNL     1     -34.273   7.781   6.872  1.00 20.00    -0.260 OA
HETATM    9  O12 UNL     1     -32.886   8.772   5.322  1.00 20.00    -0.308 OA
ENDROOT
BRANCH   1  10
HETATM   10  C10 UNL     1     -34.585   5.478   4.955  1.00 20.00     0.017 C 
HETATM   11  C8  UNL     1     -35.901   5.787   4.231  1.00 20.00     0.015 C 
HETATM   12  C9  UNL     1     -33.961   4.197   4.389  1.00 20.00     0.015 C 
ENDBRANCH   1  10
TORSDOF 1
ENDMDL
MODEL 4
REMARK VINA RESULT:      -4.9     11.575     13.179
REMARK  1 active torsions:
REMARK  status: ('A' for Active; 'I' for Inactive)
REMARK    1  A    between atoms: C1_1  and  C10_10 
ROOT
HETATM    1  C1  UNL     1     -35.418  15.280  -5.211  1.00 20.00     0.025 C 
HETATM    2  C2  UNL     1     -34.406  16.073  -4.879  1.00 20.00    -0.038 C 
HETATM    3  C3  UNL     1     -35.157  14.020  -4.487  1.00 20.00     0.290 C 
HETATM    4  C4  UNL     1     -34.212  17.544  -4.906  1.00 20.00     0.038 C 
HETATM    5  C5  UNL     1     -33.314  17.759  -3.674  1.00 20.00     0.007 C 
HETATM    6  C6  UNL     1     -33.317  16.429  -2.904  1.00 20.00     0.037 C 
HETATM    7  C7  UNL     1     -33.428  15.400  -4.011  1.00 20.00     0.162 C 
HETATM    8  O11 UNL     1     -35.848  13.016  -4.549  1.00 20.00    -0.260 OA
HETATM    9  O12 UNL     1     -34.056  14.174  -3.681  1.00 20.00    -0.308 OA
ENDROOT
BRANCH   1  10
HETATM   10  C10 UNL     1     -36.672  15.558  -5.942  1.00 20.00     0.017 C 
HETATM   11  C8  UNL     1     -37.532  16.580  -5.188  1.00 20.00     0.015 C 
HETATM   12  C9  UNL     1     -36.396  16.051  -7.368  1.00 20.00     0.015 C 
ENDBRANCH   1  10
TORSDOF 1
ENDMDL
MODEL 5
REMARK VINA RESULT:      -4.8      1.959      3.845
REMARK  1 active torsions:
REMARK  status: ('A' for Active; 'I' for Inactive)
REMARK    1  A    between atoms: C1_1  and  C10_10 
ROOT
HETATM    1  C1  UNL     1     -33.797   6.161   3.970  1.00 20.00     0.025 C 
HETATM    2  C2  UNL     1     -33.517   7.432   4.232  1.00 20.00    -0.038 C 
HETATM    3  C3  UNL     1     -32.849   5.782   2.904  1.00 20.00     0.290 C 
HETATM    4  C4  UNL     1     -33.777   8.314   5.397  1.00 20.00     0.038 C 
HETATM    5  C5  UNL     1     -32.526   9.211   5.390  1.00 20.00     0.007 C 
HETATM    6  C6  UNL     1     -31.543   8.568   4.398  1.00 20.00     0.037 C 
HETATM    7  C7  UNL     1     -32.464   7.966   3.356  1.00 20.00     0.162 C 
HETATM    8  O11 UNL     1     -32.800   4.692   2.360  1.00 20.00    -0.260 OA
HETATM    9  O12 UNL     1     -31.987   6.825   2.666  1.00 20.00    -0.308 OA
ENDROOT
BRANCH   1  10
HETATM   10  C10 UNL     1     -34.673   5.195   4.667  1.00 20.00     0.017 C 
HETATM   11  C8  UNL     1     -34.365   5.158   6.168  1.00 20.00     0.015 C 
HETATM   12  C9  UNL     1     -36.155   5.514   4.440  1.00 20.00     0.015 C 
ENDBRANCH   1  10
TORSDOF 1
ENDMDL
MODEL 6
REMARK VINA RESULT:      -4.8     11.722     13.656
REMARK  1 active torsions:
REMARK  status: ('A' for Active; 'I' for Inactive)
REMARK    1  A    between atoms: C1_1  and  C10_10 
ROOT
HETATM    1  C1  UNL     1     -34.831  15.224  -4.699  1.00 20.00     0.025 C 
HETATM    2  C2  UNL     1     -35.123  16.151  -5.603  1.00 20.00    -0.038 C 
HETATM    3  C3  UNL     1     -35.748  14.107  -5.000  1.00 20.00     0.290 C 
HETATM    4  C4  UNL     1     -34.384  17.321  -6.139  1.00 20.00     0.038 C 
HETATM    5  C5  UNL     1     -34.870  17.349  -7.600  1.00 20.00     0.007 C 
HETATM    6  C6  UNL     1     -35.617  16.025  -7.829  1.00 20.00     0.037 C 
HETATM    7  C7  UNL     1     -36.238  15.753  -6.474  1.00 20.00     0.162 C 
HETATM    8  O11 UNL     1     -35.816  13.063  -4.372  1.00 20.00    -0.260 OA
HETATM    9  O12 UNL     1     -36.463  14.396  -6.137  1.00 20.00    -0.308 OA
ENDROOT
BRANCH   1  10
HETATM   10  C10 UNL     1     -33.726  15.134  -3.721  1.00 20.00     0.017 C 
HETATM   11  C8  UNL     1     -32.416  14.730  -4.408  1.00 20.00     0.015 C 
HETATM   12  C9  UNL     1     -33.537  16.452  -2.961  1.00 20.00     0.015 C 
ENDBRANCH   1  10
TORSDOF 1
ENDMDL
MODEL 7
REMARK VINA RESULT:      -4.5     12.166     14.274
REMARK  1 active torsions:
REMARK  status: ('A' for Active; 'I' for Inactive)
REMARK    1  A    between atoms: C1_1  and  C10_10 
ROOT
HETATM    1  C1  UNL     1     -35.729  16.774  -6.063  1.00 20.00     0.025 C 
HETATM    2  C2  UNL     1     -34.634  16.484  -5.370  1.00 20.00    -0.038 C 
HETATM    3  C3  UNL     1     -35.976  15.574  -6.888  1.00 20.00     0.290 C 
HETATM    4  C4  UNL     1     -34.049  17.022  -4.116  1.00 20.00     0.038 C 
HETATM    5  C5  UNL     1     -33.406  15.760  -3.511  1.00 20.00     0.007 C 
HETATM    6  C6  UNL     1     -33.930  14.574  -4.336  1.00 20.00     0.037 C 
HETATM    7  C7  UNL     1     -34.079  15.169  -5.721  1.00 20.00     0.162 C 
HETATM    8  O11 UNL     1     -36.883  15.449  -7.694  1.00 20.00    -0.260 OA
HETATM    9  O12 UNL     1     -35.069  14.597  -6.558  1.00 20.00    -0.308 OA
ENDROOT
BRANCH   1  10
HETATM   10  C10 UNL     1     -36.678  17.901  -5.955  1.00 20.00     0.017 C 
HETATM   11  C8  UNL     1     -37.461  17.835  -4.639  1.00 20.00     0.015 C 
HETATM   12  C9  UNL     1     -35.964  19.253  -6.077  1.00 20.00     0.015 C 
ENDBRANCH   1  10
TORSDOF 1
ENDMDL
MODEL 8
REMARK VINA RESULT:      -4.4     12.188     13.463
REMARK  1 active torsions:
REMARK  status: ('A' for Active; 'I' for Inactive)
REMARK    1  A    between atoms: C1_1  and  C10_10 
ROOT
HETATM    1  C1  UNL     1     -34.431  17.818  -3.480  1.00 20.00     0.025 C 
HETATM    2  C2  UNL     1     -33.988  16.749  -4.130  1.00 20.00    -0.038 C 
HETATM    3  C3  UNL     1     -35.714  18.147  -4.134  1.00 20.00     0.290 C 
HETATM    4  C4  UNL     1     -33.011  15.683  -3.793  1.00 20.00     0.038 C 
HETATM    5  C5  UNL     1     -33.632  14.462  -4.498  1.00 20.00     0.007 C 
HETATM    6  C6  UNL     1     -35.045  14.888  -4.927  1.00 20.00     0.037 C 
HETATM    7  C7  UNL     1     -34.872  16.360  -5.239  1.00 20.00     0.162 C 
HETATM    8  O11 UNL     1     -36.429  19.092  -3.845  1.00 20.00    -0.260 OA
HETATM    9  O12 UNL     1     -36.009  17.186  -5.070  1.00 20.00    -0.308 OA
ENDROOT
BRANCH   1  10
HETATM   10  C10 UNL     1     -33.952  18.473  -2.245  1.00 20.00     0.017 C 
HETATM   11  C8  UNL     1     -33.783  17.453  -1.112  1.00 20.00     0.015 C 
HETATM   12  C9  UNL     1     -32.636  19.224  -2.479  1.00 20.00     0.015 C 
ENDBRANCH   1  10
TORSDOF 1
ENDMDL
MODEL 9
REMARK VINA RESULT:      -4.3     11.908     13.535
REMARK  1 active torsions:
REMARK  status: ('A' for Active; 'I' for Inactive)
REMARK    1  A    between atoms: C1_1  and  C10_10 
ROOT
HETATM    1  C1  UNL     1     -34.334  16.094  -5.067  1.00 20.00     0.025 C 
HETATM    2  C2  UNL     1     -34.184  17.312  -4.562  1.00 20.00    -0.038 C 
HETATM    3  C3  UNL     1     -33.779  15.192  -4.037  1.00 20.00     0.290 C 
HETATM    4  C4  UNL     1     -34.832  18.618  -4.840  1.00 20.00     0.038 C 
HETATM    5  C5  UNL     1     -34.844  19.261  -3.441  1.00 20.00     0.007 C 
HETATM    6  C6  UNL     1     -34.461  18.147  -2.454  1.00 20.00     0.037 C 
HETATM    7  C7  UNL     1     -33.498  17.300  -3.261  1.00 20.00     0.162 C 
HETATM    8  O11 UNL     1     -33.702  13.979  -4.132  1.00 20.00    -0.260 OA
HETATM    9  O12 UNL     1     -33.425  15.925  -2.930  1.00 20.00    -0.308 OA
ENDROOT
BRANCH   1  10
HETATM   10  C10 UNL     1     -35.064  15.619  -6.261  1.00 20.00     0.017 C 
HETATM   11  C8  UNL     1     -36.571  15.865  -6.117  1.00 20.00     0.015 C 
HETATM   12  C9  UNL     1     -34.542  16.282  -7.541  1.00 20.00     0.015 C 
ENDBRANCH   1  10
TORSDOF 1
ENDMDL
