MODEL 1
REMARK VINA RESULT:      -4.8      0.000      0.000
REMARK  1 active torsions:
REMARK  status: ('A' for Active; 'I' for Inactive)
REMARK    1  A    between atoms: C7_7  and  C10_10 
ROOT
HETATM    1  C1  UNL     1     -33.563   5.460   3.370  1.00 20.00     0.011 C 
HETATM    2  C2  UNL     1     -32.713   6.248   2.697  1.00 20.00    -0.020 C 
HETATM    3  C3  UNL     1     -34.081   5.820   4.670  1.00 20.00     0.000 C 
HETATM    4  C4  UNL     1     -33.757   7.172   5.226  1.00 20.00     0.159 C 
HETATM    5  C5  UNL     1     -34.859   5.002   5.391  1.00 20.00     0.027 C 
HETATM    6  C6  UNL     1     -33.202   8.190   4.248  1.00 20.00     0.092 C 
HETATM    7  C7  UNL     1     -32.239   7.580   3.218  1.00 20.00     0.019 C 
HETATM    8  O11 UNL     1     -33.989   7.474   6.394  1.00 20.00    -0.292 OA
ENDROOT
BRANCH   7   9
HETATM    9  C10 UNL     1     -32.018   8.565   2.069  1.00 20.00    -0.015 C 
HETATM   10  C8  UNL     1     -32.031   7.834   0.730  1.00 20.00     0.010 C 
HETATM   11  C9  UNL     1     -33.077   9.663   2.096  1.00 20.00     0.010 C 
ENDBRANCH   7   9
TORSDOF 1
ENDMDL
MODEL 2
REMARK VINA RESULT:      -4.4     11.612     12.121
REMARK  1 active torsions:
REMARK  status: ('A' for Active; 'I' for Inactive)
REMARK    1  A    between atoms: C7_7  and  C10_10 
ROOT
HETATM    1  C1  UNL     1     -33.910  18.310   0.694  1.00 20.00     0.011 C 
HETATM    2  C2  UNL     1     -34.039  17.730  -0.507  1.00 20.00    -0.020 C 
HETATM    3  C3  UNL     1     -32.634  18.764   1.196  1.00 20.00     0.000 C 
HETATM    4  C4  UNL     1     -31.440  18.698   0.295  1.00 20.00     0.159 C 
HETATM    5  C5  UNL     1     -32.478  19.263   2.430  1.00 20.00     0.027 C 
HETATM    6  C6  UNL     1     -31.718  18.487  -1.181  1.00 20.00     0.092 C 
HETATM    7  C7  UNL     1     -32.880  17.518  -1.447  1.00 20.00     0.019 C 
HETATM    8  O11 UNL     1     -30.296  18.876   0.707  1.00 20.00    -0.292 OA
ENDROOT
BRANCH   7   9
HETATM    9  C10 UNL     1     -33.332  17.640  -2.903  1.00 20.00    -0.015 C 
HETATM   10  C8  UNL     1     -33.351  16.269  -3.572  1.00 20.00     0.010 C 
HETATM   11  C9  UNL     1     -34.707  18.298  -2.982  1.00 20.00     0.010 C 
ENDBRANCH   7   9
TORSDOF 1
ENDMDL
MODEL 3
REMARK VINA RESULT:      -4.3     11.455     12.206
REMARK  1 active torsions:
REMARK  status: ('A' for Active; 'I' for Inactive)
REMARK    1  A    between atoms: C7_7  and  C10_10 
ROOT
HETATM    1  C1  UNL     1     -30.886  18.512  -0.181  1.00 20.00     0.011 C 
HETATM    2  C2  UNL     1     -31.830  18.455  -1.130  1.00 20.00    -0.020 C 
HETATM    3  C3  UNL     1     -31.203  18.771   1.205  1.00 20.00     0.000 C 
HETATM    4  C4  UNL     1     -32.642  18.853   1.612  1.00 20.00     0.159 C 
HETATM    5  C5  UNL     1     -30.262  18.919   2.147  1.00 20.00     0.027 C 
HETATM    6  C6  UNL     1     -33.656  18.320   0.619  1.00 20.00     0.092 C 
HETATM    7  C7  UNL     1     -33.298  18.632  -0.842  1.00 20.00     0.019 C 
HETATM    8  O11 UNL     1     -32.988  19.263   2.717  1.00 20.00    -0.292 OA
ENDROOT
BRANCH   7   9
HETATM    9  C10 UNL     1     -34.144  17.768  -1.778  1.00 20.00    -0.015 C 
HETATM   10  C8  UNL     1     -34.820  18.633  -2.838  1.00 20.00     0.010 C 
HETATM   11  C9  UNL     1     -33.285  16.688  -2.429  1.00 20.00     0.010 C 
ENDBRANCH   7   9
TORSDOF 1
ENDMDL
MODEL 4
REMARK VINA RESULT:      -4.2     11.453     12.796
REMARK  1 active torsions:
REMARK  status: ('A' for Active; 'I' for Inactive)
REMARK    1  A    between atoms: C7_7  and  C10_10 
ROOT
HETATM    1  C1  UNL     1     -33.716  18.809  -4.143  1.00 20.00     0.011 C 
HETATM    2  C2  UNL     1     -33.036  19.153  -3.040  1.00 20.00    -0.020 C 
HETATM    3  C3  UNL     1     -34.040  17.435  -4.449  1.00 20.00     0.000 C 
HETATM    4  C4  UNL     1     -33.718  16.376  -3.442  1.00 20.00     0.159 C 
HETATM    5  C5  UNL     1     -34.640  17.071  -5.591  1.00 20.00     0.027 C 
HETATM    6  C6  UNL     1     -33.393  16.853  -2.040  1.00 20.00     0.092 C 
HETATM    7  C7  UNL     1     -32.570  18.151  -2.016  1.00 20.00     0.019 C 
HETATM    8  O11 UNL     1     -33.779  15.178  -3.707  1.00 20.00    -0.292 OA
ENDROOT
BRANCH   7   9
HETATM    9  C10 UNL     1     -32.599  18.756  -0.611  1.00 20.00    -0.015 C 
HETATM   10  C8  UNL     1     -33.713  18.126   0.219  1.00 20.00     0.010 C 
HETATM   11  C9  UNL     1     -31.247  18.579   0.074  1.00 20.00     0.010 C 
ENDBRANCH   7   9
TORSDOF 1
ENDMDL
MODEL 5
REMARK VINA RESULT:      -4.1     11.343     12.547
REMARK  1 active torsions:
REMARK  status: ('A' for Active; 'I' for Inactive)
REMARK    1  A    between atoms: C7_7  and  C10_10 
ROOT
HETATM    1  C1  UNL     1     -35.038  17.121  -5.262  1.00 20.00     0.011 C 
HETATM    2  C2  UNL     1     -34.359  18.000  -4.512  1.00 20.00    -0.020 C 
HETATM    3  C3  UNL     1     -34.777  15.701  -5.208  1.00 20.00     0.000 C 
HETATM    4  C4  UNL     1     -33.806  15.184  -4.192  1.00 20.00     0.159 C 
HETATM    5  C5  UNL     1     -35.386  14.823  -6.017  1.00 20.00     0.027 C 
HETATM    6  C6  UNL     1     -33.430  16.135  -3.073  1.00 20.00     0.092 C 
HETATM    7  C7  UNL     1     -33.286  17.592  -3.536  1.00 20.00     0.019 C 
HETATM    8  O11 UNL     1     -33.385  14.030  -4.215  1.00 20.00    -0.292 OA
ENDROOT
BRANCH   7   9
HETATM    9  C10 UNL     1     -33.273  18.523  -2.323  1.00 20.00    -0.015 C 
HETATM   10  C8  UNL     1     -34.659  18.591  -1.687  1.00 20.00     0.010 C 
HETATM   11  C9  UNL     1     -32.234  18.060  -1.305  1.00 20.00     0.010 C 
ENDBRANCH   7   9
TORSDOF 1
ENDMDL
MODEL 6
REMARK VINA RESULT:      -4.1      1.464      2.170
REMARK  1 active torsions:
REMARK  status: ('A' for Active; 'I' for Inactive)
REMARK    1  A    between atoms: C7_7  and  C10_10 
ROOT
HETATM    1  C1  UNL     1     -33.888   7.456   6.080  1.00 20.00     0.011 C 
HETATM    2  C2  UNL     1     -33.565   8.258   5.056  1.00 20.00    -0.020 C 
HETATM    3  C3  UNL     1     -34.238   6.068   5.890  1.00 20.00     0.000 C 
HETATM    4  C4  UNL     1     -34.114   5.474   4.521  1.00 20.00     0.159 C 
HETATM    5  C5  UNL     1     -34.649   5.281   6.894  1.00 20.00     0.027 C 
HETATM    6  C6  UNL     1     -33.308   6.267   3.511  1.00 20.00     0.092 C 
HETATM    7  C7  UNL     1     -33.515   7.785   3.626  1.00 20.00     0.019 C 
HETATM    8  O11 UNL     1     -34.576   4.370   4.240  1.00 20.00    -0.292 OA
ENDROOT
BRANCH   7   9
HETATM    9  C10 UNL     1     -32.421   8.518   2.850  1.00 20.00    -0.015 C 
HETATM   10  C8  UNL     1     -31.915   7.655   1.697  1.00 20.00     0.010 C 
HETATM   11  C9  UNL     1     -32.937   9.859   2.335  1.00 20.00     0.010 C 
ENDBRANCH   7   9
TORSDOF 1
ENDMDL
MODEL 7
REMARK VINA RESULT:      -4.0     11.725     12.770
REMARK  1 active torsions:
REMARK  status: ('A' for Active; 'I' for Inactive)
REMARK    1  A    between atoms: C7_7  and  C10_10 
ROOT
HETATM    1  C1  UNL     1     -33.292  16.191  -3.418  1.00 20.00     0.011 C 
HETATM    2  C2  UNL     1     -33.193  16.707  -2.185  1.00 20.00    -0.020 C 
HETATM    3  C3  UNL     1     -34.265  16.666  -4.374  1.00 20.00     0.000 C 
HETATM    4  C4  UNL     1     -35.102  17.856  -4.021  1.00 20.00     0.159 C 
HETATM    5  C5  UNL     1     -34.435  16.099  -5.577  1.00 20.00     0.027 C 
HETATM    6  C6  UNL     1     -34.636  18.683  -2.839  1.00 20.00     0.092 C 
HETATM    7  C7  UNL     1     -34.062  17.835  -1.694  1.00 20.00     0.019 C 
HETATM    8  O11 UNL     1     -36.077  18.195  -4.689  1.00 20.00    -0.292 OA
ENDROOT
BRANCH   7   9
HETATM    9  C10 UNL     1     -33.292  18.730  -0.722  1.00 20.00    -0.015 C 
HETATM   10  C8  UNL     1     -33.781  18.513   0.707  1.00 20.00     0.010 C 
HETATM   11  C9  UNL     1     -31.793  18.465  -0.826  1.00 20.00     0.010 C 
ENDBRANCH   7   9
TORSDOF 1
ENDMDL
MODEL 8
REMARK VINA RESULT:      -4.0      1.607      4.203
REMARK  1 active torsions:
REMARK  status: ('A' for Active; 'I' for Inactive)
REMARK    1  A    between atoms: C7_7  and  C10_10 
ROOT
HETATM    1  C1  UNL     1     -32.713   6.170   2.454  1.00 20.00     0.011 C 
HETATM    2  C2  UNL     1     -33.393   5.822   3.555  1.00 20.00    -0.020 C 
HETATM    3  C3  UNL     1     -32.394   7.546   2.150  1.00 20.00     0.000 C 
HETATM    4  C4  UNL     1     -32.723   8.603   3.157  1.00 20.00     0.159 C 
HETATM    5  C5  UNL     1     -31.794   7.914   1.009  1.00 20.00     0.027 C 
HETATM    6  C6  UNL     1     -33.049   8.122   4.558  1.00 20.00     0.092 C 
HETATM    7  C7  UNL     1     -33.865   6.821   4.580  1.00 20.00     0.019 C 
HETATM    8  O11 UNL     1     -32.668   9.801   2.894  1.00 20.00    -0.292 OA
ENDROOT
BRANCH   7   9
HETATM    9  C10 UNL     1     -33.836   6.214   5.983  1.00 20.00    -0.015 C 
HETATM   10  C8  UNL     1     -34.329   7.226   7.013  1.00 20.00     0.010 C 
HETATM   11  C9  UNL     1     -34.676   4.941   6.032  1.00 20.00     0.010 C 
ENDBRANCH   7   9
TORSDOF 1
ENDMDL
MODEL 9
REMARK VINA RESULT:      -3.9     11.498     12.686
REMARK  1 active torsions:
REMARK  status: ('A' for Active; 'I' for Inactive)
REMARK    1  A    between atoms: C7_7  and  C10_10 
ROOT
HETATM    1  C1  UNL     1     -33.308  15.888  -3.043  1.00 20.00     0.011 C 
HETATM    2  C2  UNL     1     -33.637  15.464  -4.271  1.00 20.00    -0.020 C 
HETATM    3  C3  UNL     1     -33.663  17.203  -2.563  1.00 20.00     0.000 C 
HETATM    4  C4  UNL     1     -34.533  18.072  -3.416  1.00 20.00     0.159 C 
HETATM    5  C5  UNL     1     -33.263  17.670  -1.372  1.00 20.00     0.027 C 
HETATM    6  C6  UNL     1     -35.259  17.388  -4.558  1.00 20.00     0.092 C 
HETATM    7  C7  UNL     1     -34.419  16.303  -5.248  1.00 20.00     0.019 C 
HETATM    8  O11 UNL     1     -34.713  19.263  -3.172  1.00 20.00    -0.292 OA
ENDROOT
BRANCH   7   9
HETATM    9  C10 UNL     1     -35.320  15.425  -6.119  1.00 20.00    -0.015 C 
HETATM   10  C8  UNL     1     -35.917  14.290  -5.293  1.00 20.00     0.010 C 
HETATM   11  C9  UNL     1     -36.421  16.263  -6.762  1.00 20.00     0.010 C 
ENDBRANCH   7   9
TORSDOF 1
ENDMDL
