MODEL 1
REMARK VINA RESULT:      -3.6      0.000      0.000
REMARK  1 active torsions:
REMARK  status: ('A' for Active; 'I' for Inactive)
REMARK    1  A    between atoms: C8_8  and  C11_11 
ROOT
HETATM    1  C1  UNL     1     -34.556  16.960  -6.940  1.00 20.00    -0.081 C 
HETATM    2  C2  UNL     1     -34.042  17.916  -7.728  1.00 20.00     0.015 C 
HETATM    3  C3  UNL     1     -34.150  15.508  -7.070  1.00 20.00     0.061 C 
HETATM    4  C4  UNL     1     -36.828  16.411  -5.994  1.00 20.00     0.039 C 
HETATM    5  C5  UNL     1     -34.042  14.782  -5.721  1.00 20.00     0.239 C 
HETATM    6  C6  UNL     1     -36.508  15.083  -5.294  1.00 20.00     0.236 C 
HETATM    7  C7  UNL     1     -35.558  17.272  -5.841  1.00 20.00     0.046 C 
HETATM    8  C8  UNL     1     -35.028  16.774  -4.500  1.00 20.00     0.199 C 
HETATM    9  N12 UNL     1     -35.096  15.277  -4.746  1.00 20.00    -0.066 N 
HETATM   10  H32 UNL     1     -34.994  14.766  -3.858  1.00 20.00     0.280 HD
ENDROOT
BRANCH   8  11
HETATM   11  C11 UNL     1     -33.659  17.252  -4.043  1.00 20.00     0.009 C 
HETATM   12  C9  UNL     1     -33.614  18.778  -3.964  1.00 20.00     0.011 C 
HETATM   13  C10 UNL     1     -33.292  16.638  -2.692  1.00 20.00     0.011 C 
ENDBRANCH   8  11
TORSDOF 1
ENDMDL
MODEL 2
REMARK VINA RESULT:      -3.5     16.750     19.492
REMARK  1 active torsions:
REMARK  status: ('A' for Active; 'I' for Inactive)
REMARK    1  A    between atoms: C8_8  and  C11_11 
ROOT
HETATM    1  C1  UNL     1     -22.637  18.304  11.188  1.00 20.00    -0.081 C 
HETATM    2  C2  UNL     1     -21.384  18.660  10.872  1.00 20.00     0.015 C 
HETATM    3  C3  UNL     1     -23.393  18.951  12.330  1.00 20.00     0.061 C 
HETATM    4  C4  UNL     1     -23.931  16.146  11.338  1.00 20.00     0.039 C 
HETATM    5  C5  UNL     1     -24.884  19.162  12.032  1.00 20.00     0.239 C 
HETATM    6  C6  UNL     1     -25.267  16.675  11.878  1.00 20.00     0.236 C 
HETATM    7  C7  UNL     1     -23.400  17.250  10.403  1.00 20.00     0.046 C 
HETATM    8  C8  UNL     1     -24.705  17.839   9.876  1.00 20.00     0.199 C 
HETATM    9  N12 UNL     1     -25.442  18.027  11.191  1.00 20.00    -0.066 N 
HETATM   10  H32 UNL     1     -26.441  18.202  11.017  1.00 20.00     0.280 HD
ENDROOT
BRANCH   8  11
HETATM   11  C11 UNL     1     -24.638  19.102   9.033  1.00 20.00     0.009 C 
HETATM   12  C9  UNL     1     -23.401  19.091   8.133  1.00 20.00     0.011 C 
HETATM   13  C10 UNL     1     -25.905  19.263   8.192  1.00 20.00     0.011 C 
ENDBRANCH   8  11
TORSDOF 1
ENDMDL
MODEL 3
REMARK VINA RESULT:      -3.5      1.133      2.989
REMARK  1 active torsions:
REMARK  status: ('A' for Active; 'I' for Inactive)
REMARK    1  A    between atoms: C8_8  and  C11_11 
ROOT
HETATM    1  C1  UNL     1     -35.640  14.824  -5.382  1.00 20.00    -0.081 C 
HETATM    2  C2  UNL     1     -35.802  13.723  -4.635  1.00 20.00     0.015 C 
HETATM    3  C3  UNL     1     -36.814  15.654  -5.856  1.00 20.00     0.061 C 
HETATM    4  C4  UNL     1     -34.164  15.516  -7.305  1.00 20.00     0.039 C 
HETATM    5  C5  UNL     1     -36.538  17.164  -5.844  1.00 20.00     0.239 C 
HETATM    6  C6  UNL     1     -34.740  16.910  -7.592  1.00 20.00     0.236 C 
HETATM    7  C7  UNL     1     -34.265  15.336  -5.778  1.00 20.00     0.046 C 
HETATM    8  C8  UNL     1     -34.091  16.776  -5.302  1.00 20.00     0.199 C 
HETATM    9  N12 UNL     1     -35.095  17.461  -6.213  1.00 20.00    -0.066 N 
HETATM   10  H32 UNL     1     -34.951  18.480  -6.198  1.00 20.00     0.280 HD
ENDROOT
BRANCH   8  11
HETATM   11  C11 UNL     1     -34.304  17.080  -3.828  1.00 20.00     0.009 C 
HETATM   12  C9  UNL     1     -33.335  16.275  -2.961  1.00 20.00     0.011 C 
HETATM   13  C10 UNL     1     -34.147  18.575  -3.553  1.00 20.00     0.011 C 
ENDBRANCH   8  11
TORSDOF 1
ENDMDL
MODEL 4
REMARK VINA RESULT:      -3.3     13.053     14.502
REMARK  1 active torsions:
REMARK  status: ('A' for Active; 'I' for Inactive)
REMARK    1  A    between atoms: C8_8  and  C11_11 
ROOT
HETATM    1  C1  UNL     1     -40.938  12.980   6.348  1.00 20.00    -0.081 C 
HETATM    2  C2  UNL     1     -40.200  12.322   5.442  1.00 20.00     0.015 C 
HETATM    3  C3  UNL     1     -40.309  13.788   7.462  1.00 20.00     0.061 C 
HETATM    4  C4  UNL     1     -43.051  12.528   7.645  1.00 20.00     0.039 C 
HETATM    5  C5  UNL     1     -41.068  15.084   7.780  1.00 20.00     0.239 C 
HETATM    6  C6  UNL     1     -43.096  13.785   8.524  1.00 20.00     0.236 C 
HETATM    7  C7  UNL     1     -42.457  12.988   6.300  1.00 20.00     0.046 C 
HETATM    8  C8  UNL     1     -42.966  14.424   6.232  1.00 20.00     0.199 C 
HETATM    9  N12 UNL     1     -42.567  14.895   7.620  1.00 20.00    -0.066 N 
HETATM   10  H32 UNL     1     -43.039  15.782   7.844  1.00 20.00     0.280 HD
ENDROOT
BRANCH   8  11
HETATM   11  C11 UNL     1     -42.452  15.320   5.116  1.00 20.00     0.009 C 
HETATM   12  C9  UNL     1     -42.763  14.716   3.746  1.00 20.00     0.011 C 
HETATM   13  C10 UNL     1     -43.050  16.723   5.226  1.00 20.00     0.011 C 
ENDBRANCH   8  11
TORSDOF 1
ENDMDL
MODEL 5
REMARK VINA RESULT:      -3.3      1.528      3.319
REMARK  1 active torsions:
REMARK  status: ('A' for Active; 'I' for Inactive)
REMARK    1  A    between atoms: C8_8  and  C11_11 
ROOT
HETATM    1  C1  UNL     1     -36.835  16.882  -5.635  1.00 20.00    -0.081 C 
HETATM    2  C2  UNL     1     -38.040  16.669  -5.088  1.00 20.00     0.015 C 
HETATM    3  C3  UNL     1     -36.001  18.098  -5.292  1.00 20.00     0.061 C 
HETATM    4  C4  UNL     1     -35.801  16.612  -7.918  1.00 20.00     0.039 C 
HETATM    5  C5  UNL     1     -34.497  17.801  -5.203  1.00 20.00     0.239 C 
HETATM    6  C6  UNL     1     -34.409  17.200  -7.649  1.00 20.00     0.236 C 
HETATM    7  C7  UNL     1     -36.206  15.902  -6.611  1.00 20.00     0.046 C 
HETATM    8  C8  UNL     1     -34.845  15.451  -6.090  1.00 20.00     0.199 C 
HETATM    9  N12 UNL     1     -34.082  16.757  -6.225  1.00 20.00    -0.066 N 
HETATM   10  H32 UNL     1     -33.070  16.589  -6.136  1.00 20.00     0.280 HD
ENDROOT
BRANCH   8  11
HETATM   11  C11 UNL     1     -34.770  14.846  -4.697  1.00 20.00     0.009 C 
HETATM   12  C9  UNL     1     -35.651  13.600  -4.597  1.00 20.00     0.011 C 
HETATM   13  C10 UNL     1     -33.326  14.507  -4.329  1.00 20.00     0.011 C 
ENDBRANCH   8  11
TORSDOF 1
ENDMDL
MODEL 6
REMARK VINA RESULT:      -3.2      1.473      3.013
REMARK  1 active torsions:
REMARK  status: ('A' for Active; 'I' for Inactive)
REMARK    1  A    between atoms: C8_8  and  C11_11 
ROOT
HETATM    1  C1  UNL     1     -34.150  15.782  -4.629  1.00 20.00    -0.081 C 
HETATM    2  C2  UNL     1     -33.333  16.104  -3.617  1.00 20.00     0.015 C 
HETATM    3  C3  UNL     1     -34.836  14.435  -4.710  1.00 20.00     0.061 C 
HETATM    4  C4  UNL     1     -34.176  16.129  -7.126  1.00 20.00     0.039 C 
HETATM    5  C5  UNL     1     -36.268  14.511  -5.257  1.00 20.00     0.239 C 
HETATM    6  C6  UNL     1     -35.436  15.331  -7.491  1.00 20.00     0.236 C 
HETATM    7  C7  UNL     1     -34.471  16.757  -5.750  1.00 20.00     0.046 C 
HETATM    8  C8  UNL     1     -35.981  16.963  -5.841  1.00 20.00     0.199 C 
HETATM    9  N12 UNL     1     -36.391  15.583  -6.327  1.00 20.00    -0.066 N 
HETATM   10  H32 UNL     1     -37.361  15.601  -6.670  1.00 20.00     0.280 HD
ENDROOT
BRANCH   8  11
HETATM   11  C11 UNL     1     -36.724  17.412  -4.594  1.00 20.00     0.009 C 
HETATM   12  C9  UNL     1     -36.149  18.726  -4.061  1.00 20.00     0.011 C 
HETATM   13  C10 UNL     1     -38.219  17.562  -4.876  1.00 20.00     0.011 C 
ENDBRANCH   8  11
TORSDOF 1
ENDMDL
MODEL 7
REMARK VINA RESULT:      -3.1      1.381      2.862
REMARK  1 active torsions:
REMARK  status: ('A' for Active; 'I' for Inactive)
REMARK    1  A    between atoms: C8_8  and  C11_11 
ROOT
HETATM    1  C1  UNL     1     -34.532  14.942  -5.188  1.00 20.00    -0.081 C 
HETATM    2  C2  UNL     1     -33.655  14.451  -4.302  1.00 20.00     0.015 C 
HETATM    3  C3  UNL     1     -35.962  14.450  -5.261  1.00 20.00     0.061 C 
HETATM    4  C4  UNL     1     -34.473  15.634  -7.611  1.00 20.00     0.039 C 
HETATM    5  C5  UNL     1     -36.976  15.564  -5.557  1.00 20.00     0.239 C 
HETATM    6  C6  UNL     1     -35.955  15.972  -7.826  1.00 20.00     0.236 C 
HETATM    7  C7  UNL     1     -34.163  16.050  -6.161  1.00 20.00     0.046 C 
HETATM    8  C8  UNL     1     -35.113  17.231  -5.986  1.00 20.00     0.199 C 
HETATM    9  N12 UNL     1     -36.393  16.599  -6.504  1.00 20.00    -0.066 N 
HETATM   10  H32 UNL     1     -37.102  17.324  -6.681  1.00 20.00     0.280 HD
ENDROOT
BRANCH   8  11
HETATM   11  C11 UNL     1     -35.256  17.843  -4.602  1.00 20.00     0.009 C 
HETATM   12  C9  UNL     1     -33.901  18.315  -4.072  1.00 20.00     0.011 C 
HETATM   13  C10 UNL     1     -36.252  19.003  -4.621  1.00 20.00     0.011 C 
ENDBRANCH   8  11
TORSDOF 1
ENDMDL
MODEL 8
REMARK VINA RESULT:      -3.1      1.722      3.652
REMARK  1 active torsions:
REMARK  status: ('A' for Active; 'I' for Inactive)
REMARK    1  A    between atoms: C8_8  and  C11_11 
ROOT
HETATM    1  C1  UNL     1     -36.459  18.046  -4.508  1.00 20.00    -0.081 C 
HETATM    2  C2  UNL     1     -37.771  17.769  -4.489  1.00 20.00     0.015 C 
HETATM    3  C3  UNL     1     -35.725  18.541  -3.281  1.00 20.00     0.061 C 
HETATM    4  C4  UNL     1     -34.857  19.146  -6.114  1.00 20.00     0.039 C 
HETATM    5  C5  UNL     1     -34.306  17.970  -3.147  1.00 20.00     0.239 C 
HETATM    6  C6  UNL     1     -33.576  19.122  -5.267  1.00 20.00     0.236 C 
HETATM    7  C7  UNL     1     -35.611  17.851  -5.754  1.00 20.00     0.046 C 
HETATM    8  C8  UNL     1     -34.448  16.912  -5.448  1.00 20.00     0.199 C 
HETATM    9  N12 UNL     1     -33.652  17.800  -4.508  1.00 20.00    -0.066 N 
HETATM   10  H32 UNL     1     -32.705  17.420  -4.376  1.00 20.00     0.280 HD
ENDROOT
BRANCH   8  11
HETATM   11  C11 UNL     1     -34.761  15.542  -4.868  1.00 20.00     0.009 C 
HETATM   12  C9  UNL     1     -35.620  14.725  -5.834  1.00 20.00     0.011 C 
HETATM   13  C10 UNL     1     -33.474  14.787  -4.533  1.00 20.00     0.011 C 
ENDBRANCH   8  11
TORSDOF 1
ENDMDL
MODEL 9
REMARK VINA RESULT:      -3.1     12.632     14.188
REMARK  1 active torsions:
REMARK  status: ('A' for Active; 'I' for Inactive)
REMARK    1  A    between atoms: C8_8  and  C11_11 
ROOT
HETATM    1  C1  UNL     1     -41.045  14.842   7.499  1.00 20.00    -0.081 C 
HETATM    2  C2  UNL     1     -40.168  15.504   8.268  1.00 20.00     0.015 C 
HETATM    3  C3  UNL     1     -41.778  15.512   6.358  1.00 20.00     0.061 C 
HETATM    4  C4  UNL     1     -42.852  13.124   7.870  1.00 20.00     0.039 C 
HETATM    5  C5  UNL     1     -41.958  14.605   5.132  1.00 20.00     0.239 C 
HETATM    6  C6  UNL     1     -43.413  13.019   6.444  1.00 20.00     0.236 C 
HETATM    7  C7  UNL     1     -41.340  13.364   7.699  1.00 20.00     0.046 C 
HETATM    8  C8  UNL     1     -41.067  12.602   6.406  1.00 20.00     0.199 C 
HETATM    9  N12 UNL     1     -42.187  13.162   5.546  1.00 20.00    -0.066 N 
HETATM   10  H32 UNL     1     -42.306  12.588   4.700  1.00 20.00     0.280 HD
ENDROOT
BRANCH   8  11
HETATM   11  C11 UNL     1     -39.692  12.729   5.770  1.00 20.00     0.009 C 
HETATM   12  C9  UNL     1     -38.610  12.171   6.695  1.00 20.00     0.011 C 
HETATM   13  C10 UNL     1     -39.652  12.019   4.416  1.00 20.00     0.011 C 
ENDBRANCH   8  11
TORSDOF 1
ENDMDL
