MODEL 1
REMARK VINA RESULT:      -4.5      0.000      0.000
REMARK  1 active torsions:
REMARK  status: ('A' for Active; 'I' for Inactive)
REMARK    1  A    between atoms: C7_7  and  C11_11 
ROOT
HETATM    1  C1  UNL     1     -33.836   7.289   6.420  1.00 20.00    -0.021 C 
HETATM    2  C2  UNL     1     -33.242   7.402   5.216  1.00 20.00    -0.053 C 
HETATM    3  C3  UNL     1     -34.772   6.151   6.740  1.00 20.00     0.034 C 
HETATM    4  C4  UNL     1     -33.717   4.960   4.826  1.00 20.00     0.050 C 
HETATM    5  C5  UNL     1     -35.801   5.929   4.413  1.00 20.00     0.174 C 
HETATM    6  C6  UNL     1     -35.032   5.223   5.534  1.00 20.00     0.016 C 
HETATM    7  C7  UNL     1     -33.517   6.329   4.163  1.00 20.00     0.087 C 
HETATM    8  C8  UNL     1     -32.385   8.583   4.873  1.00 20.00     0.046 C 
HETATM    9  O12 UNL     1     -34.823   6.632   3.614  1.00 20.00    -0.375 OA
ENDROOT
BRANCH   7  10
HETATM   10  C11 UNL     1     -32.501   6.251   3.030  1.00 20.00     0.016 C 
HETATM   11  C9  UNL     1     -32.775   5.039   2.141  1.00 20.00     0.013 C 
HETATM   12  C10 UNL     1     -32.515   7.535   2.202  1.00 20.00     0.013 C 
ENDBRANCH   7  10
TORSDOF 1
ENDMDL
MODEL 2
REMARK VINA RESULT:      -4.5     10.449     11.653
REMARK  1 active torsions:
REMARK  status: ('A' for Active; 'I' for Inactive)
REMARK    1  A    between atoms: C7_7  and  C11_11 
ROOT
HETATM    1  C1  UNL     1     -43.246  14.463   8.862  1.00 20.00    -0.021 C 
HETATM    2  C2  UNL     1     -42.732  13.505   8.067  1.00 20.00    -0.053 C 
HETATM    3  C3  UNL     1     -42.516  15.758   9.117  1.00 20.00     0.034 C 
HETATM    4  C4  UNL     1     -41.223  15.248   7.053  1.00 20.00     0.050 C 
HETATM    5  C5  UNL     1     -40.150  14.799   9.078  1.00 20.00     0.174 C 
HETATM    6  C6  UNL     1     -41.121  15.808   8.458  1.00 20.00     0.016 C 
HETATM    7  C7  UNL     1     -41.384  13.760   7.393  1.00 20.00     0.087 C 
HETATM    8  C8  UNL     1     -43.417  12.184   7.889  1.00 20.00     0.046 C 
HETATM    9  O12 UNL     1     -40.379  13.536   8.411  1.00 20.00    -0.375 OA
ENDROOT
BRANCH   7  10
HETATM   10  C11 UNL     1     -41.082  12.882   6.184  1.00 20.00     0.016 C 
HETATM   11  C9  UNL     1     -41.364  13.635   4.886  1.00 20.00     0.013 C 
HETATM   12  C10 UNL     1     -39.632  12.399   6.218  1.00 20.00     0.013 C 
ENDBRANCH   7  10
TORSDOF 1
ENDMDL
MODEL 3
REMARK VINA RESULT:      -4.3     12.382     14.273
REMARK  1 active torsions:
REMARK  status: ('A' for Active; 'I' for Inactive)
REMARK    1  A    between atoms: C7_7  and  C11_11 
ROOT
HETATM    1  C1  UNL     1     -33.313  16.702  -3.260  1.00 20.00    -0.021 C 
HETATM    2  C2  UNL     1     -33.991  15.954  -4.152  1.00 20.00    -0.053 C 
HETATM    3  C3  UNL     1     -33.564  18.182  -3.114  1.00 20.00     0.034 C 
HETATM    4  C4  UNL     1     -35.743  17.760  -4.239  1.00 20.00     0.050 C 
HETATM    5  C5  UNL     1     -34.053  18.662  -5.574  1.00 20.00     0.174 C 
HETATM    6  C6  UNL     1     -34.582  18.729  -4.138  1.00 20.00     0.016 C 
HETATM    7  C7  UNL     1     -35.054  16.631  -5.017  1.00 20.00     0.087 C 
HETATM    8  C8  UNL     1     -33.674  14.502  -4.357  1.00 20.00     0.046 C 
HETATM    9  O12 UNL     1     -34.335  17.330  -6.061  1.00 20.00    -0.375 OA
ENDROOT
BRANCH   7  10
HETATM   10  C11 UNL     1     -36.075  15.693  -5.649  1.00 20.00     0.016 C 
HETATM   11  C9  UNL     1     -37.497  16.181  -5.379  1.00 20.00     0.013 C 
HETATM   12  C10 UNL     1     -35.830  15.564  -7.152  1.00 20.00     0.013 C 
ENDBRANCH   7  10
TORSDOF 1
ENDMDL
MODEL 4
REMARK VINA RESULT:      -4.2     12.434     14.123
REMARK  1 active torsions:
REMARK  status: ('A' for Active; 'I' for Inactive)
REMARK    1  A    between atoms: C7_7  and  C11_11 
ROOT
HETATM    1  C1  UNL     1     -33.292  16.556  -2.296  1.00 20.00    -0.021 C 
HETATM    2  C2  UNL     1     -33.668  16.239  -3.551  1.00 20.00    -0.053 C 
HETATM    3  C3  UNL     1     -33.579  17.911  -1.701  1.00 20.00     0.034 C 
HETATM    4  C4  UNL     1     -35.317  18.141  -3.467  1.00 20.00     0.050 C 
HETATM    5  C5  UNL     1     -33.305  19.263  -3.850  1.00 20.00     0.174 C 
HETATM    6  C6  UNL     1     -34.242  18.885  -2.699  1.00 20.00     0.016 C 
HETATM    7  C7  UNL     1     -34.423  17.284  -4.373  1.00 20.00     0.087 C 
HETATM    8  C8  UNL     1     -33.301  14.924  -4.170  1.00 20.00     0.046 C 
HETATM    9  O12 UNL     1     -33.424  18.220  -4.845  1.00 20.00    -0.375 OA
ENDROOT
BRANCH   7  10
HETATM   10  C11 UNL     1     -35.204  16.738  -5.562  1.00 20.00     0.016 C 
HETATM   11  C9  UNL     1     -36.706  16.917  -5.350  1.00 20.00     0.013 C 
HETATM   12  C10 UNL     1     -34.761  17.420  -6.857  1.00 20.00     0.013 C 
ENDBRANCH   7  10
TORSDOF 1
ENDMDL
MODEL 5
REMARK VINA RESULT:      -4.2     12.380     14.366
REMARK  1 active torsions:
REMARK  status: ('A' for Active; 'I' for Inactive)
REMARK    1  A    between atoms: C7_7  and  C11_11 
ROOT
HETATM    1  C1  UNL     1     -33.680  15.718  -3.749  1.00 20.00    -0.021 C 
HETATM    2  C2  UNL     1     -33.900  16.913  -4.331  1.00 20.00    -0.053 C 
HETATM    3  C3  UNL     1     -34.181  14.434  -4.360  1.00 20.00     0.034 C 
HETATM    4  C4  UNL     1     -34.344  15.704  -6.495  1.00 20.00     0.050 C 
HETATM    5  C5  UNL     1     -36.345  15.374  -5.337  1.00 20.00     0.174 C 
HETATM    6  C6  UNL     1     -35.024  14.657  -5.634  1.00 20.00     0.016 C 
HETATM    7  C7  UNL     1     -34.657  16.951  -5.658  1.00 20.00     0.087 C 
HETATM    8  C8  UNL     1     -33.480  18.194  -3.674  1.00 20.00     0.046 C 
HETATM    9  O12 UNL     1     -36.058  16.791  -5.324  1.00 20.00    -0.375 OA
ENDROOT
BRANCH   7  10
HETATM   10  C11 UNL     1     -34.477  18.224  -6.476  1.00 20.00     0.016 C 
HETATM   11  C9  UNL     1     -34.061  17.891  -7.908  1.00 20.00     0.013 C 
HETATM   12  C10 UNL     1     -35.761  19.054  -6.472  1.00 20.00     0.013 C 
ENDBRANCH   7  10
TORSDOF 1
ENDMDL
MODEL 6
REMARK VINA RESULT:      -4.2     10.888     12.080
REMARK  1 active torsions:
REMARK  status: ('A' for Active; 'I' for Inactive)
REMARK    1  A    between atoms: C7_7  and  C11_11 
ROOT
HETATM    1  C1  UNL     1     -41.586  16.733   6.976  1.00 20.00    -0.021 C 
HETATM    2  C2  UNL     1     -42.142  15.590   6.529  1.00 20.00    -0.053 C 
HETATM    3  C3  UNL     1     -40.631  16.746   8.143  1.00 20.00     0.034 C 
HETATM    4  C4  UNL     1     -40.313  14.318   7.702  1.00 20.00     0.050 C 
HETATM    5  C5  UNL     1     -41.733  14.866   9.473  1.00 20.00     0.174 C 
HETATM    6  C6  UNL     1     -40.451  15.359   8.796  1.00 20.00     0.016 C 
HETATM    7  C7  UNL     1     -41.768  14.278   7.217  1.00 20.00     0.087 C 
HETATM    8  C8  UNL     1     -43.160  15.593   5.428  1.00 20.00     0.046 C 
HETATM    9  O12 UNL     1     -42.533  14.237   8.446  1.00 20.00    -0.375 OA
ENDROOT
BRANCH   7  10
HETATM   10  C11 UNL     1     -42.045  13.015   6.409  1.00 20.00     0.016 C 
HETATM   11  C9  UNL     1     -40.745  12.275   6.100  1.00 20.00     0.013 C 
HETATM   12  C10 UNL     1     -43.017  12.101   7.154  1.00 20.00     0.013 C 
ENDBRANCH   7  10
TORSDOF 1
ENDMDL
MODEL 7
REMARK VINA RESULT:      -4.1     12.418     14.621
REMARK  1 active torsions:
REMARK  status: ('A' for Active; 'I' for Inactive)
REMARK    1  A    between atoms: C7_7  and  C11_11 
ROOT
HETATM    1  C1  UNL     1     -35.195  17.473  -7.533  1.00 20.00    -0.021 C 
HETATM    2  C2  UNL     1     -34.589  16.467  -6.874  1.00 20.00    -0.053 C 
HETATM    3  C3  UNL     1     -36.166  18.399  -6.846  1.00 20.00     0.034 C 
HETATM    4  C4  UNL     1     -35.129  17.643  -4.714  1.00 20.00     0.050 C 
HETATM    5  C5  UNL     1     -37.182  16.672  -5.263  1.00 20.00     0.174 C 
HETATM    6  C6  UNL     1     -36.442  18.009  -5.378  1.00 20.00     0.016 C 
HETATM    7  C7  UNL     1     -34.885  16.285  -5.386  1.00 20.00     0.087 C 
HETATM    8  C8  UNL     1     -33.695  15.493  -7.582  1.00 20.00     0.046 C 
HETATM    9  O12 UNL     1     -36.177  15.634  -5.311  1.00 20.00    -0.375 OA
ENDROOT
BRANCH   7  10
HETATM   10  C11 UNL     1     -33.861  15.463  -4.612  1.00 20.00     0.016 C 
HETATM   11  C9  UNL     1     -33.332  16.249  -3.413  1.00 20.00     0.013 C 
HETATM   12  C10 UNL     1     -34.468  14.136  -4.156  1.00 20.00     0.013 C 
ENDBRANCH   7  10
TORSDOF 1
ENDMDL
MODEL 8
REMARK VINA RESULT:      -4.1     12.079     13.249
REMARK  1 active torsions:
REMARK  status: ('A' for Active; 'I' for Inactive)
REMARK    1  A    between atoms: C7_7  and  C11_11 
ROOT
HETATM    1  C1  UNL     1     -25.351  -1.695  11.682  1.00 20.00    -0.021 C 
HETATM    2  C2  UNL     1     -25.927  -2.800  11.170  1.00 20.00    -0.053 C 
HETATM    3  C3  UNL     1     -26.160  -0.480  12.056  1.00 20.00     0.034 C 
HETATM    4  C4  UNL     1     -28.128  -2.003  12.096  1.00 20.00     0.050 C 
HETATM    5  C5  UNL     1     -27.895  -0.672  10.191  1.00 20.00     0.174 C 
HETATM    6  C6  UNL     1     -27.658  -0.616  11.704  1.00 20.00     0.016 C 
HETATM    7  C7  UNL     1     -27.444  -2.816  10.990  1.00 20.00     0.087 C 
HETATM    8  C8  UNL     1     -25.108  -3.971  10.716  1.00 20.00     0.046 C 
HETATM    9  O12 UNL     1     -27.713  -2.049   9.791  1.00 20.00    -0.375 OA
ENDROOT
BRANCH   7  10
HETATM   10  C11 UNL     1     -28.071  -4.199  10.854  1.00 20.00     0.016 C 
HETATM   11  C9  UNL     1     -28.494  -4.737  12.220  1.00 20.00     0.013 C 
HETATM   12  C10 UNL     1     -29.266  -4.159   9.902  1.00 20.00     0.013 C 
ENDBRANCH   7  10
TORSDOF 1
ENDMDL
MODEL 9
REMARK VINA RESULT:      -4.1     13.227     14.494
REMARK  1 active torsions:
REMARK  status: ('A' for Active; 'I' for Inactive)
REMARK    1  A    between atoms: C7_7  and  C11_11 
ROOT
HETATM    1  C1  UNL     1     -36.808  15.824  -5.719  1.00 20.00    -0.021 C 
HETATM    2  C2  UNL     1     -36.259  16.856  -5.049  1.00 20.00    -0.053 C 
HETATM    3  C3  UNL     1     -35.960  14.803  -6.435  1.00 20.00     0.034 C 
HETATM    4  C4  UNL     1     -34.090  15.579  -4.988  1.00 20.00     0.050 C 
HETATM    5  C5  UNL     1     -34.107  16.397  -7.175  1.00 20.00     0.174 C 
HETATM    6  C6  UNL     1     -34.451  15.128  -6.389  1.00 20.00     0.016 C 
HETATM    7  C7  UNL     1     -34.736  16.971  -5.004  1.00 20.00     0.087 C 
HETATM    8  C8  UNL     1     -37.107  17.919  -4.416  1.00 20.00     0.046 C 
HETATM    9  O12 UNL     1     -34.336  17.513  -6.286  1.00 20.00    -0.375 OA
ENDROOT
BRANCH   7  10
HETATM   10  C11 UNL     1     -34.180  17.850  -3.889  1.00 20.00     0.016 C 
HETATM   11  C9  UNL     1     -33.364  17.018  -2.901  1.00 20.00     0.013 C 
HETATM   12  C10 UNL     1     -33.329  18.980  -4.467  1.00 20.00     0.013 C 
ENDBRANCH   7  10
TORSDOF 1
ENDMDL
