MODEL 1
REMARK VINA RESULT:      -3.8      0.000      0.000
REMARK  1 active torsions:
REMARK  status: ('A' for Active; 'I' for Inactive)
REMARK    1  A    between atoms: C4_4  and  C5_5 
ROOT
HETATM    1  C1  UNL     1     -34.585   5.260   6.384  1.00 20.00     0.015 C 
HETATM    2  C2  UNL     1     -34.401   6.204   5.665  1.00 20.00    -0.083 C 
HETATM    3  C3  UNL     1     -34.182   7.327   4.810  1.00 20.00     0.229 A 
HETATM    4  C4  UNL     1     -32.780   7.835   4.596  1.00 20.00     0.177 A 
HETATM    5  O6  UNL     1     -33.676   8.476   5.509  1.00 20.00    -0.361 OA
ENDROOT
BRANCH   4   6
HETATM    6  C5  UNL     1     -32.434   8.650   3.401  1.00 20.00     0.150 C 
HETATM    7 CL7  UNL     1     -32.096   7.616   1.984  1.00 20.00    -0.128 Cl
ENDBRANCH   4   6
TORSDOF 1
ENDMDL
MODEL 2
REMARK VINA RESULT:      -3.8      2.261      3.731
REMARK  1 active torsions:
REMARK  status: ('A' for Active; 'I' for Inactive)
REMARK    1  A    between atoms: C4_4  and  C5_5 
ROOT
HETATM    1  C1  UNL     1     -32.181   8.002   1.772  1.00 20.00     0.015 C 
HETATM    2  C2  UNL     1     -32.285   7.845   2.958  1.00 20.00    -0.083 C 
HETATM    3  C3  UNL     1     -32.408   7.659   4.369  1.00 20.00     0.229 A 
HETATM    4  C4  UNL     1     -33.778   7.620   4.996  1.00 20.00     0.177 A 
HETATM    5  O6  UNL     1     -32.968   8.799   5.040  1.00 20.00    -0.361 OA
ENDROOT
BRANCH   4   6
HETATM    6  C5  UNL     1     -33.997   6.976   6.318  1.00 20.00     0.150 C 
HETATM    7 CL7  UNL     1     -34.673   5.332   6.138  1.00 20.00    -0.128 Cl
ENDBRANCH   4   6
TORSDOF 1
ENDMDL
MODEL 3
REMARK VINA RESULT:      -3.4      8.819      9.362
REMARK  1 active torsions:
REMARK  status: ('A' for Active; 'I' for Inactive)
REMARK    1  A    between atoms: C4_4  and  C5_5 
ROOT
HETATM    1  C1  UNL     1     -38.948  11.626   3.742  1.00 20.00     0.015 C 
HETATM    2  C2  UNL     1     -39.551  11.841   4.758  1.00 20.00    -0.083 C 
HETATM    3  C3  UNL     1     -40.268  12.096   5.966  1.00 20.00     0.229 A 
HETATM    4  C4  UNL     1     -40.094  13.419   6.668  1.00 20.00     0.177 A 
HETATM    5  O6  UNL     1     -39.410  12.242   7.110  1.00 20.00    -0.361 OA
ENDROOT
BRANCH   4   6
HETATM    6  C5  UNL     1     -41.122  13.924   7.616  1.00 20.00     0.150 C 
HETATM    7 CL7  UNL     1     -40.381  14.491   9.139  1.00 20.00    -0.128 Cl
ENDBRANCH   4   6
TORSDOF 1
ENDMDL
MODEL 4
REMARK VINA RESULT:      -3.3     12.109     12.539
REMARK  1 active torsions:
REMARK  status: ('A' for Active; 'I' for Inactive)
REMARK    1  A    between atoms: C4_4  and  C5_5 
ROOT
HETATM    1  C1  UNL     1     -33.484  17.077  -1.767  1.00 20.00     0.015 C 
HETATM    2  C2  UNL     1     -33.370  16.401  -2.753  1.00 20.00    -0.083 C 
HETATM    3  C3  UNL     1     -33.235  15.597  -3.926  1.00 20.00     0.229 A 
HETATM    4  C4  UNL     1     -34.376  15.517  -4.907  1.00 20.00     0.177 A 
HETATM    5  O6  UNL     1     -34.140  14.480  -3.948  1.00 20.00    -0.361 OA
ENDROOT
BRANCH   4   6
HETATM    6  C5  UNL     1     -34.146  15.112  -6.319  1.00 20.00     0.150 C 
HETATM    7 CL7  UNL     1     -35.662  15.149  -7.263  1.00 20.00    -0.128 Cl
ENDBRANCH   4   6
TORSDOF 1
ENDMDL
MODEL 5
REMARK VINA RESULT:      -3.3      2.021      3.542
REMARK  1 active torsions:
REMARK  status: ('A' for Active; 'I' for Inactive)
REMARK    1  A    between atoms: C4_4  and  C5_5 
ROOT
HETATM    1  C1  UNL     1     -32.345   9.347   4.256  1.00 20.00     0.015 C 
HETATM    2  C2  UNL     1     -32.706   8.377   4.864  1.00 20.00    -0.083 C 
HETATM    3  C3  UNL     1     -33.136   7.222   5.587  1.00 20.00     0.229 A 
HETATM    4  C4  UNL     1     -34.452   6.575   5.240  1.00 20.00     0.177 A 
HETATM    5  O6  UNL     1     -34.323   7.455   6.363  1.00 20.00    -0.361 OA
ENDROOT
BRANCH   4   6
HETATM    6  C5  UNL     1     -34.727   5.159   5.598  1.00 20.00     0.150 C 
HETATM    7 CL7  UNL     1     -33.991   4.035   4.420  1.00 20.00    -0.128 Cl
ENDBRANCH   4   6
TORSDOF 1
ENDMDL
MODEL 6
REMARK VINA RESULT:      -3.3     12.131     12.413
REMARK  1 active torsions:
REMARK  status: ('A' for Active; 'I' for Inactive)
REMARK    1  A    between atoms: C4_4  and  C5_5 
ROOT
HETATM    1  C1  UNL     1     -29.670  18.673   2.860  1.00 20.00     0.015 C 
HETATM    2  C2  UNL     1     -30.299  18.942   1.874  1.00 20.00    -0.083 C 
HETATM    3  C3  UNL     1     -31.048  19.263   0.700  1.00 20.00     0.229 A 
HETATM    4  C4  UNL     1     -31.830  18.182   0.000  1.00 20.00     0.177 A 
HETATM    5  O6  UNL     1     -30.551  18.609  -0.479  1.00 20.00    -0.361 OA
ENDROOT
BRANCH   4   6
HETATM    6  C5  UNL     1     -32.967  18.518  -0.898  1.00 20.00     0.150 C 
HETATM    7 CL7  UNL     1     -33.534  17.081  -1.795  1.00 20.00    -0.128 Cl
ENDBRANCH   4   6
TORSDOF 1
ENDMDL
MODEL 7
REMARK VINA RESULT:      -3.2      9.120      9.651
REMARK  1 active torsions:
REMARK  status: ('A' for Active; 'I' for Inactive)
REMARK    1  A    between atoms: C4_4  and  C5_5 
ROOT
HETATM    1  C1  UNL     1     -38.909  11.629   3.876  1.00 20.00     0.015 C 
HETATM    2  C2  UNL     1     -39.601  11.872   4.826  1.00 20.00    -0.083 C 
HETATM    3  C3  UNL     1     -40.425  12.161   5.957  1.00 20.00     0.229 A 
HETATM    4  C4  UNL     1     -40.398  13.541   6.562  1.00 20.00     0.177 A 
HETATM    5  O6  UNL     1     -39.668  12.455   7.143  1.00 20.00    -0.361 OA
ENDROOT
BRANCH   4   6
HETATM    6  C5  UNL     1     -41.527  14.036   7.393  1.00 20.00     0.150 C 
HETATM    7 CL7  UNL     1     -42.629  15.073   6.443  1.00 20.00    -0.128 Cl
ENDBRANCH   4   6
TORSDOF 1
ENDMDL
MODEL 8
REMARK VINA RESULT:      -3.1     11.941     12.420
REMARK  1 active torsions:
REMARK  status: ('A' for Active; 'I' for Inactive)
REMARK    1  A    between atoms: C4_4  and  C5_5 
ROOT
HETATM    1  C1  UNL     1     -33.628  14.755  -4.144  1.00 20.00     0.015 C 
HETATM    2  C2  UNL     1     -33.470  15.882  -3.763  1.00 20.00    -0.083 C 
HETATM    3  C3  UNL     1     -33.282  17.224  -3.310  1.00 20.00     0.229 A 
HETATM    4  C4  UNL     1     -33.004  17.483  -1.852  1.00 20.00     0.177 A 
HETATM    5  O6  UNL     1     -34.311  17.660  -2.407  1.00 20.00    -0.361 OA
ENDROOT
BRANCH   4   6
HETATM    6  C5  UNL     1     -32.348  18.741  -1.409  1.00 20.00     0.150 C 
HETATM    7 CL7  UNL     1     -31.068  18.420  -0.205  1.00 20.00    -0.128 Cl
ENDBRANCH   4   6
TORSDOF 1
ENDMDL
MODEL 9
REMARK VINA RESULT:      -3.1     12.037     12.387
REMARK  1 active torsions:
REMARK  status: ('A' for Active; 'I' for Inactive)
REMARK    1  A    between atoms: C4_4  and  C5_5 
ROOT
HETATM    1  C1  UNL     1     -32.055  18.529  -1.029  1.00 20.00     0.015 C 
HETATM    2  C2  UNL     1     -32.739  17.703  -1.569  1.00 20.00    -0.083 C 
HETATM    3  C3  UNL     1     -33.554  16.722  -2.212  1.00 20.00     0.229 A 
HETATM    4  C4  UNL     1     -33.193  16.248  -3.596  1.00 20.00     0.177 A 
HETATM    5  O6  UNL     1     -34.220  17.223  -3.383  1.00 20.00    -0.361 OA
ENDROOT
BRANCH   4   6
HETATM    6  C5  UNL     1     -33.683  14.942  -4.111  1.00 20.00     0.150 C 
HETATM    7 CL7  UNL     1     -33.979  15.006  -5.872  1.00 20.00    -0.128 Cl
ENDBRANCH   4   6
TORSDOF 1
ENDMDL
