MODEL 1
REMARK VINA RESULT:      -5.6      0.000      0.000
REMARK  2 active torsions:
REMARK  status: ('A' for Active; 'I' for Inactive)
REMARK    1  A    between atoms: C7_7  and  C10_10 
REMARK    2  A    between atoms: C9_9  and  C10_10 
ROOT
HETATM    1  C1  UNL     1     -32.575   8.710   0.459  1.00 20.00     0.012 C 
HETATM    2  C2  UNL     1     -32.320   8.194   1.513  1.00 20.00    -0.117 C 
HETATM    3  C9  UNL     1     -32.005   7.566   2.803  1.00 20.00     0.093 C 
ENDROOT
BRANCH   3   4
HETATM    4  C10 UNL     1     -32.777   6.268   2.957  1.00 20.00     0.020 C 
BRANCH   4   5
HETATM    5  C7  UNL     1     -33.905   6.427   3.963  1.00 20.00     0.023 C 
HETATM    6  C4  UNL     1     -34.333   5.066   4.545  1.00 20.00     0.008 C 
HETATM    7  C3  UNL     1     -34.909   5.419   5.913  1.00 20.00     0.004 C 
HETATM    8  C5  UNL     1     -33.951   6.489   6.437  1.00 20.00     0.041 C 
HETATM    9  C8  UNL     1     -33.535   7.221   5.194  1.00 20.00     0.086 A 
HETATM   10  C6  UNL     1     -32.570   8.385   5.230  1.00 20.00     0.207 A 
HETATM   11  O11 UNL     1     -33.984   8.588   5.150  1.00 20.00    -0.375 OA
ENDBRANCH   4   5
ENDBRANCH   3   4
TORSDOF 2
ENDMDL
MODEL 2
REMARK VINA RESULT:      -5.6      1.526      2.323
REMARK  2 active torsions:
REMARK  status: ('A' for Active; 'I' for Inactive)
REMARK    1  A    between atoms: C7_7  and  C10_10 
REMARK    2  A    between atoms: C9_9  and  C10_10 
ROOT
HETATM    1  C1  UNL     1     -32.853   9.510   1.125  1.00 20.00     0.012 C 
HETATM    2  C2  UNL     1     -32.590   9.149   2.239  1.00 20.00    -0.117 C 
HETATM    3  C9  UNL     1     -32.264   8.707   3.602  1.00 20.00     0.093 C 
ENDROOT
BRANCH   3   4
HETATM    4  C10 UNL     1     -33.532   8.341   4.352  1.00 20.00     0.020 C 
BRANCH   4   5
HETATM    5  C7  UNL     1     -33.387   6.990   5.031  1.00 20.00     0.023 C 
HETATM    6  C4  UNL     1     -34.248   6.907   6.307  1.00 20.00     0.008 C 
HETATM    7  C3  UNL     1     -34.526   5.416   6.463  1.00 20.00     0.004 C 
HETATM    8  C5  UNL     1     -34.791   4.951   5.031  1.00 20.00     0.041 C 
HETATM    9  C8  UNL     1     -33.884   5.822   4.211  1.00 20.00     0.086 A 
HETATM   10  C6  UNL     1     -33.811   5.715   2.705  1.00 20.00     0.207 A 
HETATM   11  O11 UNL     1     -32.832   5.100   3.546  1.00 20.00    -0.375 OA
ENDBRANCH   4   5
ENDBRANCH   3   4
TORSDOF 2
ENDMDL
MODEL 3
REMARK VINA RESULT:      -5.3     11.893     13.060
REMARK  2 active torsions:
REMARK  status: ('A' for Active; 'I' for Inactive)
REMARK    1  A    between atoms: C7_7  and  C10_10 
REMARK    2  A    between atoms: C9_9  and  C10_10 
ROOT
HETATM    1  C1  UNL     1     -31.545  18.706  -0.457  1.00 20.00     0.012 C 
HETATM    2  C2  UNL     1     -32.465  18.075  -0.900  1.00 20.00    -0.117 C 
HETATM    3  C9  UNL     1     -33.591  17.299  -1.439  1.00 20.00     0.093 C 
ENDROOT
BRANCH   3   4
HETATM    4  C10 UNL     1     -34.097  17.932  -2.722  1.00 20.00     0.020 C 
BRANCH   4   5
HETATM    5  C7  UNL     1     -33.739  17.076  -3.924  1.00 20.00     0.023 C 
HETATM    6  C4  UNL     1     -33.341  15.650  -3.499  1.00 20.00     0.008 C 
HETATM    7  C3  UNL     1     -33.670  14.798  -4.722  1.00 20.00     0.004 C 
HETATM    8  C5  UNL     1     -34.998  15.376  -5.210  1.00 20.00     0.041 C 
HETATM    9  C8  UNL     1     -34.883  16.837  -4.883  1.00 20.00     0.086 A 
HETATM   10  C6  UNL     1     -35.987  17.822  -5.192  1.00 20.00     0.207 A 
HETATM   11  O11 UNL     1     -34.845  17.689  -6.042  1.00 20.00    -0.375 OA
ENDBRANCH   4   5
ENDBRANCH   3   4
TORSDOF 2
ENDMDL
MODEL 4
REMARK VINA RESULT:      -5.3      9.988     10.551
REMARK  2 active torsions:
REMARK  status: ('A' for Active; 'I' for Inactive)
REMARK    1  A    between atoms: C7_7  and  C10_10 
REMARK    2  A    between atoms: C9_9  and  C10_10 
ROOT
HETATM    1  C1  UNL     1     -38.935  11.752   3.428  1.00 20.00     0.012 C 
HETATM    2  C2  UNL     1     -39.200  11.784   4.598  1.00 20.00    -0.117 C 
HETATM    3  C9  UNL     1     -39.519  11.823   6.032  1.00 20.00     0.093 C 
ENDROOT
BRANCH   3   4
HETATM    4  C10 UNL     1     -40.930  12.344   6.240  1.00 20.00     0.020 C 
BRANCH   4   5
HETATM    5  C7  UNL     1     -41.016  13.821   5.898  1.00 20.00     0.023 C 
HETATM    6  C4  UNL     1     -42.189  14.108   4.941  1.00 20.00     0.008 C 
HETATM    7  C3  UNL     1     -42.548  15.563   5.229  1.00 20.00     0.004 C 
HETATM    8  C5  UNL     1     -42.435  15.662   6.750  1.00 20.00     0.041 C 
HETATM    9  C8  UNL     1     -41.314  14.718   7.077  1.00 20.00     0.086 A 
HETATM   10  C6  UNL     1     -40.844  14.487   8.495  1.00 20.00     0.207 A 
HETATM   11  O11 UNL     1     -40.146  15.369   7.611  1.00 20.00    -0.375 OA
ENDBRANCH   4   5
ENDBRANCH   3   4
TORSDOF 2
ENDMDL
MODEL 5
REMARK VINA RESULT:      -5.2      1.199      1.942
REMARK  2 active torsions:
REMARK  status: ('A' for Active; 'I' for Inactive)
REMARK    1  A    between atoms: C7_7  and  C10_10 
REMARK    2  A    between atoms: C9_9  and  C10_10 
ROOT
HETATM    1  C1  UNL     1     -32.669   9.220   0.636  1.00 20.00     0.012 C 
HETATM    2  C2  UNL     1     -32.663   9.171   1.835  1.00 20.00    -0.117 C 
HETATM    3  C9  UNL     1     -32.657   9.114   3.303  1.00 20.00     0.093 C 
ENDROOT
BRANCH   3   4
HETATM    4  C10 UNL     1     -32.223   7.738   3.773  1.00 20.00     0.020 C 
BRANCH   4   5
HETATM    5  C7  UNL     1     -33.330   6.720   3.555  1.00 20.00     0.023 C 
HETATM    6  C4  UNL     1     -32.813   5.485   2.791  1.00 20.00     0.008 C 
HETATM    7  C3  UNL     1     -33.751   4.365   3.232  1.00 20.00     0.004 C 
HETATM    8  C5  UNL     1     -33.940   4.626   4.726  1.00 20.00     0.041 C 
HETATM    9  C8  UNL     1     -33.889   6.123   4.826  1.00 20.00     0.086 A 
HETATM   10  C6  UNL     1     -34.032   6.848   6.145  1.00 20.00     0.207 A 
HETATM   11  O11 UNL     1     -35.132   6.719   5.239  1.00 20.00    -0.375 OA
ENDBRANCH   4   5
ENDBRANCH   3   4
TORSDOF 2
ENDMDL
MODEL 6
REMARK VINA RESULT:      -5.2     10.214     10.896
REMARK  2 active torsions:
REMARK  status: ('A' for Active; 'I' for Inactive)
REMARK    1  A    between atoms: C7_7  and  C10_10 
REMARK    2  A    between atoms: C9_9  and  C10_10 
ROOT
HETATM    1  C1  UNL     1     -38.968  11.699   3.858  1.00 20.00     0.012 C 
HETATM    2  C2  UNL     1     -39.327  11.979   4.968  1.00 20.00    -0.117 C 
HETATM    3  C9  UNL     1     -39.763  12.320   6.329  1.00 20.00     0.093 C 
ENDROOT
BRANCH   3   4
HETATM    4  C10 UNL     1     -41.238  12.680   6.333  1.00 20.00     0.020 C 
BRANCH   4   5
HETATM    5  C7  UNL     1     -41.514  13.813   7.306  1.00 20.00     0.023 C 
HETATM    6  C4  UNL     1     -40.300  14.078   8.218  1.00 20.00     0.008 C 
HETATM    7  C3  UNL     1     -40.448  15.547   8.605  1.00 20.00     0.004 C 
HETATM    8  C5  UNL     1     -40.905  16.212   7.307  1.00 20.00     0.041 C 
HETATM    9  C8  UNL     1     -41.746  15.155   6.651  1.00 20.00     0.086 A 
HETATM   10  C6  UNL     1     -42.417  15.374   5.315  1.00 20.00     0.207 A 
HETATM   11  O11 UNL     1     -43.137  15.507   6.543  1.00 20.00    -0.375 OA
ENDBRANCH   4   5
ENDBRANCH   3   4
TORSDOF 2
ENDMDL
MODEL 7
REMARK VINA RESULT:      -5.1     11.340     12.884
REMARK  2 active torsions:
REMARK  status: ('A' for Active; 'I' for Inactive)
REMARK    1  A    between atoms: C7_7  and  C10_10 
REMARK    2  A    between atoms: C9_9  and  C10_10 
ROOT
HETATM    1  C1  UNL     1     -31.799  18.737  -0.627  1.00 20.00     0.012 C 
HETATM    2  C2  UNL     1     -32.534  18.002  -1.226  1.00 20.00    -0.117 C 
HETATM    3  C9  UNL     1     -33.435  17.100  -1.956  1.00 20.00     0.093 C 
ENDROOT
BRANCH   3   4
HETATM    4  C10 UNL     1     -33.308  17.329  -3.451  1.00 20.00     0.020 C 
BRANCH   4   5
HETATM    5  C7  UNL     1     -34.361  16.538  -4.210  1.00 20.00     0.023 C 
HETATM    6  C4  UNL     1     -34.943  17.356  -5.379  1.00 20.00     0.008 C 
HETATM    7  C3  UNL     1     -35.408  16.295  -6.371  1.00 20.00     0.004 C 
HETATM    8  C5  UNL     1     -34.294  15.249  -6.322  1.00 20.00     0.041 C 
HETATM    9  C8  UNL     1     -33.837  15.296  -4.893  1.00 20.00     0.086 A 
HETATM   10  C6  UNL     1     -32.724  14.414  -4.373  1.00 20.00     0.207 A 
HETATM   11  O11 UNL     1     -34.100  14.086  -4.160  1.00 20.00    -0.375 OA
ENDBRANCH   4   5
ENDBRANCH   3   4
TORSDOF 2
ENDMDL
MODEL 8
REMARK VINA RESULT:      -5.1     10.310     10.827
REMARK  2 active torsions:
REMARK  status: ('A' for Active; 'I' for Inactive)
REMARK    1  A    between atoms: C7_7  and  C10_10 
REMARK    2  A    between atoms: C9_9  and  C10_10 
ROOT
HETATM    1  C1  UNL     1     -38.848  11.572   3.906  1.00 20.00     0.012 C 
HETATM    2  C2  UNL     1     -39.567  11.891   4.813  1.00 20.00    -0.117 C 
HETATM    3  C9  UNL     1     -40.445  12.280   5.925  1.00 20.00     0.093 C 
ENDROOT
BRANCH   3   4
HETATM    4  C10 UNL     1     -41.294  13.475   5.530  1.00 20.00     0.020 C 
BRANCH   4   5
HETATM    5  C7  UNL     1     -42.387  13.722   6.555  1.00 20.00     0.023 C 
HETATM    6  C4  UNL     1     -42.893  12.400   7.166  1.00 20.00     0.008 C 
HETATM    7  C3  UNL     1     -43.417  12.809   8.539  1.00 20.00     0.004 C 
HETATM    8  C5  UNL     1     -42.380  13.820   9.029  1.00 20.00     0.041 C 
HETATM    9  C8  UNL     1     -41.941  14.506   7.767  1.00 20.00     0.086 A 
HETATM   10  C6  UNL     1     -40.901  15.603   7.767  1.00 20.00     0.207 A 
HETATM   11  O11 UNL     1     -42.299  15.899   7.711  1.00 20.00    -0.375 OA
ENDBRANCH   4   5
ENDBRANCH   3   4
TORSDOF 2
ENDMDL
MODEL 9
REMARK VINA RESULT:      -5.0      1.671      2.433
REMARK  2 active torsions:
REMARK  status: ('A' for Active; 'I' for Inactive)
REMARK    1  A    between atoms: C7_7  and  C10_10 
REMARK    2  A    between atoms: C9_9  and  C10_10 
ROOT
HETATM    1  C1  UNL     1     -32.860   9.549   0.611  1.00 20.00     0.012 C 
HETATM    2  C2  UNL     1     -32.847   9.278   1.780  1.00 20.00    -0.117 C 
HETATM    3  C9  UNL     1     -32.833   8.949   3.212  1.00 20.00     0.093 C 
ENDROOT
BRANCH   3   4
HETATM    4  C10 UNL     1     -32.054   7.667   3.448  1.00 20.00     0.020 C 
BRANCH   4   5
HETATM    5  C7  UNL     1     -32.736   6.808   4.499  1.00 20.00     0.023 C 
HETATM    6  C4  UNL     1     -33.559   7.666   5.479  1.00 20.00     0.008 C 
HETATM    7  C3  UNL     1     -34.641   6.714   5.979  1.00 20.00     0.004 C 
HETATM    8  C5  UNL     1     -35.045   5.943   4.722  1.00 20.00     0.041 C 
HETATM    9  C8  UNL     1     -33.762   5.845   3.948  1.00 20.00     0.086 A 
HETATM   10  C6  UNL     1     -33.682   5.151   2.607  1.00 20.00     0.207 A 
HETATM   11  O11 UNL     1     -33.270   4.499   3.812  1.00 20.00    -0.375 OA
ENDBRANCH   4   5
ENDBRANCH   3   4
TORSDOF 2
ENDMDL
