MODEL 1
REMARK VINA RESULT:      -4.0      0.000      0.000
REMARK  0 active torsions:
REMARK  status: ('A' for Active; 'I' for Inactive)
ROOT
HETATM    1  C1  UNL     1     -40.370  12.917   4.791  1.00 20.00    -0.004 C 
HETATM    2  C2  UNL     1     -41.578  13.689   4.905  1.00 20.00    -0.003 C 
HETATM    3  C3  UNL     1     -39.693  12.528   5.878  1.00 20.00    -0.025 C 
HETATM    4  C4  UNL     1     -41.957  14.228   6.071  1.00 20.00    -0.009 C 
HETATM    5  C5  UNL     1     -42.218  13.671   8.420  1.00 20.00     0.140 C 
HETATM    6  C6  UNL     1     -40.133  12.886   7.272  1.00 20.00     0.048 C 
HETATM    7  C7  UNL     1     -42.567  14.670   9.498  1.00 20.00     0.079 C 
HETATM    8  C8  UNL     1     -41.355  15.317  10.146  1.00 20.00     0.008 C 
HETATM    9  C9  UNL     1     -40.113  15.400   9.262  1.00 20.00     0.006 C 
HETATM   10  C10 UNL     1     -40.422  15.388   7.755  1.00 20.00     0.001 C 
HETATM   11  C11 UNL     1     -41.170  14.067   7.363  1.00 20.00     0.044 C 
HETATM   12  C12 UNL     1     -41.105  16.701   7.341  1.00 20.00     0.011 C 
HETATM   13  O13 UNL     1     -42.835  12.604   8.353  1.00 20.00    -0.297 OA
ENDROOT
TORSDOF 0
ENDMDL
MODEL 2
REMARK VINA RESULT:      -3.8     13.617     15.078
REMARK  0 active torsions:
REMARK  status: ('A' for Active; 'I' for Inactive)
ROOT
HETATM    1  C1  UNL     1     -33.294  15.876  -3.364  1.00 20.00    -0.004 C 
HETATM    2  C2  UNL     1     -33.886  14.836  -4.162  1.00 20.00    -0.003 C 
HETATM    3  C3  UNL     1     -33.710  17.144  -3.463  1.00 20.00    -0.025 C 
HETATM    4  C4  UNL     1     -34.715  15.118  -5.176  1.00 20.00    -0.009 C 
HETATM    5  C5  UNL     1     -36.644  16.488  -5.722  1.00 20.00     0.140 C 
HETATM    6  C6  UNL     1     -34.794  17.565  -4.417  1.00 20.00     0.048 C 
HETATM    7  C7  UNL     1     -37.230  16.619  -7.107  1.00 20.00     0.079 C 
HETATM    8  C8  UNL     1     -36.631  17.757  -7.918  1.00 20.00     0.008 C 
HETATM    9  C9  UNL     1     -35.199  18.135  -7.547  1.00 20.00     0.006 C 
HETATM   10  C10 UNL     1     -34.407  16.993  -6.887  1.00 20.00     0.001 C 
HETATM   11  C11 UNL     1     -35.112  16.534  -5.564  1.00 20.00     0.044 C 
HETATM   12  C12 UNL     1     -34.110  15.889  -7.914  1.00 20.00     0.011 C 
HETATM   13  O13 UNL     1     -37.387  16.259  -4.763  1.00 20.00    -0.297 OA
ENDROOT
TORSDOF 0
ENDMDL
MODEL 3
REMARK VINA RESULT:      -3.8     22.049     23.848
REMARK  0 active torsions:
REMARK  status: ('A' for Active; 'I' for Inactive)
ROOT
HETATM    1  C1  UNL     1     -22.865  -4.722  10.011  1.00 20.00    -0.004 C 
HETATM    2  C2  UNL     1     -23.323  -4.722  11.374  1.00 20.00    -0.003 C 
HETATM    3  C3  UNL     1     -23.230  -3.757   9.159  1.00 20.00    -0.025 C 
HETATM    4  C4  UNL     1     -24.291  -3.892  11.787  1.00 20.00    -0.009 C 
HETATM    5  C5  UNL     1     -24.969  -1.564  11.670  1.00 20.00     0.140 C 
HETATM    6  C6  UNL     1     -24.151  -2.636   9.558  1.00 20.00     0.048 C 
HETATM    7  C7  UNL     1     -26.282  -1.032  12.194  1.00 20.00     0.079 C 
HETATM    8  C8  UNL     1     -27.400  -1.046  11.164  1.00 20.00     0.008 C 
HETATM    9  C9  UNL     1     -27.271  -2.113  10.081  1.00 20.00     0.006 C 
HETATM   10  C10 UNL     1     -26.430  -3.330  10.504  1.00 20.00     0.001 C 
HETATM   11  C11 UNL     1     -24.975  -2.884  10.877  1.00 20.00     0.044 C 
HETATM   12  C12 UNL     1     -27.180  -4.150  11.567  1.00 20.00     0.011 C 
HETATM   13  O13 UNL     1     -23.917  -0.987  11.961  1.00 20.00    -0.297 OA
ENDROOT
TORSDOF 0
ENDMDL
MODEL 4
REMARK VINA RESULT:      -3.7     13.716     14.923
REMARK  0 active torsions:
REMARK  status: ('A' for Active; 'I' for Inactive)
ROOT
HETATM    1  C1  UNL     1     -36.560  19.223  -6.671  1.00 20.00    -0.004 C 
HETATM    2  C2  UNL     1     -35.132  19.126  -6.799  1.00 20.00    -0.003 C 
HETATM    3  C3  UNL     1     -37.231  18.455  -5.805  1.00 20.00    -0.025 C 
HETATM    4  C4  UNL     1     -34.443  18.131  -6.223  1.00 20.00    -0.009 C 
HETATM    5  C5  UNL     1     -34.229  16.948  -4.113  1.00 20.00     0.140 C 
HETATM    6  C6  UNL     1     -36.547  17.437  -4.933  1.00 20.00     0.048 C 
HETATM    7  C7  UNL     1     -33.373  15.720  -3.909  1.00 20.00     0.079 C 
HETATM    8  C8  UNL     1     -34.108  14.415  -4.165  1.00 20.00     0.008 C 
HETATM    9  C9  UNL     1     -35.265  14.506  -5.157  1.00 20.00     0.006 C 
HETATM   10  C10 UNL     1     -35.141  15.672  -6.152  1.00 20.00     0.001 C 
HETATM   11  C11 UNL     1     -35.092  17.039  -5.386  1.00 20.00     0.044 C 
HETATM   12  C12 UNL     1     -33.993  15.408  -7.140  1.00 20.00     0.011 C 
HETATM   13  O13 UNL     1     -34.154  17.885  -3.313  1.00 20.00    -0.297 OA
ENDROOT
TORSDOF 0
ENDMDL
MODEL 5
REMARK VINA RESULT:      -3.7      1.636      4.174
REMARK  0 active torsions:
REMARK  status: ('A' for Active; 'I' for Inactive)
ROOT
HETATM    1  C1  UNL     1     -41.081  14.939  10.372  1.00 20.00    -0.004 C 
HETATM    2  C2  UNL     1     -42.452  14.789   9.964  1.00 20.00    -0.003 C 
HETATM    3  C3  UNL     1     -40.115  15.174   9.476  1.00 20.00    -0.025 C 
HETATM    4  C4  UNL     1     -42.788  14.665   8.673  1.00 20.00    -0.009 C 
HETATM    5  C5  UNL     1     -42.361  15.658   6.498  1.00 20.00     0.140 C 
HETATM    6  C6  UNL     1     -40.391  15.273   8.000  1.00 20.00     0.048 C 
HETATM    7  C7  UNL     1     -42.871  15.097   5.192  1.00 20.00     0.079 C 
HETATM    8  C8  UNL     1     -41.918  14.109   4.539  1.00 20.00     0.008 C 
HETATM    9  C9  UNL     1     -41.002  13.358   5.501  1.00 20.00     0.006 C 
HETATM   10  C10 UNL     1     -41.556  13.254   6.932  1.00 20.00     0.001 C 
HETATM   11  C11 UNL     1     -41.776  14.683   7.538  1.00 20.00     0.044 C 
HETATM   12  C12 UNL     1     -42.770  12.311   6.965  1.00 20.00     0.011 C 
HETATM   13  O13 UNL     1     -42.503  16.859   6.745  1.00 20.00    -0.297 OA
ENDROOT
TORSDOF 0
ENDMDL
MODEL 6
REMARK VINA RESULT:      -3.7     13.237     14.558
REMARK  0 active torsions:
REMARK  status: ('A' for Active; 'I' for Inactive)
ROOT
HETATM    1  C1  UNL     1     -35.803  15.384  -7.862  1.00 20.00    -0.004 C 
HETATM    2  C2  UNL     1     -36.471  15.110  -6.618  1.00 20.00    -0.003 C 
HETATM    3  C3  UNL     1     -34.536  15.815  -7.885  1.00 20.00    -0.025 C 
HETATM    4  C4  UNL     1     -35.939  15.472  -5.443  1.00 20.00    -0.009 C 
HETATM    5  C5  UNL     1     -33.847  15.411  -4.211  1.00 20.00     0.140 C 
HETATM    6  C6  UNL     1     -33.744  16.059  -6.630  1.00 20.00     0.048 C 
HETATM    7  C7  UNL     1     -33.623  16.093  -2.881  1.00 20.00     0.079 C 
HETATM    8  C8  UNL     1     -33.104  17.516  -3.005  1.00 20.00     0.008 C 
HETATM    9  C9  UNL     1     -33.495  18.240  -4.291  1.00 20.00     0.006 C 
HETATM   10  C10 UNL     1     -34.776  17.695  -4.945  1.00 20.00     0.001 C 
HETATM   11  C11 UNL     1     -34.599  16.181  -5.313  1.00 20.00     0.044 C 
HETATM   12  C12 UNL     1     -36.002  18.044  -4.086  1.00 20.00     0.011 C 
HETATM   13  O13 UNL     1     -33.509  14.234  -4.358  1.00 20.00    -0.297 OA
ENDROOT
TORSDOF 0
ENDMDL
MODEL 7
REMARK VINA RESULT:      -3.6      1.329      3.897
REMARK  0 active torsions:
REMARK  status: ('A' for Active; 'I' for Inactive)
ROOT
HETATM    1  C1  UNL     1     -41.532  14.095  10.533  1.00 20.00    -0.004 C 
HETATM    2  C2  UNL     1     -40.413  14.459   9.708  1.00 20.00    -0.003 C 
HETATM    3  C3  UNL     1     -42.654  13.599   9.998  1.00 20.00    -0.025 C 
HETATM    4  C4  UNL     1     -40.518  14.521   8.373  1.00 20.00    -0.009 C 
HETATM    5  C5  UNL     1     -41.369  13.262   6.479  1.00 20.00     0.140 C 
HETATM    6  C6  UNL     1     -42.824  13.413   8.514  1.00 20.00     0.048 C 
HETATM    7  C7  UNL     1     -41.408  13.781   5.061  1.00 20.00     0.079 C 
HETATM    8  C8  UNL     1     -42.697  14.506   4.712  1.00 20.00     0.008 C 
HETATM    9  C9  UNL     1     -43.413  15.161   5.891  1.00 20.00     0.006 C 
HETATM   10  C10 UNL     1     -42.485  15.503   7.069  1.00 20.00     0.001 C 
HETATM   11  C11 UNL     1     -41.800  14.205   7.619  1.00 20.00     0.044 C 
HETATM   12  C12 UNL     1     -41.542  16.656   6.685  1.00 20.00     0.011 C 
HETATM   13  O13 UNL     1     -40.913  12.138   6.706  1.00 20.00    -0.297 OA
ENDROOT
TORSDOF 0
ENDMDL
MODEL 8
REMARK VINA RESULT:      -3.6     13.688     15.381
REMARK  0 active torsions:
REMARK  status: ('A' for Active; 'I' for Inactive)
ROOT
HETATM    1  C1  UNL     1     -34.922  13.650  -4.025  1.00 20.00    -0.004 C 
HETATM    2  C2  UNL     1     -33.735  14.452  -4.151  1.00 20.00    -0.003 C 
HETATM    3  C3  UNL     1     -35.929  13.765  -4.899  1.00 20.00    -0.025 C 
HETATM    4  C4  UNL     1     -33.673  15.483  -5.005  1.00 20.00    -0.009 C 
HETATM    5  C5  UNL     1     -34.188  16.072  -7.304  1.00 20.00     0.140 C 
HETATM    6  C6  UNL     1     -35.897  14.741  -6.043  1.00 20.00     0.048 C 
HETATM    7  C7  UNL     1     -34.082  17.470  -7.868  1.00 20.00     0.079 C 
HETATM    8  C8  UNL     1     -35.364  18.276  -7.742  1.00 20.00     0.008 C 
HETATM    9  C9  UNL     1     -36.268  17.882  -6.577  1.00 20.00     0.006 C 
HETATM   10  C10 UNL     1     -35.523  17.200  -5.416  1.00 20.00     0.001 C 
HETATM   11  C11 UNL     1     -34.824  15.887  -5.913  1.00 20.00     0.044 C 
HETATM   12  C12 UNL     1     -34.622  18.214  -4.694  1.00 20.00     0.011 C 
HETATM   13  O13 UNL     1     -33.687  15.126  -7.918  1.00 20.00    -0.297 OA
ENDROOT
TORSDOF 0
ENDMDL
MODEL 9
REMARK VINA RESULT:      -3.6     20.891     22.151
REMARK  0 active torsions:
REMARK  status: ('A' for Active; 'I' for Inactive)
ROOT
HETATM    1  C1  UNL     1     -29.566  -4.669  10.538  1.00 20.00    -0.004 C 
HETATM    2  C2  UNL     1     -29.157  -3.687   9.570  1.00 20.00    -0.003 C 
HETATM    3  C3  UNL     1     -29.208  -4.564  11.823  1.00 20.00    -0.025 C 
HETATM    4  C4  UNL     1     -28.238  -2.757   9.862  1.00 20.00    -0.009 C 
HETATM    5  C5  UNL     1     -27.648  -1.150  11.584  1.00 20.00     0.140 C 
HETATM    6  C6  UNL     1     -28.348  -3.439  12.330  1.00 20.00     0.048 C 
HETATM    7  C7  UNL     1     -26.376  -0.335  11.588  1.00 20.00     0.079 C 
HETATM    8  C8  UNL     1     -25.223  -1.009  12.313  1.00 20.00     0.008 C 
HETATM    9  C9  UNL     1     -25.271  -2.535  12.332  1.00 20.00     0.006 C 
HETATM   10  C10 UNL     1     -26.078  -3.145  11.174  1.00 20.00     0.001 C 
HETATM   11  C11 UNL     1     -27.562  -2.645  11.220  1.00 20.00     0.044 C 
HETATM   12  C12 UNL     1     -25.335  -2.941   9.843  1.00 20.00     0.011 C 
HETATM   13  O13 UNL     1     -28.732  -0.593  11.781  1.00 20.00    -0.297 OA
ENDROOT
TORSDOF 0
ENDMDL
