MODEL 1
REMARK VINA RESULT:      -4.5      0.000      0.000
REMARK  1 active torsions:
REMARK  status: ('A' for Active; 'I' for Inactive)
REMARK    1  A    between atoms: C5_5  and  C10_10 
ROOT
HETATM    1  C1  UNL     1     -33.600   5.581   3.922  1.00 20.00     0.166 C 
HETATM    2  C2  UNL     1     -32.671   6.440   3.087  1.00 20.00     0.086 C 
HETATM    3  C3  UNL     1     -33.191   8.475   4.501  1.00 20.00     0.009 C 
HETATM    4  C4  UNL     1     -33.461   7.433   5.592  1.00 20.00     0.052 C 
HETATM    5  C5  UNL     1     -33.162   7.886   3.081  1.00 20.00    -0.004 C 
HETATM    6  C6  UNL     1     -34.305   6.258   5.094  1.00 20.00     0.159 C 
HETATM    7  C7  UNL     1     -34.568   5.265   6.220  1.00 20.00     0.060 C 
HETATM    8  O11 UNL     1     -33.772   4.393   3.649  1.00 20.00    -0.294 OA
HETATM    9  F12 UNL     1     -35.513   6.744   4.685  1.00 20.00    -0.235 F 
ENDROOT
BRANCH   5  10
HETATM   10  C10 UNL     1     -32.320   8.754   2.149  1.00 20.00    -0.018 C 
HETATM   11  C8  UNL     1     -31.967   7.988   0.875  1.00 20.00     0.010 C 
HETATM   12  C9  UNL     1     -33.052  10.049   1.811  1.00 20.00     0.010 C 
ENDBRANCH   5  10
TORSDOF 1
ENDMDL
MODEL 2
REMARK VINA RESULT:      -4.4     11.814     12.923
REMARK  1 active torsions:
REMARK  status: ('A' for Active; 'I' for Inactive)
REMARK    1  A    between atoms: C5_5  and  C10_10 
ROOT
HETATM    1  C1  UNL     1     -33.580  16.488  -3.556  1.00 20.00     0.166 C 
HETATM    2  C2  UNL     1     -33.294  16.880  -2.121  1.00 20.00     0.086 C 
HETATM    3  C3  UNL     1     -34.543  19.063  -2.410  1.00 20.00     0.009 C 
HETATM    4  C4  UNL     1     -35.319  18.278  -3.474  1.00 20.00     0.052 C 
HETATM    5  C5  UNL     1     -33.217  18.401  -2.000  1.00 20.00    -0.004 C 
HETATM    6  C6  UNL     1     -34.406  17.462  -4.391  1.00 20.00     0.159 C 
HETATM    7  C7  UNL     1     -35.221  16.722  -5.445  1.00 20.00     0.060 C 
HETATM    8  O11 UNL     1     -33.151  15.430  -4.016  1.00 20.00    -0.294 OA
HETATM    9  F12 UNL     1     -33.577  18.326  -5.046  1.00 20.00    -0.235 F 
ENDROOT
BRANCH   5  10
HETATM   10  C10 UNL     1     -32.808  18.826  -0.592  1.00 20.00    -0.018 C 
HETATM   11  C8  UNL     1     -33.699  18.154   0.451  1.00 20.00     0.010 C 
HETATM   12  C9  UNL     1     -31.340  18.500  -0.336  1.00 20.00     0.010 C 
ENDBRANCH   5  10
TORSDOF 1
ENDMDL
MODEL 3
REMARK VINA RESULT:      -4.2     11.671     12.696
REMARK  1 active torsions:
REMARK  status: ('A' for Active; 'I' for Inactive)
REMARK    1  A    between atoms: C5_5  and  C10_10 
ROOT
HETATM    1  C1  UNL     1     -35.564  16.625  -5.138  1.00 20.00     0.166 C 
HETATM    2  C2  UNL     1     -34.626  17.437  -4.268  1.00 20.00     0.086 C 
HETATM    3  C3  UNL     1     -33.079  15.452  -3.987  1.00 20.00     0.009 C 
HETATM    4  C4  UNL     1     -33.649  15.036  -5.347  1.00 20.00     0.052 C 
HETATM    5  C5  UNL     1     -33.917  16.523  -3.270  1.00 20.00    -0.004 C 
HETATM    6  C6  UNL     1     -35.170  15.178  -5.421  1.00 20.00     0.159 C 
HETATM    7  C7  UNL     1     -35.690  14.727  -6.781  1.00 20.00     0.060 C 
HETATM    8  O11 UNL     1     -36.598  17.123  -5.582  1.00 20.00    -0.294 OA
HETATM    9  F12 UNL     1     -35.721  14.358  -4.479  1.00 20.00    -0.235 F 
ENDROOT
BRANCH   5  10
HETATM   10  C10 UNL     1     -33.057  17.326  -2.296  1.00 20.00    -0.018 C 
HETATM   11  C8  UNL     1     -32.779  18.722  -2.851  1.00 20.00     0.010 C 
HETATM   12  C9  UNL     1     -33.731  17.415  -0.930  1.00 20.00     0.010 C 
ENDBRANCH   5  10
TORSDOF 1
ENDMDL
MODEL 4
REMARK VINA RESULT:      -4.1     11.701     12.747
REMARK  1 active torsions:
REMARK  status: ('A' for Active; 'I' for Inactive)
REMARK    1  A    between atoms: C5_5  and  C10_10 
ROOT
HETATM    1  C1  UNL     1     -33.979  15.166  -4.323  1.00 20.00     0.166 C 
HETATM    2  C2  UNL     1     -33.670  16.106  -3.176  1.00 20.00     0.086 C 
HETATM    3  C3  UNL     1     -34.987  17.969  -4.274  1.00 20.00     0.009 C 
HETATM    4  C4  UNL     1     -35.766  16.810  -4.906  1.00 20.00     0.052 C 
HETATM    5  C5  UNL     1     -33.633  17.549  -3.678  1.00 20.00    -0.004 C 
HETATM    6  C6  UNL     1     -34.853  15.710  -5.450  1.00 20.00     0.159 C 
HETATM    7  C7  UNL     1     -35.673  14.596  -6.091  1.00 20.00     0.060 C 
HETATM    8  O11 UNL     1     -33.532  14.020  -4.335  1.00 20.00    -0.294 OA
HETATM    9  F12 UNL     1     -34.065  16.252  -6.424  1.00 20.00    -0.235 F 
ENDROOT
BRANCH   5  10
HETATM   10  C10 UNL     1     -33.203  18.510  -2.573  1.00 20.00    -0.018 C 
HETATM   11  C8  UNL     1     -34.411  19.259  -2.012  1.00 20.00     0.010 C 
HETATM   12  C9  UNL     1     -32.471  17.761  -1.463  1.00 20.00     0.010 C 
ENDBRANCH   5  10
TORSDOF 1
ENDMDL
MODEL 5
REMARK VINA RESULT:      -4.0      9.803     10.561
REMARK  1 active torsions:
REMARK  status: ('A' for Active; 'I' for Inactive)
REMARK    1  A    between atoms: C5_5  and  C10_10 
ROOT
HETATM    1  C1  UNL     1     -41.425  13.700   7.783  1.00 20.00     0.166 C 
HETATM    2  C2  UNL     1     -40.181  13.106   7.153  1.00 20.00     0.086 C 
HETATM    3  C3  UNL     1     -41.168  13.358   4.835  1.00 20.00     0.009 C 
HETATM    4  C4  UNL     1     -41.943  14.512   5.479  1.00 20.00     0.052 C 
HETATM    5  C5  UNL     1     -40.545  12.389   5.854  1.00 20.00    -0.004 C 
HETATM    6  C6  UNL     1     -42.539  14.140   6.838  1.00 20.00     0.159 C 
HETATM    7  C7  UNL     1     -43.321  15.310   7.423  1.00 20.00     0.060 C 
HETATM    8  O11 UNL     1     -41.519  13.809   9.005  1.00 20.00    -0.294 OA
HETATM    9  F12 UNL     1     -43.417  13.112   6.651  1.00 20.00    -0.235 F 
ENDROOT
BRANCH   5  10
HETATM   10  C10 UNL     1     -39.336  11.674   5.257  1.00 20.00    -0.018 C 
HETATM   11  C8  UNL     1     -39.265  11.908   3.748  1.00 20.00     0.010 C 
HETATM   12  C9  UNL     1     -38.049  12.137   5.933  1.00 20.00     0.010 C 
ENDBRANCH   5  10
TORSDOF 1
ENDMDL
MODEL 6
REMARK VINA RESULT:      -4.0     12.078     13.125
REMARK  1 active torsions:
REMARK  status: ('A' for Active; 'I' for Inactive)
REMARK    1  A    between atoms: C5_5  and  C10_10 
ROOT
HETATM    1  C1  UNL     1     -34.984  18.174  -3.737  1.00 20.00     0.166 C 
HETATM    2  C2  UNL     1     -35.316  16.979  -4.608  1.00 20.00     0.086 C 
HETATM    3  C3  UNL     1     -33.321  15.703  -3.713  1.00 20.00     0.009 C 
HETATM    4  C4  UNL     1     -33.534  16.580  -2.475  1.00 20.00     0.052 C 
HETATM    5  C5  UNL     1     -34.037  16.225  -4.969  1.00 20.00    -0.004 C 
HETATM    6  C6  UNL     1     -33.767  18.051  -2.824  1.00 20.00     0.159 C 
HETATM    7  C7  UNL     1     -33.947  18.884  -1.560  1.00 20.00     0.060 C 
HETATM    8  O11 UNL     1     -35.671  19.194  -3.781  1.00 20.00    -0.294 OA
HETATM    9  F12 UNL     1     -32.659  18.517  -3.469  1.00 20.00    -0.235 F 
ENDROOT
BRANCH   5  10
HETATM   10  C10 UNL     1     -34.321  15.087  -5.947  1.00 20.00    -0.018 C 
HETATM   11  C8  UNL     1     -35.761  14.597  -5.796  1.00 20.00     0.010 C 
HETATM   12  C9  UNL     1     -34.053  15.531  -7.382  1.00 20.00     0.010 C 
ENDBRANCH   5  10
TORSDOF 1
ENDMDL
MODEL 7
REMARK VINA RESULT:      -3.9     11.830     13.018
REMARK  1 active torsions:
REMARK  status: ('A' for Active; 'I' for Inactive)
REMARK    1  A    between atoms: C5_5  and  C10_10 
ROOT
HETATM    1  C1  UNL     1     -34.912  18.299  -2.807  1.00 20.00     0.166 C 
HETATM    2  C2  UNL     1     -35.464  17.654  -4.062  1.00 20.00     0.086 C 
HETATM    3  C3  UNL     1     -33.545  16.003  -4.124  1.00 20.00     0.009 C 
HETATM    4  C4  UNL     1     -33.531  16.228  -2.608  1.00 20.00     0.052 C 
HETATM    5  C5  UNL     1     -34.322  17.080  -4.899  1.00 20.00    -0.004 C 
HETATM    6  C6  UNL     1     -33.630  17.706  -2.227  1.00 20.00     0.159 C 
HETATM    7  C7  UNL     1     -33.585  17.879  -0.714  1.00 20.00     0.060 C 
HETATM    8  O11 UNL     1     -35.480  19.263  -2.293  1.00 20.00    -0.294 OA
HETATM    9  F12 UNL     1     -32.547  18.355  -2.747  1.00 20.00    -0.235 F 
ENDROOT
BRANCH   5  10
HETATM   10  C10 UNL     1     -34.831  16.532  -6.230  1.00 20.00    -0.018 C 
HETATM   11  C8  UNL     1     -34.086  15.252  -6.604  1.00 20.00     0.010 C 
HETATM   12  C9  UNL     1     -36.335  16.279  -6.168  1.00 20.00     0.010 C 
ENDBRANCH   5  10
TORSDOF 1
ENDMDL
MODEL 8
REMARK VINA RESULT:      -3.9     11.930     13.626
REMARK  1 active torsions:
REMARK  status: ('A' for Active; 'I' for Inactive)
REMARK    1  A    between atoms: C5_5  and  C10_10 
ROOT
HETATM    1  C1  UNL     1     -35.991  15.247  -6.949  1.00 20.00     0.166 C 
HETATM    2  C2  UNL     1     -35.337  14.764  -5.670  1.00 20.00     0.086 C 
HETATM    3  C3  UNL     1     -35.345  17.108  -4.715  1.00 20.00     0.009 C 
HETATM    4  C4  UNL     1     -36.558  17.292  -5.633  1.00 20.00     0.052 C 
HETATM    5  C5  UNL     1     -34.488  15.880  -5.063  1.00 20.00    -0.004 C 
HETATM    6  C6  UNL     1     -36.328  16.733  -7.038  1.00 20.00     0.159 C 
HETATM    7  C7  UNL     1     -37.551  16.963  -7.918  1.00 20.00     0.060 C 
HETATM    8  O11 UNL     1     -36.226  14.464  -7.869  1.00 20.00    -0.294 OA
HETATM    9  F12 UNL     1     -35.285  17.409  -7.600  1.00 20.00    -0.235 F 
ENDROOT
BRANCH   5  10
HETATM   10  C10 UNL     1     -33.717  15.389  -3.841  1.00 20.00    -0.018 C 
HETATM   11  C8  UNL     1     -32.468  14.619  -4.268  1.00 20.00     0.010 C 
HETATM   12  C9  UNL     1     -33.343  16.558  -2.935  1.00 20.00     0.010 C 
ENDBRANCH   5  10
TORSDOF 1
ENDMDL
MODEL 9
REMARK VINA RESULT:      -3.7     15.581     16.567
REMARK  1 active torsions:
REMARK  status: ('A' for Active; 'I' for Inactive)
REMARK    1  A    between atoms: C5_5  and  C10_10 
ROOT
HETATM    1  C1  UNL     1     -22.636  17.136   9.089  1.00 20.00     0.166 C 
HETATM    2  C2  UNL     1     -23.614  16.830  10.205  1.00 20.00     0.086 C 
HETATM    3  C3  UNL     1     -24.335  19.254  10.313  1.00 20.00     0.009 C 
HETATM    4  C4  UNL     1     -23.920  19.263   8.838  1.00 20.00     0.052 C 
HETATM    5  C5  UNL     1     -23.783  18.055  11.102  1.00 20.00    -0.004 C 
HETATM    6  C6  UNL     1     -22.573  18.579   8.598  1.00 20.00     0.159 C 
HETATM    7  C7  UNL     1     -22.192  18.638   7.123  1.00 20.00     0.060 C 
HETATM    8  O11 UNL     1     -21.926  16.249   8.615  1.00 20.00    -0.294 OA
HETATM    9  F12 UNL     1     -21.618  19.261   9.295  1.00 20.00    -0.235 F 
ENDROOT
BRANCH   5  10
HETATM   10  C10 UNL     1     -24.667  17.743  12.307  1.00 20.00    -0.018 C 
HETATM   11  C8  UNL     1     -25.921  18.615  12.294  1.00 20.00     0.010 C 
HETATM   12  C9  UNL     1     -25.041  16.264  12.332  1.00 20.00     0.010 C 
ENDBRANCH   5  10
TORSDOF 1
ENDMDL
