MODEL 1
REMARK VINA RESULT:      -3.8      0.000      0.000
REMARK  1 active torsions:
REMARK  status: ('A' for Active; 'I' for Inactive)
REMARK    1  A    between atoms: C2_2  and  C4_4 
ROOT
HETATM    1  C1  UNL     1     -33.867   5.277   4.118  1.00 20.00     0.171 A 
HETATM    2  C2  UNL     1     -34.217   6.525   4.907  1.00 20.00     0.175 A 
HETATM    3  C3  UNL     1     -33.170   5.312   2.804  1.00 20.00     0.044 C 
HETATM    4  O5  UNL     1     -35.189   5.829   4.110  1.00 20.00    -0.352 OA
HETATM    5 CL6  UNL     1     -34.326   6.357   6.661  1.00 20.00    -0.084 Cl
ENDROOT
BRANCH   2   6
HETATM    6  C4  UNL     1     -33.890   7.893   4.406  1.00 20.00     0.172 C 
HETATM    7 CL7  UNL     1     -32.216   8.350   4.827  1.00 20.00    -0.126 Cl
ENDBRANCH   2   6
TORSDOF 1
ENDMDL
MODEL 2
REMARK VINA RESULT:      -3.6      2.127      3.198
REMARK  1 active torsions:
REMARK  status: ('A' for Active; 'I' for Inactive)
REMARK    1  A    between atoms: C2_2  and  C4_4 
ROOT
HETATM    1  C1  UNL     1     -33.520   7.342   5.706  1.00 20.00     0.171 A 
HETATM    2  C2  UNL     1     -33.346   6.969   4.245  1.00 20.00     0.175 A 
HETATM    3  C3  UNL     1     -34.248   6.490   6.683  1.00 20.00     0.044 C 
HETATM    4  O5  UNL     1     -34.339   7.912   4.679  1.00 20.00    -0.352 OA
HETATM    5 CL6  UNL     1     -31.919   7.606   3.421  1.00 20.00    -0.084 Cl
ENDROOT
BRANCH   2   6
HETATM    6  C4  UNL     1     -33.911   5.709   3.679  1.00 20.00     0.172 C 
HETATM    7 CL7  UNL     1     -32.789   4.970   2.503  1.00 20.00    -0.126 Cl
ENDBRANCH   2   6
TORSDOF 1
ENDMDL
MODEL 3
REMARK VINA RESULT:      -3.6      2.104      3.103
REMARK  1 active torsions:
REMARK  status: ('A' for Active; 'I' for Inactive)
REMARK    1  A    between atoms: C2_2  and  C4_4 
ROOT
HETATM    1  C1  UNL     1     -32.761   8.030   4.089  1.00 20.00     0.171 A 
HETATM    2  C2  UNL     1     -33.677   6.967   4.666  1.00 20.00     0.175 A 
HETATM    3  C3  UNL     1     -32.058   9.040   4.923  1.00 20.00     0.044 C 
HETATM    4  O5  UNL     1     -34.186   8.165   4.058  1.00 20.00    -0.352 OA
HETATM    5 CL6  UNL     1     -33.828   5.461   3.756  1.00 20.00    -0.084 Cl
ENDROOT
BRANCH   2   6
HETATM    6  C4  UNL     1     -33.948   6.868   6.131  1.00 20.00     0.172 C 
HETATM    7 CL7  UNL     1     -34.731   5.317   6.538  1.00 20.00    -0.126 Cl
ENDBRANCH   2   6
TORSDOF 1
ENDMDL
MODEL 4
REMARK VINA RESULT:      -3.2      2.365      3.079
REMARK  1 active torsions:
REMARK  status: ('A' for Active; 'I' for Inactive)
REMARK    1  A    between atoms: C2_2  and  C4_4 
ROOT
HETATM    1  C1  UNL     1     -33.575   8.111   5.215  1.00 20.00     0.171 A 
HETATM    2  C2  UNL     1     -33.663   6.786   4.481  1.00 20.00     0.175 A 
HETATM    3  C3  UNL     1     -32.556   9.149   4.904  1.00 20.00     0.044 C 
HETATM    4  O5  UNL     1     -33.048   6.902   5.774  1.00 20.00    -0.352 OA
HETATM    5 CL6  UNL     1     -35.253   6.022   4.397  1.00 20.00    -0.084 Cl
ENDROOT
BRANCH   2   6
HETATM    6  C4  UNL     1     -32.712   6.424   3.388  1.00 20.00     0.172 C 
HETATM    7 CL7  UNL     1     -33.151   4.863   2.644  1.00 20.00    -0.126 Cl
ENDBRANCH   2   6
TORSDOF 1
ENDMDL
MODEL 5
REMARK VINA RESULT:      -3.1     16.167     16.948
REMARK  1 active torsions:
REMARK  status: ('A' for Active; 'I' for Inactive)
REMARK    1  A    between atoms: C2_2  and  C4_4 
ROOT
HETATM    1  C1  UNL     1     -23.111  18.789   9.921  1.00 20.00     0.171 A 
HETATM    2  C2  UNL     1     -23.081  18.108  11.277  1.00 20.00     0.175 A 
HETATM    3  C3  UNL     1     -24.368  19.079   9.183  1.00 20.00     0.044 C 
HETATM    4  O5  UNL     1     -22.805  17.396  10.060  1.00 20.00    -0.352 OA
HETATM    5 CL6  UNL     1     -21.716  18.485  12.332  1.00 20.00    -0.084 Cl
ENDROOT
BRANCH   2   6
HETATM    6  C4  UNL     1     -24.330  17.667  11.967  1.00 20.00     0.172 C 
HETATM    7 CL7  UNL     1     -24.484  15.889  11.946  1.00 20.00    -0.126 Cl
ENDBRANCH   2   6
TORSDOF 1
ENDMDL
MODEL 6
REMARK VINA RESULT:      -3.1      2.273      3.092
REMARK  1 active torsions:
REMARK  status: ('A' for Active; 'I' for Inactive)
REMARK    1  A    between atoms: C2_2  and  C4_4 
ROOT
HETATM    1  C1  UNL     1     -32.788   8.744   3.736  1.00 20.00     0.171 A 
HETATM    2  C2  UNL     1     -33.099   7.418   4.406  1.00 20.00     0.175 A 
HETATM    3  C3  UNL     1     -32.699   8.910   2.261  1.00 20.00     0.044 C 
HETATM    4  O5  UNL     1     -31.760   7.928   4.311  1.00 20.00    -0.352 OA
HETATM    5 CL6  UNL     1     -33.890   7.486   5.984  1.00 20.00    -0.084 Cl
ENDROOT
BRANCH   2   6
HETATM    6  C4  UNL     1     -33.331   6.170   3.620  1.00 20.00     0.172 C 
HETATM    7 CL7  UNL     1     -34.419   5.054   4.489  1.00 20.00    -0.126 Cl
ENDBRANCH   2   6
TORSDOF 1
ENDMDL
MODEL 7
REMARK VINA RESULT:      -2.9     16.252     17.012
REMARK  1 active torsions:
REMARK  status: ('A' for Active; 'I' for Inactive)
REMARK    1  A    between atoms: C2_2  and  C4_4 
ROOT
HETATM    1  C1  UNL     1     -23.425  17.253  11.827  1.00 20.00     0.171 A 
HETATM    2  C2  UNL     1     -23.116  18.327  10.801  1.00 20.00     0.175 A 
HETATM    3  C3  UNL     1     -24.714  16.513  11.869  1.00 20.00     0.044 C 
HETATM    4  O5  UNL     1     -23.523  18.647  12.140  1.00 20.00    -0.352 OA
HETATM    5 CL6  UNL     1     -21.417  18.568  10.382  1.00 20.00    -0.084 Cl
ENDROOT
BRANCH   2   6
HETATM    6  C4  UNL     1     -24.103  18.727   9.754  1.00 20.00     0.172 C 
HETATM    7 CL7  UNL     1     -23.319  18.894   8.160  1.00 20.00    -0.126 Cl
ENDBRANCH   2   6
TORSDOF 1
ENDMDL
MODEL 8
REMARK VINA RESULT:      -2.9     16.655     17.146
REMARK  1 active torsions:
REMARK  status: ('A' for Active; 'I' for Inactive)
REMARK    1  A    between atoms: C2_2  and  C4_4 
ROOT
HETATM    1  C1  UNL     1     -23.464  18.304  11.488  1.00 20.00     0.171 A 
HETATM    2  C2  UNL     1     -23.536  18.651  10.013  1.00 20.00     0.175 A 
HETATM    3  C3  UNL     1     -22.213  18.400  12.287  1.00 20.00     0.044 C 
HETATM    4  O5  UNL     1     -23.452  17.293  10.474  1.00 20.00    -0.352 OA
HETATM    5 CL6  UNL     1     -25.095  19.211   9.399  1.00 20.00    -0.084 Cl
ENDROOT
BRANCH   2   6
HETATM    6  C4  UNL     1     -22.337  19.109   9.249  1.00 20.00     0.172 C 
HETATM    7 CL7  UNL     1     -22.040  18.065   7.832  1.00 20.00    -0.126 Cl
ENDBRANCH   2   6
TORSDOF 1
ENDMDL
MODEL 9
REMARK VINA RESULT:      -2.9      9.089      9.799
REMARK  1 active torsions:
REMARK  status: ('A' for Active; 'I' for Inactive)
REMARK    1  A    between atoms: C2_2  and  C4_4 
ROOT
HETATM    1  C1  UNL     1     -39.491  12.289   5.844  1.00 20.00     0.171 A 
HETATM    2  C2  UNL     1     -40.606  13.284   6.107  1.00 20.00     0.175 A 
HETATM    3  C3  UNL     1     -39.183  11.748   4.493  1.00 20.00     0.044 C 
HETATM    4  O5  UNL     1     -40.756  11.881   6.379  1.00 20.00    -0.352 OA
HETATM    5 CL6  UNL     1     -40.402  14.367   7.487  1.00 20.00    -0.084 Cl
ENDROOT
BRANCH   2   6
HETATM    6  C4  UNL     1     -41.489  13.788   5.014  1.00 20.00     0.172 C 
HETATM    7 CL7  UNL     1     -43.157  14.037   5.597  1.00 20.00    -0.126 Cl
ENDBRANCH   2   6
TORSDOF 1
ENDMDL
