MODEL 1
REMARK VINA RESULT:      -4.0      0.000      0.000
REMARK  2 active torsions:
REMARK  status: ('A' for Active; 'I' for Inactive)
REMARK    1  A    between atoms: C5_5  and  O12_12 
REMARK    2  A    between atoms: C6_6  and  C11_11 
ROOT
HETATM    1  C1  UNL     1     -35.295  18.591  -2.893  1.00 20.00    -0.021 C 
HETATM    2  C2  UNL     1     -34.714  17.778  -3.793  1.00 20.00    -0.059 C 
HETATM    3  C3  UNL     1     -34.798  18.776  -1.490  1.00 20.00     0.032 C 
HETATM    4  C4  UNL     1     -32.764  17.464  -2.184  1.00 20.00     0.042 C 
HETATM    5  C5  UNL     1     -33.458  17.002  -3.472  1.00 20.00     0.149 C 
HETATM    6  C6  UNL     1     -33.779  17.709  -1.060  1.00 20.00    -0.005 C 
HETATM    7  C7  UNL     1     -35.270  17.620  -5.179  1.00 20.00     0.046 C 
ENDROOT
BRANCH   6   8
HETATM    8  C11 UNL     1     -33.081  18.117   0.235  1.00 20.00    -0.018 C 
HETATM    9  C8  UNL     1     -31.686  18.667  -0.057  1.00 20.00     0.010 C 
HETATM   10  C9  UNL     1     -33.915  19.147   0.993  1.00 20.00     0.010 C 
ENDBRANCH   6   8
BRANCH   5  11
HETATM   11  O12 UNL     1     -33.784  15.619  -3.332  1.00 20.00    -0.386 OA
HETATM   12  C10 UNL     1     -33.126  14.831  -4.312  1.00 20.00     0.202 C 
ENDBRANCH   5  11
TORSDOF 2
ENDMDL
MODEL 2
REMARK VINA RESULT:      -3.9      1.655      2.883
REMARK  2 active torsions:
REMARK  status: ('A' for Active; 'I' for Inactive)
REMARK    1  A    between atoms: C5_5  and  O12_12 
REMARK    2  A    between atoms: C6_6  and  C11_11 
ROOT
HETATM    1  C1  UNL     1     -33.594  15.678  -3.750  1.00 20.00    -0.021 C 
HETATM    2  C2  UNL     1     -34.324  16.216  -4.743  1.00 20.00    -0.059 C 
HETATM    3  C3  UNL     1     -33.175  16.428  -2.520  1.00 20.00     0.032 C 
HETATM    4  C4  UNL     1     -34.710  18.271  -3.287  1.00 20.00     0.042 C 
HETATM    5  C5  UNL     1     -34.832  17.638  -4.680  1.00 20.00     0.149 C 
HETATM    6  C6  UNL     1     -33.354  17.949  -2.645  1.00 20.00    -0.005 C 
HETATM    7  C7  UNL     1     -34.698  15.419  -5.960  1.00 20.00     0.046 C 
ENDROOT
BRANCH   6   8
HETATM    8  C11 UNL     1     -33.216  18.624  -1.282  1.00 20.00    -0.018 C 
HETATM    9  C8  UNL     1     -33.971  17.836  -0.213  1.00 20.00     0.010 C 
HETATM   10  C9  UNL     1     -31.744  18.768  -0.902  1.00 20.00     0.010 C 
ENDBRANCH   6   8
BRANCH   5  11
HETATM   11  O12 UNL     1     -34.094  18.441  -5.601  1.00 20.00    -0.386 OA
HETATM   12  C10 UNL     1     -34.959  19.175  -6.455  1.00 20.00     0.202 C 
ENDBRANCH   5  11
TORSDOF 2
ENDMDL
MODEL 3
REMARK VINA RESULT:      -3.9      2.024      5.558
REMARK  2 active torsions:
REMARK  status: ('A' for Active; 'I' for Inactive)
REMARK    1  A    between atoms: C5_5  and  O12_12 
REMARK    2  A    between atoms: C6_6  and  C11_11 
ROOT
HETATM    1  C1  UNL     1     -33.367  15.618  -3.461  1.00 20.00    -0.021 C 
HETATM    2  C2  UNL     1     -33.582  16.900  -3.117  1.00 20.00    -0.059 C 
HETATM    3  C3  UNL     1     -33.864  14.999  -4.734  1.00 20.00     0.032 C 
HETATM    4  C4  UNL     1     -34.505  17.325  -5.453  1.00 20.00     0.042 C 
HETATM    5  C5  UNL     1     -34.319  17.856  -4.025  1.00 20.00     0.149 C 
HETATM    6  C6  UNL     1     -34.924  15.850  -5.450  1.00 20.00    -0.005 C 
HETATM    7  C7  UNL     1     -33.075  17.458  -1.818  1.00 20.00     0.046 C 
ENDROOT
BRANCH   6   8
HETATM    8  C11 UNL     1     -35.159  15.340  -6.870  1.00 20.00    -0.018 C 
HETATM    9  C8  UNL     1     -36.395  15.999  -7.480  1.00 20.00     0.010 C 
HETATM   10  C9  UNL     1     -33.931  15.593  -7.740  1.00 20.00     0.010 C 
ENDBRANCH   6   8
BRANCH   5  11
HETATM   11  O12 UNL     1     -35.610  18.123  -3.478  1.00 20.00    -0.386 OA
HETATM   12  C10 UNL     1     -36.284  19.136  -4.210  1.00 20.00     0.202 C 
ENDBRANCH   5  11
TORSDOF 2
ENDMDL
MODEL 4
REMARK VINA RESULT:      -3.5     12.160     14.209
REMARK  2 active torsions:
REMARK  status: ('A' for Active; 'I' for Inactive)
REMARK    1  A    between atoms: C5_5  and  O12_12 
REMARK    2  A    between atoms: C6_6  and  C11_11 
ROOT
HETATM    1  C1  UNL     1     -40.431  15.816   8.569  1.00 20.00    -0.021 C 
HETATM    2  C2  UNL     1     -41.135  15.531   9.678  1.00 20.00    -0.059 C 
HETATM    3  C3  UNL     1     -40.456  14.979   7.324  1.00 20.00     0.032 C 
HETATM    4  C4  UNL     1     -42.355  13.708   8.381  1.00 20.00     0.042 C 
HETATM    5  C5  UNL     1     -42.064  14.341   9.749  1.00 20.00     0.149 C 
HETATM    6  C6  UNL     1     -41.079  13.591   7.538  1.00 20.00    -0.005 C 
HETATM    7  C7  UNL     1     -41.055  16.398  10.901  1.00 20.00     0.046 C 
ENDROOT
BRANCH   6   8
HETATM    8  C11 UNL     1     -41.364  12.913   6.199  1.00 20.00    -0.018 C 
HETATM    9  C8  UNL     1     -41.726  13.951   5.138  1.00 20.00     0.010 C 
HETATM   10  C9  UNL     1     -40.163  12.085   5.752  1.00 20.00     0.010 C 
ENDBRANCH   6   8
BRANCH   5  11
HETATM   11  O12 UNL     1     -41.484  13.342  10.588  1.00 20.00    -0.386 OA
HETATM   12  C10 UNL     1     -42.376  12.954  11.622  1.00 20.00     0.202 C 
ENDBRANCH   5  11
TORSDOF 2
ENDMDL
MODEL 5
REMARK VINA RESULT:      -3.5     10.736     12.338
REMARK  2 active torsions:
REMARK  status: ('A' for Active; 'I' for Inactive)
REMARK    1  A    between atoms: C5_5  and  O12_12 
REMARK    2  A    between atoms: C6_6  and  C11_11 
ROOT
HETATM    1  C1  UNL     1     -42.267  14.482   5.253  1.00 20.00    -0.021 C 
HETATM    2  C2  UNL     1     -42.351  14.964   6.506  1.00 20.00    -0.059 C 
HETATM    3  C3  UNL     1     -41.269  13.448   4.820  1.00 20.00     0.032 C 
HETATM    4  C4  UNL     1     -40.700  13.175   7.257  1.00 20.00     0.042 C 
HETATM    5  C5  UNL     1     -41.456  14.461   7.615  1.00 20.00     0.149 C 
HETATM    6  C6  UNL     1     -40.133  13.238   5.833  1.00 20.00    -0.005 C 
HETATM    7  C7  UNL     1     -43.360  16.012   6.876  1.00 20.00     0.046 C 
ENDROOT
BRANCH   6   8
HETATM    8  C11 UNL     1     -39.337  11.978   5.500  1.00 20.00    -0.018 C 
HETATM    9  C8  UNL     1     -39.327  11.732   3.992  1.00 20.00     0.010 C 
HETATM   10  C9  UNL     1     -37.912  12.088   6.034  1.00 20.00     0.010 C 
ENDBRANCH   6   8
BRANCH   5  11
HETATM   11  O12 UNL     1     -40.496  15.468   7.936  1.00 20.00    -0.386 OA
HETATM   12  C10 UNL     1     -40.210  15.485   9.327  1.00 20.00     0.202 C 
ENDBRANCH   5  11
TORSDOF 2
ENDMDL
MODEL 6
REMARK VINA RESULT:      -3.4     11.630     12.558
REMARK  2 active torsions:
REMARK  status: ('A' for Active; 'I' for Inactive)
REMARK    1  A    between atoms: C5_5  and  O12_12 
REMARK    2  A    between atoms: C6_6  and  C11_11 
ROOT
HETATM    1  C1  UNL     1     -41.159  13.296   5.032  1.00 20.00    -0.021 C 
HETATM    2  C2  UNL     1     -40.354  13.162   6.102  1.00 20.00    -0.059 C 
HETATM    3  C3  UNL     1     -42.183  14.382   4.888  1.00 20.00     0.032 C 
HETATM    4  C4  UNL     1     -41.163  15.429   6.938  1.00 20.00     0.042 C 
HETATM    5  C5  UNL     1     -40.385  14.143   7.251  1.00 20.00     0.149 C 
HETATM    6  C6  UNL     1     -42.474  15.123   6.202  1.00 20.00    -0.005 C 
HETATM    7  C7  UNL     1     -39.360  12.041   6.198  1.00 20.00     0.046 C 
ENDROOT
BRANCH   6   8
HETATM    8  C11 UNL     1     -43.270  16.400   5.940  1.00 20.00    -0.018 C 
HETATM    9  C8  UNL     1     -42.798  17.525   6.859  1.00 20.00     0.010 C 
HETATM   10  C9  UNL     1     -43.149  16.815   4.476  1.00 20.00     0.010 C 
ENDBRANCH   6   8
BRANCH   5  11
HETATM   11  O12 UNL     1     -40.990  13.520   8.384  1.00 20.00    -0.386 OA
HETATM   12  C10 UNL     1     -40.839  14.313   9.552  1.00 20.00     0.202 C 
ENDBRANCH   5  11
TORSDOF 2
ENDMDL
MODEL 7
REMARK VINA RESULT:      -3.3     11.705     13.121
REMARK  2 active torsions:
REMARK  status: ('A' for Active; 'I' for Inactive)
REMARK    1  A    between atoms: C5_5  and  O12_12 
REMARK    2  A    between atoms: C6_6  and  C11_11 
ROOT
HETATM    1  C1  UNL     1     -42.859  14.890   6.733  1.00 20.00    -0.021 C 
HETATM    2  C2  UNL     1     -41.870  14.315   6.026  1.00 20.00    -0.059 C 
HETATM    3  C3  UNL     1     -42.832  15.059   8.223  1.00 20.00     0.032 C 
HETATM    4  C4  UNL     1     -40.429  14.312   8.127  1.00 20.00     0.042 C 
HETATM    5  C5  UNL     1     -40.603  13.820   6.684  1.00 20.00     0.149 C 
HETATM    6  C6  UNL     1     -41.744  14.218   8.911  1.00 20.00    -0.005 C 
HETATM    7  C7  UNL     1     -41.962  14.158   4.535  1.00 20.00     0.046 C 
ENDROOT
BRANCH   6   8
HETATM    8  C11 UNL     1     -41.555  14.659  10.360  1.00 20.00    -0.018 C 
HETATM    9  C8  UNL     1     -41.810  13.492  11.314  1.00 20.00     0.010 C 
HETATM   10  C9  UNL     1     -40.154  15.226  10.570  1.00 20.00     0.010 C 
ENDBRANCH   6   8
BRANCH   5  11
HETATM   11  O12 UNL     1     -40.607  12.393   6.696  1.00 20.00    -0.386 OA
HETATM   12  C10 UNL     1     -39.456  11.867   6.051  1.00 20.00     0.202 C 
ENDBRANCH   5  11
TORSDOF 2
ENDMDL
MODEL 8
REMARK VINA RESULT:      -3.2      2.132      3.383
REMARK  2 active torsions:
REMARK  status: ('A' for Active; 'I' for Inactive)
REMARK    1  A    between atoms: C5_5  and  O12_12 
REMARK    2  A    between atoms: C6_6  and  C11_11 
ROOT
HETATM    1  C1  UNL     1     -35.368  17.967  -6.368  1.00 20.00    -0.021 C 
HETATM    2  C2  UNL     1     -35.700  16.710  -6.713  1.00 20.00    -0.059 C 
HETATM    3  C3  UNL     1     -34.509  18.311  -5.187  1.00 20.00     0.032 C 
HETATM    4  C4  UNL     1     -34.042  15.846  -4.982  1.00 20.00     0.042 C 
HETATM    5  C5  UNL     1     -35.187  15.512  -5.948  1.00 20.00     0.149 C 
HETATM    6  C6  UNL     1     -34.323  17.141  -4.209  1.00 20.00    -0.005 C 
HETATM    7  C7  UNL     1     -36.579  16.429  -7.897  1.00 20.00     0.046 C 
ENDROOT
BRANCH   6   8
HETATM    8  C11 UNL     1     -33.207  17.441  -3.211  1.00 20.00    -0.018 C 
HETATM    9  C8  UNL     1     -32.888  18.935  -3.197  1.00 20.00     0.010 C 
HETATM   10  C9  UNL     1     -33.592  16.961  -1.815  1.00 20.00     0.010 C 
ENDBRANCH   6   8
BRANCH   5  11
HETATM   11  O12 UNL     1     -36.256  14.944  -5.193  1.00 20.00    -0.386 OA
HETATM   12  C10 UNL     1     -35.912  13.661  -4.693  1.00 20.00     0.202 C 
ENDBRANCH   5  11
TORSDOF 2
ENDMDL
MODEL 9
REMARK VINA RESULT:      -3.2     11.478     12.715
REMARK  2 active torsions:
REMARK  status: ('A' for Active; 'I' for Inactive)
REMARK    1  A    between atoms: C5_5  and  O12_12 
REMARK    2  A    between atoms: C6_6  and  C11_11 
ROOT
HETATM    1  C1  UNL     1     -33.279   8.609   5.861  1.00 20.00    -0.021 C 
HETATM    2  C2  UNL     1     -32.472   8.947   4.840  1.00 20.00    -0.059 C 
HETATM    3  C3  UNL     1     -34.093   7.349   5.902  1.00 20.00     0.032 C 
HETATM    4  C4  UNL     1     -32.822   6.625   3.853  1.00 20.00     0.042 C 
HETATM    5  C5  UNL     1     -32.280   8.045   3.643  1.00 20.00     0.149 C 
HETATM    6  C6  UNL     1     -34.194   6.646   4.539  1.00 20.00    -0.005 C 
HETATM    7  C7  UNL     1     -31.696  10.232   4.848  1.00 20.00     0.046 C 
ENDROOT
BRANCH   6   8
HETATM    8  C11 UNL     1     -34.753   5.234   4.698  1.00 20.00    -0.018 C 
HETATM    9  C8  UNL     1     -33.876   4.223   3.962  1.00 20.00     0.010 C 
HETATM   10  C9  UNL     1     -34.870   4.867   6.175  1.00 20.00     0.010 C 
ENDBRANCH   6   8
BRANCH   5  11
HETATM   11  O12 UNL     1     -32.945   8.614   2.515  1.00 20.00    -0.386 OA
HETATM   12  C10 UNL     1     -32.241   8.346   1.311  1.00 20.00     0.202 C 
ENDBRANCH   5  11
TORSDOF 2
ENDMDL
