MODEL 1
REMARK VINA RESULT:      -4.0      0.000      0.000
REMARK  1 active torsions:
REMARK  status: ('A' for Active; 'I' for Inactive)
REMARK    1  A    between atoms: C5_5  and  C9_9 
ROOT
HETATM    1  C1  UNL     1     -32.935   5.916   2.710  1.00 20.00     0.049 C 
HETATM    2  C2  UNL     1     -33.857   5.597   3.625  1.00 20.00    -0.018 C 
HETATM    3  C3  UNL     1     -32.356   7.280   2.675  1.00 20.00     0.182 C 
HETATM    4  C4  UNL     1     -34.217   8.013   4.201  1.00 20.00     0.054 C 
HETATM    5  C5  UNL     1     -34.428   6.555   4.635  1.00 20.00     0.014 C 
HETATM    6  C6  UNL     1     -32.801   8.287   3.710  1.00 20.00     0.244 C 
HETATM    7  O10 UNL     1     -31.476   7.545   1.857  1.00 20.00    -0.290 OA
HETATM    8  F11 UNL     1     -31.948   8.286   4.769  1.00 20.00    -0.241 F 
ENDROOT
BRANCH   5   9
HETATM    9  C9  UNL     1     -33.854   6.269   6.022  1.00 20.00    -0.015 C 
HETATM   10  C7  UNL     1     -34.138   7.431   6.969  1.00 20.00     0.010 C 
HETATM   11  C8  UNL     1     -34.425   4.968   6.580  1.00 20.00     0.010 C 
ENDBRANCH   5   9
TORSDOF 1
ENDMDL
MODEL 2
REMARK VINA RESULT:      -4.0      2.145      3.887
REMARK  1 active torsions:
REMARK  status: ('A' for Active; 'I' for Inactive)
REMARK    1  A    between atoms: C5_5  and  C9_9 
ROOT
HETATM    1  C1  UNL     1     -33.456   5.434   3.429  1.00 20.00     0.049 C 
HETATM    2  C2  UNL     1     -32.591   6.134   2.685  1.00 20.00    -0.018 C 
HETATM    3  C3  UNL     1     -34.113   6.062   4.601  1.00 20.00     0.182 C 
HETATM    4  C4  UNL     1     -32.425   7.921   4.439  1.00 20.00     0.054 C 
HETATM    5  C5  UNL     1     -32.161   7.546   2.973  1.00 20.00     0.014 C 
HETATM    6  C6  UNL     1     -33.812   7.509   4.916  1.00 20.00     0.244 C 
HETATM    7  O10 UNL     1     -34.939   5.422   5.249  1.00 20.00    -0.290 OA
HETATM    8  F11 UNL     1     -34.744   8.320   4.349  1.00 20.00    -0.241 F 
ENDROOT
BRANCH   5   9
HETATM    9  C9  UNL     1     -32.824   8.513   1.993  1.00 20.00    -0.015 C 
HETATM   10  C7  UNL     1     -32.731   9.946   2.510  1.00 20.00     0.010 C 
HETATM   11  C8  UNL     1     -32.186   8.396   0.611  1.00 20.00     0.010 C 
ENDBRANCH   5   9
TORSDOF 1
ENDMDL
MODEL 3
REMARK VINA RESULT:      -4.0     12.111     13.409
REMARK  1 active torsions:
REMARK  status: ('A' for Active; 'I' for Inactive)
REMARK    1  A    between atoms: C5_5  and  C9_9 
ROOT
HETATM    1  C1  UNL     1     -33.728  17.352  -1.433  1.00 20.00     0.049 C 
HETATM    2  C2  UNL     1     -33.223  16.623  -2.435  1.00 20.00    -0.018 C 
HETATM    3  C3  UNL     1     -34.594  18.521  -1.722  1.00 20.00     0.182 C 
HETATM    4  C4  UNL     1     -33.821  18.391  -4.112  1.00 20.00     0.054 C 
HETATM    5  C5  UNL     1     -33.414  16.925  -3.896  1.00 20.00     0.014 C 
HETATM    6  C6  UNL     1     -34.918  18.850  -3.160  1.00 20.00     0.244 C 
HETATM    7  O10 UNL     1     -35.088  19.154  -0.790  1.00 20.00    -0.290 OA
HETATM    8  F11 UNL     1     -36.098  18.277  -3.522  1.00 20.00    -0.241 F 
ENDROOT
BRANCH   5   9
HETATM    9  C9  UNL     1     -34.410  15.945  -4.514  1.00 20.00    -0.015 C 
HETATM   10  C7  UNL     1     -34.515  16.168  -6.020  1.00 20.00     0.010 C 
HETATM   11  C8  UNL     1     -34.003  14.506  -4.211  1.00 20.00     0.010 C 
ENDBRANCH   5   9
TORSDOF 1
ENDMDL
MODEL 4
REMARK VINA RESULT:      -3.9     12.234     13.534
REMARK  1 active torsions:
REMARK  status: ('A' for Active; 'I' for Inactive)
REMARK    1  A    between atoms: C5_5  and  C9_9 
ROOT
HETATM    1  C1  UNL     1     -36.622  17.315  -4.977  1.00 20.00     0.049 C 
HETATM    2  C2  UNL     1     -35.334  17.468  -4.652  1.00 20.00    -0.018 C 
HETATM    3  C3  UNL     1     -37.066  16.117  -5.729  1.00 20.00     0.182 C 
HETATM    4  C4  UNL     1     -34.648  15.651  -6.241  1.00 20.00     0.054 C 
HETATM    5  C5  UNL     1     -34.232  16.522  -5.045  1.00 20.00     0.014 C 
HETATM    6  C6  UNL     1     -36.045  15.064  -6.091  1.00 20.00     0.244 C 
HETATM    7  O10 UNL     1     -38.261  15.968  -5.982  1.00 20.00    -0.290 OA
HETATM    8  F11 UNL     1     -36.023  14.083  -5.149  1.00 20.00    -0.241 F 
ENDROOT
BRANCH   5   9
HETATM    9  C9  UNL     1     -33.792  15.690  -3.842  1.00 20.00    -0.015 C 
HETATM   10  C7  UNL     1     -32.674  14.729  -4.235  1.00 20.00     0.010 C 
HETATM   11  C8  UNL     1     -33.344  16.598  -2.699  1.00 20.00     0.010 C 
ENDBRANCH   5   9
TORSDOF 1
ENDMDL
MODEL 5
REMARK VINA RESULT:      -3.9      9.887     11.094
REMARK  1 active torsions:
REMARK  status: ('A' for Active; 'I' for Inactive)
REMARK    1  A    between atoms: C5_5  and  C9_9 
ROOT
HETATM    1  C1  UNL     1     -41.222  14.189   8.283  1.00 20.00     0.049 C 
HETATM    2  C2  UNL     1     -40.354  14.114   7.268  1.00 20.00    -0.018 C 
HETATM    3  C3  UNL     1     -42.588  13.630   8.144  1.00 20.00     0.182 C 
HETATM    4  C4  UNL     1     -42.184  13.499   5.664  1.00 20.00     0.054 C 
HETATM    5  C5  UNL     1     -40.668  13.538   5.914  1.00 20.00     0.014 C 
HETATM    6  C6  UNL     1     -42.967  12.949   6.850  1.00 20.00     0.244 C 
HETATM    7  O10 UNL     1     -43.359  13.666   9.101  1.00 20.00    -0.290 OA
HETATM    8  F11 UNL     1     -42.762  11.608   6.943  1.00 20.00    -0.241 F 
ENDROOT
BRANCH   5   9
HETATM    9  C9  UNL     1     -40.014  12.166   5.756  1.00 20.00    -0.015 C 
HETATM   10  C7  UNL     1     -39.550  11.957   4.318  1.00 20.00     0.010 C 
HETATM   11  C8  UNL     1     -38.845  12.016   6.727  1.00 20.00     0.010 C 
ENDBRANCH   5   9
TORSDOF 1
ENDMDL
MODEL 6
REMARK VINA RESULT:      -3.8      2.550      4.132
REMARK  1 active torsions:
REMARK  status: ('A' for Active; 'I' for Inactive)
REMARK    1  A    between atoms: C5_5  and  C9_9 
ROOT
HETATM    1  C1  UNL     1     -34.057   6.965   6.469  1.00 20.00     0.049 C 
HETATM    2  C2  UNL     1     -33.704   7.835   5.518  1.00 20.00    -0.018 C 
HETATM    3  C3  UNL     1     -34.590   5.630   6.102  1.00 20.00     0.182 C 
HETATM    4  C4  UNL     1     -34.883   6.491   3.757  1.00 20.00     0.054 C 
HETATM    5  C5  UNL     1     -33.856   7.598   4.040  1.00 20.00     0.014 C 
HETATM    6  C6  UNL     1     -34.693   5.265   4.640  1.00 20.00     0.244 C 
HETATM    7  O10 UNL     1     -34.868   4.823   6.988  1.00 20.00    -0.290 OA
HETATM    8  F11 UNL     1     -33.582   4.589   4.241  1.00 20.00    -0.241 F 
ENDROOT
BRANCH   5   9
HETATM    9  C9  UNL     1     -32.496   7.308   3.407  1.00 20.00    -0.015 C 
HETATM   10  C7  UNL     1     -32.522   7.623   1.914  1.00 20.00     0.010 C 
HETATM   11  C8  UNL     1     -31.399   8.107   4.106  1.00 20.00     0.010 C 
ENDBRANCH   5   9
TORSDOF 1
ENDMDL
MODEL 7
REMARK VINA RESULT:      -3.8      2.240      3.651
REMARK  1 active torsions:
REMARK  status: ('A' for Active; 'I' for Inactive)
REMARK    1  A    between atoms: C5_5  and  C9_9 
ROOT
HETATM    1  C1  UNL     1     -33.960   5.624   6.260  1.00 20.00     0.049 C 
HETATM    2  C2  UNL     1     -33.894   6.957   6.172  1.00 20.00    -0.018 C 
HETATM    3  C3  UNL     1     -34.061   4.798   5.033  1.00 20.00     0.182 C 
HETATM    4  C4  UNL     1     -34.614   6.902   3.769  1.00 20.00     0.054 C 
HETATM    5  C5  UNL     1     -33.972   7.736   4.888  1.00 20.00     0.014 C 
HETATM    6  C6  UNL     1     -34.055   5.487   3.688  1.00 20.00     0.244 C 
HETATM    7  O10 UNL     1     -34.076   3.572   5.127  1.00 20.00    -0.290 OA
HETATM    8  F11 UNL     1     -32.792   5.528   3.184  1.00 20.00    -0.241 F 
ENDROOT
BRANCH   5   9
HETATM    9  C9  UNL     1     -32.591   8.265   4.503  1.00 20.00    -0.015 C 
HETATM   10  C7  UNL     1     -32.591   8.762   3.060  1.00 20.00     0.010 C 
HETATM   11  C8  UNL     1     -32.160   9.378   5.455  1.00 20.00     0.010 C 
ENDBRANCH   5   9
TORSDOF 1
ENDMDL
MODEL 8
REMARK VINA RESULT:      -3.7     11.992     12.932
REMARK  1 active torsions:
REMARK  status: ('A' for Active; 'I' for Inactive)
REMARK    1  A    between atoms: C5_5  and  C9_9 
ROOT
HETATM    1  C1  UNL     1     -34.929  16.629  -5.805  1.00 20.00     0.049 C 
HETATM    2  C2  UNL     1     -34.300  17.482  -4.990  1.00 20.00    -0.018 C 
HETATM    3  C3  UNL     1     -34.743  15.167  -5.646  1.00 20.00     0.182 C 
HETATM    4  C4  UNL     1     -32.775  15.670  -4.161  1.00 20.00     0.054 C 
HETATM    5  C5  UNL     1     -33.330  17.080  -3.912  1.00 20.00     0.014 C 
HETATM    6  C6  UNL     1     -33.857  14.663  -4.530  1.00 20.00     0.244 C 
HETATM    7  O10 UNL     1     -35.363  14.393  -6.373  1.00 20.00    -0.290 OA
HETATM    8  F11 UNL     1     -34.601  14.375  -3.428  1.00 20.00    -0.241 F 
ENDROOT
BRANCH   5   9
HETATM    9  C9  UNL     1     -33.979  17.219  -2.535  1.00 20.00    -0.015 C 
HETATM   10  C7  UNL     1     -32.922  17.491  -1.470  1.00 20.00     0.010 C 
HETATM   11  C8  UNL     1     -35.029  18.327  -2.548  1.00 20.00     0.010 C 
ENDBRANCH   5   9
TORSDOF 1
ENDMDL
MODEL 9
REMARK VINA RESULT:      -3.7      1.705      2.280
REMARK  1 active torsions:
REMARK  status: ('A' for Active; 'I' for Inactive)
REMARK    1  A    between atoms: C5_5  and  C9_9 
ROOT
HETATM    1  C1  UNL     1     -32.069   7.758   3.536  1.00 20.00     0.049 C 
HETATM    2  C2  UNL     1     -32.815   6.689   3.237  1.00 20.00    -0.018 C 
HETATM    3  C3  UNL     1     -32.418   8.612   4.696  1.00 20.00     0.182 C 
HETATM    4  C4  UNL     1     -34.656   7.465   4.755  1.00 20.00     0.054 C 
HETATM    5  C5  UNL     1     -34.066   6.285   3.968  1.00 20.00     0.014 C 
HETATM    6  C6  UNL     1     -33.607   8.234   5.548  1.00 20.00     0.244 C 
HETATM    7  O10 UNL     1     -31.697   9.566   4.986  1.00 20.00    -0.290 OA
HETATM    8  F11 UNL     1     -33.208   7.486   6.612  1.00 20.00    -0.241 F 
ENDROOT
BRANCH   5   9
HETATM    9  C9  UNL     1     -33.794   5.070   4.854  1.00 20.00    -0.015 C 
HETATM   10  C7  UNL     1     -34.863   4.945   5.935  1.00 20.00     0.010 C 
HETATM   11  C8  UNL     1     -33.729   3.798   4.012  1.00 20.00     0.010 C 
ENDBRANCH   5   9
TORSDOF 1
ENDMDL
