MODEL 1
REMARK VINA RESULT:      -4.8      0.000      0.000
REMARK  1 active torsions:
REMARK  status: ('A' for Active; 'I' for Inactive)
REMARK    1  A    between atoms: C3_3  and  C8_8 
ROOT
HETATM    1  C1  UNL     1     -33.937   4.953   4.177  1.00 20.00     0.145 C 
HETATM    2  C4  UNL     1     -33.359   5.389   2.847  1.00 20.00     0.080 C 
HETATM    3  C5  UNL     1     -32.447   6.598   3.027  1.00 20.00     0.016 C 
HETATM    4  C6  UNL     1     -33.646   7.242   5.147  1.00 20.00     0.036 C 
HETATM    5  C7  UNL     1     -34.588   6.050   5.001  1.00 20.00     0.152 C 
HETATM    6  C8  UNL     1     -33.153   7.736   3.778  1.00 20.00     0.009 C 
HETATM    7  O9  UNL     1     -33.952   3.764   4.492  1.00 20.00    -0.296 OA
HETATM    8 CL10 UNL     1     -35.028   5.421   6.606  1.00 20.00    -0.117 Cl
ENDROOT
BRANCH   6   9
HETATM    9  C3  UNL     1     -32.242   8.913   3.944  1.00 20.00    -0.032 C 
HETATM   10  C2  UNL     1     -31.986   9.500   5.118  1.00 20.00     0.007 C 
ENDBRANCH   6   9
TORSDOF 1
ENDMDL
MODEL 2
REMARK VINA RESULT:      -4.5      1.971      2.857
REMARK  1 active torsions:
REMARK  status: ('A' for Active; 'I' for Inactive)
REMARK    1  A    between atoms: C3_3  and  C8_8 
ROOT
HETATM    1  C1  UNL     1     -33.598   7.268   5.429  1.00 20.00     0.145 C 
HETATM    2  C4  UNL     1     -32.661   8.435   5.197  1.00 20.00     0.080 C 
HETATM    3  C5  UNL     1     -32.582   8.776   3.713  1.00 20.00     0.016 C 
HETATM    4  C6  UNL     1     -33.264   6.431   3.093  1.00 20.00     0.036 C 
HETATM    5  C7  UNL     1     -33.346   6.044   4.567  1.00 20.00     0.152 C 
HETATM    6  C8  UNL     1     -32.232   7.545   2.864  1.00 20.00     0.009 C 
HETATM    7  O9  UNL     1     -34.432   7.306   6.333  1.00 20.00    -0.296 OA
HETATM    8 CL10 UNL     1     -34.644   4.853   4.813  1.00 20.00    -0.117 Cl
ENDROOT
BRANCH   6   9
HETATM    9  C3  UNL     1     -32.159   7.901   1.411  1.00 20.00    -0.032 C 
HETATM   10  C2  UNL     1     -32.584   9.063   0.904  1.00 20.00     0.007 C 
ENDBRANCH   6   9
TORSDOF 1
ENDMDL
MODEL 3
REMARK VINA RESULT:      -4.1     15.632     16.576
REMARK  1 active torsions:
REMARK  status: ('A' for Active; 'I' for Inactive)
REMARK    1  A    between atoms: C3_3  and  C8_8 
ROOT
HETATM    1  C1  UNL     1     -22.964  18.923   8.121  1.00 20.00     0.145 C 
HETATM    2  C4  UNL     1     -21.739  18.745   8.993  1.00 20.00     0.080 C 
HETATM    3  C5  UNL     1     -22.027  17.777  10.135  1.00 20.00     0.016 C 
HETATM    4  C6  UNL     1     -24.494  18.277   9.995  1.00 20.00     0.036 C 
HETATM    5  C7  UNL     1     -24.249  19.263   8.856  1.00 20.00     0.152 C 
HETATM    6  C8  UNL     1     -23.276  18.189  10.929  1.00 20.00     0.009 C 
HETATM    7  O9  UNL     1     -22.869  18.888   6.895  1.00 20.00    -0.296 OA
HETATM    8 CL10 UNL     1     -25.620  19.236   7.723  1.00 20.00    -0.117 Cl
ENDROOT
BRANCH   6   9
HETATM    9  C3  UNL     1     -23.542  17.228  12.046  1.00 20.00    -0.032 C 
HETATM   10  C2  UNL     1     -24.325  16.150  11.933  1.00 20.00     0.007 C 
ENDBRANCH   6   9
TORSDOF 1
ENDMDL
MODEL 4
REMARK VINA RESULT:      -4.1      2.645      3.724
REMARK  1 active torsions:
REMARK  status: ('A' for Active; 'I' for Inactive)
REMARK    1  A    between atoms: C3_3  and  C8_8 
ROOT
HETATM    1  C1  UNL     1     -32.385   7.263   2.564  1.00 20.00     0.145 C 
HETATM    2  C4  UNL     1     -32.548   5.762   2.436  1.00 20.00     0.080 C 
HETATM    3  C5  UNL     1     -33.721   5.274   3.278  1.00 20.00     0.016 C 
HETATM    4  C6  UNL     1     -33.525   7.278   4.793  1.00 20.00     0.036 C 
HETATM    5  C7  UNL     1     -32.340   7.799   3.984  1.00 20.00     0.152 C 
HETATM    6  C8  UNL     1     -33.611   5.745   4.735  1.00 20.00     0.009 C 
HETATM    7  O9  UNL     1     -32.203   7.960   1.567  1.00 20.00    -0.296 OA
HETATM    8 CL10 UNL     1     -32.354   9.577   3.961  1.00 20.00    -0.117 Cl
ENDROOT
BRANCH   6   9
HETATM    9  C3  UNL     1     -34.771   5.255   5.545  1.00 20.00    -0.032 C 
HETATM   10  C2  UNL     1     -35.082   5.716   6.761  1.00 20.00     0.007 C 
ENDBRANCH   6   9
TORSDOF 1
ENDMDL
MODEL 5
REMARK VINA RESULT:      -4.1      1.429      1.961
REMARK  1 active torsions:
REMARK  status: ('A' for Active; 'I' for Inactive)
REMARK    1  A    between atoms: C3_3  and  C8_8 
ROOT
HETATM    1  C1  UNL     1     -34.142   5.390   4.990  1.00 20.00     0.145 C 
HETATM    2  C4  UNL     1     -34.003   4.800   3.602  1.00 20.00     0.080 C 
HETATM    3  C5  UNL     1     -32.878   5.486   2.836  1.00 20.00     0.016 C 
HETATM    4  C6  UNL     1     -33.103   7.549   4.265  1.00 20.00     0.036 C 
HETATM    5  C7  UNL     1     -34.241   6.904   5.052  1.00 20.00     0.152 C 
HETATM    6  C8  UNL     1     -33.045   7.012   2.826  1.00 20.00     0.009 C 
HETATM    7  O9  UNL     1     -34.267   4.658   5.971  1.00 20.00    -0.296 OA
HETATM    8 CL10 UNL     1     -34.192   7.445   6.746  1.00 20.00    -0.117 Cl
ENDROOT
BRANCH   6   9
HETATM    9  C3  UNL     1     -31.931   7.667   2.069  1.00 20.00    -0.032 C 
HETATM   10  C2  UNL     1     -32.112   8.430   0.985  1.00 20.00     0.007 C 
ENDBRANCH   6   9
TORSDOF 1
ENDMDL
MODEL 6
REMARK VINA RESULT:      -4.0     12.707     13.539
REMARK  1 active torsions:
REMARK  status: ('A' for Active; 'I' for Inactive)
REMARK    1  A    between atoms: C3_3  and  C8_8 
ROOT
HETATM    1  C1  UNL     1     -34.600  15.366  -5.986  1.00 20.00     0.145 C 
HETATM    2  C4  UNL     1     -33.533  14.660  -5.176  1.00 20.00     0.080 C 
HETATM    3  C5  UNL     1     -33.590  15.092  -3.715  1.00 20.00     0.016 C 
HETATM    4  C6  UNL     1     -34.694  17.265  -4.357  1.00 20.00     0.036 C 
HETATM    5  C7  UNL     1     -34.648  16.876  -5.832  1.00 20.00     0.152 C 
HETATM    6  C8  UNL     1     -33.541  16.620  -3.573  1.00 20.00     0.009 C 
HETATM    7  O9  UNL     1     -35.298  14.740  -6.782  1.00 20.00    -0.296 OA
HETATM    8 CL10 UNL     1     -36.072  17.526  -6.678  1.00 20.00    -0.117 Cl
ENDROOT
BRANCH   6   9
HETATM    9  C3  UNL     1     -33.598  17.025  -2.132  1.00 20.00    -0.032 C 
HETATM   10  C2  UNL     1     -32.701  17.824  -1.544  1.00 20.00     0.007 C 
ENDBRANCH   6   9
TORSDOF 1
ENDMDL
MODEL 7
REMARK VINA RESULT:      -3.9      2.883      4.433
REMARK  1 active torsions:
REMARK  status: ('A' for Active; 'I' for Inactive)
REMARK    1  A    between atoms: C3_3  and  C8_8 
ROOT
HETATM    1  C1  UNL     1     -32.769   8.731   4.811  1.00 20.00     0.145 C 
HETATM    2  C4  UNL     1     -33.668   8.490   6.006  1.00 20.00     0.080 C 
HETATM    3  C5  UNL     1     -33.916   6.998   6.202  1.00 20.00     0.016 C 
HETATM    4  C6  UNL     1     -33.437   6.555   3.768  1.00 20.00     0.036 C 
HETATM    5  C7  UNL     1     -33.190   8.042   3.525  1.00 20.00     0.152 C 
HETATM    6  C8  UNL     1     -34.433   6.335   4.917  1.00 20.00     0.009 C 
HETATM    7  O9  UNL     1     -31.827   9.519   4.886  1.00 20.00    -0.296 OA
HETATM    8 CL10 UNL     1     -31.933   8.255   2.285  1.00 20.00    -0.117 Cl
ENDROOT
BRANCH   6   9
HETATM    9  C3  UNL     1     -34.671   4.871   5.130  1.00 20.00    -0.032 C 
HETATM   10  C2  UNL     1     -33.906   3.907   4.607  1.00 20.00     0.007 C 
ENDBRANCH   6   9
TORSDOF 1
ENDMDL
MODEL 8
REMARK VINA RESULT:      -3.9     15.698     16.473
REMARK  1 active torsions:
REMARK  status: ('A' for Active; 'I' for Inactive)
REMARK    1  A    between atoms: C3_3  and  C8_8 
ROOT
HETATM    1  C1  UNL     1     -23.134  17.788  10.074  1.00 20.00     0.145 C 
HETATM    2  C4  UNL     1     -23.216  17.458  11.550  1.00 20.00     0.080 C 
HETATM    3  C5  UNL     1     -24.643  17.627  12.061  1.00 20.00     0.016 C 
HETATM    4  C6  UNL     1     -25.162  19.251  10.204  1.00 20.00     0.036 C 
HETATM    5  C7  UNL     1     -23.740  19.119   9.665  1.00 20.00     0.152 C 
HETATM    6  C8  UNL     1     -25.207  19.014  11.722  1.00 20.00     0.009 C 
HETATM    7  O9  UNL     1     -22.520  17.052   9.302  1.00 20.00    -0.296 OA
HETATM    8 CL10 UNL     1     -23.747  19.261   7.891  1.00 20.00    -0.117 Cl
ENDROOT
BRANCH   6   9
HETATM    9  C3  UNL     1     -26.608  19.161  12.233  1.00 20.00    -0.032 C 
HETATM   10  C2  UNL     1     -27.476  18.149  12.332  1.00 20.00     0.007 C 
ENDBRANCH   6   9
TORSDOF 1
ENDMDL
MODEL 9
REMARK VINA RESULT:      -3.8     12.250     13.400
REMARK  1 active torsions:
REMARK  status: ('A' for Active; 'I' for Inactive)
REMARK    1  A    between atoms: C3_3  and  C8_8 
ROOT
HETATM    1  C1  UNL     1     -34.945  18.675  -2.287  1.00 20.00     0.145 C 
HETATM    2  C4  UNL     1     -34.915  18.639  -3.801  1.00 20.00     0.080 C 
HETATM    3  C5  UNL     1     -34.616  17.230  -4.300  1.00 20.00     0.016 C 
HETATM    4  C6  UNL     1     -33.474  16.656  -2.128  1.00 20.00     0.036 C 
HETATM    5  C7  UNL     1     -33.743  18.060  -1.593  1.00 20.00     0.152 C 
HETATM    6  C8  UNL     1     -33.343  16.658  -3.659  1.00 20.00     0.009 C 
HETATM    7  O9  UNL     1     -35.848  19.263  -1.694  1.00 20.00    -0.296 OA
HETATM    8 CL10 UNL     1     -34.025  17.997   0.163  1.00 20.00    -0.117 Cl
ENDROOT
BRANCH   6   9
HETATM    9  C3  UNL     1     -33.067  15.274  -4.162  1.00 20.00    -0.032 C 
HETATM   10  C2  UNL     1     -34.005  14.334  -4.316  1.00 20.00     0.007 C 
ENDBRANCH   6   9
TORSDOF 1
ENDMDL
