MODEL 1
REMARK VINA RESULT:      -4.9      0.000      0.000
REMARK  1 active torsions:
REMARK  status: ('A' for Active; 'I' for Inactive)
REMARK    1  A    between atoms: C3_3  and  C8_8 
ROOT
HETATM    1  C1  UNL     1     -33.798   5.546   4.084  1.00 20.00     0.145 C 
HETATM    2  C4  UNL     1     -32.782   5.982   3.043  1.00 20.00     0.088 C 
HETATM    3  C5  UNL     1     -33.125   7.620   5.300  1.00 20.00     0.028 C 
HETATM    4  C6  UNL     1     -32.732   8.332   4.000  1.00 20.00     0.011 C 
HETATM    5  C7  UNL     1     -34.238   6.601   5.086  1.00 20.00     0.151 C 
HETATM    6  C8  UNL     1     -32.949   7.472   2.743  1.00 20.00     0.014 C 
HETATM    7  O9  UNL     1     -34.231   4.394   4.091  1.00 20.00    -0.296 OA
HETATM    8 CL10 UNL     1     -34.636   5.806   6.627  1.00 20.00    -0.117 Cl
ENDROOT
BRANCH   6   9
HETATM    9  C3  UNL     1     -32.042   7.913   1.637  1.00 20.00    -0.032 C 
HETATM   10  C2  UNL     1     -32.376   8.819   0.711  1.00 20.00     0.007 C 
ENDBRANCH   6   9
TORSDOF 1
ENDMDL
MODEL 2
REMARK VINA RESULT:      -4.8      2.453      4.014
REMARK  1 active torsions:
REMARK  status: ('A' for Active; 'I' for Inactive)
REMARK    1  A    between atoms: C3_3  and  C8_8 
ROOT
HETATM    1  C1  UNL     1     -32.923   6.257   2.935  1.00 20.00     0.145 C 
HETATM    2  C4  UNL     1     -33.877   6.085   4.103  1.00 20.00     0.088 C 
HETATM    3  C5  UNL     1     -32.952   8.678   3.542  1.00 20.00     0.028 C 
HETATM    4  C6  UNL     1     -33.257   8.371   5.013  1.00 20.00     0.011 C 
HETATM    5  C7  UNL     1     -32.152   7.566   2.874  1.00 20.00     0.151 C 
HETATM    6  C8  UNL     1     -33.365   6.866   5.314  1.00 20.00     0.014 C 
HETATM    7  O9  UNL     1     -32.795   5.365   2.096  1.00 20.00    -0.296 OA
HETATM    8 CL10 UNL     1     -31.844   7.980   1.172  1.00 20.00    -0.117 Cl
ENDROOT
BRANCH   6   9
HETATM    9  C3  UNL     1     -34.218   6.627   6.521  1.00 20.00    -0.032 C 
HETATM   10  C2  UNL     1     -34.893   5.495   6.747  1.00 20.00     0.007 C 
ENDBRANCH   6   9
TORSDOF 1
ENDMDL
MODEL 3
REMARK VINA RESULT:      -4.4      2.855      4.557
REMARK  1 active torsions:
REMARK  status: ('A' for Active; 'I' for Inactive)
REMARK    1  A    between atoms: C3_3  and  C8_8 
ROOT
HETATM    1  C1  UNL     1     -32.648   8.492   3.739  1.00 20.00     0.145 C 
HETATM    2  C4  UNL     1     -32.950   7.842   5.078  1.00 20.00     0.088 C 
HETATM    3  C5  UNL     1     -32.787   6.175   2.821  1.00 20.00     0.028 C 
HETATM    4  C6  UNL     1     -33.750   5.726   3.927  1.00 20.00     0.011 C 
HETATM    5  C7  UNL     1     -32.929   7.658   2.500  1.00 20.00     0.151 C 
HETATM    6  C8  UNL     1     -34.098   6.843   4.925  1.00 20.00     0.014 C 
HETATM    7  O9  UNL     1     -32.204   9.640   3.688  1.00 20.00    -0.296 OA
HETATM    8 CL10 UNL     1     -31.779   8.114   1.221  1.00 20.00    -0.117 Cl
ENDROOT
BRANCH   6   9
HETATM    9  C3  UNL     1     -34.503   6.267   6.246  1.00 20.00    -0.032 C 
HETATM   10  C2  UNL     1     -34.512   4.958   6.520  1.00 20.00     0.007 C 
ENDBRANCH   6   9
TORSDOF 1
ENDMDL
MODEL 4
REMARK VINA RESULT:      -4.3      1.508      2.187
REMARK  1 active torsions:
REMARK  status: ('A' for Active; 'I' for Inactive)
REMARK    1  A    between atoms: C3_3  and  C8_8 
ROOT
HETATM    1  C1  UNL     1     -33.613   7.753   5.051  1.00 20.00     0.145 C 
HETATM    2  C4  UNL     1     -33.264   8.305   3.680  1.00 20.00     0.088 C 
HETATM    3  C5  UNL     1     -33.929   5.581   3.861  1.00 20.00     0.028 C 
HETATM    4  C6  UNL     1     -32.927   5.963   2.764  1.00 20.00     0.011 C 
HETATM    5  C7  UNL     1     -33.602   6.239   5.196  1.00 20.00     0.151 C 
HETATM    6  C8  UNL     1     -32.304   7.355   2.964  1.00 20.00     0.014 C 
HETATM    7  O9  UNL     1     -33.882   8.513   5.981  1.00 20.00    -0.296 OA
HETATM    8 CL10 UNL     1     -34.807   5.765   6.416  1.00 20.00    -0.117 Cl
ENDROOT
BRANCH   6   9
HETATM    9  C3  UNL     1     -31.845   7.922   1.657  1.00 20.00    -0.032 C 
HETATM   10  C2  UNL     1     -32.558   8.783   0.923  1.00 20.00     0.007 C 
ENDBRANCH   6   9
TORSDOF 1
ENDMDL
MODEL 5
REMARK VINA RESULT:      -4.2     16.267     16.856
REMARK  1 active torsions:
REMARK  status: ('A' for Active; 'I' for Inactive)
REMARK    1  A    between atoms: C3_3  and  C8_8 
ROOT
HETATM    1  C1  UNL     1     -23.788  18.776   8.587  1.00 20.00     0.145 C 
HETATM    2  C4  UNL     1     -24.580  19.262   9.787  1.00 20.00     0.088 C 
HETATM    3  C5  UNL     1     -21.936  18.415  10.222  1.00 20.00     0.028 C 
HETATM    4  C6  UNL     1     -22.917  18.197  11.381  1.00 20.00     0.011 C 
HETATM    5  C7  UNL     1     -22.523  17.986   8.882  1.00 20.00     0.151 C 
HETATM    6  C8  UNL     1     -24.393  18.298  10.960  1.00 20.00     0.014 C 
HETATM    7  O9  UNL     1     -24.174  19.019   7.443  1.00 20.00    -0.296 OA
HETATM    8 CL10 UNL     1     -21.341  18.277   7.584  1.00 20.00    -0.117 Cl
ENDROOT
BRANCH   6   9
HETATM    9  C3  UNL     1     -25.251  18.679  12.125  1.00 20.00    -0.032 C 
HETATM   10  C2  UNL     1     -26.449  19.263  12.013  1.00 20.00     0.007 C 
ENDBRANCH   6   9
TORSDOF 1
ENDMDL
MODEL 6
REMARK VINA RESULT:      -4.1     12.001     12.380
REMARK  1 active torsions:
REMARK  status: ('A' for Active; 'I' for Inactive)
REMARK    1  A    between atoms: C3_3  and  C8_8 
ROOT
HETATM    1  C1  UNL     1     -31.434  18.721   0.048  1.00 20.00     0.145 C 
HETATM    2  C4  UNL     1     -31.905  18.605  -1.390  1.00 20.00     0.088 C 
HETATM    3  C5  UNL     1     -33.851  18.501   0.634  1.00 20.00     0.028 C 
HETATM    4  C6  UNL     1     -34.152  17.697  -0.637  1.00 20.00     0.011 C 
HETATM    5  C7  UNL     1     -32.423  18.295   1.123  1.00 20.00     0.151 C 
HETATM    6  C8  UNL     1     -32.913  17.463  -1.519  1.00 20.00     0.014 C 
HETATM    7  O9  UNL     1     -30.304  19.136   0.305  1.00 20.00    -0.296 OA
HETATM    8 CL10 UNL     1     -32.139  19.263   2.588  1.00 20.00    -0.117 Cl
ENDROOT
BRANCH   6   9
HETATM    9  C3  UNL     1     -33.312  17.242  -2.945  1.00 20.00    -0.032 C 
HETATM   10  C2  UNL     1     -33.264  16.056  -3.560  1.00 20.00     0.007 C 
ENDBRANCH   6   9
TORSDOF 1
ENDMDL
MODEL 7
REMARK VINA RESULT:      -4.0     11.697     12.707
REMARK  1 active torsions:
REMARK  status: ('A' for Active; 'I' for Inactive)
REMARK    1  A    between atoms: C3_3  and  C8_8 
ROOT
HETATM    1  C1  UNL     1     -33.769  15.184  -4.279  1.00 20.00     0.145 C 
HETATM    2  C4  UNL     1     -33.515  15.942  -2.988  1.00 20.00     0.088 C 
HETATM    3  C5  UNL     1     -35.275  17.090  -4.854  1.00 20.00     0.028 C 
HETATM    4  C6  UNL     1     -34.471  18.069  -3.990  1.00 20.00     0.011 C 
HETATM    5  C7  UNL     1     -34.408  15.969  -5.414  1.00 20.00     0.151 C 
HETATM    6  C8  UNL     1     -33.263  17.419  -3.293  1.00 20.00     0.014 C 
HETATM    7  O9  UNL     1     -33.461  13.996  -4.377  1.00 20.00    -0.296 OA
HETATM    8 CL10 UNL     1     -35.403  14.866  -6.393  1.00 20.00    -0.117 Cl
ENDROOT
BRANCH   6   9
HETATM    9  C3  UNL     1     -32.892  18.179  -2.058  1.00 20.00    -0.032 C 
HETATM   10  C2  UNL     1     -33.406  17.935  -0.847  1.00 20.00     0.007 C 
ENDBRANCH   6   9
TORSDOF 1
ENDMDL
MODEL 8
REMARK VINA RESULT:      -3.9     12.429     13.550
REMARK  1 active torsions:
REMARK  status: ('A' for Active; 'I' for Inactive)
REMARK    1  A    between atoms: C3_3  and  C8_8 
ROOT
HETATM    1  C1  UNL     1     -35.741  15.158  -6.413  1.00 20.00     0.145 C 
HETATM    2  C4  UNL     1     -35.022  14.910  -5.099  1.00 20.00     0.088 C 
HETATM    3  C5  UNL     1     -36.302  17.388  -5.442  1.00 20.00     0.028 C 
HETATM    4  C6  UNL     1     -35.049  17.389  -4.557  1.00 20.00     0.011 C 
HETATM    5  C7  UNL     1     -36.097  16.602  -6.731  1.00 20.00     0.151 C 
HETATM    6  C8  UNL     1     -34.180  16.132  -4.727  1.00 20.00     0.014 C 
HETATM    7  O9  UNL     1     -36.006  14.222  -7.167  1.00 20.00    -0.296 OA
HETATM    8 CL10 UNL     1     -37.588  16.631  -7.701  1.00 20.00    -0.117 Cl
ENDROOT
BRANCH   6   9
HETATM    9  C3  UNL     1     -33.365  15.881  -3.497  1.00 20.00    -0.032 C 
HETATM   10  C2  UNL     1     -33.369  16.675  -2.421  1.00 20.00     0.007 C 
ENDBRANCH   6   9
TORSDOF 1
ENDMDL
MODEL 9
REMARK VINA RESULT:      -3.9     12.291     13.115
REMARK  1 active torsions:
REMARK  status: ('A' for Active; 'I' for Inactive)
REMARK    1  A    between atoms: C3_3  and  C8_8 
ROOT
HETATM    1  C1  UNL     1     -35.481  16.790  -5.233  1.00 20.00     0.145 C 
HETATM    2  C4  UNL     1     -34.498  17.446  -4.281  1.00 20.00     0.088 C 
HETATM    3  C5  UNL     1     -33.782  14.969  -5.397  1.00 20.00     0.028 C 
HETATM    4  C6  UNL     1     -33.240  15.260  -3.992  1.00 20.00     0.011 C 
HETATM    5  C7  UNL     1     -35.260  15.314  -5.529  1.00 20.00     0.151 C 
HETATM    6  C8  UNL     1     -33.971  16.413  -3.283  1.00 20.00     0.014 C 
HETATM    7  O9  UNL     1     -36.404  17.440  -5.724  1.00 20.00    -0.296 OA
HETATM    8 CL10 UNL     1     -35.819  14.964  -7.181  1.00 20.00    -0.117 Cl
ENDROOT
BRANCH   6   9
HETATM    9  C3  UNL     1     -33.088  17.047  -2.254  1.00 20.00    -0.032 C 
HETATM   10  C2  UNL     1     -33.531  17.561  -1.102  1.00 20.00     0.007 C 
ENDBRANCH   6   9
TORSDOF 1
ENDMDL
