MODEL 1
REMARK VINA RESULT:      -5.6      0.000      0.000
REMARK  2 active torsions:
REMARK  status: ('A' for Active; 'I' for Inactive)
REMARK    1  A    between atoms: C2_2  and  C3_3 
REMARK    2  A    between atoms: C3_3  and  O11_11 
ROOT
HETATM    1  C1  UNL     1     -33.358   8.136   4.715  1.00 20.00    -0.069 C 
HETATM    2  C2  UNL     1     -32.600   8.854   3.890  1.00 20.00     0.084 C 
HETATM    3  C4  UNL     1     -33.664   8.189   6.230  1.00 20.00     0.040 C 
HETATM    4  C5  UNL     1     -34.637   4.666   5.071  1.00 20.00     0.001 C 
HETATM    5  C6  UNL     1     -34.053   5.592   3.974  1.00 20.00     0.009 C 
HETATM    6  C7  UNL     1     -34.684   5.522   6.359  1.00 20.00     0.005 C 
HETATM    7  C8  UNL     1     -34.284   6.960   4.570  1.00 20.00     0.019 C 
HETATM    8  C9  UNL     1     -33.742   6.653   6.003  1.00 20.00    -0.002 C 
ENDROOT
BRANCH   2   9
HETATM    9  C3  UNL     1     -32.472   8.593   2.441  1.00 20.00     0.165 C 
HETATM   10  O10 UNL     1     -32.038   7.544   1.988  1.00 20.00    -0.647 OA
BRANCH   9  11
HETATM   11  O11 UNL     1     -32.885   9.634   1.685  1.00 20.00    -0.773 OA
HETATM   12  H23 UNL     1     -33.634   9.390   1.100  1.00 20.00     0.167 HD
ENDBRANCH   9  11
ENDBRANCH   2   9
TORSDOF 2
ENDMDL
MODEL 2
REMARK VINA RESULT:      -4.6      2.669      4.144
REMARK  2 active torsions:
REMARK  status: ('A' for Active; 'I' for Inactive)
REMARK    1  A    between atoms: C2_2  and  C3_3 
REMARK    2  A    between atoms: C3_3  and  O11_11 
ROOT
HETATM    1  C1  UNL     1     -33.545   7.535   5.362  1.00 20.00    -0.069 C 
HETATM    2  C2  UNL     1     -34.340   6.837   6.170  1.00 20.00     0.084 C 
HETATM    3  C4  UNL     1     -33.187   9.033   5.222  1.00 20.00     0.040 C 
HETATM    4  C5  UNL     1     -32.221   7.390   1.894  1.00 20.00     0.001 C 
HETATM    5  C6  UNL     1     -32.852   6.445   2.947  1.00 20.00     0.009 C 
HETATM    6  C7  UNL     1     -32.136   8.777   2.576  1.00 20.00     0.005 C 
HETATM    7  C8  UNL     1     -32.613   7.206   4.228  1.00 20.00     0.019 C 
HETATM    8  C9  UNL     1     -33.101   8.604   3.729  1.00 20.00    -0.002 C 
ENDROOT
BRANCH   2   9
HETATM    9  C3  UNL     1     -34.517   5.372   6.099  1.00 20.00     0.165 C 
HETATM   10  O10 UNL     1     -33.872   4.589   6.782  1.00 20.00    -0.647 OA
BRANCH   9  11
HETATM   11  O11 UNL     1     -35.460   5.002   5.206  1.00 20.00    -0.773 OA
HETATM   12  H23 UNL     1     -35.114   4.992   4.288  1.00 20.00     0.167 HD
ENDBRANCH   9  11
ENDBRANCH   2   9
TORSDOF 2
ENDMDL
MODEL 3
REMARK VINA RESULT:      -4.4      1.173      2.247
REMARK  2 active torsions:
REMARK  status: ('A' for Active; 'I' for Inactive)
REMARK    1  A    between atoms: C2_2  and  C3_3 
REMARK    2  A    between atoms: C3_3  and  O11_11 
ROOT
HETATM    1  C1  UNL     1     -32.793   6.624   2.956  1.00 20.00    -0.069 C 
HETATM    2  C2  UNL     1     -32.514   7.628   2.126  1.00 20.00     0.084 C 
HETATM    3  C4  UNL     1     -32.864   5.086   2.813  1.00 20.00     0.040 C 
HETATM    4  C5  UNL     1     -34.845   5.954   5.980  1.00 20.00     0.001 C 
HETATM    5  C6  UNL     1     -34.246   7.161   5.215  1.00 20.00     0.009 C 
HETATM    6  C7  UNL     1     -34.391   4.698   5.197  1.00 20.00     0.005 C 
HETATM    7  C8  UNL     1     -33.149   6.506   4.412  1.00 20.00     0.019 C 
HETATM    8  C9  UNL     1     -33.984   5.301   3.870  1.00 20.00    -0.002 C 
ENDROOT
BRANCH   2   9
HETATM    9  C3  UNL     1     -32.515   9.053   2.516  1.00 20.00     0.165 C 
HETATM   10  O10 UNL     1     -32.226   9.436   3.640  1.00 20.00    -0.647 OA
BRANCH   9  11
HETATM   11  O11 UNL     1     -32.866   9.871   1.501  1.00 20.00    -0.773 OA
HETATM   12  H23 UNL     1     -32.313   9.728   0.704  1.00 20.00     0.167 HD
ENDBRANCH   9  11
ENDBRANCH   2   9
TORSDOF 2
ENDMDL
MODEL 4
REMARK VINA RESULT:      -4.4     12.023     13.556
REMARK  2 active torsions:
REMARK  status: ('A' for Active; 'I' for Inactive)
REMARK    1  A    between atoms: C2_2  and  C3_3 
REMARK    2  A    between atoms: C3_3  and  O11_11 
ROOT
HETATM    1  C1  UNL     1     -34.502  17.381  -5.566  1.00 20.00    -0.069 C 
HETATM    2  C2  UNL     1     -34.547  16.708  -6.713  1.00 20.00     0.084 C 
HETATM    3  C4  UNL     1     -34.505  18.881  -5.187  1.00 20.00     0.040 C 
HETATM    4  C5  UNL     1     -33.129  17.013  -2.133  1.00 20.00     0.001 C 
HETATM    5  C6  UNL     1     -33.486  16.127  -3.353  1.00 20.00     0.009 C 
HETATM    6  C7  UNL     1     -33.503  18.458  -2.544  1.00 20.00     0.005 C 
HETATM    7  C8  UNL     1     -34.446  17.013  -4.109  1.00 20.00     0.019 C 
HETATM    8  C9  UNL     1     -33.602  18.327  -4.048  1.00 20.00    -0.002 C 
ENDROOT
BRANCH   2   9
HETATM    9  C3  UNL     1     -34.529  15.234  -6.813  1.00 20.00     0.165 C 
HETATM   10  O10 UNL     1     -35.540  14.565  -6.966  1.00 20.00    -0.647 OA
BRANCH   9  11
HETATM   11  O11 UNL     1     -33.284  14.720  -6.719  1.00 20.00    -0.773 OA
HETATM   12  H23 UNL     1     -32.760  15.153  -6.012  1.00 20.00     0.167 HD
ENDBRANCH   9  11
ENDBRANCH   2   9
TORSDOF 2
ENDMDL
MODEL 5
REMARK VINA RESULT:      -4.3     11.831     12.984
REMARK  2 active torsions:
REMARK  status: ('A' for Active; 'I' for Inactive)
REMARK    1  A    between atoms: C2_2  and  C3_3 
REMARK    2  A    between atoms: C3_3  and  O11_11 
ROOT
HETATM    1  C1  UNL     1     -33.584  16.373  -3.538  1.00 20.00    -0.069 C 
HETATM    2  C2  UNL     1     -33.510  15.162  -4.088  1.00 20.00     0.084 C 
HETATM    3  C4  UNL     1     -33.021  17.013  -2.248  1.00 20.00     0.040 C 
HETATM    4  C5  UNL     1     -35.913  19.263  -3.382  1.00 20.00     0.001 C 
HETATM    5  C6  UNL     1     -35.650  18.017  -4.264  1.00 20.00     0.009 C 
HETATM    6  C7  UNL     1     -34.830  19.226  -2.276  1.00 20.00     0.005 C 
HETATM    7  C8  UNL     1     -34.221  17.682  -3.911  1.00 20.00     0.019 C 
HETATM    8  C9  UNL     1     -34.365  17.788  -2.358  1.00 20.00    -0.002 C 
ENDROOT
BRANCH   2   9
HETATM    9  C3  UNL     1     -34.156  14.789  -5.364  1.00 20.00     0.165 C 
HETATM   10  O10 UNL     1     -35.359  14.605  -5.473  1.00 20.00    -0.647 OA
BRANCH   9  11
HETATM   11  O11 UNL     1     -33.275  14.679  -6.382  1.00 20.00    -0.773 OA
HETATM   12  H23 UNL     1     -33.675  14.256  -7.171  1.00 20.00     0.167 HD
ENDBRANCH   9  11
ENDBRANCH   2   9
TORSDOF 2
ENDMDL
MODEL 6
REMARK VINA RESULT:      -4.2     11.883     13.083
REMARK  2 active torsions:
REMARK  status: ('A' for Active; 'I' for Inactive)
REMARK    1  A    between atoms: C2_2  and  C3_3 
REMARK    2  A    between atoms: C3_3  and  O11_11 
ROOT
HETATM    1  C1  UNL     1     -34.131  15.484  -4.440  1.00 20.00    -0.069 C 
HETATM    2  C2  UNL     1     -34.790  14.393  -4.825  1.00 20.00     0.084 C 
HETATM    3  C4  UNL     1     -32.857  15.742  -3.602  1.00 20.00     0.040 C 
HETATM    4  C5  UNL     1     -34.805  19.046  -3.629  1.00 20.00     0.001 C 
HETATM    5  C6  UNL     1     -35.471  17.872  -4.388  1.00 20.00     0.009 C 
HETATM    6  C7  UNL     1     -33.460  18.491  -3.101  1.00 20.00     0.005 C 
HETATM    7  C8  UNL     1     -34.294  16.964  -4.650  1.00 20.00     0.019 C 
HETATM    8  C9  UNL     1     -33.686  16.999  -3.210  1.00 20.00    -0.002 C 
ENDROOT
BRANCH   2   9
HETATM    9  C3  UNL     1     -36.018  14.411  -5.646  1.00 20.00     0.165 C 
HETATM   10  O10 UNL     1     -36.009  14.284  -6.862  1.00 20.00    -0.647 OA
BRANCH   9  11
HETATM   11  O11 UNL     1     -37.136  14.580  -4.909  1.00 20.00    -0.773 OA
HETATM   12  H23 UNL     1     -37.498  15.488  -4.991  1.00 20.00     0.167 HD
ENDBRANCH   9  11
ENDBRANCH   2   9
TORSDOF 2
ENDMDL
MODEL 7
REMARK VINA RESULT:      -4.2      9.545     10.660
REMARK  2 active torsions:
REMARK  status: ('A' for Active; 'I' for Inactive)
REMARK    1  A    between atoms: C2_2  and  C3_3 
REMARK    2  A    between atoms: C3_3  and  O11_11 
ROOT
HETATM    1  C1  UNL     1     -41.344  13.000   6.513  1.00 20.00    -0.069 C 
HETATM    2  C2  UNL     1     -40.517  12.149   5.910  1.00 20.00     0.084 C 
HETATM    3  C4  UNL     1     -42.873  13.228   6.489  1.00 20.00     0.040 C 
HETATM    4  C5  UNL     1     -41.334  16.462   7.863  1.00 20.00     0.001 C 
HETATM    5  C6  UNL     1     -40.324  15.352   7.477  1.00 20.00     0.009 C 
HETATM    6  C7  UNL     1     -42.735  15.861   7.594  1.00 20.00     0.005 C 
HETATM    7  C8  UNL     1     -41.192  14.118   7.508  1.00 20.00     0.019 C 
HETATM    8  C9  UNL     1     -42.394  14.694   6.692  1.00 20.00    -0.002 C 
ENDROOT
BRANCH   2   9
HETATM    9  C3  UNL     1     -39.052  12.134   6.104  1.00 20.00     0.165 C 
HETATM   10  O10 UNL     1     -38.257  12.189   5.178  1.00 20.00    -0.647 OA
BRANCH   9  11
HETATM   11  O11 UNL     1     -38.699  12.055   7.405  1.00 20.00    -0.773 OA
HETATM   12  H23 UNL     1     -37.729  11.962   7.519  1.00 20.00     0.167 HD
ENDBRANCH   9  11
ENDBRANCH   2   9
TORSDOF 2
ENDMDL
MODEL 8
REMARK VINA RESULT:      -4.0     11.673     13.207
REMARK  2 active torsions:
REMARK  status: ('A' for Active; 'I' for Inactive)
REMARK    1  A    between atoms: C2_2  and  C3_3 
REMARK    2  A    between atoms: C3_3  and  O11_11 
ROOT
HETATM    1  C1  UNL     1     -33.826  15.934  -3.686  1.00 20.00    -0.069 C 
HETATM    2  C2  UNL     1     -33.268  16.520  -2.629  1.00 20.00     0.084 C 
HETATM    3  C4  UNL     1     -33.840  14.492  -4.245  1.00 20.00     0.040 C 
HETATM    4  C5  UNL     1     -34.871  16.773  -7.151  1.00 20.00     0.001 C 
HETATM    5  C6  UNL     1     -34.544  17.494  -5.819  1.00 20.00     0.009 C 
HETATM    6  C7  UNL     1     -34.707  15.262  -6.857  1.00 20.00     0.005 C 
HETATM    7  C8  UNL     1     -34.714  16.381  -4.814  1.00 20.00     0.019 C 
HETATM    8  C9  UNL     1     -33.898  15.289  -5.579  1.00 20.00    -0.002 C 
ENDROOT
BRANCH   2   9
HETATM    9  C3  UNL     1     -33.407  17.955  -2.305  1.00 20.00     0.165 C 
HETATM   10  O10 UNL     1     -32.538  18.780  -2.546  1.00 20.00    -0.647 OA
BRANCH   9  11
HETATM   11  O11 UNL     1     -34.590  18.246  -1.720  1.00 20.00    -0.773 OA
HETATM   12  H23 UNL     1     -34.555  19.088  -1.219  1.00 20.00     0.167 HD
ENDBRANCH   9  11
ENDBRANCH   2   9
TORSDOF 2
ENDMDL
MODEL 9
REMARK VINA RESULT:      -3.8      2.737      4.694
REMARK  2 active torsions:
REMARK  status: ('A' for Active; 'I' for Inactive)
REMARK    1  A    between atoms: C2_2  and  C3_3 
REMARK    2  A    between atoms: C3_3  and  O11_11 
ROOT
HETATM    1  C1  UNL     1     -33.686   5.607   3.990  1.00 20.00    -0.069 C 
HETATM    2  C2  UNL     1     -34.052   4.942   5.083  1.00 20.00     0.084 C 
HETATM    3  C4  UNL     1     -33.130   5.197   2.606  1.00 20.00     0.040 C 
HETATM    4  C5  UNL     1     -32.282   8.913   3.038  1.00 20.00     0.001 C 
HETATM    5  C6  UNL     1     -33.020   8.253   4.231  1.00 20.00     0.009 C 
HETATM    6  C7  UNL     1     -32.149   7.805   1.966  1.00 20.00     0.005 C 
HETATM    7  C8  UNL     1     -33.657   7.052   3.574  1.00 20.00     0.019 C 
HETATM    8  C9  UNL     1     -32.399   6.559   2.787  1.00 20.00    -0.002 C 
ENDROOT
BRANCH   2   9
HETATM    9  C3  UNL     1     -34.566   5.582   6.312  1.00 20.00     0.165 C 
HETATM   10  O10 UNL     1     -34.206   6.688   6.687  1.00 20.00    -0.647 OA
BRANCH   9  11
HETATM   11  O11 UNL     1     -35.466   4.814   6.963  1.00 20.00    -0.773 OA
HETATM   12  H23 UNL     1     -35.345   3.860   6.771  1.00 20.00     0.167 HD
ENDBRANCH   9  11
ENDBRANCH   2   9
TORSDOF 2
ENDMDL
