MODEL 1
REMARK VINA RESULT:      -3.6      0.000      0.000
REMARK  1 active torsions:
REMARK  status: ('A' for Active; 'I' for Inactive)
REMARK    1  A    between atoms: C3_3  and  C6_6 
ROOT
HETATM    1  C1  UNL     1     -26.750  18.183  11.987  1.00 20.00     0.134 C 
HETATM    2  C2  UNL     1     -24.898  16.659  12.040  1.00 20.00     0.137 C 
HETATM    3  C3  UNL     1     -24.470  17.565  10.895  1.00 20.00     0.075 C 
HETATM    4  N7  UNL     1     -26.284  16.936  12.332  1.00 20.00    -0.374 N 
HETATM    5  S8  UNL     1     -28.269  18.755  12.332  1.00 20.00    -0.053 SA
HETATM    6  S9  UNL     1     -25.492  19.060  11.132  1.00 20.00    -0.094 SA
HETATM    7  H20 UNL     1     -26.858  16.281  12.853  1.00 20.00     0.161 HD
ENDROOT
BRANCH   3   8
HETATM    8  C6  UNL     1     -22.988  17.890  10.910  1.00 20.00    -0.007 C 
HETATM    9  C4  UNL     1     -22.655  18.973   9.883  1.00 20.00     0.011 C 
HETATM   10  C5  UNL     1     -22.540  18.328  12.306  1.00 20.00     0.011 C 
ENDBRANCH   3   8
TORSDOF 1
ENDMDL
MODEL 2
REMARK VINA RESULT:      -3.6     13.595     14.274
REMARK  1 active torsions:
REMARK  status: ('A' for Active; 'I' for Inactive)
REMARK    1  A    between atoms: C3_3  and  C6_6 
ROOT
HETATM    1  C1  UNL     1     -31.929  18.829   1.795  1.00 20.00     0.134 C 
HETATM    2  C2  UNL     1     -33.707  18.243   0.297  1.00 20.00     0.137 C 
HETATM    3  C3  UNL     1     -32.726  18.872  -0.681  1.00 20.00     0.075 C 
HETATM    4  N7  UNL     1     -33.267  18.561   1.634  1.00 20.00    -0.374 N 
HETATM    5  S8  UNL     1     -31.187  19.103   3.254  1.00 20.00    -0.053 SA
HETATM    6  S9  UNL     1     -31.141  18.836   0.226  1.00 20.00    -0.094 SA
HETATM    7  H20 UNL     1     -33.894  18.493   2.429  1.00 20.00     0.161 HD
ENDROOT
BRANCH   3   8
HETATM    8  C6  UNL     1     -32.635  18.126  -2.000  1.00 20.00    -0.007 C 
HETATM    9  C4  UNL     1     -33.522  16.880  -1.985  1.00 20.00     0.011 C 
HETATM   10  C5  UNL     1     -33.021  19.036  -3.168  1.00 20.00     0.011 C 
ENDBRANCH   3   8
TORSDOF 1
ENDMDL
MODEL 3
REMARK VINA RESULT:      -3.4     17.752     18.302
REMARK  1 active torsions:
REMARK  status: ('A' for Active; 'I' for Inactive)
REMARK    1  A    between atoms: C3_3  and  C6_6 
ROOT
HETATM    1  C1  UNL     1     -34.353  15.905  -5.812  1.00 20.00     0.134 C 
HETATM    2  C2  UNL     1     -33.047  15.550  -3.831  1.00 20.00     0.137 C 
HETATM    3  C3  UNL     1     -33.423  17.014  -3.650  1.00 20.00     0.075 C 
HETATM    4  N7  UNL     1     -33.371  15.174  -5.186  1.00 20.00    -0.374 N 
HETATM    5  S8  UNL     1     -34.963  15.576  -7.319  1.00 20.00    -0.053 SA
HETATM    6  S9  UNL     1     -34.849  17.228  -4.770  1.00 20.00    -0.094 SA
HETATM    7  H20 UNL     1     -32.966  14.351  -5.620  1.00 20.00     0.161 HD
ENDROOT
BRANCH   3   8
HETATM    8  C6  UNL     1     -33.776  17.367  -2.216  1.00 20.00    -0.007 C 
HETATM    9  C4  UNL     1     -32.541  17.844  -1.451  1.00 20.00     0.011 C 
HETATM   10  C5  UNL     1     -34.871  18.435  -2.172  1.00 20.00     0.011 C 
ENDBRANCH   3   8
TORSDOF 1
ENDMDL
MODEL 4
REMARK VINA RESULT:      -3.4     16.188     16.738
REMARK  1 active torsions:
REMARK  status: ('A' for Active; 'I' for Inactive)
REMARK    1  A    between atoms: C3_3  and  C6_6 
ROOT
HETATM    1  C1  UNL     1     -34.712  17.431  -4.137  1.00 20.00     0.134 C 
HETATM    2  C2  UNL     1     -33.355  16.630  -2.329  1.00 20.00     0.137 C 
HETATM    3  C3  UNL     1     -32.950  18.097  -2.342  1.00 20.00     0.075 C 
HETATM    4  N7  UNL     1     -34.087  16.360  -3.543  1.00 20.00    -0.374 N 
HETATM    5  S8  UNL     1     -35.699  17.332  -5.468  1.00 20.00    -0.053 SA
HETATM    6  S9  UNL     1     -34.301  18.901  -3.271  1.00 20.00    -0.094 SA
HETATM    7  H20 UNL     1     -34.216  15.414  -3.886  1.00 20.00     0.161 HD
ENDROOT
BRANCH   3   8
HETATM    8  C6  UNL     1     -32.794  18.688  -0.953  1.00 20.00    -0.007 C 
HETATM    9  C4  UNL     1     -33.778  18.046   0.027  1.00 20.00     0.011 C 
HETATM   10  C5  UNL     1     -31.359  18.520  -0.447  1.00 20.00     0.011 C 
ENDBRANCH   3   8
TORSDOF 1
ENDMDL
MODEL 5
REMARK VINA RESULT:      -3.1     18.998     19.545
REMARK  1 active torsions:
REMARK  status: ('A' for Active; 'I' for Inactive)
REMARK    1  A    between atoms: C3_3  and  C6_6 
ROOT
HETATM    1  C1  UNL     1     -33.791  16.807  -3.534  1.00 20.00     0.134 C 
HETATM    2  C2  UNL     1     -34.266  14.678  -4.530  1.00 20.00     0.137 C 
HETATM    3  C3  UNL     1     -35.215  15.566  -5.323  1.00 20.00     0.075 C 
HETATM    4  N7  UNL     1     -33.784  15.439  -3.403  1.00 20.00    -0.374 N 
HETATM    5  S8  UNL     1     -33.177  17.869  -2.416  1.00 20.00    -0.053 SA
HETATM    6  S9  UNL     1     -34.546  17.244  -5.057  1.00 20.00    -0.094 SA
HETATM    7  H20 UNL     1     -33.370  14.987  -2.595  1.00 20.00     0.161 HD
ENDROOT
BRANCH   3   8
HETATM    8  C6  UNL     1     -35.273  15.211  -6.798  1.00 20.00    -0.007 C 
HETATM    9  C4  UNL     1     -36.398  15.975  -7.499  1.00 20.00     0.011 C 
HETATM   10  C5  UNL     1     -33.934  15.496  -7.481  1.00 20.00     0.011 C 
ENDBRANCH   3   8
TORSDOF 1
ENDMDL
MODEL 6
REMARK VINA RESULT:      -3.1      1.768      2.457
REMARK  1 active torsions:
REMARK  status: ('A' for Active; 'I' for Inactive)
REMARK    1  A    between atoms: C3_3  and  C6_6 
ROOT
HETATM    1  C1  UNL     1     -24.990  18.712  11.391  1.00 20.00     0.134 C 
HETATM    2  C2  UNL     1     -22.645  18.506  11.848  1.00 20.00     0.137 C 
HETATM    3  C3  UNL     1     -22.753  17.646  10.597  1.00 20.00     0.075 C 
HETATM    4  N7  UNL     1     -23.982  18.769  12.323  1.00 20.00    -0.374 N 
HETATM    5  S8  UNL     1     -26.578  19.091  11.688  1.00 20.00    -0.053 SA
HETATM    6  S9  UNL     1     -24.333  18.178   9.852  1.00 20.00    -0.094 SA
HETATM    7  H20 UNL     1     -24.156  19.077  13.274  1.00 20.00     0.161 HD
ENDROOT
BRANCH   3   8
HETATM    8  C6  UNL     1     -21.590  17.833   9.640  1.00 20.00    -0.007 C 
HETATM    9  C4  UNL     1     -21.664  16.830   8.488  1.00 20.00     0.011 C 
HETATM   10  C5  UNL     1     -21.556  19.263   9.096  1.00 20.00     0.011 C 
ENDBRANCH   3   8
TORSDOF 1
ENDMDL
MODEL 7
REMARK VINA RESULT:      -3.1     18.533     19.144
REMARK  1 active torsions:
REMARK  status: ('A' for Active; 'I' for Inactive)
REMARK    1  A    between atoms: C3_3  and  C6_6 
ROOT
HETATM    1  C1  UNL     1     -33.995  17.149  -2.855  1.00 20.00     0.134 C 
HETATM    2  C2  UNL     1     -35.486  17.123  -4.733  1.00 20.00     0.137 C 
HETATM    3  C3  UNL     1     -34.343  16.283  -5.283  1.00 20.00     0.075 C 
HETATM    4  N7  UNL     1     -35.025  17.765  -3.526  1.00 20.00    -0.374 N 
HETATM    5  S8  UNL     1     -33.388  17.646  -1.392  1.00 20.00    -0.053 SA
HETATM    6  S9  UNL     1     -33.434  15.770  -3.785  1.00 20.00    -0.094 SA
HETATM    7  H20 UNL     1     -35.500  18.574  -3.140  1.00 20.00     0.161 HD
ENDROOT
BRANCH   3   8
HETATM    8  C6  UNL     1     -34.813  15.088  -6.092  1.00 20.00    -0.007 C 
HETATM    9  C4  UNL     1     -35.960  14.365  -5.382  1.00 20.00     0.011 C 
HETATM   10  C5  UNL     1     -35.246  15.515  -7.496  1.00 20.00     0.011 C 
ENDBRANCH   3   8
TORSDOF 1
ENDMDL
MODEL 8
REMARK VINA RESULT:      -3.0     16.414     17.588
REMARK  1 active torsions:
REMARK  status: ('A' for Active; 'I' for Inactive)
REMARK    1  A    between atoms: C3_3  and  C6_6 
ROOT
HETATM    1  C1  UNL     1     -42.050  14.481   7.665  1.00 20.00     0.134 C 
HETATM    2  C2  UNL     1     -42.220  12.309   6.664  1.00 20.00     0.137 C 
HETATM    3  C3  UNL     1     -41.007  12.854   5.924  1.00 20.00     0.075 C 
HETATM    4  N7  UNL     1     -42.851  13.409   7.353  1.00 20.00    -0.374 N 
HETATM    5  S8  UNL     1     -42.534  15.797   8.553  1.00 20.00    -0.053 SA
HETATM    6  S9  UNL     1     -40.453  14.237   6.980  1.00 20.00    -0.094 SA
HETATM    7  H20 UNL     1     -43.810  13.351   7.677  1.00 20.00     0.161 HD
ENDROOT
BRANCH   3   8
HETATM    8  C6  UNL     1     -39.911  11.822   5.729  1.00 20.00    -0.007 C 
HETATM    9  C4  UNL     1     -39.422  11.811   4.280  1.00 20.00     0.011 C 
HETATM   10  C5  UNL     1     -38.741  12.083   6.680  1.00 20.00     0.011 C 
ENDBRANCH   3   8
TORSDOF 1
ENDMDL
MODEL 9
REMARK VINA RESULT:      -3.0     18.362     18.912
REMARK  1 active torsions:
REMARK  status: ('A' for Active; 'I' for Inactive)
REMARK    1  A    between atoms: C3_3  and  C6_6 
ROOT
HETATM    1  C1  UNL     1     -36.705  18.136  -4.525  1.00 20.00     0.134 C 
HETATM    2  C2  UNL     1     -35.373  16.293  -5.287  1.00 20.00     0.137 C 
HETATM    3  C3  UNL     1     -34.314  17.110  -4.561  1.00 20.00     0.075 C 
HETATM    4  N7  UNL     1     -36.546  17.119  -5.436  1.00 20.00    -0.374 N 
HETATM    5  S8  UNL     1     -38.030  19.131  -4.436  1.00 20.00    -0.053 SA
HETATM    6  S9  UNL     1     -35.294  18.211  -3.483  1.00 20.00    -0.094 SA
HETATM    7  H20 UNL     1     -37.267  16.901  -6.117  1.00 20.00     0.161 HD
ENDROOT
BRANCH   3   8
HETATM    8  C6  UNL     1     -33.345  16.257  -3.761  1.00 20.00    -0.007 C 
HETATM    9  C4  UNL     1     -33.367  16.647  -2.282  1.00 20.00     0.011 C 
HETATM   10  C5  UNL     1     -33.668  14.770  -3.921  1.00 20.00     0.011 C 
ENDBRANCH   3   8
TORSDOF 1
ENDMDL
