MODEL 1
REMARK VINA RESULT:      -4.1      0.000      0.000
REMARK  1 active torsions:
REMARK  status: ('A' for Active; 'I' for Inactive)
REMARK    1  A    between atoms: C4_4  and  C10_10 
ROOT
HETATM    1  C1  UNL     1     -41.664  13.924   4.788  1.00 20.00     0.132 C 
HETATM    2  C2  UNL     1     -42.393  14.844   5.731  1.00 20.00     0.087 C 
HETATM    3  C3  UNL     1     -41.473  12.957   6.948  1.00 20.00     0.021 C 
HETATM    4  C4  UNL     1     -41.079  12.721   5.485  1.00 20.00     0.059 C 
HETATM    5  C5  UNL     1     -41.804  14.457   7.096  1.00 20.00    -0.041 C 
HETATM    6  C6  UNL     1     -40.549  15.289   7.402  1.00 20.00     0.015 C 
HETATM    7  C7  UNL     1     -42.825  14.680   8.218  1.00 20.00     0.015 C 
HETATM    8  O11 UNL     1     -41.581  14.121   3.581  1.00 20.00    -0.298 OA
ENDROOT
BRANCH   4   9
HETATM    9  C10 UNL     1     -39.577  12.566   5.307  1.00 20.00    -0.011 C 
HETATM   10  C8  UNL     1     -38.926  12.029   6.585  1.00 20.00     0.010 C 
HETATM   11  C9  UNL     1     -39.258  11.646   4.126  1.00 20.00     0.010 C 
ENDBRANCH   4   9
TORSDOF 1
ENDMDL
MODEL 2
REMARK VINA RESULT:      -3.7      9.607     10.714
REMARK  1 active torsions:
REMARK  status: ('A' for Active; 'I' for Inactive)
REMARK    1  A    between atoms: C4_4  and  C10_10 
ROOT
HETATM    1  C1  UNL     1     -33.232   5.913   3.349  1.00 20.00     0.132 C 
HETATM    2  C2  UNL     1     -32.533   6.964   2.527  1.00 20.00     0.087 C 
HETATM    3  C3  UNL     1     -34.077   8.008   4.081  1.00 20.00     0.021 C 
HETATM    4  C4  UNL     1     -34.217   6.501   4.328  1.00 20.00     0.059 C 
HETATM    5  C5  UNL     1     -32.724   8.231   3.374  1.00 20.00    -0.041 C 
HETATM    6  C6  UNL     1     -31.575   8.388   4.383  1.00 20.00     0.015 C 
HETATM    7  C7  UNL     1     -32.773   9.482   2.489  1.00 20.00     0.015 C 
HETATM    8  O11 UNL     1     -33.038   4.710   3.214  1.00 20.00    -0.298 OA
ENDROOT
BRANCH   4   9
HETATM    9  C10 UNL     1     -33.957   6.124   5.778  1.00 20.00    -0.011 C 
HETATM   10  C8  UNL     1     -34.152   7.330   6.701  1.00 20.00     0.010 C 
HETATM   11  C9  UNL     1     -34.866   4.973   6.215  1.00 20.00     0.010 C 
ENDBRANCH   4   9
TORSDOF 1
ENDMDL
MODEL 3
REMARK VINA RESULT:      -3.5      9.594     10.925
REMARK  1 active torsions:
REMARK  status: ('A' for Active; 'I' for Inactive)
REMARK    1  A    between atoms: C4_4  and  C10_10 
ROOT
HETATM    1  C1  UNL     1     -33.049   5.397   3.099  1.00 20.00     0.132 C 
HETATM    2  C2  UNL     1     -33.951   4.696   4.080  1.00 20.00     0.087 C 
HETATM    3  C3  UNL     1     -33.263   6.847   4.968  1.00 20.00     0.021 C 
HETATM    4  C4  UNL     1     -32.576   6.739   3.601  1.00 20.00     0.059 C 
HETATM    5  C5  UNL     1     -34.442   5.850   4.966  1.00 20.00    -0.041 C 
HETATM    6  C6  UNL     1     -35.717   6.479   4.383  1.00 20.00     0.015 C 
HETATM    7  C7  UNL     1     -34.742   5.363   6.389  1.00 20.00     0.015 C 
HETATM    8  O11 UNL     1     -32.715   4.915   2.023  1.00 20.00    -0.298 OA
ENDROOT
BRANCH   4   9
HETATM    9  C10 UNL     1     -32.919   7.904   2.686  1.00 20.00    -0.011 C 
HETATM   10  C8  UNL     1     -32.823   9.235   3.434  1.00 20.00     0.010 C 
HETATM   11  C9  UNL     1     -32.003   7.922   1.458  1.00 20.00     0.010 C 
ENDBRANCH   4   9
TORSDOF 1
ENDMDL
MODEL 4
REMARK VINA RESULT:      -3.4     10.788     12.022
REMARK  1 active torsions:
REMARK  status: ('A' for Active; 'I' for Inactive)
REMARK    1  A    between atoms: C4_4  and  C10_10 
ROOT
HETATM    1  C1  UNL     1     -34.405  18.923  -0.449  1.00 20.00     0.132 C 
HETATM    2  C2  UNL     1     -34.894  18.526  -1.816  1.00 20.00     0.087 C 
HETATM    3  C3  UNL     1     -32.520  19.026  -1.891  1.00 20.00     0.021 C 
HETATM    4  C4  UNL     1     -32.934  19.259  -0.433  1.00 20.00     0.059 C 
HETATM    5  C5  UNL     1     -33.596  18.122  -2.530  1.00 20.00    -0.041 C 
HETATM    6  C6  UNL     1     -33.293  16.632  -2.307  1.00 20.00     0.015 C 
HETATM    7  C7  UNL     1     -33.695  18.381  -4.039  1.00 20.00     0.015 C 
HETATM    8  O11 UNL     1     -35.131  18.991   0.536  1.00 20.00    -0.298 OA
ENDROOT
BRANCH   4   9
HETATM    9  C10 UNL     1     -32.115  18.430   0.543  1.00 20.00    -0.011 C 
HETATM   10  C8  UNL     1     -30.714  18.158  -0.011  1.00 20.00     0.010 C 
HETATM   11  C9  UNL     1     -32.018  19.125   1.904  1.00 20.00     0.010 C 
ENDBRANCH   4   9
TORSDOF 1
ENDMDL
MODEL 5
REMARK VINA RESULT:      -3.4     12.323     13.222
REMARK  1 active torsions:
REMARK  status: ('A' for Active; 'I' for Inactive)
REMARK    1  A    between atoms: C4_4  and  C10_10 
ROOT
HETATM    1  C1  UNL     1     -35.831  17.451  -4.736  1.00 20.00     0.132 C 
HETATM    2  C2  UNL     1     -36.661  16.874  -5.852  1.00 20.00     0.087 C 
HETATM    3  C3  UNL     1     -34.347  16.183  -6.088  1.00 20.00     0.021 C 
HETATM    4  C4  UNL     1     -34.376  17.066  -4.835  1.00 20.00     0.059 C 
HETATM    5  C5  UNL     1     -35.792  15.707  -6.344  1.00 20.00    -0.041 C 
HETATM    6  C6  UNL     1     -36.115  14.423  -5.564  1.00 20.00     0.015 C 
HETATM    7  C7  UNL     1     -36.020  15.444  -7.838  1.00 20.00     0.015 C 
HETATM    8  O11 UNL     1     -36.288  18.177  -3.860  1.00 20.00    -0.298 OA
ENDROOT
BRANCH   4   9
HETATM    9  C10 UNL     1     -33.835  16.351  -3.608  1.00 20.00    -0.011 C 
HETATM   10  C8  UNL     1     -32.878  15.225  -4.008  1.00 20.00     0.010 C 
HETATM   11  C9  UNL     1     -33.130  17.333  -2.668  1.00 20.00     0.010 C 
ENDBRANCH   4   9
TORSDOF 1
ENDMDL
MODEL 6
REMARK VINA RESULT:      -3.3      9.705     10.543
REMARK  1 active torsions:
REMARK  status: ('A' for Active; 'I' for Inactive)
REMARK    1  A    between atoms: C4_4  and  C10_10 
ROOT
HETATM    1  C1  UNL     1     -33.167   8.006   5.179  1.00 20.00     0.132 C 
HETATM    2  C2  UNL     1     -33.775   7.492   6.457  1.00 20.00     0.087 C 
HETATM    3  C3  UNL     1     -34.589   6.205   4.567  1.00 20.00     0.021 C 
HETATM    4  C4  UNL     1     -33.646   7.252   3.963  1.00 20.00     0.059 C 
HETATM    5  C5  UNL     1     -34.233   6.080   6.064  1.00 20.00    -0.041 C 
HETATM    6  C6  UNL     1     -33.108   5.059   6.297  1.00 20.00     0.015 C 
HETATM    7  C7  UNL     1     -35.459   5.652   6.879  1.00 20.00     0.015 C 
HETATM    8  O11 UNL     1     -32.390   8.953   5.133  1.00 20.00    -0.298 OA
ENDROOT
BRANCH   4   9
HETATM    9  C10 UNL     1     -32.533   6.624   3.140  1.00 20.00    -0.011 C 
HETATM   10  C8  UNL     1     -32.953   5.252   2.607  1.00 20.00     0.010 C 
HETATM   11  C9  UNL     1     -32.126   7.539   1.981  1.00 20.00     0.010 C 
ENDBRANCH   4   9
TORSDOF 1
ENDMDL
MODEL 7
REMARK VINA RESULT:      -3.3     12.144     13.524
REMARK  1 active torsions:
REMARK  status: ('A' for Active; 'I' for Inactive)
REMARK    1  A    between atoms: C4_4  and  C10_10 
ROOT
HETATM    1  C1  UNL     1     -34.636  14.918  -4.792  1.00 20.00     0.132 C 
HETATM    2  C2  UNL     1     -35.306  14.749  -6.130  1.00 20.00     0.087 C 
HETATM    3  C3  UNL     1     -35.665  16.999  -5.294  1.00 20.00     0.021 C 
HETATM    4  C4  UNL     1     -34.835  16.297  -4.213  1.00 20.00     0.059 C 
HETATM    5  C5  UNL     1     -35.480  16.200  -6.602  1.00 20.00    -0.041 C 
HETATM    6  C6  UNL     1     -34.243  16.670  -7.384  1.00 20.00     0.015 C 
HETATM    7  C7  UNL     1     -36.712  16.342  -7.503  1.00 20.00     0.015 C 
HETATM    8  O11 UNL     1     -34.021  14.022  -4.226  1.00 20.00    -0.298 OA
ENDROOT
BRANCH   4   9
HETATM    9  C10 UNL     1     -33.543  17.036  -3.903  1.00 20.00    -0.011 C 
HETATM   10  C8  UNL     1     -33.653  18.515  -4.279  1.00 20.00     0.010 C 
HETATM   11  C9  UNL     1     -33.173  16.894  -2.423  1.00 20.00     0.010 C 
ENDBRANCH   4   9
TORSDOF 1
ENDMDL
MODEL 8
REMARK VINA RESULT:      -3.2      2.398      4.275
REMARK  1 active torsions:
REMARK  status: ('A' for Active; 'I' for Inactive)
REMARK    1  A    between atoms: C4_4  and  C10_10 
ROOT
HETATM    1  C1  UNL     1     -42.801  12.904   8.250  1.00 20.00     0.132 C 
HETATM    2  C2  UNL     1     -42.701  12.613   6.776  1.00 20.00     0.087 C 
HETATM    3  C3  UNL     1     -41.823  14.825   7.252  1.00 20.00     0.021 C 
HETATM    4  C4  UNL     1     -42.281  14.274   8.608  1.00 20.00     0.059 C 
HETATM    5  C5  UNL     1     -41.637  13.618   6.309  1.00 20.00    -0.041 C 
HETATM    6  C6  UNL     1     -40.229  13.014   6.430  1.00 20.00     0.015 C 
HETATM    7  C7  UNL     1     -41.871  14.028   4.850  1.00 20.00     0.015 C 
HETATM    8  O11 UNL     1     -43.279  12.121   9.063  1.00 20.00    -0.298 OA
ENDROOT
BRANCH   4   9
HETATM    9  C10 UNL     1     -41.163  14.268   9.639  1.00 20.00    -0.011 C 
HETATM   10  C8  UNL     1     -40.121  15.344   9.324  1.00 20.00     0.010 C 
HETATM   11  C9  UNL     1     -41.720  14.470  11.051  1.00 20.00     0.010 C 
ENDBRANCH   4   9
TORSDOF 1
ENDMDL
MODEL 9
REMARK VINA RESULT:      -3.2     11.647     12.988
REMARK  1 active torsions:
REMARK  status: ('A' for Active; 'I' for Inactive)
REMARK    1  A    between atoms: C4_4  and  C10_10 
ROOT
HETATM    1  C1  UNL     1     -33.866  15.538  -3.992  1.00 20.00     0.132 C 
HETATM    2  C2  UNL     1     -33.252  16.446  -2.959  1.00 20.00     0.087 C 
HETATM    3  C3  UNL     1     -33.938  17.732  -4.900  1.00 20.00     0.021 C 
HETATM    4  C4  UNL     1     -34.302  16.280  -5.231  1.00 20.00     0.059 C 
HETATM    5  C5  UNL     1     -33.789  17.826  -3.366  1.00 20.00    -0.041 C 
HETATM    6  C6  UNL     1     -35.136  18.109  -2.681  1.00 20.00     0.015 C 
HETATM    7  C7  UNL     1     -32.802  18.936  -2.984  1.00 20.00     0.015 C 
HETATM    8  O11 UNL     1     -33.972  14.326  -3.848  1.00 20.00    -0.298 OA
ENDROOT
BRANCH   4   9
HETATM    9  C10 UNL     1     -35.774  16.114  -5.572  1.00 20.00    -0.011 C 
HETATM   10  C8  UNL     1     -36.365  17.423  -6.101  1.00 20.00     0.010 C 
HETATM   11  C9  UNL     1     -35.976  14.992  -6.595  1.00 20.00     0.010 C 
ENDBRANCH   4   9
TORSDOF 1
ENDMDL
