MODEL 1
REMARK VINA RESULT:      -5.4      0.000      0.000
REMARK  2 active torsions:
REMARK  status: ('A' for Active; 'I' for Inactive)
REMARK    1  A    between atoms: C1_1  and  C5_5 
REMARK    2  A    between atoms: C2_2  and  C3_3 
ROOT
HETATM    1  C1  UNL     1     -33.593   7.365   6.010  1.00 20.00     0.134 C 
HETATM    2  C2  UNL     1     -34.364   6.273   5.958  1.00 20.00     0.166 C 
HETATM    3  F7  UNL     1     -34.792   5.672   7.089  1.00 20.00    -0.202 F 
ENDROOT
BRANCH   1   4
HETATM    4  C5  UNL     1     -33.074   8.095   4.820  1.00 20.00     0.410 C 
HETATM    5  F8  UNL     1     -32.281   7.338   4.021  1.00 20.00    -0.167 F 
HETATM    6  F9  UNL     1     -32.341   9.177   5.187  1.00 20.00    -0.167 F 
HETATM    7  F10 UNL     1     -34.087   8.554   4.042  1.00 20.00    -0.167 F 
ENDBRANCH   1   4
BRANCH   2   8
HETATM    8  C3  UNL     1     -34.828   5.608   4.714  1.00 20.00     0.183 C 
HETATM    9  C4  UNL     1     -33.995   4.511   4.105  1.00 20.00     0.099 C 
HETATM   10  O6  UNL     1     -35.890   5.961   4.201  1.00 20.00    -0.290 OA
ENDBRANCH   2   8
TORSDOF 2
ENDMDL
MODEL 2
REMARK VINA RESULT:      -5.4      0.037      1.181
REMARK  2 active torsions:
REMARK  status: ('A' for Active; 'I' for Inactive)
REMARK    1  A    between atoms: C1_1  and  C5_5 
REMARK    2  A    between atoms: C2_2  and  C3_3 
ROOT
HETATM    1  C1  UNL     1     -33.590   7.370   6.006  1.00 20.00     0.134 C 
HETATM    2  C2  UNL     1     -34.347   6.268   5.953  1.00 20.00     0.166 C 
HETATM    3  F7  UNL     1     -34.751   5.649   7.084  1.00 20.00    -0.202 F 
ENDROOT
BRANCH   1   4
HETATM    4  C5  UNL     1     -33.098   8.119   4.817  1.00 20.00     0.410 C 
HETATM    5  F8  UNL     1     -34.089   8.549   3.995  1.00 20.00    -0.167 F 
HETATM    6  F9  UNL     1     -32.267   7.356   4.063  1.00 20.00    -0.167 F 
HETATM    7  F10 UNL     1     -32.392   9.219   5.185  1.00 20.00    -0.167 F 
ENDBRANCH   1   4
BRANCH   2   8
HETATM    8  C3  UNL     1     -34.822   5.611   4.709  1.00 20.00     0.183 C 
HETATM    9  C4  UNL     1     -33.992   4.520   4.085  1.00 20.00     0.099 C 
HETATM   10  O6  UNL     1     -35.889   5.966   4.208  1.00 20.00    -0.290 OA
ENDBRANCH   2   8
TORSDOF 2
ENDMDL
MODEL 3
REMARK VINA RESULT:      -5.4      0.058      1.198
REMARK  2 active torsions:
REMARK  status: ('A' for Active; 'I' for Inactive)
REMARK    1  A    between atoms: C1_1  and  C5_5 
REMARK    2  A    between atoms: C2_2  and  C3_3 
ROOT
HETATM    1  C1  UNL     1     -33.586   7.335   6.041  1.00 20.00     0.134 C 
HETATM    2  C2  UNL     1     -34.340   6.232   5.960  1.00 20.00     0.166 C 
HETATM    3  F7  UNL     1     -34.743   5.585   7.075  1.00 20.00    -0.202 F 
ENDROOT
BRANCH   1   4
HETATM    4  C5  UNL     1     -33.095   8.114   4.870  1.00 20.00     0.410 C 
HETATM    5  F8  UNL     1     -32.374   9.212   5.210  1.00 20.00    -0.167 F 
HETATM    6  F9  UNL     1     -34.124   8.546   4.099  1.00 20.00    -0.167 F 
HETATM    7  F10 UNL     1     -32.300   7.357   4.072  1.00 20.00    -0.167 F 
ENDBRANCH   1   4
BRANCH   2   8
HETATM    8  C3  UNL     1     -34.810   5.604   4.700  1.00 20.00     0.183 C 
HETATM    9  C4  UNL     1     -33.973   4.535   4.047  1.00 20.00     0.099 C 
HETATM   10  O6  UNL     1     -35.880   5.964   4.208  1.00 20.00    -0.290 OA
ENDBRANCH   2   8
TORSDOF 2
ENDMDL
MODEL 4
REMARK VINA RESULT:      -5.2      1.487      2.221
REMARK  2 active torsions:
REMARK  status: ('A' for Active; 'I' for Inactive)
REMARK    1  A    between atoms: C1_1  and  C5_5 
REMARK    2  A    between atoms: C2_2  and  C3_3 
ROOT
HETATM    1  C1  UNL     1     -32.783   6.913   3.679  1.00 20.00     0.134 C 
HETATM    2  C2  UNL     1     -33.542   5.813   3.749  1.00 20.00     0.166 C 
HETATM    3  F7  UNL     1     -33.300   4.752   2.949  1.00 20.00    -0.202 F 
ENDROOT
BRANCH   1   4
HETATM    4  C5  UNL     1     -32.973   8.129   4.518  1.00 20.00     0.410 C 
HETATM    5  F8  UNL     1     -32.744   7.922   5.839  1.00 20.00    -0.167 F 
HETATM    6  F9  UNL     1     -34.238   8.609   4.410  1.00 20.00    -0.167 F 
HETATM    7  F10 UNL     1     -32.142   9.130   4.130  1.00 20.00    -0.167 F 
ENDBRANCH   1   4
BRANCH   2   8
HETATM    8  C3  UNL     1     -34.694   5.621   4.666  1.00 20.00     0.183 C 
HETATM    9  C4  UNL     1     -34.452   5.109   6.062  1.00 20.00     0.099 C 
HETATM   10  O6  UNL     1     -35.830   5.885   4.273  1.00 20.00    -0.290 OA
ENDBRANCH   2   8
TORSDOF 2
ENDMDL
MODEL 5
REMARK VINA RESULT:      -5.2      1.518      2.221
REMARK  2 active torsions:
REMARK  status: ('A' for Active; 'I' for Inactive)
REMARK    1  A    between atoms: C1_1  and  C5_5 
REMARK    2  A    between atoms: C2_2  and  C3_3 
ROOT
HETATM    1  C1  UNL     1     -32.788   6.917   3.661  1.00 20.00     0.134 C 
HETATM    2  C2  UNL     1     -33.545   5.817   3.750  1.00 20.00     0.166 C 
HETATM    3  F7  UNL     1     -33.298   4.741   2.972  1.00 20.00    -0.202 F 
ENDROOT
BRANCH   1   4
HETATM    4  C5  UNL     1     -32.983   8.149   4.474  1.00 20.00     0.410 C 
HETATM    5  F8  UNL     1     -34.256   8.618   4.457  1.00 20.00    -0.167 F 
HETATM    6  F9  UNL     1     -32.189   9.159   4.037  1.00 20.00    -0.167 F 
HETATM    7  F10 UNL     1     -32.663   7.936   5.776  1.00 20.00    -0.167 F 
ENDBRANCH   1   4
BRANCH   2   8
HETATM    8  C3  UNL     1     -34.698   5.640   4.669  1.00 20.00     0.183 C 
HETATM    9  C4  UNL     1     -34.457   5.161   6.077  1.00 20.00     0.099 C 
HETATM   10  O6  UNL     1     -35.834   5.889   4.267  1.00 20.00    -0.290 OA
ENDBRANCH   2   8
TORSDOF 2
ENDMDL
MODEL 6
REMARK VINA RESULT:      -4.9      0.862      1.081
REMARK  2 active torsions:
REMARK  status: ('A' for Active; 'I' for Inactive)
REMARK    1  A    between atoms: C1_1  and  C5_5 
REMARK    2  A    between atoms: C2_2  and  C3_3 
ROOT
HETATM    1  C1  UNL     1     -33.478   7.228   6.035  1.00 20.00     0.134 C 
HETATM    2  C2  UNL     1     -34.228   6.123   5.963  1.00 20.00     0.166 C 
HETATM    3  F7  UNL     1     -34.615   5.473   7.082  1.00 20.00    -0.202 F 
ENDROOT
BRANCH   1   4
HETATM    4  C5  UNL     1     -33.004   8.011   4.860  1.00 20.00     0.410 C 
HETATM    5  F8  UNL     1     -32.330   7.268   3.946  1.00 20.00    -0.167 F 
HETATM    6  F9  UNL     1     -32.172   9.014   5.238  1.00 20.00    -0.167 F 
HETATM    7  F10 UNL     1     -34.041   8.590   4.203  1.00 20.00    -0.167 F 
ENDBRANCH   1   4
BRANCH   2   8
HETATM    8  C3  UNL     1     -34.712   5.494   4.708  1.00 20.00     0.183 C 
HETATM    9  C4  UNL     1     -35.977   6.000   4.066  1.00 20.00     0.099 C 
HETATM   10  O6  UNL     1     -34.071   4.570   4.209  1.00 20.00    -0.290 OA
ENDBRANCH   2   8
TORSDOF 2
ENDMDL
MODEL 7
REMARK VINA RESULT:      -4.6      1.889      3.471
REMARK  2 active torsions:
REMARK  status: ('A' for Active; 'I' for Inactive)
REMARK    1  A    between atoms: C1_1  and  C5_5 
REMARK    2  A    between atoms: C2_2  and  C3_3 
ROOT
HETATM    1  C1  UNL     1     -33.671   7.213   5.762  1.00 20.00     0.134 C 
HETATM    2  C2  UNL     1     -32.862   7.901   4.949  1.00 20.00     0.166 C 
HETATM    3  F7  UNL     1     -32.111   8.921   5.420  1.00 20.00    -0.202 F 
ENDROOT
BRANCH   1   4
HETATM    4  C5  UNL     1     -34.534   6.076   5.336  1.00 20.00     0.410 C 
HETATM    5  F8  UNL     1     -33.843   5.033   4.814  1.00 20.00    -0.167 F 
HETATM    6  F9  UNL     1     -35.430   6.464   4.393  1.00 20.00    -0.167 F 
HETATM    7  F10 UNL     1     -35.253   5.585   6.378  1.00 20.00    -0.167 F 
ENDBRANCH   1   4
BRANCH   2   8
HETATM    8  C3  UNL     1     -32.688   7.650   3.496  1.00 20.00     0.183 C 
HETATM    9  C4  UNL     1     -32.819   8.795   2.526  1.00 20.00     0.099 C 
HETATM   10  O6  UNL     1     -32.436   6.510   3.106  1.00 20.00    -0.290 OA
ENDBRANCH   2   8
TORSDOF 2
ENDMDL
MODEL 8
REMARK VINA RESULT:      -4.3      2.289      3.525
REMARK  2 active torsions:
REMARK  status: ('A' for Active; 'I' for Inactive)
REMARK    1  A    between atoms: C1_1  and  C5_5 
REMARK    2  A    between atoms: C2_2  and  C3_3 
ROOT
HETATM    1  C1  UNL     1     -33.876   6.144   4.675  1.00 20.00     0.134 C 
HETATM    2  C2  UNL     1     -33.148   6.512   3.615  1.00 20.00     0.166 C 
HETATM    3  F7  UNL     1     -33.057   5.718   2.526  1.00 20.00    -0.202 F 
ENDROOT
BRANCH   1   4
HETATM    4  C5  UNL     1     -34.035   6.950   5.917  1.00 20.00     0.410 C 
HETATM    5  F8  UNL     1     -34.310   8.258   5.686  1.00 20.00    -0.167 F 
HETATM    6  F9  UNL     1     -32.910   6.915   6.675  1.00 20.00    -0.167 F 
HETATM    7  F10 UNL     1     -35.042   6.470   6.691  1.00 20.00    -0.167 F 
ENDBRANCH   1   4
BRANCH   2   8
HETATM    8  C3  UNL     1     -32.380   7.778   3.498  1.00 20.00     0.183 C 
HETATM    9  C4  UNL     1     -32.831   8.830   2.519  1.00 20.00     0.099 C 
HETATM   10  O6  UNL     1     -31.388   7.950   4.206  1.00 20.00    -0.290 OA
ENDBRANCH   2   8
TORSDOF 2
ENDMDL
MODEL 9
REMARK VINA RESULT:      -4.1      2.075      3.926
REMARK  2 active torsions:
REMARK  status: ('A' for Active; 'I' for Inactive)
REMARK    1  A    between atoms: C1_1  and  C5_5 
REMARK    2  A    between atoms: C2_2  and  C3_3 
ROOT
HETATM    1  C1  UNL     1     -33.296   5.745   3.381  1.00 20.00     0.134 C 
HETATM    2  C2  UNL     1     -32.829   6.997   3.317  1.00 20.00     0.166 C 
HETATM    3  F7  UNL     1     -32.002   7.379   2.319  1.00 20.00    -0.202 F 
ENDROOT
BRANCH   1   4
HETATM    4  C5  UNL     1     -34.210   5.234   4.440  1.00 20.00     0.410 C 
HETATM    5  F8  UNL     1     -33.879   5.644   5.690  1.00 20.00    -0.167 F 
HETATM    6  F9  UNL     1     -34.224   3.877   4.465  1.00 20.00    -0.167 F 
HETATM    7  F10 UNL     1     -35.489   5.634   4.224  1.00 20.00    -0.167 F 
ENDBRANCH   1   4
BRANCH   2   8
HETATM    8  C3  UNL     1     -33.140   8.081   4.284  1.00 20.00     0.183 C 
HETATM    9  C4  UNL     1     -32.012   8.818   4.959  1.00 20.00     0.099 C 
HETATM   10  O6  UNL     1     -34.315   8.362   4.519  1.00 20.00    -0.290 OA
ENDBRANCH   2   8
TORSDOF 2
ENDMDL
