MODEL 1
REMARK VINA RESULT:      -3.9      0.000      0.000
REMARK  0 active torsions:
REMARK  status: ('A' for Active; 'I' for Inactive)
ROOT
HETATM    1  C1  UNL     1     -36.664  16.200  -7.452  1.00 20.00    -0.004 C 
HETATM    2  C2  UNL     1     -37.003  16.310  -6.057  1.00 20.00    -0.003 C 
HETATM    3  C3  UNL     1     -35.395  16.032  -7.845  1.00 20.00    -0.025 C 
HETATM    4  C4  UNL     1     -36.060  16.459  -5.116  1.00 20.00    -0.009 C 
HETATM    5  C5  UNL     1     -34.248  18.023  -5.408  1.00 20.00     0.140 C 
HETATM    6  C6  UNL     1     -34.254  15.958  -6.866  1.00 20.00     0.048 C 
HETATM    7  C7  UNL     1     -34.065  18.692  -4.062  1.00 20.00     0.079 C 
HETATM    8  C8  UNL     1     -33.119  17.900  -3.183  1.00 20.00     0.008 C 
HETATM    9  C9  UNL     1     -33.600  16.466  -3.023  1.00 20.00     0.006 C 
HETATM   10  C10 UNL     1     -33.691  15.752  -4.385  1.00 20.00     0.001 C 
HETATM   11  C11 UNL     1     -34.574  16.511  -5.431  1.00 20.00     0.044 C 
HETATM   12  C12 UNL     1     -34.138  14.301  -4.140  1.00 20.00     0.011 C 
HETATM   13  O13 UNL     1     -34.252  18.712  -6.431  1.00 20.00    -0.297 OA
ENDROOT
TORSDOF 0
ENDMDL
MODEL 2
REMARK VINA RESULT:      -3.9      1.825      4.142
REMARK  0 active torsions:
REMARK  status: ('A' for Active; 'I' for Inactive)
ROOT
HETATM    1  C1  UNL     1     -33.480  15.522  -3.853  1.00 20.00    -0.004 C 
HETATM    2  C2  UNL     1     -34.109  16.817  -3.860  1.00 20.00    -0.003 C 
HETATM    3  C3  UNL     1     -33.510  14.731  -4.934  1.00 20.00    -0.025 C 
HETATM    4  C4  UNL     1     -34.921  17.197  -4.856  1.00 20.00    -0.009 C 
HETATM    5  C5  UNL     1     -36.618  15.711  -5.713  1.00 20.00     0.140 C 
HETATM    6  C6  UNL     1     -34.205  15.137  -6.206  1.00 20.00     0.048 C 
HETATM    7  C7  UNL     1     -37.843  16.574  -5.930  1.00 20.00     0.079 C 
HETATM    8  C8  UNL     1     -37.830  17.205  -7.307  1.00 20.00     0.008 C 
HETATM    9  C9  UNL     1     -36.553  18.001  -7.525  1.00 20.00     0.006 C 
HETATM   10  C10 UNL     1     -35.307  17.103  -7.404  1.00 20.00     0.001 C 
HETATM   11  C11 UNL     1     -35.235  16.315  -6.055  1.00 20.00     0.044 C 
HETATM   12  C12 UNL     1     -34.063  17.965  -7.681  1.00 20.00     0.011 C 
HETATM   13  O13 UNL     1     -36.739  14.612  -5.166  1.00 20.00    -0.297 OA
ENDROOT
TORSDOF 0
ENDMDL
MODEL 3
REMARK VINA RESULT:      -3.8      1.577      2.835
REMARK  0 active torsions:
REMARK  status: ('A' for Active; 'I' for Inactive)
ROOT
HETATM    1  C1  UNL     1     -36.321  16.720  -7.918  1.00 20.00    -0.004 C 
HETATM    2  C2  UNL     1     -34.954  17.116  -7.704  1.00 20.00    -0.003 C 
HETATM    3  C3  UNL     1     -37.172  16.589  -6.892  1.00 20.00    -0.025 C 
HETATM    4  C4  UNL     1     -34.421  17.166  -6.475  1.00 20.00    -0.009 C 
HETATM    5  C5  UNL     1     -34.771  15.376  -4.896  1.00 20.00     0.140 C 
HETATM    6  C6  UNL     1     -36.756  16.834  -5.467  1.00 20.00     0.048 C 
HETATM    7  C7  UNL     1     -33.434  15.168  -4.214  1.00 20.00     0.079 C 
HETATM    8  C8  UNL     1     -33.288  16.077  -3.012  1.00 20.00     0.008 C 
HETATM    9  C9  UNL     1     -33.481  17.533  -3.407  1.00 20.00     0.006 C 
HETATM   10  C10 UNL     1     -34.879  17.767  -4.010  1.00 20.00     0.001 C 
HETATM   11  C11 UNL     1     -35.204  16.826  -5.217  1.00 20.00     0.044 C 
HETATM   12  C12 UNL     1     -35.017  19.263  -4.341  1.00 20.00     0.011 C 
HETATM   13  O13 UNL     1     -35.414  14.397  -5.281  1.00 20.00    -0.297 OA
ENDROOT
TORSDOF 0
ENDMDL
MODEL 4
REMARK VINA RESULT:      -3.8      2.094      4.772
REMARK  0 active torsions:
REMARK  status: ('A' for Active; 'I' for Inactive)
ROOT
HETATM    1  C1  UNL     1     -32.395  19.127  -0.925  1.00 20.00    -0.004 C 
HETATM    2  C2  UNL     1     -32.245  19.263  -2.350  1.00 20.00    -0.003 C 
HETATM    3  C3  UNL     1     -33.162  18.163  -0.399  1.00 20.00    -0.025 C 
HETATM    4  C4  UNL     1     -33.017  18.579  -3.206  1.00 20.00    -0.009 C 
HETATM    5  C5  UNL     1     -35.402  18.423  -2.877  1.00 20.00     0.140 C 
HETATM    6  C6  UNL     1     -33.915  17.179  -1.254  1.00 20.00     0.048 C 
HETATM    7  C7  UNL     1     -36.014  18.586  -4.253  1.00 20.00     0.079 C 
HETATM    8  C8  UNL     1     -36.118  17.253  -4.965  1.00 20.00     0.008 C 
HETATM    9  C9  UNL     1     -34.758  16.575  -5.046  1.00 20.00     0.006 C 
HETATM   10  C10 UNL     1     -34.177  16.318  -3.643  1.00 20.00     0.001 C 
HETATM   11  C11 UNL     1     -34.094  17.605  -2.756  1.00 20.00     0.044 C 
HETATM   12  C12 UNL     1     -32.830  15.594  -3.804  1.00 20.00     0.011 C 
HETATM   13  O13 UNL     1     -35.884  19.037  -1.922  1.00 20.00    -0.297 OA
ENDROOT
TORSDOF 0
ENDMDL
MODEL 5
REMARK VINA RESULT:      -3.8     13.940     15.450
REMARK  0 active torsions:
REMARK  status: ('A' for Active; 'I' for Inactive)
ROOT
HETATM    1  C1  UNL     1     -41.347  14.102  10.627  1.00 20.00    -0.004 C 
HETATM    2  C2  UNL     1     -42.533  13.850   9.851  1.00 20.00    -0.003 C 
HETATM    3  C3  UNL     1     -40.324  14.803  10.121  1.00 20.00    -0.025 C 
HETATM    4  C4  UNL     1     -42.583  14.118   8.538  1.00 20.00    -0.009 C 
HETATM    5  C5  UNL     1     -40.773  13.490   7.072  1.00 20.00     0.140 C 
HETATM    6  C6  UNL     1     -40.345  15.357   8.722  1.00 20.00     0.048 C 
HETATM    7  C7  UNL     1     -41.432  12.959   5.816  1.00 20.00     0.079 C 
HETATM    8  C8  UNL     1     -41.716  14.078   4.835  1.00 20.00     0.008 C 
HETATM    9  C9  UNL     1     -42.563  15.163   5.482  1.00 20.00     0.006 C 
HETATM   10  C10 UNL     1     -41.850  15.775   6.703  1.00 20.00     0.001 C 
HETATM   11  C11 UNL     1     -41.415  14.714   7.768  1.00 20.00     0.044 C 
HETATM   12  C12 UNL     1     -42.742  16.890   7.274  1.00 20.00     0.011 C 
HETATM   13  O13 UNL     1     -39.829  12.871   7.569  1.00 20.00    -0.297 OA
ENDROOT
TORSDOF 0
ENDMDL
MODEL 6
REMARK VINA RESULT:      -3.7      1.699      2.794
REMARK  0 active torsions:
REMARK  status: ('A' for Active; 'I' for Inactive)
ROOT
HETATM    1  C1  UNL     1     -35.140  15.513  -7.886  1.00 20.00    -0.004 C 
HETATM    2  C2  UNL     1     -34.206  16.548  -7.526  1.00 20.00    -0.003 C 
HETATM    3  C3  UNL     1     -36.101  15.122  -7.039  1.00 20.00    -0.025 C 
HETATM    4  C4  UNL     1     -34.122  17.011  -6.271  1.00 20.00    -0.009 C 
HETATM    5  C5  UNL     1     -34.088  15.502  -4.388  1.00 20.00     0.140 C 
HETATM    6  C6  UNL     1     -36.256  15.723  -5.669  1.00 20.00     0.048 C 
HETATM    7  C7  UNL     1     -33.050  16.061  -3.438  1.00 20.00     0.079 C 
HETATM    8  C8  UNL     1     -33.662  17.076  -2.496  1.00 20.00     0.008 C 
HETATM    9  C9  UNL     1     -34.350  18.189  -3.272  1.00 20.00     0.006 C 
HETATM   10  C10 UNL     1     -35.475  17.633  -4.166  1.00 20.00     0.001 C 
HETATM   11  C11 UNL     1     -35.000  16.503  -5.138  1.00 20.00     0.044 C 
HETATM   12  C12 UNL     1     -36.151  18.816  -4.881  1.00 20.00     0.011 C 
HETATM   13  O13 UNL     1     -34.100  14.293  -4.630  1.00 20.00    -0.297 OA
ENDROOT
TORSDOF 0
ENDMDL
MODEL 7
REMARK VINA RESULT:      -3.7     13.721     14.664
REMARK  0 active torsions:
REMARK  status: ('A' for Active; 'I' for Inactive)
ROOT
HETATM    1  C1  UNL     1     -42.822  12.323   7.073  1.00 20.00    -0.004 C 
HETATM    2  C2  UNL     1     -43.332  13.340   7.955  1.00 20.00    -0.003 C 
HETATM    3  C3  UNL     1     -41.633  12.462   6.472  1.00 20.00    -0.025 C 
HETATM    4  C4  UNL     1     -42.751  14.544   8.049  1.00 20.00    -0.009 C 
HETATM    5  C5  UNL     1     -42.080  15.758   6.075  1.00 20.00     0.140 C 
HETATM    6  C6  UNL     1     -40.770  13.679   6.669  1.00 20.00     0.048 C 
HETATM    7  C7  UNL     1     -42.462  17.200   6.334  1.00 20.00     0.079 C 
HETATM    8  C8  UNL     1     -41.352  17.938   7.053  1.00 20.00     0.008 C 
HETATM    9  C9  UNL     1     -40.980  17.229   8.346  1.00 20.00     0.006 C 
HETATM   10  C10 UNL     1     -40.494  15.792   8.075  1.00 20.00     0.001 C 
HETATM   11  C11 UNL     1     -41.514  14.933   7.255  1.00 20.00     0.044 C 
HETATM   12  C12 UNL     1     -40.095  15.157   9.418  1.00 20.00     0.011 C 
HETATM   13  O13 UNL     1     -42.338  15.250   4.981  1.00 20.00    -0.297 OA
ENDROOT
TORSDOF 0
ENDMDL
MODEL 8
REMARK VINA RESULT:      -3.7     14.134     15.382
REMARK  0 active torsions:
REMARK  status: ('A' for Active; 'I' for Inactive)
ROOT
HETATM    1  C1  UNL     1     -41.262  12.335   6.354  1.00 20.00    -0.004 C 
HETATM    2  C2  UNL     1     -40.273  13.380   6.394  1.00 20.00    -0.003 C 
HETATM    3  C3  UNL     1     -42.505  12.541   6.810  1.00 20.00    -0.025 C 
HETATM    4  C4  UNL     1     -40.481  14.519   7.069  1.00 20.00    -0.009 C 
HETATM    5  C5  UNL     1     -41.399  14.492   9.300  1.00 20.00     0.140 C 
HETATM    6  C6  UNL     1     -42.937  13.859   7.395  1.00 20.00     0.048 C 
HETATM    7  C7  UNL     1     -40.612  15.526  10.077  1.00 20.00     0.079 C 
HETATM    8  C8  UNL     1     -41.231  16.901   9.937  1.00 20.00     0.008 C 
HETATM    9  C9  UNL     1     -41.356  17.293   8.473  1.00 20.00     0.006 C 
HETATM   10  C10 UNL     1     -42.240  16.295   7.701  1.00 20.00     0.001 C 
HETATM   11  C11 UNL     1     -41.764  14.810   7.830  1.00 20.00     0.044 C 
HETATM   12  C12 UNL     1     -42.356  16.780   6.246  1.00 20.00     0.011 C 
HETATM   13  O13 UNL     1     -41.621  13.390   9.808  1.00 20.00    -0.297 OA
ENDROOT
TORSDOF 0
ENDMDL
MODEL 9
REMARK VINA RESULT:      -3.7      1.585      2.163
REMARK  0 active torsions:
REMARK  status: ('A' for Active; 'I' for Inactive)
ROOT
HETATM    1  C1  UNL     1     -36.848  19.184  -6.314  1.00 20.00    -0.004 C 
HETATM    2  C2  UNL     1     -37.177  18.207  -5.309  1.00 20.00    -0.003 C 
HETATM    3  C3  UNL     1     -35.767  19.042  -7.091  1.00 20.00    -0.025 C 
HETATM    4  C4  UNL     1     -36.318  17.236  -4.967  1.00 20.00    -0.009 C 
HETATM    5  C5  UNL     1     -33.986  17.720  -4.579  1.00 20.00     0.140 C 
HETATM    6  C6  UNL     1     -34.831  17.870  -6.957  1.00 20.00     0.048 C 
HETATM    7  C7  UNL     1     -33.599  16.907  -3.362  1.00 20.00     0.079 C 
HETATM    8  C8  UNL     1     -33.150  15.514  -3.756  1.00 20.00     0.008 C 
HETATM    9  C9  UNL     1     -34.225  14.808  -4.567  1.00 20.00     0.006 C 
HETATM   10  C10 UNL     1     -34.551  15.584  -5.858  1.00 20.00     0.001 C 
HETATM   11  C11 UNL     1     -34.948  17.076  -5.607  1.00 20.00     0.044 C 
HETATM   12  C12 UNL     1     -35.608  14.790  -6.644  1.00 20.00     0.011 C 
HETATM   13  O13 UNL     1     -33.630  18.898  -4.660  1.00 20.00    -0.297 OA
ENDROOT
TORSDOF 0
ENDMDL
