MODEL 1
REMARK VINA RESULT:      -5.2      0.000      0.000
REMARK  1 active torsions:
REMARK  status: ('A' for Active; 'I' for Inactive)
REMARK    1  A    between atoms: C2_2  and  C3_3 
ROOT
HETATM    1  C1  UNL     1     -33.341   7.770   5.341  1.00 20.00    -0.016 C 
HETATM    2  C2  UNL     1     -33.870   6.685   4.771  1.00 20.00    -0.020 C 
HETATM    3  C4  UNL     1     -32.476   8.516   4.379  1.00 20.00     0.032 C 
HETATM    4  C5  UNL     1     -33.451   6.515   3.344  1.00 20.00     0.021 C 
HETATM    5  C6  UNL     1     -32.245   7.481   3.268  1.00 20.00    -0.007 C 
HETATM    6  C7  UNL     1     -33.056   5.091   2.963  1.00 20.00     0.015 C 
HETATM    7  C8  UNL     1     -32.076   8.123   1.897  1.00 20.00     0.011 C 
ENDROOT
BRANCH   2   8
HETATM    8  C3  UNL     1     -34.799   5.821   5.482  1.00 20.00     0.265 C 
HETATM    9  O9  UNL     1     -34.461   5.105   6.425  1.00 20.00    -0.302 OA
ENDBRANCH   2   8
TORSDOF 1
ENDMDL
MODEL 2
REMARK VINA RESULT:      -4.7      1.250      1.392
REMARK  1 active torsions:
REMARK  status: ('A' for Active; 'I' for Inactive)
REMARK    1  A    between atoms: C2_2  and  C3_3 
ROOT
HETATM    1  C1  UNL     1     -33.939   6.945   5.987  1.00 20.00    -0.016 C 
HETATM    2  C2  UNL     1     -34.050   6.248   4.853  1.00 20.00    -0.020 C 
HETATM    3  C4  UNL     1     -33.235   8.241   5.755  1.00 20.00     0.032 C 
HETATM    4  C5  UNL     1     -33.441   6.947   3.678  1.00 20.00     0.021 C 
HETATM    5  C6  UNL     1     -32.580   8.022   4.383  1.00 20.00    -0.007 C 
HETATM    6  C7  UNL     1     -32.597   6.054   2.774  1.00 20.00     0.015 C 
HETATM    7  C8  UNL     1     -32.457   9.312   3.581  1.00 20.00     0.011 C 
ENDROOT
BRANCH   2   8
HETATM    8  C3  UNL     1     -34.751   4.975   4.802  1.00 20.00     0.265 C 
HETATM    9  O9  UNL     1     -34.171   3.893   4.704  1.00 20.00    -0.302 OA
ENDBRANCH   2   8
TORSDOF 1
ENDMDL
MODEL 3
REMARK VINA RESULT:      -4.6      2.138      3.473
REMARK  1 active torsions:
REMARK  status: ('A' for Active; 'I' for Inactive)
REMARK    1  A    between atoms: C2_2  and  C3_3 
ROOT
HETATM    1  C1  UNL     1     -33.207   8.326   4.768  1.00 20.00    -0.016 C 
HETATM    2  C2  UNL     1     -32.767   7.396   3.916  1.00 20.00    -0.020 C 
HETATM    3  C4  UNL     1     -34.058   7.720   5.834  1.00 20.00     0.032 C 
HETATM    4  C5  UNL     1     -33.247   6.020   4.259  1.00 20.00     0.021 C 
HETATM    5  C6  UNL     1     -34.393   6.340   5.248  1.00 20.00    -0.007 C 
HETATM    6  C7  UNL     1     -33.742   5.205   3.069  1.00 20.00     0.015 C 
HETATM    7  C8  UNL     1     -34.572   5.276   6.323  1.00 20.00     0.011 C 
ENDROOT
BRANCH   2   8
HETATM    8  C3  UNL     1     -31.869   7.723   2.821  1.00 20.00     0.265 C 
HETATM    9  O9  UNL     1     -32.262   7.958   1.678  1.00 20.00    -0.302 OA
ENDBRANCH   2   8
TORSDOF 1
ENDMDL
MODEL 4
REMARK VINA RESULT:      -4.4      1.664      3.053
REMARK  1 active torsions:
REMARK  status: ('A' for Active; 'I' for Inactive)
REMARK    1  A    between atoms: C2_2  and  C3_3 
ROOT
HETATM    1  C1  UNL     1     -32.325   7.665   3.525  1.00 20.00    -0.016 C 
HETATM    2  C2  UNL     1     -33.028   6.530   3.472  1.00 20.00    -0.020 C 
HETATM    3  C4  UNL     1     -32.589   8.401   4.797  1.00 20.00     0.032 C 
HETATM    4  C5  UNL     1     -33.878   6.314   4.684  1.00 20.00     0.021 C 
HETATM    5  C6  UNL     1     -33.872   7.729   5.310  1.00 20.00    -0.007 C 
HETATM    6  C7  UNL     1     -35.297   5.837   4.389  1.00 20.00     0.015 C 
HETATM    7  C8  UNL     1     -33.955   7.713   6.831  1.00 20.00     0.011 C 
ENDROOT
BRANCH   2   8
HETATM    8  C3  UNL     1     -32.901   5.602   2.359  1.00 20.00     0.265 C 
HETATM    9  O9  UNL     1     -32.682   4.400   2.511  1.00 20.00    -0.302 OA
ENDBRANCH   2   8
TORSDOF 1
ENDMDL
MODEL 5
REMARK VINA RESULT:      -4.3      2.252      4.058
REMARK  1 active torsions:
REMARK  status: ('A' for Active; 'I' for Inactive)
REMARK    1  A    between atoms: C2_2  and  C3_3 
ROOT
HETATM    1  C1  UNL     1     -32.844   5.648   2.779  1.00 20.00    -0.016 C 
HETATM    2  C2  UNL     1     -32.828   6.920   3.187  1.00 20.00    -0.020 C 
HETATM    3  C4  UNL     1     -33.695   4.807   3.674  1.00 20.00     0.032 C 
HETATM    4  C5  UNL     1     -33.652   7.148   4.415  1.00 20.00     0.021 C 
HETATM    5  C6  UNL     1     -33.852   5.698   4.916  1.00 20.00    -0.007 C 
HETATM    6  C7  UNL     1     -32.987   8.022   5.474  1.00 20.00     0.015 C 
HETATM    7  C8  UNL     1     -35.185   5.485   5.622  1.00 20.00     0.011 C 
ENDROOT
BRANCH   2   8
HETATM    8  C3  UNL     1     -32.119   7.952   2.448  1.00 20.00     0.265 C 
HETATM    9  O9  UNL     1     -32.100   8.004   1.218  1.00 20.00    -0.302 OA
ENDBRANCH   2   8
TORSDOF 1
ENDMDL
MODEL 6
REMARK VINA RESULT:      -4.2      1.752      3.160
REMARK  1 active torsions:
REMARK  status: ('A' for Active; 'I' for Inactive)
REMARK    1  A    between atoms: C2_2  and  C3_3 
ROOT
HETATM    1  C1  UNL     1     -34.376   5.255   5.243  1.00 20.00    -0.016 C 
HETATM    2  C2  UNL     1     -33.870   5.788   4.127  1.00 20.00    -0.020 C 
HETATM    3  C4  UNL     1     -34.471   6.274   6.330  1.00 20.00     0.032 C 
HETATM    4  C5  UNL     1     -33.538   7.240   4.275  1.00 20.00     0.021 C 
HETATM    5  C6  UNL     1     -33.559   7.397   5.814  1.00 20.00    -0.007 C 
HETATM    6  C7  UNL     1     -32.190   7.646   3.687  1.00 20.00     0.015 C 
HETATM    7  C8  UNL     1     -34.017   8.777   6.269  1.00 20.00     0.011 C 
ENDROOT
BRANCH   2   8
HETATM    8  C3  UNL     1     -33.732   5.015   2.903  1.00 20.00     0.265 C 
HETATM    9  O9  UNL     1     -32.643   4.654   2.457  1.00 20.00    -0.302 OA
ENDBRANCH   2   8
TORSDOF 1
ENDMDL
MODEL 7
REMARK VINA RESULT:      -4.2      2.156      3.340
REMARK  1 active torsions:
REMARK  status: ('A' for Active; 'I' for Inactive)
REMARK    1  A    between atoms: C2_2  and  C3_3 
ROOT
HETATM    1  C1  UNL     1     -34.023   7.550   5.890  1.00 20.00    -0.016 C 
HETATM    2  C2  UNL     1     -33.080   7.688   4.954  1.00 20.00    -0.020 C 
HETATM    3  C4  UNL     1     -34.661   6.203   5.816  1.00 20.00     0.032 C 
HETATM    4  C5  UNL     1     -32.927   6.469   4.098  1.00 20.00     0.021 C 
HETATM    5  C6  UNL     1     -34.233   5.707   4.426  1.00 20.00    -0.007 C 
HETATM    6  C7  UNL     1     -32.802   6.754   2.605  1.00 20.00     0.015 C 
HETATM    7  C8  UNL     1     -34.075   4.193   4.369  1.00 20.00     0.011 C 
ENDROOT
BRANCH   2   8
HETATM    8  C3  UNL     1     -32.268   8.890   4.855  1.00 20.00     0.265 C 
HETATM    9  O9  UNL     1     -32.311   9.650   3.887  1.00 20.00    -0.302 OA
ENDBRANCH   2   8
TORSDOF 1
ENDMDL
MODEL 8
REMARK VINA RESULT:      -4.1      1.214      2.455
REMARK  1 active torsions:
REMARK  status: ('A' for Active; 'I' for Inactive)
REMARK    1  A    between atoms: C2_2  and  C3_3 
ROOT
HETATM    1  C1  UNL     1     -33.196   6.283   3.089  1.00 20.00    -0.016 C 
HETATM    2  C2  UNL     1     -33.647   6.039   4.322  1.00 20.00    -0.020 C 
HETATM    3  C4  UNL     1     -32.452   7.576   3.033  1.00 20.00     0.032 C 
HETATM    4  C5  UNL     1     -33.290   7.119   5.296  1.00 20.00     0.021 C 
HETATM    5  C6  UNL     1     -32.883   8.264   4.337  1.00 20.00    -0.007 C 
HETATM    6  C7  UNL     1     -34.426   7.539   6.223  1.00 20.00     0.015 C 
HETATM    7  C8  UNL     1     -31.797   9.166   4.909  1.00 20.00     0.011 C 
ENDROOT
BRANCH   2   8
HETATM    8  C3  UNL     1     -34.353   4.812   4.652  1.00 20.00     0.265 C 
HETATM    9  O9  UNL     1     -33.929   3.694   4.357  1.00 20.00    -0.302 OA
ENDBRANCH   2   8
TORSDOF 1
ENDMDL
MODEL 9
REMARK VINA RESULT:      -4.0      1.144      2.033
REMARK  1 active torsions:
REMARK  status: ('A' for Active; 'I' for Inactive)
REMARK    1  A    between atoms: C2_2  and  C3_3 
ROOT
HETATM    1  C1  UNL     1     -32.582   7.789   4.068  1.00 20.00    -0.016 C 
HETATM    2  C2  UNL     1     -33.589   7.176   4.696  1.00 20.00    -0.020 C 
HETATM    3  C4  UNL     1     -32.165   7.030   2.852  1.00 20.00     0.032 C 
HETATM    4  C5  UNL     1     -34.014   5.911   4.019  1.00 20.00     0.021 C 
HETATM    5  C6  UNL     1     -32.809   5.654   3.081  1.00 20.00    -0.007 C 
HETATM    6  C7  UNL     1     -34.254   4.735   4.960  1.00 20.00     0.015 C 
HETATM    7  C8  UNL     1     -33.199   4.966   1.779  1.00 20.00     0.011 C 
ENDROOT
BRANCH   2   8
HETATM    8  C3  UNL     1     -34.216   7.747   5.877  1.00 20.00     0.265 C 
HETATM    9  O9  UNL     1     -34.423   7.102   6.905  1.00 20.00    -0.302 OA
ENDBRANCH   2   8
TORSDOF 1
ENDMDL
