MODEL 1
REMARK VINA RESULT:      -4.1      0.000      0.000
REMARK  3 active torsions:
REMARK  status: ('A' for Active; 'I' for Inactive)
REMARK    1  A    between atoms: C1_1  and  C9_9 
REMARK    2  A    between atoms: C1_1  and  O11_11 
REMARK    3  A    between atoms: C8_8  and  C9_9 
ROOT
HETATM    1  C2  UNL     1     -42.143  15.429   5.939  1.00 20.00     0.005 C 
HETATM    2  C3  UNL     1     -41.453  15.422   7.315  1.00 20.00     0.005 C 
HETATM    3  C4  UNL     1     -43.091  13.172   6.403  1.00 20.00     0.005 C 
HETATM    4  C5  UNL     1     -42.403  13.165   7.777  1.00 20.00     0.005 C 
HETATM    5  C6  UNL     1     -42.092  13.946   5.521  1.00 20.00    -0.010 C 
HETATM    6  C7  UNL     1     -41.095  13.934   7.511  1.00 20.00    -0.010 C 
HETATM    7  C8  UNL     1     -40.722  13.528   6.077  1.00 20.00     0.003 C 
ENDROOT
BRANCH   7   8
HETATM    8  C9  UNL     1     -40.323  12.076   5.869  1.00 20.00     0.115 C 
BRANCH   8   9
HETATM    9  C1  UNL     1     -39.094  11.948   5.008  1.00 20.00     0.139 C 
HETATM   10  O10 UNL     1     -39.055  11.528   3.861  1.00 20.00    -0.650 OA
BRANCH   9  11
HETATM   11  O11 UNL     1     -38.001  12.374   5.693  1.00 20.00    -0.776 OA
HETATM   12  H25 UNL     1     -38.191  12.491   6.649  1.00 20.00     0.167 HD
ENDBRANCH   9  11
ENDBRANCH   8   9
ENDBRANCH   7   8
TORSDOF 3
ENDMDL
MODEL 2
REMARK VINA RESULT:      -4.1     11.053     12.333
REMARK  3 active torsions:
REMARK  status: ('A' for Active; 'I' for Inactive)
REMARK    1  A    between atoms: C1_1  and  C9_9 
REMARK    2  A    between atoms: C1_1  and  O11_11 
REMARK    3  A    between atoms: C8_8  and  C9_9 
ROOT
HETATM    1  C2  UNL     1     -34.463  18.262  -0.692  1.00 20.00     0.005 C 
HETATM    2  C3  UNL     1     -35.084  18.899  -1.948  1.00 20.00     0.005 C 
HETATM    3  C4  UNL     1     -32.203  18.423  -1.728  1.00 20.00     0.005 C 
HETATM    4  C5  UNL     1     -32.822  19.059  -2.982  1.00 20.00     0.005 C 
HETATM    5  C6  UNL     1     -33.293  17.438  -1.267  1.00 20.00    -0.010 C 
HETATM    6  C7  UNL     1     -34.190  18.359  -3.084  1.00 20.00    -0.010 C 
HETATM    7  C8  UNL     1     -33.905  16.935  -2.583  1.00 20.00     0.003 C 
ENDROOT
BRANCH   7   8
HETATM    8  C9  UNL     1     -33.006  16.078  -3.461  1.00 20.00     0.115 C 
BRANCH   8   9
HETATM    9  C1  UNL     1     -33.800  15.152  -4.344  1.00 20.00     0.139 C 
HETATM   10  O10 UNL     1     -34.886  15.391  -4.851  1.00 20.00    -0.650 OA
BRANCH   9  11
HETATM   11  O11 UNL     1     -33.131  13.982  -4.510  1.00 20.00    -0.776 OA
HETATM   12  H25 UNL     1     -33.536  13.424  -5.207  1.00 20.00     0.167 HD
ENDBRANCH   9  11
ENDBRANCH   8   9
ENDBRANCH   7   8
TORSDOF 3
ENDMDL
MODEL 3
REMARK VINA RESULT:      -3.9      0.965      1.863
REMARK  3 active torsions:
REMARK  status: ('A' for Active; 'I' for Inactive)
REMARK    1  A    between atoms: C1_1  and  C9_9 
REMARK    2  A    between atoms: C1_1  and  O11_11 
REMARK    3  A    between atoms: C8_8  and  C9_9 
ROOT
HETATM    1  C2  UNL     1     -42.063  14.574   8.319  1.00 20.00     0.005 C 
HETATM    2  C3  UNL     1     -43.050  13.409   8.128  1.00 20.00     0.005 C 
HETATM    3  C4  UNL     1     -42.188  15.079   5.882  1.00 20.00     0.005 C 
HETATM    4  C5  UNL     1     -43.174  13.916   5.691  1.00 20.00     0.005 C 
HETATM    5  C6  UNL     1     -41.263  14.566   7.001  1.00 20.00    -0.010 C 
HETATM    6  C7  UNL     1     -42.689  12.881   6.724  1.00 20.00    -0.010 C 
HETATM    7  C8  UNL     1     -41.164  13.058   6.724  1.00 20.00     0.003 C 
ENDROOT
BRANCH   7   8
HETATM    8  C9  UNL     1     -40.436  12.651   5.452  1.00 20.00     0.115 C 
BRANCH   8   9
HETATM    9  C1  UNL     1     -39.022  12.215   5.727  1.00 20.00     0.139 C 
HETATM   10  O10 UNL     1     -38.149  12.023   4.894  1.00 20.00    -0.650 OA
BRANCH   9  11
HETATM   11  O11 UNL     1     -38.836  12.060   7.064  1.00 20.00    -0.776 OA
HETATM   12  H25 UNL     1     -39.567  11.554   7.479  1.00 20.00     0.167 HD
ENDBRANCH   9  11
ENDBRANCH   8   9
ENDBRANCH   7   8
TORSDOF 3
ENDMDL
MODEL 4
REMARK VINA RESULT:      -3.9      9.279     10.307
REMARK  3 active torsions:
REMARK  status: ('A' for Active; 'I' for Inactive)
REMARK    1  A    between atoms: C1_1  and  C9_9 
REMARK    2  A    between atoms: C1_1  and  O11_11 
REMARK    3  A    between atoms: C8_8  and  C9_9 
ROOT
HETATM    1  C2  UNL     1     -41.024   7.929  -0.226  1.00 20.00     0.005 C 
HETATM    2  C3  UNL     1     -40.464   6.873   0.744  1.00 20.00     0.005 C 
HETATM    3  C4  UNL     1     -43.302   7.599   0.729  1.00 20.00     0.005 C 
HETATM    4  C5  UNL     1     -42.744   6.546   1.698  1.00 20.00     0.005 C 
HETATM    5  C6  UNL     1     -42.440   7.399  -0.532  1.00 20.00    -0.010 C 
HETATM    6  C7  UNL     1     -41.632   5.872   0.871  1.00 20.00    -0.010 C 
HETATM    7  C8  UNL     1     -42.188   5.884  -0.560  1.00 20.00     0.003 C 
ENDROOT
BRANCH   7   8
HETATM    8  C9  UNL     1     -43.401   5.003  -0.820  1.00 20.00     0.115 C 
BRANCH   8   9
HETATM    9  C1  UNL     1     -43.107   3.926  -1.830  1.00 20.00     0.139 C 
HETATM   10  O10 UNL     1     -42.657   4.092  -2.954  1.00 20.00    -0.650 OA
BRANCH   9  11
HETATM   11  O11 UNL     1     -43.417   2.709  -1.314  1.00 20.00    -0.776 OA
HETATM   12  H25 UNL     1     -44.004   2.196  -1.910  1.00 20.00     0.167 HD
ENDBRANCH   9  11
ENDBRANCH   8   9
ENDBRANCH   7   8
TORSDOF 3
ENDMDL
MODEL 5
REMARK VINA RESULT:      -3.9     11.522     12.749
REMARK  3 active torsions:
REMARK  status: ('A' for Active; 'I' for Inactive)
REMARK    1  A    between atoms: C1_1  and  C9_9 
REMARK    2  A    between atoms: C1_1  and  O11_11 
REMARK    3  A    between atoms: C8_8  and  C9_9 
ROOT
HETATM    1  C2  UNL     1     -35.251  18.732  -2.159  1.00 20.00     0.005 C 
HETATM    2  C3  UNL     1     -35.367  18.990  -3.673  1.00 20.00     0.005 C 
HETATM    3  C4  UNL     1     -32.767  18.685  -2.358  1.00 20.00     0.005 C 
HETATM    4  C5  UNL     1     -32.882  18.942  -3.868  1.00 20.00     0.005 C 
HETATM    5  C6  UNL     1     -34.009  17.823  -2.060  1.00 20.00    -0.010 C 
HETATM    6  C7  UNL     1     -34.175  18.196  -4.247  1.00 20.00    -0.010 C 
HETATM    7  C8  UNL     1     -34.166  16.967  -3.326  1.00 20.00     0.003 C 
ENDROOT
BRANCH   7   8
HETATM    8  C9  UNL     1     -33.078  15.937  -3.583  1.00 20.00     0.115 C 
BRANCH   8   9
HETATM    9  C1  UNL     1     -33.576  14.790  -4.422  1.00 20.00     0.139 C 
HETATM   10  O10 UNL     1     -34.304  13.883  -4.046  1.00 20.00    -0.650 OA
BRANCH   9  11
HETATM   11  O11 UNL     1     -33.096  14.897  -5.688  1.00 20.00    -0.776 OA
HETATM   12  H25 UNL     1     -33.132  14.042  -6.167  1.00 20.00     0.167 HD
ENDBRANCH   9  11
ENDBRANCH   8   9
ENDBRANCH   7   8
TORSDOF 3
ENDMDL
MODEL 6
REMARK VINA RESULT:      -3.9     12.645     13.686
REMARK  3 active torsions:
REMARK  status: ('A' for Active; 'I' for Inactive)
REMARK    1  A    between atoms: C1_1  and  C9_9 
REMARK    2  A    between atoms: C1_1  and  O11_11 
REMARK    3  A    between atoms: C8_8  and  C9_9 
ROOT
HETATM    1  C2  UNL     1     -35.852  15.478  -7.918  1.00 20.00     0.005 C 
HETATM    2  C3  UNL     1     -34.913  16.678  -7.699  1.00 20.00     0.005 C 
HETATM    3  C4  UNL     1     -36.836  15.835  -5.657  1.00 20.00     0.005 C 
HETATM    4  C5  UNL     1     -35.900  17.034  -5.438  1.00 20.00     0.005 C 
HETATM    5  C6  UNL     1     -35.978  14.877  -6.503  1.00 20.00    -0.010 C 
HETATM    6  C7  UNL     1     -34.621  16.612  -6.185  1.00 20.00    -0.010 C 
HETATM    7  C8  UNL     1     -34.556  15.094  -5.963  1.00 20.00     0.003 C 
ENDROOT
BRANCH   7   8
HETATM    8  C9  UNL     1     -34.298  14.630  -4.537  1.00 20.00     0.115 C 
BRANCH   8   9
HETATM    9  C1  UNL     1     -33.079  15.286  -3.945  1.00 20.00     0.139 C 
HETATM   10  O10 UNL     1     -33.070  16.141  -3.072  1.00 20.00    -0.650 OA
BRANCH   9  11
HETATM   11  O11 UNL     1     -31.956  14.786  -4.524  1.00 20.00    -0.776 OA
HETATM   12  H25 UNL     1     -31.528  14.103  -3.965  1.00 20.00     0.167 HD
ENDBRANCH   9  11
ENDBRANCH   8   9
ENDBRANCH   7   8
TORSDOF 3
ENDMDL
MODEL 7
REMARK VINA RESULT:      -3.9     11.435     12.644
REMARK  3 active torsions:
REMARK  status: ('A' for Active; 'I' for Inactive)
REMARK    1  A    between atoms: C1_1  and  C9_9 
REMARK    2  A    between atoms: C1_1  and  O11_11 
REMARK    3  A    between atoms: C8_8  and  C9_9 
ROOT
HETATM    1  C2  UNL     1     -32.651  19.211  -3.450  1.00 20.00     0.005 C 
HETATM    2  C3  UNL     1     -32.289  18.805  -2.010  1.00 20.00     0.005 C 
HETATM    3  C4  UNL     1     -34.986  18.421  -3.085  1.00 20.00     0.005 C 
HETATM    4  C5  UNL     1     -34.626  18.016  -1.648  1.00 20.00     0.005 C 
HETATM    5  C6  UNL     1     -33.684  18.141  -3.859  1.00 20.00    -0.010 C 
HETATM    6  C7  UNL     1     -33.162  17.554  -1.777  1.00 20.00    -0.010 C 
HETATM    7  C8  UNL     1     -33.112  16.896  -3.164  1.00 20.00     0.003 C 
ENDROOT
BRANCH   7   8
HETATM    8  C9  UNL     1     -33.903  15.608  -3.329  1.00 20.00     0.115 C 
BRANCH   8   9
HETATM    9  C1  UNL     1     -33.635  14.949  -4.656  1.00 20.00     0.139 C 
HETATM   10  O10 UNL     1     -33.976  15.367  -5.752  1.00 20.00    -0.650 OA
BRANCH   9  11
HETATM   11  O11 UNL     1     -32.942  13.796  -4.470  1.00 20.00    -0.776 OA
HETATM   12  H25 UNL     1     -33.402  13.188  -3.853  1.00 20.00     0.167 HD
ENDBRANCH   9  11
ENDBRANCH   8   9
ENDBRANCH   7   8
TORSDOF 3
ENDMDL
MODEL 8
REMARK VINA RESULT:      -3.7      9.040     10.344
REMARK  3 active torsions:
REMARK  status: ('A' for Active; 'I' for Inactive)
REMARK    1  A    between atoms: C1_1  and  C9_9 
REMARK    2  A    between atoms: C1_1  and  O11_11 
REMARK    3  A    between atoms: C8_8  and  C9_9 
ROOT
HETATM    1  C2  UNL     1     -34.073   6.686   6.524  1.00 20.00     0.005 C 
HETATM    2  C3  UNL     1     -34.429   5.199   6.343  1.00 20.00     0.005 C 
HETATM    3  C4  UNL     1     -35.305   7.236   4.429  1.00 20.00     0.005 C 
HETATM    4  C5  UNL     1     -35.662   5.752   4.248  1.00 20.00     0.005 C 
HETATM    5  C6  UNL     1     -33.906   7.178   5.072  1.00 20.00    -0.010 C 
HETATM    6  C7  UNL     1     -34.422   5.029   4.810  1.00 20.00    -0.010 C 
HETATM    7  C8  UNL     1     -33.258   5.950   4.415  1.00 20.00     0.003 C 
ENDROOT
BRANCH   7   8
HETATM    8  C9  UNL     1     -32.957   6.059   2.929  1.00 20.00     0.115 C 
BRANCH   8   9
HETATM    9  C1  UNL     1     -32.195   7.316   2.600  1.00 20.00     0.139 C 
HETATM   10  O10 UNL     1     -32.186   7.894   1.523  1.00 20.00    -0.650 OA
BRANCH   9  11
HETATM   11  O11 UNL     1     -31.500   7.735   3.688  1.00 20.00    -0.776 OA
HETATM   12  H25 UNL     1     -31.146   6.983   4.209  1.00 20.00     0.167 HD
ENDBRANCH   9  11
ENDBRANCH   8   9
ENDBRANCH   7   8
TORSDOF 3
ENDMDL
MODEL 9
REMARK VINA RESULT:      -3.6     19.737     20.991
REMARK  3 active torsions:
REMARK  status: ('A' for Active; 'I' for Inactive)
REMARK    1  A    between atoms: C1_1  and  C9_9 
REMARK    2  A    between atoms: C1_1  and  O11_11 
REMARK    3  A    between atoms: C8_8  and  C9_9 
ROOT
HETATM    1  C2  UNL     1     -26.123  -2.558  10.137  1.00 20.00     0.005 C 
HETATM    2  C3  UNL     1     -25.525  -2.234  11.518  1.00 20.00     0.005 C 
HETATM    3  C4  UNL     1     -27.604  -0.562  10.311  1.00 20.00     0.005 C 
HETATM    4  C5  UNL     1     -27.008  -0.238  11.689  1.00 20.00     0.005 C 
HETATM    5  C6  UNL     1     -27.589  -2.102  10.282  1.00 20.00    -0.010 C 
HETATM    6  C7  UNL     1     -26.725  -1.633  12.278  1.00 20.00    -0.010 C 
HETATM    7  C8  UNL     1     -27.878  -2.493  11.739  1.00 20.00     0.003 C 
ENDROOT
BRANCH   7   8
HETATM    8  C9  UNL     1     -29.268  -2.165  12.263  1.00 20.00     0.115 C 
BRANCH   8   9
HETATM    9  C1  UNL     1     -30.334  -2.977  11.576  1.00 20.00     0.139 C 
HETATM   10  O10 UNL     1     -30.215  -4.117  11.154  1.00 20.00    -0.650 OA
BRANCH   9  11
HETATM   11  O11 UNL     1     -31.480  -2.253  11.483  1.00 20.00    -0.776 OA
HETATM   12  H25 UNL     1     -32.269  -2.828  11.387  1.00 20.00     0.167 HD
ENDBRANCH   9  11
ENDBRANCH   8   9
ENDBRANCH   7   8
TORSDOF 3
ENDMDL
