MODEL 1
REMARK VINA RESULT:      -4.0      0.000      0.000
REMARK  0 active torsions:
REMARK  status: ('A' for Active; 'I' for Inactive)
ROOT
HETATM    1  C1  UNL     1     -32.266   7.579   3.475  1.00 20.00     0.098 A 
HETATM    2  C2  UNL     1     -33.005   6.421   3.592  1.00 20.00     0.136 A 
HETATM    3  C3  UNL     1     -33.667   7.423   5.427  1.00 20.00     0.253 A 
HETATM    4  N4  UNL     1     -33.809   6.330   4.712  1.00 20.00    -0.201 NA
HETATM    5  F5  UNL     1     -34.333   7.607   6.576  1.00 20.00    -0.176 F 
HETATM    6  S6  UNL     1     -32.583   8.603   4.814  1.00 20.00    -0.048 SA
HETATM    7 CL7  UNL     1     -32.967   5.142   2.451  1.00 20.00    -0.062 Cl
ENDROOT
TORSDOF 0
ENDMDL
MODEL 2
REMARK VINA RESULT:      -4.0      1.975      2.137
REMARK  0 active torsions:
REMARK  status: ('A' for Active; 'I' for Inactive)
ROOT
HETATM    1  C1  UNL     1     -33.815   5.651   3.826  1.00 20.00     0.098 A 
HETATM    2  C2  UNL     1     -33.163   6.857   3.970  1.00 20.00     0.136 A 
HETATM    3  C3  UNL     1     -34.166   6.789   5.919  1.00 20.00     0.253 A 
HETATM    4  N4  UNL     1     -33.364   7.511   5.170  1.00 20.00    -0.201 NA
HETATM    5  F5  UNL     1     -34.535   7.185   7.145  1.00 20.00    -0.176 F 
HETATM    6  S6  UNL     1     -34.718   5.311   5.244  1.00 20.00    -0.048 SA
HETATM    7 CL7  UNL     1     -32.155   7.549   2.768  1.00 20.00    -0.062 Cl
ENDROOT
TORSDOF 0
ENDMDL
MODEL 3
REMARK VINA RESULT:      -4.0      2.607      2.737
REMARK  0 active torsions:
REMARK  status: ('A' for Active; 'I' for Inactive)
ROOT
HETATM    1  C1  UNL     1     -33.416   6.700   3.917  1.00 20.00     0.098 A 
HETATM    2  C2  UNL     1     -33.250   7.545   4.995  1.00 20.00     0.136 A 
HETATM    3  C3  UNL     1     -34.493   6.018   5.960  1.00 20.00     0.253 A 
HETATM    4  N4  UNL     1     -33.868   7.154   6.167  1.00 20.00    -0.201 NA
HETATM    5  F5  UNL     1     -35.182   5.403   6.932  1.00 20.00    -0.176 F 
HETATM    6  S6  UNL     1     -34.381   5.360   4.379  1.00 20.00    -0.048 SA
HETATM    7 CL7  UNL     1     -32.346   9.000   4.939  1.00 20.00    -0.062 Cl
ENDROOT
TORSDOF 0
ENDMDL
MODEL 4
REMARK VINA RESULT:      -4.0      3.158      3.452
REMARK  0 active torsions:
REMARK  status: ('A' for Active; 'I' for Inactive)
ROOT
HETATM    1  C1  UNL     1     -34.048   6.884   5.149  1.00 20.00     0.098 A 
HETATM    2  C2  UNL     1     -33.037   7.486   4.431  1.00 20.00     0.136 A 
HETATM    3  C3  UNL     1     -33.226   5.646   3.253  1.00 20.00     0.253 A 
HETATM    4  N4  UNL     1     -32.564   6.777   3.344  1.00 20.00    -0.201 NA
HETATM    5  F5  UNL     1     -32.973   4.755   2.284  1.00 20.00    -0.176 F 
HETATM    6  S6  UNL     1     -34.432   5.369   4.442  1.00 20.00    -0.048 SA
HETATM    7 CL7  UNL     1     -32.370   9.017   4.819  1.00 20.00    -0.062 Cl
ENDROOT
TORSDOF 0
ENDMDL
MODEL 5
REMARK VINA RESULT:      -3.9      2.452      2.800
REMARK  0 active torsions:
REMARK  status: ('A' for Active; 'I' for Inactive)
ROOT
HETATM    1  C1  UNL     1     -33.461   7.719   5.625  1.00 20.00     0.098 A 
HETATM    2  C2  UNL     1     -33.873   6.539   5.042  1.00 20.00     0.136 A 
HETATM    3  C3  UNL     1     -32.623   7.297   3.407  1.00 20.00     0.253 A 
HETATM    4  N4  UNL     1     -33.393   6.296   3.769  1.00 20.00    -0.201 NA
HETATM    5  F5  UNL     1     -32.020   7.327   2.210  1.00 20.00    -0.176 F 
HETATM    6  S6  UNL     1     -32.430   8.565   4.547  1.00 20.00    -0.048 SA
HETATM    7 CL7  UNL     1     -34.915   5.409   5.801  1.00 20.00    -0.062 Cl
ENDROOT
TORSDOF 0
ENDMDL
MODEL 6
REMARK VINA RESULT:      -3.9      2.869      3.140
REMARK  0 active torsions:
REMARK  status: ('A' for Active; 'I' for Inactive)
ROOT
HETATM    1  C1  UNL     1     -33.892   7.232   6.170  1.00 20.00     0.098 A 
HETATM    2  C2  UNL     1     -33.323   7.410   4.927  1.00 20.00     0.136 A 
HETATM    3  C3  UNL     1     -34.107   5.381   4.643  1.00 20.00     0.253 A 
HETATM    4  N4  UNL     1     -33.445   6.349   4.050  1.00 20.00    -0.201 NA
HETATM    5  F5  UNL     1     -34.373   4.223   4.023  1.00 20.00    -0.176 F 
HETATM    6  S6  UNL     1     -34.613   5.678   6.256  1.00 20.00    -0.048 SA
HETATM    7 CL7  UNL     1     -32.503   8.836   4.445  1.00 20.00    -0.062 Cl
ENDROOT
TORSDOF 0
ENDMDL
MODEL 7
REMARK VINA RESULT:      -3.8      2.243      2.368
REMARK  0 active torsions:
REMARK  status: ('A' for Active; 'I' for Inactive)
ROOT
HETATM    1  C1  UNL     1     -33.388   6.251   3.729  1.00 20.00     0.098 A 
HETATM    2  C2  UNL     1     -33.916   6.470   4.983  1.00 20.00     0.136 A 
HETATM    3  C3  UNL     1     -32.706   8.291   4.813  1.00 20.00     0.253 A 
HETATM    4  N4  UNL     1     -33.526   7.640   5.606  1.00 20.00    -0.201 NA
HETATM    5  F5  UNL     1     -32.167   9.467   5.164  1.00 20.00    -0.176 F 
HETATM    6  S6  UNL     1     -32.359   7.556   3.301  1.00 20.00    -0.048 SA
HETATM    7 CL7  UNL     1     -34.994   5.393   5.769  1.00 20.00    -0.062 Cl
ENDROOT
TORSDOF 0
ENDMDL
MODEL 8
REMARK VINA RESULT:      -3.8      1.825      2.100
REMARK  0 active torsions:
REMARK  status: ('A' for Active; 'I' for Inactive)
ROOT
HETATM    1  C1  UNL     1     -34.290   4.807   4.716  1.00 20.00     0.098 A 
HETATM    2  C2  UNL     1     -33.589   5.611   3.843  1.00 20.00     0.136 A 
HETATM    3  C3  UNL     1     -33.981   7.092   5.412  1.00 20.00     0.253 A 
HETATM    4  N4  UNL     1     -33.411   6.922   4.241  1.00 20.00    -0.201 NA
HETATM    5  F5  UNL     1     -33.965   8.275   6.041  1.00 20.00    -0.176 F 
HETATM    6  S6  UNL     1     -34.750   5.717   6.094  1.00 20.00    -0.048 SA
HETATM    7 CL7  UNL     1     -32.955   5.071   2.344  1.00 20.00    -0.062 Cl
ENDROOT
TORSDOF 0
ENDMDL
MODEL 9
REMARK VINA RESULT:      -3.8      2.105      2.212
REMARK  0 active torsions:
REMARK  status: ('A' for Active; 'I' for Inactive)
ROOT
HETATM    1  C1  UNL     1     -33.087   7.785   5.216  1.00 20.00     0.098 A 
HETATM    2  C2  UNL     1     -33.045   7.145   3.995  1.00 20.00     0.136 A 
HETATM    3  C3  UNL     1     -34.381   5.761   5.048  1.00 20.00     0.253 A 
HETATM    4  N4  UNL     1     -33.787   5.983   3.898  1.00 20.00    -0.201 NA
HETATM    5  F5  UNL     1     -35.171   4.694   5.241  1.00 20.00    -0.176 F 
HETATM    6  S6  UNL     1     -34.093   6.907   6.292  1.00 20.00    -0.048 SA
HETATM    7 CL7  UNL     1     -32.146   7.709   2.649  1.00 20.00    -0.062 Cl
ENDROOT
TORSDOF 0
ENDMDL
