MODEL 1
REMARK VINA RESULT:      -4.5      0.000      0.000
REMARK  4 active torsions:
REMARK  status: ('A' for Active; 'I' for Inactive)
REMARK    1  A    between atoms: C1_1  and  C3_3 
REMARK    2  A    between atoms: C2_2  and  C7_7 
REMARK    3  A    between atoms: C2_2  and  C8_8 
REMARK    4  A    between atoms: C3_3  and  C9_9 
ROOT
HETATM    1  C1  UNL     1     -33.707   5.914   3.684  1.00 20.00     0.164 C 
HETATM    2  C2  UNL     1     -33.026   7.057   3.478  1.00 20.00    -0.038 C 
HETATM    3  F11 UNL     1     -33.326   4.787   3.041  1.00 20.00    -0.202 F 
ENDROOT
BRANCH   1   4
HETATM    4  C3  UNL     1     -34.877   5.705   4.587  1.00 20.00     0.187 C 
HETATM    5  O10 UNL     1     -36.033   5.823   4.192  1.00 20.00    -0.290 OA
BRANCH   4   6
HETATM    6  C9  UNL     1     -34.546   5.306   6.016  1.00 20.00     0.082 C 
HETATM    7  C6  UNL     1     -34.298   6.508   6.911  1.00 20.00     0.013 C 
ENDBRANCH   4   6
ENDBRANCH   1   4
BRANCH   2   8
HETATM    8  C7  UNL     1     -31.843   7.208   2.546  1.00 20.00     0.033 C 
HETATM    9  C4  UNL     1     -32.154   8.112   1.361  1.00 20.00     0.010 C 
ENDBRANCH   2   8
BRANCH   2  10
HETATM   10  C8  UNL     1     -33.444   8.322   4.204  1.00 20.00     0.033 C 
HETATM   11  C5  UNL     1     -32.289   8.968   4.957  1.00 20.00     0.010 C 
ENDBRANCH   2  10
TORSDOF 4
ENDMDL
MODEL 2
REMARK VINA RESULT:      -4.3      2.280      4.635
REMARK  4 active torsions:
REMARK  status: ('A' for Active; 'I' for Inactive)
REMARK    1  A    between atoms: C1_1  and  C3_3 
REMARK    2  A    between atoms: C2_2  and  C7_7 
REMARK    3  A    between atoms: C2_2  and  C8_8 
REMARK    4  A    between atoms: C3_3  and  C9_9 
ROOT
HETATM    1  C1  UNL     1     -32.805   7.951   4.269  1.00 20.00     0.164 C 
HETATM    2  C2  UNL     1     -33.664   7.071   4.817  1.00 20.00    -0.038 C 
HETATM    3  F11 UNL     1     -32.113   8.792   5.071  1.00 20.00    -0.202 F 
ENDROOT
BRANCH   1   4
HETATM    4  C3  UNL     1     -32.482   8.124   2.822  1.00 20.00     0.187 C 
HETATM    5  O10 UNL     1     -31.922   7.246   2.171  1.00 20.00    -0.290 OA
BRANCH   4   6
HETATM    6  C9  UNL     1     -32.918   9.440   2.201  1.00 20.00     0.082 C 
HETATM    7  C6  UNL     1     -32.775   9.444   0.688  1.00 20.00     0.013 C 
ENDBRANCH   4   6
ENDBRANCH   1   4
BRANCH   2   8
HETATM    8  C7  UNL     1     -33.952   6.943   6.296  1.00 20.00     0.033 C 
HETATM    9  C4  UNL     1     -34.740   5.682   6.624  1.00 20.00     0.010 C 
ENDBRANCH   2   8
BRANCH   2  10
HETATM   10  C8  UNL     1     -34.437   6.120   3.922  1.00 20.00     0.033 C 
HETATM   11  C5  UNL     1     -33.670   4.835   3.641  1.00 20.00     0.010 C 
ENDBRANCH   2  10
TORSDOF 4
ENDMDL
MODEL 3
REMARK VINA RESULT:      -4.0     11.879     12.956
REMARK  4 active torsions:
REMARK  status: ('A' for Active; 'I' for Inactive)
REMARK    1  A    between atoms: C1_1  and  C3_3 
REMARK    2  A    between atoms: C2_2  and  C7_7 
REMARK    3  A    between atoms: C2_2  and  C8_8 
REMARK    4  A    between atoms: C3_3  and  C9_9 
ROOT
HETATM    1  C1  UNL     1     -33.644  15.342  -4.617  1.00 20.00     0.164 C 
HETATM    2  C2  UNL     1     -33.763  16.464  -3.882  1.00 20.00    -0.038 C 
HETATM    3  F11 UNL     1     -32.820  14.355  -4.197  1.00 20.00    -0.202 F 
ENDROOT
BRANCH   1   4
HETATM    4  C3  UNL     1     -34.348  15.012  -5.891  1.00 20.00     0.187 C 
HETATM    5  O10 UNL     1     -33.776  15.039  -6.977  1.00 20.00    -0.290 OA
BRANCH   4   6
HETATM    6  C9  UNL     1     -35.807  14.611  -5.754  1.00 20.00     0.082 C 
HETATM    7  C6  UNL     1     -36.034  13.622  -4.623  1.00 20.00     0.013 C 
ENDBRANCH   4   6
ENDBRANCH   1   4
BRANCH   2   8
HETATM    8  C7  UNL     1     -33.020  16.742  -2.594  1.00 20.00     0.033 C 
HETATM    9  C4  UNL     1     -33.884  17.474  -1.576  1.00 20.00     0.010 C 
ENDBRANCH   2   8
BRANCH   2  10
HETATM   10  C8  UNL     1     -34.694  17.569  -4.345  1.00 20.00     0.033 C 
HETATM   11  C5  UNL     1     -33.962  18.660  -5.115  1.00 20.00     0.010 C 
ENDBRANCH   2  10
TORSDOF 4
ENDMDL
MODEL 4
REMARK VINA RESULT:      -3.9      1.896      4.070
REMARK  4 active torsions:
REMARK  status: ('A' for Active; 'I' for Inactive)
REMARK    1  A    between atoms: C1_1  and  C3_3 
REMARK    2  A    between atoms: C2_2  and  C7_7 
REMARK    3  A    between atoms: C2_2  and  C8_8 
REMARK    4  A    between atoms: C3_3  and  C9_9 
ROOT
HETATM    1  C1  UNL     1     -32.951   6.397   3.319  1.00 20.00     0.164 C 
HETATM    2  C2  UNL     1     -33.943   6.435   4.229  1.00 20.00    -0.038 C 
HETATM    3  F11 UNL     1     -32.669   5.232   2.692  1.00 20.00    -0.202 F 
ENDROOT
BRANCH   1   4
HETATM    4  C3  UNL     1     -32.085   7.527   2.871  1.00 20.00     0.187 C 
HETATM    5  O10 UNL     1     -31.244   8.034   3.607  1.00 20.00    -0.290 OA
BRANCH   4   6
HETATM    6  C9  UNL     1     -32.290   7.986   1.437  1.00 20.00     0.082 C 
HETATM    7  C6  UNL     1     -32.804   9.413   1.351  1.00 20.00     0.013 C 
ENDBRANCH   4   6
ENDBRANCH   1   4
BRANCH   2   8
HETATM    8  C7  UNL     1     -34.789   5.252   4.644  1.00 20.00     0.033 C 
HETATM    9  C4  UNL     1     -34.613   4.905   6.116  1.00 20.00     0.010 C 
ENDBRANCH   2   8
BRANCH   2  10
HETATM   10  C8  UNL     1     -34.270   7.742   4.928  1.00 20.00     0.033 C 
HETATM   11  C5  UNL     1     -33.513   7.904   6.239  1.00 20.00     0.010 C 
ENDBRANCH   2  10
TORSDOF 4
ENDMDL
MODEL 5
REMARK VINA RESULT:      -3.8     12.019     13.337
REMARK  4 active torsions:
REMARK  status: ('A' for Active; 'I' for Inactive)
REMARK    1  A    between atoms: C1_1  and  C3_3 
REMARK    2  A    between atoms: C2_2  and  C7_7 
REMARK    3  A    between atoms: C2_2  and  C8_8 
REMARK    4  A    between atoms: C3_3  and  C9_9 
ROOT
HETATM    1  C1  UNL     1     -34.468  15.206  -4.814  1.00 20.00     0.164 C 
HETATM    2  C2  UNL     1     -34.188  16.353  -4.167  1.00 20.00    -0.038 C 
HETATM    3  F11 UNL     1     -33.708  14.111  -4.587  1.00 20.00    -0.202 F 
ENDROOT
BRANCH   1   4
HETATM    4  C3  UNL     1     -35.573  14.959  -5.787  1.00 20.00     0.187 C 
HETATM    5  O10 UNL     1     -36.647  14.473  -5.443  1.00 20.00    -0.290 OA
BRANCH   4   6
HETATM    6  C9  UNL     1     -35.295  15.378  -7.222  1.00 20.00     0.082 C 
HETATM    7  C6  UNL     1     -33.809  15.429  -7.534  1.00 20.00     0.013 C 
ENDBRANCH   4   6
ENDBRANCH   1   4
BRANCH   2   8
HETATM    8  C7  UNL     1     -33.050  16.543  -3.189  1.00 20.00     0.033 C 
HETATM    9  C4  UNL     1     -33.533  17.030  -1.829  1.00 20.00     0.010 C 
ENDBRANCH   2   8
BRANCH   2  10
HETATM   10  C8  UNL     1     -35.044  17.581  -4.412  1.00 20.00     0.033 C 
HETATM   11  C5  UNL     1     -34.374  18.579  -5.347  1.00 20.00     0.010 C 
ENDBRANCH   2  10
TORSDOF 4
ENDMDL
MODEL 6
REMARK VINA RESULT:      -3.7      9.895     11.007
REMARK  4 active torsions:
REMARK  status: ('A' for Active; 'I' for Inactive)
REMARK    1  A    between atoms: C1_1  and  C3_3 
REMARK    2  A    between atoms: C2_2  and  C7_7 
REMARK    3  A    between atoms: C2_2  and  C8_8 
REMARK    4  A    between atoms: C3_3  and  C9_9 
ROOT
HETATM    1  C1  UNL     1     -41.474  12.976   6.698  1.00 20.00     0.164 C 
HETATM    2  C2  UNL     1     -41.389  13.939   7.634  1.00 20.00    -0.038 C 
HETATM    3  F11 UNL     1     -42.340  11.952   6.873  1.00 20.00    -0.202 F 
ENDROOT
BRANCH   1   4
HETATM    4  C3  UNL     1     -40.716  12.888   5.414  1.00 20.00     0.187 C 
HETATM    5  O10 UNL     1     -41.095  13.456   4.395  1.00 20.00    -0.290 OA
BRANCH   4   6
HETATM    6  C9  UNL     1     -39.431  12.078   5.462  1.00 20.00     0.082 C 
HETATM    7  C6  UNL     1     -38.947  11.675   4.079  1.00 20.00     0.013 C 
ENDBRANCH   4   6
ENDBRANCH   1   4
BRANCH   2   8
HETATM    8  C7  UNL     1     -42.185  13.974   8.920  1.00 20.00     0.033 C 
HETATM    9  C4  UNL     1     -41.299  14.169  10.143  1.00 20.00     0.010 C 
ENDBRANCH   2   8
BRANCH   2  10
HETATM   10  C8  UNL     1     -40.426  15.095   7.437  1.00 20.00     0.033 C 
HETATM   11  C5  UNL     1     -41.144  16.418   7.213  1.00 20.00     0.010 C 
ENDBRANCH   2  10
TORSDOF 4
ENDMDL
MODEL 7
REMARK VINA RESULT:      -3.7      2.038      2.774
REMARK  4 active torsions:
REMARK  status: ('A' for Active; 'I' for Inactive)
REMARK    1  A    between atoms: C1_1  and  C3_3 
REMARK    2  A    between atoms: C2_2  and  C7_7 
REMARK    3  A    between atoms: C2_2  and  C8_8 
REMARK    4  A    between atoms: C3_3  and  C9_9 
ROOT
HETATM    1  C1  UNL     1     -32.738   8.065   4.349  1.00 20.00     0.164 C 
HETATM    2  C2  UNL     1     -32.707   7.284   3.253  1.00 20.00    -0.038 C 
HETATM    3  F11 UNL     1     -31.964   9.173   4.399  1.00 20.00    -0.202 F 
ENDROOT
BRANCH   1   4
HETATM    4  C3  UNL     1     -33.567   7.875   5.576  1.00 20.00     0.187 C 
HETATM    5  O10 UNL     1     -34.384   8.713   5.945  1.00 20.00    -0.290 OA
BRANCH   4   6
HETATM    6  C9  UNL     1     -33.358   6.565   6.318  1.00 20.00     0.082 C 
HETATM    7  C6  UNL     1     -34.633   5.747   6.424  1.00 20.00     0.013 C 
ENDBRANCH   4   6
ENDBRANCH   1   4
BRANCH   2   8
HETATM    8  C7  UNL     1     -31.841   7.529   2.036  1.00 20.00     0.033 C 
HETATM    9  C4  UNL     1     -32.431   8.586   1.112  1.00 20.00     0.010 C 
ENDBRANCH   2   8
BRANCH   2  10
HETATM   10  C8  UNL     1     -33.580   6.045   3.188  1.00 20.00     0.033 C 
HETATM   11  C5  UNL     1     -32.865   4.863   2.548  1.00 20.00     0.010 C 
ENDBRANCH   2  10
TORSDOF 4
ENDMDL
MODEL 8
REMARK VINA RESULT:      -3.5     12.211     13.778
REMARK  4 active torsions:
REMARK  status: ('A' for Active; 'I' for Inactive)
REMARK    1  A    between atoms: C1_1  and  C3_3 
REMARK    2  A    between atoms: C2_2  and  C7_7 
REMARK    3  A    between atoms: C2_2  and  C8_8 
REMARK    4  A    between atoms: C3_3  and  C9_9 
ROOT
HETATM    1  C1  UNL     1     -34.620  17.647  -3.964  1.00 20.00     0.164 C 
HETATM    2  C2  UNL     1     -33.807  16.828  -3.272  1.00 20.00    -0.038 C 
HETATM    3  F11 UNL     1     -35.223  18.679  -3.330  1.00 20.00    -0.202 F 
ENDROOT
BRANCH   1   4
HETATM    4  C3  UNL     1     -34.952  17.581  -5.418  1.00 20.00     0.187 C 
HETATM    5  O10 UNL     1     -34.250  18.115  -6.271  1.00 20.00    -0.290 OA
BRANCH   4   6
HETATM    6  C9  UNL     1     -36.196  16.783  -5.775  1.00 20.00     0.082 C 
HETATM    7  C6  UNL     1     -35.927  15.737  -6.844  1.00 20.00     0.013 C 
ENDBRANCH   4   6
ENDBRANCH   1   4
BRANCH   2   8
HETATM    8  C7  UNL     1     -33.509  16.946  -1.793  1.00 20.00     0.033 C 
HETATM    9  C4  UNL     1     -32.524  18.067  -1.490  1.00 20.00     0.010 C 
ENDBRANCH   2   8
BRANCH   2  10
HETATM   10  C8  UNL     1     -33.121  15.675  -3.981  1.00 20.00     0.033 C 
HETATM   11  C5  UNL     1     -33.960  14.405  -3.970  1.00 20.00     0.010 C 
ENDBRANCH   2  10
TORSDOF 4
ENDMDL
MODEL 9
REMARK VINA RESULT:      -3.5     12.244     13.202
REMARK  4 active torsions:
REMARK  status: ('A' for Active; 'I' for Inactive)
REMARK    1  A    between atoms: C1_1  and  C3_3 
REMARK    2  A    between atoms: C2_2  and  C7_7 
REMARK    3  A    between atoms: C2_2  and  C8_8 
REMARK    4  A    between atoms: C3_3  and  C9_9 
ROOT
HETATM    1  C1  UNL     1     -33.488  16.326  -3.927  1.00 20.00     0.164 C 
HETATM    2  C2  UNL     1     -34.483  16.212  -4.827  1.00 20.00    -0.038 C 
HETATM    3  F11 UNL     1     -32.535  15.368  -3.865  1.00 20.00    -0.202 F 
ENDROOT
BRANCH   1   4
HETATM    4  C3  UNL     1     -33.270  17.432  -2.949  1.00 20.00     0.187 C 
HETATM    5  O10 UNL     1     -32.824  18.523  -3.289  1.00 20.00    -0.290 OA
BRANCH   4   6
HETATM    6  C9  UNL     1     -33.666  17.130  -1.513  1.00 20.00     0.082 C 
HETATM    7  C6  UNL     1     -33.140  18.167  -0.535  1.00 20.00     0.013 C 
ENDBRANCH   4   6
ENDBRANCH   1   4
BRANCH   2   8
HETATM    8  C7  UNL     1     -34.652  15.063  -5.796  1.00 20.00     0.033 C 
HETATM    9  C4  UNL     1     -33.990  15.338  -7.139  1.00 20.00     0.010 C 
ENDBRANCH   2   8
BRANCH   2  10
HETATM   10  C8  UNL     1     -35.549  17.289  -4.907  1.00 20.00     0.033 C 
HETATM   11  C5  UNL     1     -36.916  16.727  -5.273  1.00 20.00     0.010 C 
ENDBRANCH   2  10
TORSDOF 4
ENDMDL
