MODEL 1
REMARK VINA RESULT:      -4.4      0.000      0.000
REMARK  1 active torsions:
REMARK  status: ('A' for Active; 'I' for Inactive)
REMARK    1  A    between atoms: C6_6  and  C11_11 
ROOT
HETATM    1  C1  UNL     1     -34.596  17.138  -4.390  1.00 20.00    -0.014 C 
HETATM    2  C2  UNL     1     -33.749  16.305  -3.748  1.00 20.00    -0.074 C 
HETATM    3  C3  UNL     1     -34.902  18.478  -3.779  1.00 20.00     0.155 C 
HETATM    4  C4  UNL     1     -33.158  16.616  -2.389  1.00 20.00     0.039 C 
HETATM    5  C5  UNL     1     -34.198  18.881  -2.505  1.00 20.00     0.088 C 
HETATM    6  C6  UNL     1     -33.953  17.670  -1.617  1.00 20.00     0.000 C 
HETATM    7  C7  UNL     1     -35.282  16.864  -5.698  1.00 20.00     0.052 C 
HETATM    8  C8  UNL     1     -33.282  14.984  -4.304  1.00 20.00     0.044 C 
HETATM    9  O12 UNL     1     -35.666  19.263  -4.343  1.00 20.00    -0.293 OA
ENDROOT
BRANCH   6  10
HETATM   10  C11 UNL     1     -33.231  18.067  -0.332  1.00 20.00    -0.018 C 
HETATM   11  C9  UNL     1     -31.810  18.536  -0.636  1.00 20.00     0.010 C 
HETATM   12  C10 UNL     1     -34.009  19.154   0.407  1.00 20.00     0.010 C 
ENDBRANCH   6  10
TORSDOF 1
ENDMDL
MODEL 2
REMARK VINA RESULT:      -4.3      1.636      2.703
REMARK  1 active torsions:
REMARK  status: ('A' for Active; 'I' for Inactive)
REMARK    1  A    between atoms: C6_6  and  C11_11 
ROOT
HETATM    1  C1  UNL     1     -34.526  16.810  -4.567  1.00 20.00    -0.014 C 
HETATM    2  C2  UNL     1     -35.075  17.953  -4.103  1.00 20.00    -0.074 C 
HETATM    3  C3  UNL     1     -33.527  16.082  -3.711  1.00 20.00     0.155 C 
HETATM    4  C4  UNL     1     -34.664  18.594  -2.795  1.00 20.00     0.039 C 
HETATM    5  C5  UNL     1     -33.221  16.612  -2.329  1.00 20.00     0.088 C 
HETATM    6  C6  UNL     1     -33.290  18.132  -2.307  1.00 20.00     0.000 C 
HETATM    7  C7  UNL     1     -34.825  16.159  -5.888  1.00 20.00     0.052 C 
HETATM    8  C8  UNL     1     -36.160  18.717  -4.817  1.00 20.00     0.044 C 
HETATM    9  O12 UNL     1     -33.013  15.033  -4.102  1.00 20.00    -0.293 OA
ENDROOT
BRANCH   6  10
HETATM   10  C11 UNL     1     -32.993  18.675  -0.912  1.00 20.00    -0.018 C 
HETATM   11  C9  UNL     1     -33.875  17.991   0.131  1.00 20.00     0.010 C 
HETATM   12  C10 UNL     1     -31.516  18.495  -0.568  1.00 20.00     0.010 C 
ENDBRANCH   6  10
TORSDOF 1
ENDMDL
MODEL 3
REMARK VINA RESULT:      -4.1     11.137     12.541
REMARK  1 active torsions:
REMARK  status: ('A' for Active; 'I' for Inactive)
REMARK    1  A    between atoms: C6_6  and  C11_11 
ROOT
HETATM    1  C1  UNL     1     -42.315  14.605   6.528  1.00 20.00    -0.014 C 
HETATM    2  C2  UNL     1     -42.123  14.345   5.217  1.00 20.00    -0.074 C 
HETATM    3  C3  UNL     1     -41.356  14.029   7.533  1.00 20.00     0.155 C 
HETATM    4  C4  UNL     1     -41.038  13.420   4.711  1.00 20.00     0.039 C 
HETATM    5  C5  UNL     1     -40.167  13.236   7.041  1.00 20.00     0.088 C 
HETATM    6  C6  UNL     1     -40.521  12.459   5.782  1.00 20.00     0.000 C 
HETATM    7  C7  UNL     1     -43.416  15.447   7.110  1.00 20.00     0.052 C 
HETATM    8  C8  UNL     1     -42.949  14.946   4.109  1.00 20.00     0.044 C 
HETATM    9  O12 UNL     1     -41.500  14.253   8.736  1.00 20.00    -0.293 OA
ENDROOT
BRANCH   6  10
HETATM   10  C11 UNL     1     -39.321  11.665   5.272  1.00 20.00    -0.018 C 
HETATM   11  C9  UNL     1     -39.181  11.812   3.759  1.00 20.00     0.010 C 
HETATM   12  C10 UNL     1     -38.041  12.113   5.976  1.00 20.00     0.010 C 
ENDBRANCH   6  10
TORSDOF 1
ENDMDL
MODEL 4
REMARK VINA RESULT:      -4.0     11.749     13.034
REMARK  1 active torsions:
REMARK  status: ('A' for Active; 'I' for Inactive)
REMARK    1  A    between atoms: C6_6  and  C11_11 
ROOT
HETATM    1  C1  UNL     1     -33.903   6.129   5.034  1.00 20.00    -0.014 C 
HETATM    2  C2  UNL     1     -33.584   7.417   5.283  1.00 20.00    -0.074 C 
HETATM    3  C3  UNL     1     -33.489   5.517   3.724  1.00 20.00     0.155 C 
HETATM    4  C4  UNL     1     -32.905   8.310   4.267  1.00 20.00     0.039 C 
HETATM    5  C5  UNL     1     -32.666   6.338   2.758  1.00 20.00     0.088 C 
HETATM    6  C6  UNL     1     -33.056   7.807   2.831  1.00 20.00     0.000 C 
HETATM    7  C7  UNL     1     -34.645   5.208   5.960  1.00 20.00     0.052 C 
HETATM    8  C8  UNL     1     -33.850   8.112   6.594  1.00 20.00     0.044 C 
HETATM    9  O12 UNL     1     -33.760   4.343   3.469  1.00 20.00    -0.293 OA
ENDROOT
BRANCH   6  10
HETATM   10  C11 UNL     1     -32.221   8.645   1.866  1.00 20.00    -0.018 C 
HETATM   11  C9  UNL     1     -31.942   7.868   0.582  1.00 20.00     0.010 C 
HETATM   12  C10 UNL     1     -32.924   9.965   1.554  1.00 20.00     0.010 C 
ENDBRANCH   6  10
TORSDOF 1
ENDMDL
MODEL 5
REMARK VINA RESULT:      -4.0      0.846      1.214
REMARK  1 active torsions:
REMARK  status: ('A' for Active; 'I' for Inactive)
REMARK    1  A    between atoms: C6_6  and  C11_11 
ROOT
HETATM    1  C1  UNL     1     -34.254  17.071  -4.896  1.00 20.00    -0.014 C 
HETATM    2  C2  UNL     1     -33.694  16.313  -3.929  1.00 20.00    -0.074 C 
HETATM    3  C3  UNL     1     -34.451  18.541  -4.648  1.00 20.00     0.155 C 
HETATM    4  C4  UNL     1     -33.336  16.855  -2.561  1.00 20.00     0.039 C 
HETATM    5  C5  UNL     1     -33.953  19.139  -3.352  1.00 20.00     0.088 C 
HETATM    6  C6  UNL     1     -34.085  18.142  -2.211  1.00 20.00     0.000 C 
HETATM    7  C7  UNL     1     -34.707  16.588  -6.245  1.00 20.00     0.052 C 
HETATM    8  C8  UNL     1     -33.349  14.856  -4.094  1.00 20.00     0.044 C 
HETATM    9  O12 UNL     1     -34.953  19.261  -5.512  1.00 20.00    -0.293 OA
ENDROOT
BRANCH   6  10
HETATM   10  C11 UNL     1     -33.572  18.734  -0.901  1.00 20.00    -0.018 C 
HETATM   11  C9  UNL     1     -33.840  17.783   0.262  1.00 20.00     0.010 C 
HETATM   12  C10 UNL     1     -32.081  19.052  -1.003  1.00 20.00     0.010 C 
ENDBRANCH   6  10
TORSDOF 1
ENDMDL
MODEL 6
REMARK VINA RESULT:      -4.0     12.054     12.986
REMARK  1 active torsions:
REMARK  status: ('A' for Active; 'I' for Inactive)
REMARK    1  A    between atoms: C6_6  and  C11_11 
ROOT
HETATM    1  C1  UNL     1     -32.529   7.338   2.530  1.00 20.00    -0.014 C 
HETATM    2  C2  UNL     1     -32.960   6.071   2.712  1.00 20.00    -0.074 C 
HETATM    3  C3  UNL     1     -32.666   8.323   3.658  1.00 20.00     0.155 C 
HETATM    4  C4  UNL     1     -33.663   5.613   3.972  1.00 20.00     0.039 C 
HETATM    5  C5  UNL     1     -33.214   7.849   4.984  1.00 20.00     0.088 C 
HETATM    6  C6  UNL     1     -34.263   6.766   4.778  1.00 20.00     0.000 C 
HETATM    7  C7  UNL     1     -31.897   7.885   1.282  1.00 20.00     0.052 C 
HETATM    8  C8  UNL     1     -32.785   4.968   1.701  1.00 20.00     0.044 C 
HETATM    9  O12 UNL     1     -32.277   9.484   3.526  1.00 20.00    -0.293 OA
ENDROOT
BRANCH   6  10
HETATM   10  C11 UNL     1     -34.814   6.273   6.113  1.00 20.00    -0.018 C 
HETATM   11  C9  UNL     1     -34.425   4.816   6.351  1.00 20.00     0.010 C 
HETATM   12  C10 UNL     1     -34.317   7.155   7.257  1.00 20.00     0.010 C 
ENDBRANCH   6  10
TORSDOF 1
ENDMDL
MODEL 7
REMARK VINA RESULT:      -3.8     11.873     13.014
REMARK  1 active torsions:
REMARK  status: ('A' for Active; 'I' for Inactive)
REMARK    1  A    between atoms: C6_6  and  C11_11 
ROOT
HETATM    1  C1  UNL     1     -33.988   6.103   5.259  1.00 20.00    -0.014 C 
HETATM    2  C2  UNL     1     -33.672   5.561   4.064  1.00 20.00    -0.074 C 
HETATM    3  C3  UNL     1     -33.845   7.589   5.445  1.00 20.00     0.155 C 
HETATM    4  C4  UNL     1     -33.089   6.365   2.921  1.00 20.00     0.039 C 
HETATM    5  C5  UNL     1     -33.421   8.438   4.269  1.00 20.00     0.088 C 
HETATM    6  C6  UNL     1     -32.450   7.678   3.377  1.00 20.00     0.000 C 
HETATM    7  C7  UNL     1     -34.494   5.358   6.461  1.00 20.00     0.052 C 
HETATM    8  C8  UNL     1     -33.870   4.107   3.720  1.00 20.00     0.044 C 
HETATM    9  O12 UNL     1     -34.130   8.115   6.521  1.00 20.00    -0.293 OA
ENDROOT
BRANCH   6  10
HETATM   10  C11 UNL     1     -32.027   8.525   2.180  1.00 20.00    -0.018 C 
HETATM   11  C9  UNL     1     -32.020   7.688   0.903  1.00 20.00     0.010 C 
HETATM   12  C10 UNL     1     -32.947   9.734   2.024  1.00 20.00     0.010 C 
ENDBRANCH   6  10
TORSDOF 1
ENDMDL
MODEL 8
REMARK VINA RESULT:      -3.7     10.894     12.468
REMARK  1 active torsions:
REMARK  status: ('A' for Active; 'I' for Inactive)
REMARK    1  A    between atoms: C6_6  and  C11_11 
ROOT
HETATM    1  C1  UNL     1     -42.083  15.849   6.526  1.00 20.00    -0.014 C 
HETATM    2  C2  UNL     1     -41.147  15.375   7.377  1.00 20.00    -0.074 C 
HETATM    3  C3  UNL     1     -42.524  14.988   5.374  1.00 20.00     0.155 C 
HETATM    4  C4  UNL     1     -40.448  14.048   7.177  1.00 20.00     0.039 C 
HETATM    5  C5  UNL     1     -41.960  13.592   5.245  1.00 20.00     0.088 C 
HETATM    6  C6  UNL     1     -40.520  13.543   5.735  1.00 20.00     0.000 C 
HETATM    7  C7  UNL     1     -42.760  17.187   6.615  1.00 20.00     0.052 C 
HETATM    8  C8  UNL     1     -40.699  16.095   8.622  1.00 20.00     0.044 C 
HETATM    9  O12 UNL     1     -43.379  15.389   4.584  1.00 20.00    -0.293 OA
ENDROOT
BRANCH   6  10
HETATM   10  C11 UNL     1     -39.948  12.133   5.619  1.00 20.00    -0.018 C 
HETATM   11  C9  UNL     1     -39.411  11.884   4.211  1.00 20.00     0.010 C 
HETATM   12  C10 UNL     1     -38.852  11.910   6.659  1.00 20.00     0.010 C 
ENDBRANCH   6  10
TORSDOF 1
ENDMDL
MODEL 9
REMARK VINA RESULT:      -3.6      2.170      4.950
REMARK  1 active torsions:
REMARK  status: ('A' for Active; 'I' for Inactive)
REMARK    1  A    between atoms: C6_6  and  C11_11 
ROOT
HETATM    1  C1  UNL     1     -32.907  18.901   0.223  1.00 20.00    -0.014 C 
HETATM    2  C2  UNL     1     -34.229  19.078   0.012  1.00 20.00    -0.074 C 
HETATM    3  C3  UNL     1     -31.982  18.836  -0.962  1.00 20.00     0.155 C 
HETATM    4  C4  UNL     1     -34.844  19.122  -1.370  1.00 20.00     0.039 C 
HETATM    5  C5  UNL     1     -32.550  19.042  -2.347  1.00 20.00     0.088 C 
HETATM    6  C6  UNL     1     -33.961  18.481  -2.441  1.00 20.00     0.000 C 
HETATM    7  C7  UNL     1     -32.236  18.767   1.561  1.00 20.00     0.052 C 
HETATM    8  C8  UNL     1     -35.240  19.263   1.113  1.00 20.00     0.044 C 
HETATM    9  O12 UNL     1     -30.771  18.682  -0.803  1.00 20.00    -0.293 OA
ENDROOT
BRANCH   6  10
HETATM   10  C11 UNL     1     -34.545  18.696  -3.835  1.00 20.00    -0.018 C 
HETATM   11  C9  UNL     1     -34.409  17.430  -4.677  1.00 20.00     0.010 C 
HETATM   12  C10 UNL     1     -36.009  19.125  -3.743  1.00 20.00     0.010 C 
ENDBRANCH   6  10
TORSDOF 1
ENDMDL
