MODEL 1
REMARK VINA RESULT:      -4.9      0.000      0.000
REMARK  0 active torsions:
REMARK  status: ('A' for Active; 'I' for Inactive)
ROOT
HETATM    1  C1  UNL     1     -33.310   7.152   5.105  1.00 20.00     0.146 C 
HETATM    2  C2  UNL     1     -34.170   7.095   6.365  1.00 20.00     0.084 C 
HETATM    3  C3  UNL     1     -35.408   5.870   4.553  1.00 20.00     0.034 C 
HETATM    4  C4  UNL     1     -33.935   4.743   5.509  1.00 20.00     0.034 C 
HETATM    5  C5  UNL     1     -34.970   5.796   6.067  1.00 20.00    -0.004 C 
HETATM    6  C6  UNL     1     -33.843   5.843   4.386  1.00 20.00     0.079 C 
HETATM    7  O7  UNL     1     -32.485   8.000   4.832  1.00 20.00    -0.296 OA
HETATM    8 BR8  UNL     1     -33.077   5.426   2.716  1.00 20.00    -0.077 Br
ENDROOT
TORSDOF 0
ENDMDL
MODEL 2
REMARK VINA RESULT:      -4.3      1.855      2.526
REMARK  0 active torsions:
REMARK  status: ('A' for Active; 'I' for Inactive)
ROOT
HETATM    1  C1  UNL     1     -33.462   5.563   3.769  1.00 20.00     0.146 C 
HETATM    2  C2  UNL     1     -34.412   4.712   4.608  1.00 20.00     0.084 C 
HETATM    3  C3  UNL     1     -33.476   6.496   6.110  1.00 20.00     0.034 C 
HETATM    4  C4  UNL     1     -35.077   7.116   4.925  1.00 20.00     0.034 C 
HETATM    5  C5  UNL     1     -34.806   5.760   5.686  1.00 20.00    -0.004 C 
HETATM    6  C6  UNL     1     -33.551   6.914   4.594  1.00 20.00     0.079 C 
HETATM    7  O7  UNL     1     -32.862   5.209   2.775  1.00 20.00    -0.296 OA
HETATM    8 BR8  UNL     1     -32.524   8.360   3.959  1.00 20.00    -0.077 Br
ENDROOT
TORSDOF 0
ENDMDL
MODEL 3
REMARK VINA RESULT:      -4.1      2.078      2.819
REMARK  0 active torsions:
REMARK  status: ('A' for Active; 'I' for Inactive)
ROOT
HETATM    1  C1  UNL     1     -32.802   6.645   3.497  1.00 20.00     0.146 C 
HETATM    2  C2  UNL     1     -31.949   7.883   3.755  1.00 20.00     0.084 C 
HETATM    3  C3  UNL     1     -34.271   8.386   4.574  1.00 20.00     0.034 C 
HETATM    4  C4  UNL     1     -33.098   7.299   5.914  1.00 20.00     0.034 C 
HETATM    5  C5  UNL     1     -32.741   8.493   4.946  1.00 20.00    -0.004 C 
HETATM    6  C6  UNL     1     -33.893   6.859   4.628  1.00 20.00     0.079 C 
HETATM    7  O7  UNL     1     -32.611   5.801   2.645  1.00 20.00    -0.296 OA
HETATM    8 BR8  UNL     1     -35.245   5.553   4.755  1.00 20.00    -0.077 Br
ENDROOT
TORSDOF 0
ENDMDL
MODEL 4
REMARK VINA RESULT:      -3.7      1.745      2.488
REMARK  0 active torsions:
REMARK  status: ('A' for Active; 'I' for Inactive)
ROOT
HETATM    1  C1  UNL     1     -34.149   5.269   4.825  1.00 20.00     0.146 C 
HETATM    2  C2  UNL     1     -34.827   5.565   6.160  1.00 20.00     0.084 C 
HETATM    3  C3  UNL     1     -32.928   7.192   5.903  1.00 20.00     0.034 C 
HETATM    4  C4  UNL     1     -34.674   7.734   4.897  1.00 20.00     0.034 C 
HETATM    5  C5  UNL     1     -34.448   7.066   6.308  1.00 20.00    -0.004 C 
HETATM    6  C6  UNL     1     -33.538   6.704   4.536  1.00 20.00     0.079 C 
HETATM    7  O7  UNL     1     -34.140   4.205   4.239  1.00 20.00    -0.296 OA
HETATM    8 BR8  UNL     1     -32.558   6.899   2.940  1.00 20.00    -0.077 Br
ENDROOT
TORSDOF 0
ENDMDL
MODEL 5
REMARK VINA RESULT:      -3.6     15.962     16.607
REMARK  0 active torsions:
REMARK  status: ('A' for Active; 'I' for Inactive)
ROOT
HETATM    1  C1  UNL     1     -24.693  18.739  10.122  1.00 20.00     0.146 C 
HETATM    2  C2  UNL     1     -25.369  18.817  11.488  1.00 20.00     0.084 C 
HETATM    3  C3  UNL     1     -24.038  16.686  11.429  1.00 20.00     0.034 C 
HETATM    4  C4  UNL     1     -22.923  18.390  11.884  1.00 20.00     0.034 C 
HETATM    5  C5  UNL     1     -24.376  17.949  12.312  1.00 20.00    -0.004 C 
HETATM    6  C6  UNL     1     -23.456  17.827  10.513  1.00 20.00     0.079 C 
HETATM    7  O7  UNL     1     -25.075  19.263   9.096  1.00 20.00    -0.296 OA
HETATM    8 BR8  UNL     1     -22.247  17.407   9.131  1.00 20.00    -0.077 Br
ENDROOT
TORSDOF 0
ENDMDL
MODEL 6
REMARK VINA RESULT:      -3.6     16.107     17.001
REMARK  0 active torsions:
REMARK  status: ('A' for Active; 'I' for Inactive)
ROOT
HETATM    1  C1  UNL     1     -22.432  18.407  11.469  1.00 20.00     0.146 C 
HETATM    2  C2  UNL     1     -23.690  18.451  12.332  1.00 20.00     0.084 C 
HETATM    3  C3  UNL     1     -24.411  18.708   9.938  1.00 20.00     0.034 C 
HETATM    4  C4  UNL     1     -24.073  16.737  10.533  1.00 20.00     0.034 C 
HETATM    5  C5  UNL     1     -24.731  17.956  11.288  1.00 20.00    -0.004 C 
HETATM    6  C6  UNL     1     -23.080  17.887  10.118  1.00 20.00     0.079 C 
HETATM    7  O7  UNL     1     -21.307  18.705  11.816  1.00 20.00    -0.296 OA
HETATM    8 BR8  UNL     1     -21.913  17.647   8.660  1.00 20.00    -0.077 Br
ENDROOT
TORSDOF 0
ENDMDL
MODEL 7
REMARK VINA RESULT:      -3.6     16.786     17.262
REMARK  0 active torsions:
REMARK  status: ('A' for Active; 'I' for Inactive)
ROOT
HETATM    1  C1  UNL     1     -24.277  18.979   9.632  1.00 20.00     0.146 C 
HETATM    2  C2  UNL     1     -23.875  19.097   8.164  1.00 20.00     0.084 C 
HETATM    3  C3  UNL     1     -21.775  19.262   9.535  1.00 20.00     0.034 C 
HETATM    4  C4  UNL     1     -22.436  17.312   9.196  1.00 20.00     0.034 C 
HETATM    5  C5  UNL     1     -22.411  18.583   8.261  1.00 20.00    -0.004 C 
HETATM    6  C6  UNL     1     -22.914  18.414  10.214  1.00 20.00     0.079 C 
HETATM    7  O7  UNL     1     -25.356  19.263  10.111  1.00 20.00    -0.296 OA
HETATM    8 BR8  UNL     1     -22.864  18.075  12.066  1.00 20.00    -0.077 Br
ENDROOT
TORSDOF 0
ENDMDL
MODEL 8
REMARK VINA RESULT:      -3.4      1.681      2.513
REMARK  0 active torsions:
REMARK  status: ('A' for Active; 'I' for Inactive)
ROOT
HETATM    1  C1  UNL     1     -34.137   5.848   5.456  1.00 20.00     0.146 C 
HETATM    2  C2  UNL     1     -34.340   7.006   6.429  1.00 20.00     0.084 C 
HETATM    3  C3  UNL     1     -32.463   7.643   4.883  1.00 20.00     0.034 C 
HETATM    4  C4  UNL     1     -34.373   7.963   4.105  1.00 20.00     0.034 C 
HETATM    5  C5  UNL     1     -33.790   8.169   5.557  1.00 20.00    -0.004 C 
HETATM    6  C6  UNL     1     -33.508   6.654   4.244  1.00 20.00     0.079 C 
HETATM    7  O7  UNL     1     -34.412   4.682   5.653  1.00 20.00    -0.296 OA
HETATM    8 BR8  UNL     1     -33.052   5.657   2.712  1.00 20.00    -0.077 Br
ENDROOT
TORSDOF 0
ENDMDL
MODEL 9
REMARK VINA RESULT:      -3.4     10.087     10.606
REMARK  0 active torsions:
REMARK  status: ('A' for Active; 'I' for Inactive)
ROOT
HETATM    1  C1  UNL     1     -41.671  13.958   4.662  1.00 20.00     0.146 C 
HETATM    2  C2  UNL     1     -42.586  14.665   5.658  1.00 20.00     0.084 C 
HETATM    3  C3  UNL     1     -41.939  12.457   6.668  1.00 20.00     0.034 C 
HETATM    4  C4  UNL     1     -40.518  13.966   6.904  1.00 20.00     0.034 C 
HETATM    5  C5  UNL     1     -42.094  13.997   6.972  1.00 20.00    -0.004 C 
HETATM    6  C6  UNL     1     -40.866  13.043   5.676  1.00 20.00     0.079 C 
HETATM    7  O7  UNL     1     -41.647  14.124   3.459  1.00 20.00    -0.296 OA
HETATM    8 BR8  UNL     1     -39.547  11.920   4.936  1.00 20.00    -0.077 Br
ENDROOT
TORSDOF 0
ENDMDL
