MODEL 1
REMARK VINA RESULT:      -4.0      0.000      0.000
REMARK  1 active torsions:
REMARK  status: ('A' for Active; 'I' for Inactive)
REMARK    1  A    between atoms: C6_6  and  C10_10 
ROOT
HETATM    1  C1  UNL     1     -32.213   7.363   2.552  1.00 20.00     0.014 C 
HETATM    2  C2  UNL     1     -32.764   6.213   3.408  1.00 20.00     0.039 C 
HETATM    3  C3  UNL     1     -34.198   8.125   3.627  1.00 20.00     0.049 C 
HETATM    4  C4  UNL     1     -32.177   8.743   4.625  1.00 20.00     0.177 C 
HETATM    5  C5  UNL     1     -32.808   8.612   3.235  1.00 20.00    -0.020 C 
HETATM    6  C6  UNL     1     -33.627   6.965   4.434  1.00 20.00     0.064 C 
HETATM    7  C7  UNL     1     -32.750   9.867   2.397  1.00 20.00     0.017 C 
HETATM    8  O11 UNL     1     -32.713   7.613   5.352  1.00 20.00    -0.379 OA
ENDROOT
BRANCH   6   9
HETATM    9  C10 UNL     1     -34.626   6.111   5.175  1.00 20.00     0.012 C 
HETATM   10  C8  UNL     1     -34.482   4.633   4.795  1.00 20.00     0.012 C 
HETATM   11  C9  UNL     1     -34.479   6.277   6.692  1.00 20.00     0.012 C 
ENDBRANCH   6   9
TORSDOF 1
ENDMDL
MODEL 2
REMARK VINA RESULT:      -4.0      9.314     10.376
REMARK  1 active torsions:
REMARK  status: ('A' for Active; 'I' for Inactive)
REMARK    1  A    between atoms: C6_6  and  C10_10 
ROOT
HETATM    1  C1  UNL     1     -41.506  14.983   6.867  1.00 20.00     0.014 C 
HETATM    2  C2  UNL     1     -40.399  13.941   7.088  1.00 20.00     0.039 C 
HETATM    3  C3  UNL     1     -41.449  13.547   4.967  1.00 20.00     0.049 C 
HETATM    4  C4  UNL     1     -43.086  13.081   6.569  1.00 20.00     0.177 C 
HETATM    5  C5  UNL     1     -42.441  14.278   5.863  1.00 20.00    -0.020 C 
HETATM    6  C6  UNL     1     -40.838  12.806   6.150  1.00 20.00     0.064 C 
HETATM    7  C7  UNL     1     -43.417  15.199   5.170  1.00 20.00     0.017 C 
HETATM    8  O11 UNL     1     -41.981  12.169   6.773  1.00 20.00    -0.379 OA
ENDROOT
BRANCH   6   9
HETATM    9  C10 UNL     1     -39.765  11.797   5.825  1.00 20.00     0.012 C 
HETATM   10  C8  UNL     1     -39.443  11.792   4.326  1.00 20.00     0.012 C 
HETATM   11  C9  UNL     1     -38.489  12.064   6.632  1.00 20.00     0.012 C 
ENDBRANCH   6   9
TORSDOF 1
ENDMDL
MODEL 3
REMARK VINA RESULT:      -3.9     11.690     12.824
REMARK  1 active torsions:
REMARK  status: ('A' for Active; 'I' for Inactive)
REMARK    1  A    between atoms: C6_6  and  C10_10 
ROOT
HETATM    1  C1  UNL     1     -34.956  18.977  -1.349  1.00 20.00     0.014 C 
HETATM    2  C2  UNL     1     -35.116  18.522  -2.808  1.00 20.00     0.039 C 
HETATM    3  C3  UNL     1     -33.582  17.059  -1.683  1.00 20.00     0.049 C 
HETATM    4  C4  UNL     1     -32.508  19.133  -1.782  1.00 20.00     0.177 C 
HETATM    5  C5  UNL     1     -33.577  18.402  -0.963  1.00 20.00    -0.020 C 
HETATM    6  C6  UNL     1     -33.825  17.719  -3.035  1.00 20.00     0.064 C 
HETATM    7  C7  UNL     1     -33.314  18.365   0.524  1.00 20.00     0.017 C 
HETATM    8  O11 UNL     1     -32.748  18.683  -3.136  1.00 20.00    -0.379 OA
ENDROOT
BRANCH   6   9
HETATM    9  C10 UNL     1     -33.847  16.802  -4.232  1.00 20.00     0.012 C 
HETATM   10  C8  UNL     1     -33.545  15.354  -3.828  1.00 20.00     0.012 C 
HETATM   11  C9  UNL     1     -35.195  16.871  -4.959  1.00 20.00     0.012 C 
ENDBRANCH   6   9
TORSDOF 1
ENDMDL
MODEL 4
REMARK VINA RESULT:      -3.9      9.317     10.367
REMARK  1 active torsions:
REMARK  status: ('A' for Active; 'I' for Inactive)
REMARK    1  A    between atoms: C6_6  and  C10_10 
ROOT
HETATM    1  C1  UNL     1     -42.821  13.575   7.058  1.00 20.00     0.014 C 
HETATM    2  C2  UNL     1     -42.127  12.276   6.619  1.00 20.00     0.039 C 
HETATM    3  C3  UNL     1     -40.526  14.063   6.648  1.00 20.00     0.049 C 
HETATM    4  C4  UNL     1     -42.020  14.593   4.931  1.00 20.00     0.177 C 
HETATM    5  C5  UNL     1     -41.911  14.667   6.458  1.00 20.00    -0.020 C 
HETATM    6  C6  UNL     1     -40.900  12.811   5.863  1.00 20.00     0.064 C 
HETATM    7  C7  UNL     1     -42.127  16.045   7.038  1.00 20.00     0.017 C 
HETATM    8  O11 UNL     1     -41.383  13.336   4.603  1.00 20.00    -0.379 OA
ENDROOT
BRANCH   6   9
HETATM    9  C10 UNL     1     -39.798  11.804   5.645  1.00 20.00     0.012 C 
HETATM   10  C8  UNL     1     -39.303  11.829   4.194  1.00 20.00     0.012 C 
HETATM   11  C9  UNL     1     -38.625  12.049   6.602  1.00 20.00     0.012 C 
ENDBRANCH   6   9
TORSDOF 1
ENDMDL
MODEL 5
REMARK VINA RESULT:      -3.8     11.902     13.068
REMARK  1 active torsions:
REMARK  status: ('A' for Active; 'I' for Inactive)
REMARK    1  A    between atoms: C6_6  and  C10_10 
ROOT
HETATM    1  C1  UNL     1     -33.836  16.923  -3.421  1.00 20.00     0.014 C 
HETATM    2  C2  UNL     1     -32.989  17.056  -2.146  1.00 20.00     0.039 C 
HETATM    3  C3  UNL     1     -34.554  18.872  -2.253  1.00 20.00     0.049 C 
HETATM    4  C4  UNL     1     -33.078  19.216  -4.032  1.00 20.00     0.177 C 
HETATM    5  C5  UNL     1     -34.305  18.372  -3.670  1.00 20.00    -0.020 C 
HETATM    6  C6  UNL     1     -33.126  18.554  -1.827  1.00 20.00     0.064 C 
HETATM    7  C7  UNL     1     -35.459  18.494  -4.637  1.00 20.00     0.017 C 
HETATM    8  O11 UNL     1     -32.320  19.262  -2.800  1.00 20.00    -0.379 OA
ENDROOT
BRANCH   6   9
HETATM    9  C10 UNL     1     -32.745  18.943  -0.420  1.00 20.00     0.012 C 
HETATM   10  C8  UNL     1     -33.654  18.263   0.609  1.00 20.00     0.012 C 
HETATM   11  C9  UNL     1     -31.279  18.602  -0.128  1.00 20.00     0.012 C 
ENDBRANCH   6   9
TORSDOF 1
ENDMDL
MODEL 6
REMARK VINA RESULT:      -3.7     11.723     12.877
REMARK  1 active torsions:
REMARK  status: ('A' for Active; 'I' for Inactive)
REMARK    1  A    between atoms: C6_6  and  C10_10 
ROOT
HETATM    1  C1  UNL     1     -34.796  19.100  -1.270  1.00 20.00     0.014 C 
HETATM    2  C2  UNL     1     -35.208  18.504  -2.625  1.00 20.00     0.039 C 
HETATM    3  C3  UNL     1     -33.597  17.064  -1.581  1.00 20.00     0.049 C 
HETATM    4  C4  UNL     1     -32.442  19.033  -2.081  1.00 20.00     0.177 C 
HETATM    5  C5  UNL     1     -33.406  18.472  -1.031  1.00 20.00    -0.020 C 
HETATM    6  C6  UNL     1     -34.014  17.592  -2.949  1.00 20.00     0.064 C 
HETATM    7  C7  UNL     1     -32.914  18.575   0.393  1.00 20.00     0.017 C 
HETATM    8  O11 UNL     1     -32.916  18.460  -3.323  1.00 20.00    -0.379 OA
ENDROOT
BRANCH   6   9
HETATM    9  C10 UNL     1     -34.274  16.556  -4.014  1.00 20.00     0.012 C 
HETATM   10  C8  UNL     1     -34.388  17.202  -5.400  1.00 20.00     0.012 C 
HETATM   11  C9  UNL     1     -33.177  15.485  -4.026  1.00 20.00     0.012 C 
ENDBRANCH   6   9
TORSDOF 1
ENDMDL
MODEL 7
REMARK VINA RESULT:      -3.5      9.989     11.069
REMARK  1 active torsions:
REMARK  status: ('A' for Active; 'I' for Inactive)
REMARK    1  A    between atoms: C6_6  and  C10_10 
ROOT
HETATM    1  C1  UNL     1     -41.657  14.025   4.963  1.00 20.00     0.014 C 
HETATM    2  C2  UNL     1     -42.088  14.999   6.071  1.00 20.00     0.039 C 
HETATM    3  C3  UNL     1     -40.080  13.869   6.743  1.00 20.00     0.049 C 
HETATM    4  C4  UNL     1     -41.733  12.218   6.676  1.00 20.00     0.177 C 
HETATM    5  C5  UNL     1     -40.807  12.991   5.731  1.00 20.00    -0.020 C 
HETATM    6  C6  UNL     1     -41.391  14.406   7.306  1.00 20.00     0.064 C 
HETATM    7  C7  UNL     1     -39.939  12.123   4.851  1.00 20.00     0.017 C 
HETATM    8  O11 UNL     1     -42.121  13.206   7.659  1.00 20.00    -0.379 OA
ENDROOT
BRANCH   6   9
HETATM    9  C10 UNL     1     -41.279  15.340   8.485  1.00 20.00     0.012 C 
HETATM   10  C8  UNL     1     -40.342  14.772   9.557  1.00 20.00     0.012 C 
HETATM   11  C9  UNL     1     -40.792  16.728   8.049  1.00 20.00     0.012 C 
ENDBRANCH   6   9
TORSDOF 1
ENDMDL
MODEL 8
REMARK VINA RESULT:      -3.5     10.195     11.479
REMARK  1 active torsions:
REMARK  status: ('A' for Active; 'I' for Inactive)
REMARK    1  A    between atoms: C6_6  and  C10_10 
ROOT
HETATM    1  C1  UNL     1     -42.188  12.347   6.706  1.00 20.00     0.014 C 
HETATM    2  C2  UNL     1     -43.153  13.490   6.354  1.00 20.00     0.039 C 
HETATM    3  C3  UNL     1     -41.292  13.528   4.841  1.00 20.00     0.049 C 
HETATM    4  C4  UNL     1     -40.405  14.072   6.934  1.00 20.00     0.177 C 
HETATM    5  C5  UNL     1     -40.847  12.846   6.128  1.00 20.00    -0.020 C 
HETATM    6  C6  UNL     1     -42.236  14.459   5.592  1.00 20.00     0.064 C 
HETATM    7  C7  UNL     1     -39.793  11.773   5.988  1.00 20.00     0.017 C 
HETATM    8  O11 UNL     1     -41.378  15.083   6.579  1.00 20.00    -0.379 OA
ENDROOT
BRANCH   6   9
HETATM    9  C10 UNL     1     -42.953  15.496   4.763  1.00 20.00     0.012 C 
HETATM   10  C8  UNL     1     -42.606  16.915   5.229  1.00 20.00     0.012 C 
HETATM   11  C9  UNL     1     -42.624  15.340   3.274  1.00 20.00     0.012 C 
ENDBRANCH   6   9
TORSDOF 1
ENDMDL
MODEL 9
REMARK VINA RESULT:      -3.4     12.216     13.136
REMARK  1 active torsions:
REMARK  status: ('A' for Active; 'I' for Inactive)
REMARK    1  A    between atoms: C6_6  and  C10_10 
ROOT
HETATM    1  C1  UNL     1     -34.864  18.523  -2.024  1.00 20.00     0.014 C 
HETATM    2  C2  UNL     1     -35.408  18.049  -3.380  1.00 20.00     0.039 C 
HETATM    3  C3  UNL     1     -33.422  16.814  -2.845  1.00 20.00     0.049 C 
HETATM    4  C4  UNL     1     -32.715  19.016  -3.182  1.00 20.00     0.177 C 
HETATM    5  C5  UNL     1     -33.370  18.145  -2.105  1.00 20.00    -0.020 C 
HETATM    6  C6  UNL     1     -34.157  17.433  -4.027  1.00 20.00     0.064 C 
HETATM    7  C7  UNL     1     -32.655  18.146  -0.775  1.00 20.00     0.017 C 
HETATM    8  O11 UNL     1     -33.303  18.536  -4.414  1.00 20.00    -0.379 OA
ENDROOT
BRANCH   6   9
HETATM    9  C10 UNL     1     -34.429  16.520  -5.197  1.00 20.00     0.012 C 
HETATM   10  C8  UNL     1     -33.737  15.165  -5.017  1.00 20.00     0.012 C 
HETATM   11  C9  UNL     1     -35.935  16.315  -5.402  1.00 20.00     0.012 C 
ENDBRANCH   6   9
TORSDOF 1
ENDMDL
