MODEL 1
REMARK VINA RESULT:      -4.0      0.000      0.000
REMARK  1 active torsions:
REMARK  status: ('A' for Active; 'I' for Inactive)
REMARK    1  A    between atoms: C9_9  and  C12_12 
ROOT
HETATM    1  C1  UNL     1     -36.253  18.202  -4.256  1.00 20.00     0.012 C 
HETATM    2  C2  UNL     1     -37.368  17.694  -4.790  1.00 20.00     0.052 C 
HETATM    3  C3  UNL     1     -33.825  14.826  -4.263  1.00 20.00    -0.025 C 
HETATM    4  C4  UNL     1     -34.894  14.923  -5.072  1.00 20.00    -0.008 C 
HETATM    5  C5  UNL     1     -34.058  17.250  -3.606  1.00 20.00    -0.014 C 
HETATM    6  C6  UNL     1     -35.131  17.314  -4.408  1.00 20.00    -0.041 C 
HETATM    7  C7  UNL     1     -36.962  16.400  -5.388  1.00 20.00     0.166 C 
HETATM    8  C8  UNL     1     -33.176  16.027  -3.613  1.00 20.00     0.054 C 
HETATM    9  C9  UNL     1     -35.452  16.264  -5.445  1.00 20.00     0.071 C 
HETATM   10  O13 UNL     1     -37.769  15.592  -5.824  1.00 20.00    -0.292 OA
ENDROOT
BRANCH   9  11
HETATM   11  C12 UNL     1     -34.973  16.668  -6.846  1.00 20.00     0.002 C 
HETATM   12  C10 UNL     1     -34.217  17.991  -6.785  1.00 20.00     0.011 C 
HETATM   13  C11 UNL     1     -34.100  15.571  -7.443  1.00 20.00     0.011 C 
ENDBRANCH   9  11
TORSDOF 1
ENDMDL
MODEL 2
REMARK VINA RESULT:      -4.0      1.601      3.064
REMARK  1 active torsions:
REMARK  status: ('A' for Active; 'I' for Inactive)
REMARK    1  A    between atoms: C9_9  and  C12_12 
ROOT
HETATM    1  C1  UNL     1     -33.182  15.981  -3.659  1.00 20.00     0.012 C 
HETATM    2  C2  UNL     1     -33.274  17.301  -3.474  1.00 20.00     0.052 C 
HETATM    3  C3  UNL     1     -36.920  15.204  -5.307  1.00 20.00    -0.025 C 
HETATM    4  C4  UNL     1     -36.385  16.437  -5.331  1.00 20.00    -0.008 C 
HETATM    5  C5  UNL     1     -34.743  14.238  -4.478  1.00 20.00    -0.014 C 
HETATM    6  C6  UNL     1     -34.240  15.480  -4.496  1.00 20.00    -0.041 C 
HETATM    7  C7  UNL     1     -34.440  17.731  -4.280  1.00 20.00     0.166 C 
HETATM    8  C8  UNL     1     -36.096  13.956  -5.080  1.00 20.00     0.054 C 
HETATM    9  C9  UNL     1     -34.902  16.630  -5.218  1.00 20.00     0.071 C 
HETATM   10  O13 UNL     1     -34.909  18.857  -4.217  1.00 20.00    -0.292 OA
ENDROOT
BRANCH   9  11
HETATM   11  C12 UNL     1     -34.290  16.873  -6.604  1.00 20.00     0.002 C 
HETATM   12  C10 UNL     1     -33.932  15.546  -7.264  1.00 20.00     0.011 C 
HETATM   13  C11 UNL     1     -35.254  17.670  -7.475  1.00 20.00     0.011 C 
ENDBRANCH   9  11
TORSDOF 1
ENDMDL
MODEL 3
REMARK VINA RESULT:      -3.9      1.446      3.174
REMARK  1 active torsions:
REMARK  status: ('A' for Active; 'I' for Inactive)
REMARK    1  A    between atoms: C9_9  and  C12_12 
ROOT
HETATM    1  C1  UNL     1     -33.664  15.544  -3.727  1.00 20.00     0.012 C 
HETATM    2  C2  UNL     1     -33.780  14.604  -4.668  1.00 20.00     0.052 C 
HETATM    3  C3  UNL     1     -33.915  18.971  -6.070  1.00 20.00    -0.025 C 
HETATM    4  C4  UNL     1     -34.387  17.789  -6.503  1.00 20.00    -0.008 C 
HETATM    5  C5  UNL     1     -33.552  18.020  -3.762  1.00 20.00    -0.014 C 
HETATM    6  C6  UNL     1     -34.012  16.849  -4.224  1.00 20.00    -0.041 C 
HETATM    7  C7  UNL     1     -34.289  15.309  -5.868  1.00 20.00     0.166 C 
HETATM    8  C8  UNL     1     -33.648  19.263  -4.611  1.00 20.00     0.054 C 
HETATM    9  C9  UNL     1     -34.761  16.712  -5.529  1.00 20.00     0.071 C 
HETATM   10  O13 UNL     1     -34.362  14.778  -6.966  1.00 20.00    -0.292 OA
ENDROOT
BRANCH   9  11
HETATM   11  C12 UNL     1     -36.282  16.685  -5.323  1.00 20.00     0.002 C 
HETATM   12  C10 UNL     1     -36.706  17.798  -4.372  1.00 20.00     0.011 C 
HETATM   13  C11 UNL     1     -36.998  16.811  -6.662  1.00 20.00     0.011 C 
ENDBRANCH   9  11
TORSDOF 1
ENDMDL
MODEL 4
REMARK VINA RESULT:      -3.9      1.711      3.271
REMARK  1 active torsions:
REMARK  status: ('A' for Active; 'I' for Inactive)
REMARK    1  A    between atoms: C9_9  and  C12_12 
ROOT
HETATM    1  C1  UNL     1     -33.809  17.396  -3.623  1.00 20.00     0.012 C 
HETATM    2  C2  UNL     1     -33.363  16.204  -3.215  1.00 20.00     0.052 C 
HETATM    3  C3  UNL     1     -34.026  16.738  -7.724  1.00 20.00    -0.025 C 
HETATM    4  C4  UNL     1     -34.024  15.717  -6.849  1.00 20.00    -0.008 C 
HETATM    5  C5  UNL     1     -34.280  18.397  -5.842  1.00 20.00    -0.014 C 
HETATM    6  C6  UNL     1     -34.259  17.362  -4.990  1.00 20.00    -0.041 C 
HETATM    7  C7  UNL     1     -33.572  15.291  -4.364  1.00 20.00     0.166 C 
HETATM    8  C8  UNL     1     -34.363  18.158  -7.328  1.00 20.00     0.054 C 
HETATM    9  C9  UNL     1     -34.449  15.929  -5.426  1.00 20.00     0.071 C 
HETATM   10  O13 UNL     1     -33.128  14.153  -4.393  1.00 20.00    -0.292 OA
ENDROOT
BRANCH   9  11
HETATM   11  C12 UNL     1     -35.894  15.450  -5.226  1.00 20.00     0.002 C 
HETATM   12  C10 UNL     1     -36.865  16.611  -5.406  1.00 20.00     0.011 C 
HETATM   13  C11 UNL     1     -36.214  14.318  -6.195  1.00 20.00     0.011 C 
ENDBRANCH   9  11
TORSDOF 1
ENDMDL
MODEL 5
REMARK VINA RESULT:      -3.8      1.532      3.363
REMARK  1 active torsions:
REMARK  status: ('A' for Active; 'I' for Inactive)
REMARK    1  A    between atoms: C9_9  and  C12_12 
ROOT
HETATM    1  C1  UNL     1     -33.967  15.163  -7.023  1.00 20.00     0.012 C 
HETATM    2  C2  UNL     1     -34.071  16.152  -7.916  1.00 20.00     0.052 C 
HETATM    3  C3  UNL     1     -33.711  17.369  -3.507  1.00 20.00    -0.025 C 
HETATM    4  C4  UNL     1     -34.236  17.894  -4.628  1.00 20.00    -0.008 C 
HETATM    5  C5  UNL     1     -33.647  15.081  -4.566  1.00 20.00    -0.014 C 
HETATM    6  C6  UNL     1     -34.157  15.634  -5.676  1.00 20.00    -0.041 C 
HETATM    7  C7  UNL     1     -34.405  17.361  -7.127  1.00 20.00     0.166 C 
HETATM    8  C8  UNL     1     -33.560  15.880  -3.291  1.00 20.00     0.054 C 
HETATM    9  C9  UNL     1     -34.788  17.005  -5.702  1.00 20.00     0.071 C 
HETATM   10  O13 UNL     1     -34.417  18.483  -7.611  1.00 20.00    -0.292 OA
ENDROOT
BRANCH   9  11
HETATM   11  C12 UNL     1     -36.319  16.940  -5.605  1.00 20.00     0.002 C 
HETATM   12  C10 UNL     1     -36.768  15.519  -5.285  1.00 20.00     0.011 C 
HETATM   13  C11 UNL     1     -36.823  17.920  -4.553  1.00 20.00     0.011 C 
ENDBRANCH   9  11
TORSDOF 1
ENDMDL
MODEL 6
REMARK VINA RESULT:      -3.8      1.693      3.276
REMARK  1 active torsions:
REMARK  status: ('A' for Active; 'I' for Inactive)
REMARK    1  A    between atoms: C9_9  and  C12_12 
ROOT
HETATM    1  C1  UNL     1     -33.164  15.971  -3.752  1.00 20.00     0.012 C 
HETATM    2  C2  UNL     1     -33.299  17.069  -3.002  1.00 20.00     0.052 C 
HETATM    3  C3  UNL     1     -36.934  15.802  -5.499  1.00 20.00    -0.025 C 
HETATM    4  C4  UNL     1     -36.448  16.946  -4.988  1.00 20.00    -0.008 C 
HETATM    5  C5  UNL     1     -34.689  14.686  -5.224  1.00 20.00    -0.014 C 
HETATM    6  C6  UNL     1     -34.236  15.834  -4.703  1.00 20.00    -0.041 C 
HETATM    7  C7  UNL     1     -34.513  17.747  -3.514  1.00 20.00     0.166 C 
HETATM    8  C8  UNL     1     -36.054  14.627  -5.861  1.00 20.00     0.054 C 
HETATM    9  C9  UNL     1     -34.971  17.147  -4.831  1.00 20.00     0.071 C 
HETATM   10  O13 UNL     1     -35.022  18.705  -2.950  1.00 20.00    -0.292 OA
ENDROOT
BRANCH   9  11
HETATM   11  C12 UNL     1     -34.425  18.007  -5.980  1.00 20.00     0.002 C 
HETATM   12  C10 UNL     1     -34.239  17.158  -7.232  1.00 20.00     0.011 C 
HETATM   13  C11 UNL     1     -35.360  19.179  -6.252  1.00 20.00     0.011 C 
ENDBRANCH   9  11
TORSDOF 1
ENDMDL
MODEL 7
REMARK VINA RESULT:      -3.8     12.833     13.956
REMARK  1 active torsions:
REMARK  status: ('A' for Active; 'I' for Inactive)
REMARK    1  A    between atoms: C9_9  and  C12_12 
ROOT
HETATM    1  C1  UNL     1     -42.309  14.490   4.326  1.00 20.00     0.012 C 
HETATM    2  C2  UNL     1     -42.716  15.671   4.803  1.00 20.00     0.052 C 
HETATM    3  C3  UNL     1     -39.726  13.319   7.368  1.00 20.00    -0.025 C 
HETATM    4  C4  UNL     1     -40.685  14.237   7.577  1.00 20.00    -0.008 C 
HETATM    5  C5  UNL     1     -40.684  12.784   5.097  1.00 20.00    -0.014 C 
HETATM    6  C6  UNL     1     -41.620  13.717   5.326  1.00 20.00    -0.041 C 
HETATM    7  C7  UNL     1     -42.323  15.675   6.231  1.00 20.00     0.166 C 
HETATM    8  C8  UNL     1     -39.751  12.357   6.202  1.00 20.00     0.054 C 
HETATM    9  C9  UNL     1     -41.895  14.294   6.694  1.00 20.00     0.071 C 
HETATM   10  O13 UNL     1     -42.402  16.671   6.936  1.00 20.00    -0.292 OA
ENDROOT
BRANCH   9  11
HETATM   11  C12 UNL     1     -43.088  13.612   7.380  1.00 20.00     0.002 C 
HETATM   12  C10 UNL     1     -43.100  12.122   7.060  1.00 20.00     0.011 C 
HETATM   13  C11 UNL     1     -43.034  13.845   8.885  1.00 20.00     0.011 C 
ENDBRANCH   9  11
TORSDOF 1
ENDMDL
MODEL 8
REMARK VINA RESULT:      -3.7      1.733      3.639
REMARK  1 active torsions:
REMARK  status: ('A' for Active; 'I' for Inactive)
REMARK    1  A    between atoms: C9_9  and  C12_12 
ROOT
HETATM    1  C1  UNL     1     -34.005  14.811  -4.622  1.00 20.00     0.012 C 
HETATM    2  C2  UNL     1     -33.226  15.513  -3.794  1.00 20.00     0.052 C 
HETATM    3  C3  UNL     1     -37.256  17.386  -4.935  1.00 20.00    -0.025 C 
HETATM    4  C4  UNL     1     -36.047  17.826  -4.545  1.00 20.00    -0.008 C 
HETATM    5  C5  UNL     1     -36.279  15.144  -5.552  1.00 20.00    -0.014 C 
HETATM    6  C6  UNL     1     -35.089  15.604  -5.142  1.00 20.00    -0.041 C 
HETATM    7  C7  UNL     1     -33.787  16.884  -3.793  1.00 20.00     0.166 C 
HETATM    8  C8  UNL     1     -37.455  16.080  -5.669  1.00 20.00     0.054 C 
HETATM    9  C9  UNL     1     -34.804  17.068  -4.905  1.00 20.00     0.071 C 
HETATM   10  O13 UNL     1     -33.412  17.751  -3.018  1.00 20.00    -0.292 OA
ENDROOT
BRANCH   9  11
HETATM   11  C12 UNL     1     -34.109  17.724  -6.106  1.00 20.00     0.002 C 
HETATM   12  C10 UNL     1     -34.541  17.046  -7.401  1.00 20.00     0.011 C 
HETATM   13  C11 UNL     1     -34.418  19.216  -6.144  1.00 20.00     0.011 C 
ENDBRANCH   9  11
TORSDOF 1
ENDMDL
MODEL 9
REMARK VINA RESULT:      -3.7     13.294     14.320
REMARK  1 active torsions:
REMARK  status: ('A' for Active; 'I' for Inactive)
REMARK    1  A    between atoms: C9_9  and  C12_12 
ROOT
HETATM    1  C1  UNL     1     -42.824  16.153   6.821  1.00 20.00     0.012 C 
HETATM    2  C2  UNL     1     -42.641  16.045   5.502  1.00 20.00     0.052 C 
HETATM    3  C3  UNL     1     -43.210  12.140   7.843  1.00 20.00    -0.025 C 
HETATM    4  C4  UNL     1     -42.607  12.518   6.703  1.00 20.00    -0.008 C 
HETATM    5  C5  UNL     1     -43.283  14.531   8.640  1.00 20.00    -0.014 C 
HETATM    6  C6  UNL     1     -42.696  14.883   7.487  1.00 20.00    -0.041 C 
HETATM    7  C7  UNL     1     -42.315  14.619   5.265  1.00 20.00     0.166 C 
HETATM    8  C8  UNL     1     -43.417  13.076   9.011  1.00 20.00     0.054 C 
HETATM    9  C9  UNL     1     -42.023  13.893   6.566  1.00 20.00     0.071 C 
HETATM   10  O13 UNL     1     -42.243  14.134   4.146  1.00 20.00    -0.292 OA
ENDROOT
BRANCH   9  11
HETATM   11  C12 UNL     1     -40.503  13.848   6.775  1.00 20.00     0.002 C 
HETATM   12  C10 UNL     1     -40.162  14.120   8.236  1.00 20.00     0.011 C 
HETATM   13  C11 UNL     1     -39.947  12.501   6.329  1.00 20.00     0.011 C 
ENDBRANCH   9  11
TORSDOF 1
ENDMDL
