MODEL 1
REMARK VINA RESULT:      -4.5      0.000      0.000
REMARK  1 active torsions:
REMARK  status: ('A' for Active; 'I' for Inactive)
REMARK    1  A    between atoms: C5_5  and  C8_8 
ROOT
HETATM    1  C1  UNL     1     -34.105   7.482   5.025  1.00 20.00     0.006 A 
HETATM    2  C2  UNL     1     -32.975   7.983   4.533  1.00 20.00     0.076 A 
HETATM    3  C3  UNL     1     -32.618   7.167   3.367  1.00 20.00     0.171 A 
HETATM    4  C4  UNL     1     -33.642   6.093   3.125  1.00 20.00     0.093 A 
HETATM    5  C5  UNL     1     -34.634   6.288   4.281  1.00 20.00     0.020 A 
HETATM    6  O9  UNL     1     -31.624   7.348   2.680  1.00 20.00    -0.291 OA
HETATM    7 CL10 UNL     1     -32.077   9.297   5.079  1.00 20.00    -0.081 Cl
ENDROOT
BRANCH   5   8
HETATM    8  C8  UNL     1     -34.718   5.061   5.180  1.00 20.00    -0.015 C 
HETATM    9  C6  UNL     1     -33.766   3.969   4.694  1.00 20.00     0.010 C 
HETATM   10  C7  UNL     1     -34.409   5.431   6.630  1.00 20.00     0.010 C 
ENDBRANCH   5   8
TORSDOF 1
ENDMDL
MODEL 2
REMARK VINA RESULT:      -4.2      1.609      2.018
REMARK  1 active torsions:
REMARK  status: ('A' for Active; 'I' for Inactive)
REMARK    1  A    between atoms: C5_5  and  C8_8 
ROOT
HETATM    1  C1  UNL     1     -33.900   7.415   4.108  1.00 20.00     0.006 A 
HETATM    2  C2  UNL     1     -33.041   6.926   3.217  1.00 20.00     0.076 A 
HETATM    3  C3  UNL     1     -33.265   5.478   3.158  1.00 20.00     0.171 A 
HETATM    4  C4  UNL     1     -34.379   5.065   4.080  1.00 20.00     0.093 A 
HETATM    5  C5  UNL     1     -34.782   6.385   4.754  1.00 20.00     0.020 A 
HETATM    6  O9  UNL     1     -32.635   4.713   2.443  1.00 20.00    -0.291 OA
HETATM    7 CL10 UNL     1     -31.896   7.744   2.295  1.00 20.00    -0.081 Cl
ENDROOT
BRANCH   5   8
HETATM    8  C8  UNL     1     -34.583   6.345   6.264  1.00 20.00    -0.015 C 
HETATM    9  C6  UNL     1     -34.078   4.972   6.706  1.00 20.00     0.010 C 
HETATM   10  C7  UNL     1     -33.614   7.439   6.710  1.00 20.00     0.010 C 
ENDBRANCH   5   8
TORSDOF 1
ENDMDL
MODEL 3
REMARK VINA RESULT:      -4.1      1.891      2.326
REMARK  1 active torsions:
REMARK  status: ('A' for Active; 'I' for Inactive)
REMARK    1  A    between atoms: C5_5  and  C8_8 
ROOT
HETATM    1  C1  UNL     1     -32.909   6.553   3.656  1.00 20.00     0.006 A 
HETATM    2  C2  UNL     1     -32.538   7.669   3.032  1.00 20.00     0.076 A 
HETATM    3  C3  UNL     1     -32.532   8.738   4.037  1.00 20.00     0.171 A 
HETATM    4  C4  UNL     1     -32.910   8.208   5.392  1.00 20.00     0.093 A 
HETATM    5  C5  UNL     1     -33.203   6.726   5.119  1.00 20.00     0.020 A 
HETATM    6  O9  UNL     1     -32.245   9.902   3.801  1.00 20.00    -0.291 OA
HETATM    7 CL10 UNL     1     -32.133   7.889   1.414  1.00 20.00    -0.081 Cl
ENDROOT
BRANCH   5   8
HETATM    8  C8  UNL     1     -34.645   6.354   5.448  1.00 20.00    -0.015 C 
HETATM    9  C6  UNL     1     -35.345   5.772   4.221  1.00 20.00     0.010 C 
HETATM   10  C7  UNL     1     -34.694   5.364   6.611  1.00 20.00     0.010 C 
ENDBRANCH   5   8
TORSDOF 1
ENDMDL
MODEL 4
REMARK VINA RESULT:      -4.1      2.268      3.969
REMARK  1 active torsions:
REMARK  status: ('A' for Active; 'I' for Inactive)
REMARK    1  A    between atoms: C5_5  and  C8_8 
ROOT
HETATM    1  C1  UNL     1     -32.802   7.722   4.386  1.00 20.00     0.006 A 
HETATM    2  C2  UNL     1     -33.610   6.873   5.018  1.00 20.00     0.076 A 
HETATM    3  C3  UNL     1     -33.775   5.708   4.143  1.00 20.00     0.171 A 
HETATM    4  C4  UNL     1     -32.972   5.862   2.881  1.00 20.00     0.093 A 
HETATM    5  C5  UNL     1     -32.342   7.253   3.034  1.00 20.00     0.020 A 
HETATM    6  O9  UNL     1     -34.466   4.737   4.413  1.00 20.00    -0.291 OA
HETATM    7 CL10 UNL     1     -34.333   7.032   6.529  1.00 20.00    -0.081 Cl
ENDROOT
BRANCH   5   8
HETATM    8  C8  UNL     1     -32.780   8.209   1.931  1.00 20.00    -0.015 C 
HETATM    9  C6  UNL     1     -32.851   9.642   2.456  1.00 20.00     0.010 C 
HETATM   10  C7  UNL     1     -31.832   8.125   0.736  1.00 20.00     0.010 C 
ENDBRANCH   5   8
TORSDOF 1
ENDMDL
MODEL 5
REMARK VINA RESULT:      -3.8      2.521      3.578
REMARK  1 active torsions:
REMARK  status: ('A' for Active; 'I' for Inactive)
REMARK    1  A    between atoms: C5_5  and  C8_8 
ROOT
HETATM    1  C1  UNL     1     -33.531   6.794   3.291  1.00 20.00     0.006 A 
HETATM    2  C2  UNL     1     -33.380   5.473   3.228  1.00 20.00     0.076 A 
HETATM    3  C3  UNL     1     -34.145   4.902   4.343  1.00 20.00     0.171 A 
HETATM    4  C4  UNL     1     -34.838   5.980   5.130  1.00 20.00     0.093 A 
HETATM    5  C5  UNL     1     -34.385   7.270   4.431  1.00 20.00     0.020 A 
HETATM    6  O9  UNL     1     -34.215   3.707   4.588  1.00 20.00    -0.291 OA
HETATM    7 CL10 UNL     1     -32.506   4.561   2.116  1.00 20.00    -0.081 Cl
ENDROOT
BRANCH   5   8
HETATM    8  C8  UNL     1     -33.608   8.189   5.367  1.00 20.00    -0.015 C 
HETATM    9  C6  UNL     1     -33.325   7.491   6.696  1.00 20.00     0.010 C 
HETATM   10  C7  UNL     1     -32.303   8.644   4.714  1.00 20.00     0.010 C 
ENDBRANCH   5   8
TORSDOF 1
ENDMDL
MODEL 6
REMARK VINA RESULT:      -3.8     12.785     13.580
REMARK  1 active torsions:
REMARK  status: ('A' for Active; 'I' for Inactive)
REMARK    1  A    between atoms: C5_5  and  C8_8 
ROOT
HETATM    1  C1  UNL     1     -33.407  16.623  -2.391  1.00 20.00     0.006 A 
HETATM    2  C2  UNL     1     -33.672  16.968  -3.649  1.00 20.00     0.076 A 
HETATM    3  C3  UNL     1     -33.269  18.371  -3.801  1.00 20.00     0.171 A 
HETATM    4  C4  UNL     1     -32.687  18.907  -2.523  1.00 20.00     0.093 A 
HETATM    5  C5  UNL     1     -32.819  17.723  -1.554  1.00 20.00     0.020 A 
HETATM    6  O9  UNL     1     -33.383  19.011  -4.836  1.00 20.00    -0.291 OA
HETATM    7 CL10 UNL     1     -34.331  16.034  -4.884  1.00 20.00    -0.081 Cl
ENDROOT
BRANCH   5   8
HETATM    8  C8  UNL     1     -33.707  18.053  -0.359  1.00 20.00    -0.015 C 
HETATM    9  C6  UNL     1     -32.862  18.499   0.833  1.00 20.00     0.010 C 
HETATM   10  C7  UNL     1     -34.726  19.131  -0.725  1.00 20.00     0.010 C 
ENDBRANCH   5   8
TORSDOF 1
ENDMDL
MODEL 7
REMARK VINA RESULT:      -3.6      9.784     10.691
REMARK  1 active torsions:
REMARK  status: ('A' for Active; 'I' for Inactive)
REMARK    1  A    between atoms: C5_5  and  C8_8 
ROOT
HETATM    1  C1  UNL     1     -42.103  12.462   6.696  1.00 20.00     0.006 A 
HETATM    2  C2  UNL     1     -42.278  13.195   7.793  1.00 20.00     0.076 A 
HETATM    3  C3  UNL     1     -41.268  14.258   7.762  1.00 20.00     0.171 A 
HETATM    4  C4  UNL     1     -40.427  14.168   6.519  1.00 20.00     0.093 A 
HETATM    5  C5  UNL     1     -40.975  12.919   5.815  1.00 20.00     0.020 A 
HETATM    6  O9  UNL     1     -41.139  15.109   8.629  1.00 20.00    -0.291 OA
HETATM    7 CL10 UNL     1     -43.417  13.007   9.018  1.00 20.00    -0.081 Cl
ENDROOT
BRANCH   5   8
HETATM    8  C8  UNL     1     -39.915  11.836   5.655  1.00 20.00    -0.015 C 
HETATM    9  C6  UNL     1     -39.389  11.803   4.221  1.00 20.00     0.010 C 
HETATM   10  C7  UNL     1     -38.768  12.055   6.640  1.00 20.00     0.010 C 
ENDBRANCH   5   8
TORSDOF 1
ENDMDL
MODEL 8
REMARK VINA RESULT:      -3.5     12.149     13.270
REMARK  1 active torsions:
REMARK  status: ('A' for Active; 'I' for Inactive)
REMARK    1  A    between atoms: C5_5  and  C8_8 
ROOT
HETATM    1  C1  UNL     1     -34.431  16.939  -5.371  1.00 20.00     0.006 A 
HETATM    2  C2  UNL     1     -34.095  17.499  -4.212  1.00 20.00     0.076 A 
HETATM    3  C3  UNL     1     -33.629  16.420  -3.335  1.00 20.00     0.171 A 
HETATM    4  C4  UNL     1     -33.666  15.094  -4.043  1.00 20.00     0.093 A 
HETATM    5  C5  UNL     1     -34.250  15.448  -5.418  1.00 20.00     0.020 A 
HETATM    6  O9  UNL     1     -33.250  16.583  -2.184  1.00 20.00    -0.291 OA
HETATM    7 CL10 UNL     1     -34.156  19.121  -3.766  1.00 20.00    -0.081 Cl
ENDROOT
BRANCH   5   8
HETATM    8  C8  UNL     1     -35.569  14.732  -5.685  1.00 20.00    -0.015 C 
HETATM    9  C6  UNL     1     -35.838  13.678  -4.613  1.00 20.00     0.010 C 
HETATM   10  C7  UNL     1     -36.722  15.733  -5.750  1.00 20.00     0.010 C 
ENDBRANCH   5   8
TORSDOF 1
ENDMDL
MODEL 9
REMARK VINA RESULT:      -3.5      2.667      4.091
REMARK  1 active torsions:
REMARK  status: ('A' for Active; 'I' for Inactive)
REMARK    1  A    between atoms: C5_5  and  C8_8 
ROOT
HETATM    1  C1  UNL     1     -34.089   6.425   3.744  1.00 20.00     0.006 A 
HETATM    2  C2  UNL     1     -34.054   5.403   4.596  1.00 20.00     0.076 A 
HETATM    3  C3  UNL     1     -34.046   5.974   5.947  1.00 20.00     0.171 A 
HETATM    4  C4  UNL     1     -34.105   7.475   5.900  1.00 20.00     0.093 A 
HETATM    5  C5  UNL     1     -34.096   7.779   4.395  1.00 20.00     0.020 A 
HETATM    6  O9  UNL     1     -34.007   5.311   6.974  1.00 20.00    -0.291 OA
HETATM    7 CL10 UNL     1     -34.031   3.753   4.266  1.00 20.00    -0.081 Cl
ENDROOT
BRANCH   5   8
HETATM    8  C8  UNL     1     -32.883   8.605   3.982  1.00 20.00    -0.015 C 
HETATM    9  C6  UNL     1     -32.108   9.077   5.211  1.00 20.00     0.010 C 
HETATM   10  C7  UNL     1     -31.974   7.801   3.053  1.00 20.00     0.010 C 
ENDBRANCH   5   8
TORSDOF 1
ENDMDL
