MODEL 1
REMARK VINA RESULT:      -3.5      0.000      0.000
REMARK  1 active torsions:
REMARK  status: ('A' for Active; 'I' for Inactive)
REMARK    1  A    between atoms: C4_4  and  C8_8 
ROOT
HETATM    1  C1  UNL     1     -25.177  17.550  12.048  1.00 20.00     0.302 C 
HETATM    2  C2  UNL     1     -23.754  17.317  11.538  1.00 20.00     0.302 C 
HETATM    3  C3  UNL     1     -25.517  19.200  10.334  1.00 20.00     0.307 C 
HETATM    4  C4  UNL     1     -24.088  18.966   9.793  1.00 20.00     0.250 C 
HETATM    5  C6  UNL     1     -26.953  19.161  12.270  1.00 20.00     0.310 C 
HETATM    6  C7  UNL     1     -22.278  17.321   9.650  1.00 20.00     0.310 C 
HETATM    7  N9  UNL     1     -25.599  18.925  11.773  1.00 20.00     0.088 N 
HETATM    8  N10 UNL     1     -23.647  17.587  10.095  1.00 20.00     0.092 N 
ENDROOT
BRANCH   4   9
HETATM    9  C8  UNL     1     -24.088  19.263   8.287  1.00 20.00     0.033 C 
HETATM   10  C5  UNL     1     -25.472  19.263   7.732  1.00 20.00     0.007 C 
ENDBRANCH   4   9
TORSDOF 1
ENDMDL
MODEL 2
REMARK VINA RESULT:      -3.5     15.402     16.110
REMARK  1 active torsions:
REMARK  status: ('A' for Active; 'I' for Inactive)
REMARK    1  A    between atoms: C4_4  and  C8_8 
ROOT
HETATM    1  C1  UNL     1     -31.783   7.918   3.578  1.00 20.00     0.302 C 
HETATM    2  C2  UNL     1     -32.294   6.862   2.596  1.00 20.00     0.302 C 
HETATM    3  C3  UNL     1     -33.499   7.289   5.140  1.00 20.00     0.307 C 
HETATM    4  C4  UNL     1     -34.018   6.205   4.168  1.00 20.00     0.250 C 
HETATM    5  C6  UNL     1     -32.404   9.426   5.350  1.00 20.00     0.310 C 
HETATM    6  C7  UNL     1     -33.363   4.735   2.320  1.00 20.00     0.310 C 
HETATM    7  N9  UNL     1     -32.879   8.406   4.418  1.00 20.00     0.088 N 
HETATM    8  N10 UNL     1     -32.920   5.730   3.298  1.00 20.00     0.092 N 
ENDROOT
BRANCH   4   9
HETATM    9  C8  UNL     1     -34.639   5.071   4.997  1.00 20.00     0.033 C 
HETATM   10  C5  UNL     1     -34.638   5.398   6.451  1.00 20.00     0.007 C 
ENDBRANCH   4   9
TORSDOF 1
ENDMDL
MODEL 3
REMARK VINA RESULT:      -3.2     14.478     16.438
REMARK  1 active torsions:
REMARK  status: ('A' for Active; 'I' for Inactive)
REMARK    1  A    between atoms: C4_4  and  C8_8 
ROOT
HETATM    1  C1  UNL     1     -33.828  19.263  -1.976  1.00 20.00     0.302 C 
HETATM    2  C2  UNL     1     -34.456  19.091  -3.360  1.00 20.00     0.302 C 
HETATM    3  C3  UNL     1     -33.296  16.920  -1.931  1.00 20.00     0.307 C 
HETATM    4  C4  UNL     1     -33.911  16.730  -3.337  1.00 20.00     0.250 C 
HETATM    5  C6  UNL     1     -33.354  18.180   0.123  1.00 20.00     0.310 C 
HETATM    6  C7  UNL     1     -34.439  17.887  -5.431  1.00 20.00     0.310 C 
HETATM    7  N9  UNL     1     -33.939  18.022  -1.207  1.00 20.00     0.088 N 
HETATM    8  N10 UNL     1     -33.826  17.990  -4.105  1.00 20.00     0.092 N 
ENDROOT
BRANCH   4   9
HETATM    9  C8  UNL     1     -33.180  15.572  -4.031  1.00 20.00     0.033 C 
HETATM   10  C5  UNL     1     -34.078  14.397  -4.218  1.00 20.00     0.007 C 
ENDBRANCH   4   9
TORSDOF 1
ENDMDL
MODEL 4
REMARK VINA RESULT:      -3.2     16.275     18.339
REMARK  1 active torsions:
REMARK  status: ('A' for Active; 'I' for Inactive)
REMARK    1  A    between atoms: C4_4  and  C8_8 
ROOT
HETATM    1  C1  UNL     1     -34.804  16.859  -6.828  1.00 20.00     0.302 C 
HETATM    2  C2  UNL     1     -34.914  15.573  -6.007  1.00 20.00     0.302 C 
HETATM    3  C3  UNL     1     -34.052  18.038  -4.873  1.00 20.00     0.307 C 
HETATM    4  C4  UNL     1     -34.140  16.745  -4.031  1.00 20.00     0.250 C 
HETATM    5  C6  UNL     1     -34.931  19.263  -6.754  1.00 20.00     0.310 C 
HETATM    6  C7  UNL     1     -34.074  14.298  -4.159  1.00 20.00     0.310 C 
HETATM    7  N9  UNL     1     -35.020  18.029  -5.975  1.00 20.00     0.088 N 
HETATM    8  N10 UNL     1     -33.951  15.559  -4.894  1.00 20.00     0.092 N 
ENDROOT
BRANCH   4   9
HETATM    9  C8  UNL     1     -33.093  16.825  -2.911  1.00 20.00     0.033 C 
HETATM   10  C5  UNL     1     -33.699  17.297  -1.633  1.00 20.00     0.007 C 
ENDBRANCH   4   9
TORSDOF 1
ENDMDL
MODEL 5
REMARK VINA RESULT:      -3.1     15.586     17.546
REMARK  1 active torsions:
REMARK  status: ('A' for Active; 'I' for Inactive)
REMARK    1  A    between atoms: C4_4  and  C8_8 
ROOT
HETATM    1  C1  UNL     1     -36.071  18.622  -3.465  1.00 20.00     0.302 C 
HETATM    2  C2  UNL     1     -34.824  18.735  -2.586  1.00 20.00     0.302 C 
HETATM    3  C3  UNL     1     -35.002  16.896  -4.752  1.00 20.00     0.307 C 
HETATM    4  C4  UNL     1     -33.740  16.984  -3.863  1.00 20.00     0.250 C 
HETATM    5  C6  UNL     1     -36.890  18.085  -5.666  1.00 20.00     0.310 C 
HETATM    6  C7  UNL     1     -32.936  17.607  -1.634  1.00 20.00     0.310 C 
HETATM    7  N9  UNL     1     -35.706  18.182  -4.814  1.00 20.00     0.088 N 
HETATM    8  N10 UNL     1     -34.101  17.456  -2.509  1.00 20.00     0.092 N 
ENDROOT
BRANCH   4   9
HETATM    9  C8  UNL     1     -33.068  15.603  -3.841  1.00 20.00     0.033 C 
HETATM   10  C5  UNL     1     -34.034  14.524  -4.195  1.00 20.00     0.007 C 
ENDBRANCH   4   9
TORSDOF 1
ENDMDL
MODEL 6
REMARK VINA RESULT:      -3.1     16.775     18.019
REMARK  1 active torsions:
REMARK  status: ('A' for Active; 'I' for Inactive)
REMARK    1  A    between atoms: C4_4  and  C8_8 
ROOT
HETATM    1  C1  UNL     1     -42.965  15.142   6.082  1.00 20.00     0.302 C 
HETATM    2  C2  UNL     1     -41.986  15.284   7.248  1.00 20.00     0.302 C 
HETATM    3  C3  UNL     1     -41.464  13.598   5.015  1.00 20.00     0.307 C 
HETATM    4  C4  UNL     1     -40.470  13.715   6.193  1.00 20.00     0.250 C 
HETATM    5  C6  UNL     1     -43.172  14.705   3.722  1.00 20.00     0.310 C 
HETATM    6  C7  UNL     1     -40.293  14.235   8.581  1.00 20.00     0.310 C 
HETATM    7  N9  UNL     1     -42.246  14.828   4.846  1.00 20.00     0.088 N 
HETATM    8  N10 UNL     1     -41.191  14.061   7.437  1.00 20.00     0.092 N 
ENDROOT
BRANCH   4   9
HETATM    9  C8  UNL     1     -39.703  12.390   6.310  1.00 20.00     0.033 C 
HETATM   10  C5  UNL     1     -39.369  11.834   4.968  1.00 20.00     0.007 C 
ENDBRANCH   4   9
TORSDOF 1
ENDMDL
MODEL 7
REMARK VINA RESULT:      -3.0     16.637     18.564
REMARK  1 active torsions:
REMARK  status: ('A' for Active; 'I' for Inactive)
REMARK    1  A    between atoms: C4_4  and  C8_8 
ROOT
HETATM    1  C1  UNL     1     -33.644  15.246  -3.903  1.00 20.00     0.302 C 
HETATM    2  C2  UNL     1     -33.879  14.991  -5.393  1.00 20.00     0.302 C 
HETATM    3  C3  UNL     1     -34.647  17.419  -4.121  1.00 20.00     0.307 C 
HETATM    4  C4  UNL     1     -34.909  17.173  -5.624  1.00 20.00     0.250 C 
HETATM    5  C6  UNL     1     -33.231  16.930  -2.231  1.00 20.00     0.310 C 
HETATM    6  C7  UNL     1     -35.255  15.424  -7.306  1.00 20.00     0.310 C 
HETATM    7  N9  UNL     1     -33.471  16.678  -3.651  1.00 20.00     0.088 N 
HETATM    8  N10 UNL     1     -35.055  15.725  -5.887  1.00 20.00     0.092 N 
ENDROOT
BRANCH   4   9
HETATM    9  C8  UNL     1     -36.155  17.970  -6.034  1.00 20.00     0.033 C 
HETATM   10  C5  UNL     1     -37.286  17.732  -5.093  1.00 20.00     0.007 C 
ENDBRANCH   4   9
TORSDOF 1
ENDMDL
MODEL 8
REMARK VINA RESULT:      -3.0     19.801     20.967
REMARK  1 active torsions:
REMARK  status: ('A' for Active; 'I' for Inactive)
REMARK    1  A    between atoms: C4_4  and  C8_8 
ROOT
HETATM    1  C1  UNL     1     -24.318  -1.452  11.651  1.00 20.00     0.302 C 
HETATM    2  C2  UNL     1     -25.619  -1.021  12.332  1.00 20.00     0.302 C 
HETATM    3  C3  UNL     1     -25.571  -2.854  10.154  1.00 20.00     0.307 C 
HETATM    4  C4  UNL     1     -26.897  -2.417  10.818  1.00 20.00     0.250 C 
HETATM    5  C6  UNL     1     -23.209  -3.229  10.463  1.00 20.00     0.310 C 
HETATM    6  C7  UNL     1     -27.968  -0.614  12.087  1.00 20.00     0.310 C 
HETATM    7  N9  UNL     1     -24.452  -2.803  11.103  1.00 20.00     0.088 N 
HETATM    8  N10 UNL     1     -26.756  -1.064  11.399  1.00 20.00     0.092 N 
ENDROOT
BRANCH   4   9
HETATM    9  C8  UNL     1     -28.011  -2.487   9.763  1.00 20.00     0.033 C 
HETATM   10  C5  UNL     1     -28.991  -3.565  10.079  1.00 20.00     0.007 C 
ENDBRANCH   4   9
TORSDOF 1
ENDMDL
MODEL 9
REMARK VINA RESULT:      -3.0     16.413     17.703
REMARK  1 active torsions:
REMARK  status: ('A' for Active; 'I' for Inactive)
REMARK    1  A    between atoms: C4_4  and  C8_8 
ROOT
HETATM    1  C1  UNL     1     -41.629  15.946   7.722  1.00 20.00     0.302 C 
HETATM    2  C2  UNL     1     -42.555  15.575   6.562  1.00 20.00     0.302 C 
HETATM    3  C3  UNL     1     -40.374  13.929   7.361  1.00 20.00     0.307 C 
HETATM    4  C4  UNL     1     -41.288  13.545   6.175  1.00 20.00     0.250 C 
HETATM    5  C6  UNL     1     -40.215  15.084   9.471  1.00 20.00     0.310 C 
HETATM    6  C7  UNL     1     -42.774  14.458   4.453  1.00 20.00     0.310 C 
HETATM    7  N9  UNL     1     -41.090  14.739   8.352  1.00 20.00     0.088 N 
HETATM    8  N10 UNL     1     -41.857  14.761   5.555  1.00 20.00     0.092 N 
ENDROOT
BRANCH   4   9
HETATM    9  C8  UNL     1     -40.466  12.712   5.181  1.00 20.00     0.033 C 
HETATM   10  C5  UNL     1     -39.586  11.736   5.888  1.00 20.00     0.007 C 
ENDBRANCH   4   9
TORSDOF 1
ENDMDL
