MODEL 1
REMARK VINA RESULT:      -3.4      0.000      0.000
REMARK  3 active torsions:
REMARK  status: ('A' for Active; 'I' for Inactive)
REMARK    1  A    between atoms: C1_1  and  C2_2 
REMARK    2  A    between atoms: C1_1  and  O11_11 
REMARK    3  A    between atoms: C8_8  and  N9_9 
ROOT
HETATM    1  C2  UNL     1     -40.716  13.502   6.839  1.00 20.00     0.355 A 
HETATM    2  C3  UNL     1     -41.023  13.632   5.361  1.00 20.00     0.264 A 
HETATM    3  C4  UNL     1     -42.345  14.110   4.868  1.00 20.00     0.046 C 
HETATM    4  N9  UNL     1     -40.941  12.327   5.999  1.00 20.00     0.115 N 
ENDROOT
BRANCH   1   5
HETATM    5  C1  UNL     1     -41.753  13.663   7.859  1.00 20.00     0.294 C 
HETATM    6  O10 UNL     1     -42.540  12.783   8.180  1.00 20.00    -0.263 OA
BRANCH   5   7
HETATM    7  O11 UNL     1     -41.695  14.924   8.375  1.00 20.00    -0.325 OA
HETATM    8  C7  UNL     1     -40.380  15.465   8.529  1.00 20.00     0.213 C 
ENDBRANCH   5   7
ENDBRANCH   1   5
BRANCH   4   9
HETATM    9  C8  UNL     1     -39.713  11.609   5.678  1.00 20.00     0.216 C 
HETATM   10  C5  UNL     1     -38.590  12.115   6.573  1.00 20.00     0.042 C 
HETATM   11  C6  UNL     1     -39.393  11.811   4.204  1.00 20.00     0.042 C 
ENDBRANCH   4   9
TORSDOF 3
ENDMDL
MODEL 2
REMARK VINA RESULT:      -3.3      2.267      4.099
REMARK  3 active torsions:
REMARK  status: ('A' for Active; 'I' for Inactive)
REMARK    1  A    between atoms: C1_1  and  C2_2 
REMARK    2  A    between atoms: C1_1  and  O11_11 
REMARK    3  A    between atoms: C8_8  and  N9_9 
ROOT
HETATM    1  C2  UNL     1     -40.423  13.453   6.551  1.00 20.00     0.355 A 
HETATM    2  C3  UNL     1     -41.592  13.542   7.512  1.00 20.00     0.264 A 
HETATM    3  C4  UNL     1     -42.925  12.961   7.188  1.00 20.00     0.046 C 
HETATM    4  N9  UNL     1     -41.136  14.710   6.774  1.00 20.00     0.115 N 
ENDROOT
BRANCH   1   5
HETATM    5  C1  UNL     1     -40.584  12.958   5.183  1.00 20.00     0.294 C 
HETATM    6  O10 UNL     1     -41.183  13.560   4.303  1.00 20.00    -0.263 OA
BRANCH   5   7
HETATM    7  O11 UNL     1     -39.973  11.745   5.062  1.00 20.00    -0.325 OA
HETATM    8  C7  UNL     1     -38.969  11.661   4.047  1.00 20.00     0.213 C 
ENDBRANCH   5   7
ENDBRANCH   1   5
BRANCH   4   9
HETATM    9  C8  UNL     1     -40.390  15.653   7.598  1.00 20.00     0.216 C 
HETATM   10  C5  UNL     1     -40.229  15.076   8.997  1.00 20.00     0.042 C 
HETATM   11  C6  UNL     1     -41.129  16.983   7.619  1.00 20.00     0.042 C 
ENDBRANCH   4   9
TORSDOF 3
ENDMDL
MODEL 3
REMARK VINA RESULT:      -3.3     12.571     13.889
REMARK  3 active torsions:
REMARK  status: ('A' for Active; 'I' for Inactive)
REMARK    1  A    between atoms: C1_1  and  C2_2 
REMARK    2  A    between atoms: C1_1  and  O11_11 
REMARK    3  A    between atoms: C8_8  and  N9_9 
ROOT
HETATM    1  C2  UNL     1     -34.378  15.861  -4.933  1.00 20.00     0.355 A 
HETATM    2  C3  UNL     1     -35.507  14.917  -5.297  1.00 20.00     0.264 A 
HETATM    3  C4  UNL     1     -35.729  13.635  -4.571  1.00 20.00     0.046 C 
HETATM    4  N9  UNL     1     -34.333  15.048  -6.148  1.00 20.00     0.115 N 
ENDROOT
BRANCH   1   5
HETATM    5  C1  UNL     1     -33.338  15.486  -3.974  1.00 20.00     0.294 C 
HETATM    6  O10 UNL     1     -32.385  14.768  -4.244  1.00 20.00    -0.263 OA
BRANCH   5   7
HETATM    7  O11 UNL     1     -33.605  16.055  -2.764  1.00 20.00    -0.325 OA
HETATM    8  C7  UNL     1     -33.269  17.440  -2.649  1.00 20.00     0.213 C 
ENDBRANCH   5   7
ENDBRANCH   1   5
BRANCH   4   9
HETATM    9  C8  UNL     1     -34.587  15.817  -7.360  1.00 20.00     0.216 C 
HETATM   10  C5  UNL     1     -34.519  17.302  -7.034  1.00 20.00     0.042 C 
HETATM   11  C6  UNL     1     -35.947  15.424  -7.918  1.00 20.00     0.042 C 
ENDBRANCH   4   9
TORSDOF 3
ENDMDL
MODEL 4
REMARK VINA RESULT:      -3.3     12.929     14.182
REMARK  3 active torsions:
REMARK  status: ('A' for Active; 'I' for Inactive)
REMARK    1  A    between atoms: C1_1  and  C2_2 
REMARK    2  A    between atoms: C1_1  and  O11_11 
REMARK    3  A    between atoms: C8_8  and  N9_9 
ROOT
HETATM    1  C2  UNL     1     -34.662  15.306  -6.175  1.00 20.00     0.355 A 
HETATM    2  C3  UNL     1     -34.676  14.541  -4.867  1.00 20.00     0.264 A 
HETATM    3  C4  UNL     1     -35.781  13.608  -4.510  1.00 20.00     0.046 C 
HETATM    4  N9  UNL     1     -34.948  15.970  -4.905  1.00 20.00     0.115 N 
ENDROOT
BRANCH   1   5
HETATM    5  C1  UNL     1     -35.814  15.312  -7.077  1.00 20.00     0.294 C 
HETATM    6  O10 UNL     1     -36.090  14.398  -7.842  1.00 20.00    -0.263 OA
BRANCH   5   7
HETATM    7  O11 UNL     1     -36.505  16.478  -6.927  1.00 20.00    -0.325 OA
HETATM    8  C7  UNL     1     -36.224  17.489  -7.899  1.00 20.00     0.213 C 
ENDBRANCH   5   7
ENDBRANCH   1   5
BRANCH   4   9
HETATM    9  C8  UNL     1     -33.836  16.778  -4.418  1.00 20.00     0.216 C 
HETATM   10  C5  UNL     1     -33.444  16.302  -3.026  1.00 20.00     0.042 C 
HETATM   11  C6  UNL     1     -34.253  18.242  -4.416  1.00 20.00     0.042 C 
ENDBRANCH   4   9
TORSDOF 3
ENDMDL
MODEL 5
REMARK VINA RESULT:      -3.3     12.769     13.762
REMARK  3 active torsions:
REMARK  status: ('A' for Active; 'I' for Inactive)
REMARK    1  A    between atoms: C1_1  and  C2_2 
REMARK    2  A    between atoms: C1_1  and  O11_11 
REMARK    3  A    between atoms: C8_8  and  N9_9 
ROOT
HETATM    1  C2  UNL     1     -35.007  15.408  -5.111  1.00 20.00     0.355 A 
HETATM    2  C3  UNL     1     -35.046  15.640  -6.608  1.00 20.00     0.264 A 
HETATM    3  C4  UNL     1     -33.848  15.437  -7.470  1.00 20.00     0.046 C 
HETATM    4  N9  UNL     1     -35.060  16.756  -5.674  1.00 20.00     0.115 N 
ENDROOT
BRANCH   1   5
HETATM    5  C1  UNL     1     -33.752  15.150  -4.403  1.00 20.00     0.294 C 
HETATM    6  O10 UNL     1     -33.256  14.040  -4.271  1.00 20.00    -0.263 OA
BRANCH   5   7
HETATM    7  O11 UNL     1     -33.248  16.324  -3.925  1.00 20.00    -0.325 OA
HETATM    8  C7  UNL     1     -33.407  16.534  -2.520  1.00 20.00     0.213 C 
ENDBRANCH   5   7
ENDBRANCH   1   5
BRANCH   4   9
HETATM    9  C8  UNL     1     -36.372  17.380  -5.546  1.00 20.00     0.216 C 
HETATM   10  C5  UNL     1     -36.405  18.214  -4.273  1.00 20.00     0.042 C 
HETATM   11  C6  UNL     1     -37.436  16.292  -5.534  1.00 20.00     0.042 C 
ENDBRANCH   4   9
TORSDOF 3
ENDMDL
MODEL 6
REMARK VINA RESULT:      -3.2     12.366     12.991
REMARK  3 active torsions:
REMARK  status: ('A' for Active; 'I' for Inactive)
REMARK    1  A    between atoms: C1_1  and  C2_2 
REMARK    2  A    between atoms: C1_1  and  O11_11 
REMARK    3  A    between atoms: C8_8  and  N9_9 
ROOT
HETATM    1  C2  UNL     1     -33.085  17.547  -3.409  1.00 20.00     0.355 A 
HETATM    2  C3  UNL     1     -34.157  18.203  -4.256  1.00 20.00     0.264 A 
HETATM    3  C4  UNL     1     -35.060  19.255  -3.709  1.00 20.00     0.046 C 
HETATM    4  N9  UNL     1     -34.306  16.835  -3.784  1.00 20.00     0.115 N 
ENDROOT
BRANCH   1   5
HETATM    5  C1  UNL     1     -32.995  17.773  -1.966  1.00 20.00     0.294 C 
HETATM    6  O10 UNL     1     -33.689  17.200  -1.138  1.00 20.00    -0.263 OA
BRANCH   5   7
HETATM    7  O11 UNL     1     -32.034  18.707  -1.710  1.00 20.00    -0.325 OA
HETATM    8  C7  UNL     1     -31.376  18.581  -0.446  1.00 20.00     0.213 C 
ENDBRANCH   5   7
ENDBRANCH   1   5
BRANCH   4   9
HETATM    9  C8  UNL     1     -34.092  15.841  -4.830  1.00 20.00     0.216 C 
HETATM   10  C5  UNL     1     -35.174  15.992  -5.890  1.00 20.00     0.042 C 
HETATM   11  C6  UNL     1     -34.106  14.454  -4.204  1.00 20.00     0.042 C 
ENDBRANCH   4   9
TORSDOF 3
ENDMDL
MODEL 7
REMARK VINA RESULT:      -3.2     12.117     13.449
REMARK  3 active torsions:
REMARK  status: ('A' for Active; 'I' for Inactive)
REMARK    1  A    between atoms: C1_1  and  C2_2 
REMARK    2  A    between atoms: C1_1  and  O11_11 
REMARK    3  A    between atoms: C8_8  and  N9_9 
ROOT
HETATM    1  C2  UNL     1     -33.533  17.561  -3.896  1.00 20.00     0.355 A 
HETATM    2  C3  UNL     1     -33.121  16.172  -3.452  1.00 20.00     0.264 A 
HETATM    3  C4  UNL     1     -33.800  14.948  -3.960  1.00 20.00     0.046 C 
HETATM    4  N9  UNL     1     -33.851  17.061  -2.560  1.00 20.00     0.115 N 
ENDROOT
BRANCH   1   5
HETATM    5  C1  UNL     1     -34.732  17.790  -4.704  1.00 20.00     0.294 C 
HETATM    6  O10 UNL     1     -35.868  17.819  -4.250  1.00 20.00    -0.263 OA
BRANCH   5   7
HETATM    7  O11 UNL     1     -34.378  17.956  -6.010  1.00 20.00    -0.325 OA
HETATM    8  C7  UNL     1     -34.871  16.962  -6.912  1.00 20.00     0.213 C 
ENDBRANCH   5   7
ENDBRANCH   1   5
BRANCH   4   9
HETATM    9  C8  UNL     1     -33.012  17.641  -1.517  1.00 20.00     0.216 C 
HETATM   10  C5  UNL     1     -33.843  17.831  -0.256  1.00 20.00     0.042 C 
HETATM   11  C6  UNL     1     -32.441  18.959  -2.019  1.00 20.00     0.042 C 
ENDBRANCH   4   9
TORSDOF 3
ENDMDL
MODEL 8
REMARK VINA RESULT:      -3.2      2.151      4.030
REMARK  3 active torsions:
REMARK  status: ('A' for Active; 'I' for Inactive)
REMARK    1  A    between atoms: C1_1  and  C2_2 
REMARK    2  A    between atoms: C1_1  and  O11_11 
REMARK    3  A    between atoms: C8_8  and  N9_9 
ROOT
HETATM    1  C2  UNL     1     -41.284  13.834   6.289  1.00 20.00     0.355 A 
HETATM    2  C3  UNL     1     -42.678  13.476   6.762  1.00 20.00     0.264 A 
HETATM    3  C4  UNL     1     -43.039  12.093   7.180  1.00 20.00     0.046 C 
HETATM    4  N9  UNL     1     -42.405  13.737   5.356  1.00 20.00     0.115 N 
ENDROOT
BRANCH   1   5
HETATM    5  C1  UNL     1     -40.266  12.811   6.042  1.00 20.00     0.294 C 
HETATM    6  O10 UNL     1     -39.581  12.301   6.918  1.00 20.00    -0.263 OA
BRANCH   5   7
HETATM    7  O11 UNL     1     -40.213  12.533   4.708  1.00 20.00    -0.325 OA
HETATM    8  C7  UNL     1     -39.127  11.697   4.298  1.00 20.00     0.213 C 
ENDBRANCH   5   7
ENDBRANCH   1   5
BRANCH   4   9
HETATM    9  C8  UNL     1     -42.893  15.037   4.910  1.00 20.00     0.216 C 
HETATM   10  C5  UNL     1     -42.462  15.264   3.467  1.00 20.00     0.042 C 
HETATM   11  C6  UNL     1     -42.346  16.114   5.836  1.00 20.00     0.042 C 
ENDBRANCH   4   9
TORSDOF 3
ENDMDL
MODEL 9
REMARK VINA RESULT:      -3.2      1.468      3.120
REMARK  3 active torsions:
REMARK  status: ('A' for Active; 'I' for Inactive)
REMARK    1  A    between atoms: C1_1  and  C2_2 
REMARK    2  A    between atoms: C1_1  and  O11_11 
REMARK    3  A    between atoms: C8_8  and  N9_9 
ROOT
HETATM    1  C2  UNL     1     -41.522  13.618   7.159  1.00 20.00     0.355 A 
HETATM    2  C3  UNL     1     -41.107  12.616   6.102  1.00 20.00     0.264 A 
HETATM    3  C4  UNL     1     -39.723  12.069   6.033  1.00 20.00     0.046 C 
HETATM    4  N9  UNL     1     -41.327  14.014   5.765  1.00 20.00     0.115 N 
ENDROOT
BRANCH   1   5
HETATM    5  C1  UNL     1     -40.548  14.243   8.055  1.00 20.00     0.294 C 
HETATM    6  O10 UNL     1     -40.154  13.737   9.097  1.00 20.00    -0.263 OA
BRANCH   5   7
HETATM    7  O11 UNL     1     -40.168  15.450   7.547  1.00 20.00    -0.325 OA
HETATM    8  C7  UNL     1     -40.702  16.595   8.219  1.00 20.00     0.213 C 
ENDBRANCH   5   7
ENDBRANCH   1   5
BRANCH   4   9
HETATM    9  C8  UNL     1     -42.580  14.242   5.054  1.00 20.00     0.216 C 
HETATM   10  C5  UNL     1     -42.273  14.741   3.649  1.00 20.00     0.042 C 
HETATM   11  C6  UNL     1     -43.417  15.243   5.837  1.00 20.00     0.042 C 
ENDBRANCH   4   9
TORSDOF 3
ENDMDL
