MODEL 1
REMARK VINA RESULT:      -4.5      0.000      0.000
REMARK  3 active torsions:
REMARK  status: ('A' for Active; 'I' for Inactive)
REMARK    1  A    between atoms: C2_2  and  C6_6 
REMARK    2  A    between atoms: C3_3  and  C7_7 
REMARK    3  A    between atoms: C7_7  and  C8_8 
ROOT
HETATM    1  C1  UNL     1     -32.879   5.917   3.066  1.00 20.00     0.100 C 
HETATM    2  C2  UNL     1     -32.548   8.448   2.880  1.00 20.00     0.172 A 
HETATM    3  C3  UNL     1     -32.926   7.214   3.673  1.00 20.00     0.175 A 
HETATM    4  N9  UNL     1     -32.840   4.867   2.574  1.00 20.00    -0.194 NA
HETATM    5  O10 UNL     1     -31.630   7.828   3.788  1.00 20.00    -0.353 OA
ENDROOT
BRANCH   3   6
HETATM    6  C7  UNL     1     -33.766   7.365   4.900  1.00 20.00     0.056 C 
BRANCH   6   7
HETATM    7  C8  UNL     1     -34.775   6.218   5.064  1.00 20.00    -0.000 C 
HETATM    8  C5  UNL     1     -34.548   5.427   6.342  1.00 20.00     0.005 C 
ENDBRANCH   6   7
ENDBRANCH   3   6
BRANCH   2   9
HETATM    9  C6  UNL     1     -32.123   8.408   1.453  1.00 20.00     0.032 C 
HETATM   10  C4  UNL     1     -32.788   9.466   0.610  1.00 20.00     0.007 C 
ENDBRANCH   2   9
TORSDOF 3
ENDMDL
MODEL 2
REMARK VINA RESULT:      -3.9      1.056      4.139
REMARK  3 active torsions:
REMARK  status: ('A' for Active; 'I' for Inactive)
REMARK    1  A    between atoms: C2_2  and  C6_6 
REMARK    2  A    between atoms: C3_3  and  C7_7 
REMARK    3  A    between atoms: C7_7  and  C8_8 
ROOT
HETATM    1  C1  UNL     1     -32.924   6.173   3.262  1.00 20.00     0.100 C 
HETATM    2  C2  UNL     1     -33.182   7.660   5.328  1.00 20.00     0.172 A 
HETATM    3  C3  UNL     1     -32.942   7.482   3.844  1.00 20.00     0.175 A 
HETATM    4  N9  UNL     1     -32.910   5.113   2.791  1.00 20.00    -0.194 NA
HETATM    5  O10 UNL     1     -34.230   7.846   4.370  1.00 20.00    -0.353 OA
ENDROOT
BRANCH   3   6
HETATM    6  C7  UNL     1     -32.281   8.581   3.076  1.00 20.00     0.056 C 
BRANCH   6   7
HETATM    7  C8  UNL     1     -32.164   8.261   1.577  1.00 20.00    -0.000 C 
HETATM    8  C5  UNL     1     -32.744   9.363   0.704  1.00 20.00     0.005 C 
ENDBRANCH   6   7
ENDBRANCH   3   6
BRANCH   2   9
HETATM    9  C6  UNL     1     -33.401   6.524   6.266  1.00 20.00     0.032 C 
HETATM   10  C4  UNL     1     -34.817   6.006   6.246  1.00 20.00     0.007 C 
ENDBRANCH   2   9
TORSDOF 3
ENDMDL
MODEL 3
REMARK VINA RESULT:      -3.7     11.919     12.613
REMARK  3 active torsions:
REMARK  status: ('A' for Active; 'I' for Inactive)
REMARK    1  A    between atoms: C2_2  and  C6_6 
REMARK    2  A    between atoms: C3_3  and  C7_7 
REMARK    3  A    between atoms: C7_7  and  C8_8 
ROOT
HETATM    1  C1  UNL     1     -33.883  18.804  -0.372  1.00 20.00     0.100 C 
HETATM    2  C2  UNL     1     -31.354  18.438  -0.506  1.00 20.00     0.172 A 
HETATM    3  C3  UNL     1     -32.754  18.239  -1.048  1.00 20.00     0.175 A 
HETATM    4  N9  UNL     1     -34.797  19.263   0.176  1.00 20.00    -0.194 NA
HETATM    5  O10 UNL     1     -31.863  19.233  -1.582  1.00 20.00    -0.353 OA
ENDROOT
BRANCH   3   6
HETATM    6  C7  UNL     1     -33.016  17.108  -1.991  1.00 20.00     0.056 C 
BRANCH   6   7
HETATM    7  C8  UNL     1     -33.607  17.585  -3.327  1.00 20.00    -0.000 C 
HETATM    8  C5  UNL     1     -34.016  16.427  -4.223  1.00 20.00     0.005 C 
ENDBRANCH   6   7
ENDBRANCH   3   6
BRANCH   2   9
HETATM    9  C6  UNL     1     -31.057  19.202   0.737  1.00 20.00     0.032 C 
HETATM   10  C4  UNL     1     -30.643  18.319   1.888  1.00 20.00     0.007 C 
ENDBRANCH   2   9
TORSDOF 3
ENDMDL
MODEL 4
REMARK VINA RESULT:      -3.7     10.408     11.121
REMARK  3 active torsions:
REMARK  status: ('A' for Active; 'I' for Inactive)
REMARK    1  A    between atoms: C2_2  and  C6_6 
REMARK    2  A    between atoms: C3_3  and  C7_7 
REMARK    3  A    between atoms: C7_7  and  C8_8 
ROOT
HETATM    1  C1  UNL     1     -42.411  12.560   6.948  1.00 20.00     0.100 C 
HETATM    2  C2  UNL     1     -40.050  13.123   6.139  1.00 20.00     0.172 A 
HETATM    3  C3  UNL     1     -41.386  13.534   6.723  1.00 20.00     0.175 A 
HETATM    4  N9  UNL     1     -43.242  11.770   7.132  1.00 20.00    -0.194 NA
HETATM    5  O10 UNL     1     -40.224  13.329   7.546  1.00 20.00    -0.353 OA
ENDROOT
BRANCH   3   6
HETATM    6  C7  UNL     1     -41.808  14.966   6.637  1.00 20.00     0.056 C 
BRANCH   6   7
HETATM    7  C8  UNL     1     -43.003  15.168   5.692  1.00 20.00    -0.000 C 
HETATM    8  C5  UNL     1     -42.607  15.053   4.228  1.00 20.00     0.005 C 
ENDBRANCH   6   7
ENDBRANCH   3   6
BRANCH   2   9
HETATM    9  C6  UNL     1     -39.717  11.722   5.759  1.00 20.00     0.032 C 
HETATM   10  C4  UNL     1     -39.174  11.604   4.357  1.00 20.00     0.007 C 
ENDBRANCH   2   9
TORSDOF 3
ENDMDL
MODEL 5
REMARK VINA RESULT:      -3.6     10.417     11.122
REMARK  3 active torsions:
REMARK  status: ('A' for Active; 'I' for Inactive)
REMARK    1  A    between atoms: C2_2  and  C6_6 
REMARK    2  A    between atoms: C3_3  and  C7_7 
REMARK    3  A    between atoms: C7_7  and  C8_8 
ROOT
HETATM    1  C1  UNL     1     -42.392  12.597   6.964  1.00 20.00     0.100 C 
HETATM    2  C2  UNL     1     -40.033  13.102   6.109  1.00 20.00     0.172 A 
HETATM    3  C3  UNL     1     -41.334  13.538   6.751  1.00 20.00     0.175 A 
HETATM    4  N9  UNL     1     -43.248  11.832   7.136  1.00 20.00    -0.194 NA
HETATM    5  O10 UNL     1     -40.159  13.249   7.528  1.00 20.00    -0.353 OA
ENDROOT
BRANCH   3   6
HETATM    6  C7  UNL     1     -41.700  14.988   6.744  1.00 20.00     0.056 C 
BRANCH   6   7
HETATM    7  C8  UNL     1     -41.798  15.574   8.161  1.00 20.00    -0.000 C 
HETATM    8  C5  UNL     1     -40.737  16.631   8.424  1.00 20.00     0.005 C 
ENDBRANCH   6   7
ENDBRANCH   3   6
BRANCH   2   9
HETATM    9  C6  UNL     1     -39.770  11.708   5.656  1.00 20.00     0.032 C 
HETATM   10  C4  UNL     1     -39.121  11.643   4.296  1.00 20.00     0.007 C 
ENDBRANCH   2   9
TORSDOF 3
ENDMDL
MODEL 6
REMARK VINA RESULT:      -3.6     11.414     12.270
REMARK  3 active torsions:
REMARK  status: ('A' for Active; 'I' for Inactive)
REMARK    1  A    between atoms: C2_2  and  C6_6 
REMARK    2  A    between atoms: C3_3  and  C7_7 
REMARK    3  A    between atoms: C7_7  and  C8_8 
ROOT
HETATM    1  C1  UNL     1     -34.802  18.424  -2.424  1.00 20.00     0.100 C 
HETATM    2  C2  UNL     1     -33.123  16.638  -3.157  1.00 20.00     0.172 A 
HETATM    3  C3  UNL     1     -33.507  17.826  -2.300  1.00 20.00     0.175 A 
HETATM    4  N9  UNL     1     -35.853  18.908  -2.525  1.00 20.00    -0.194 NA
HETATM    5  O10 UNL     1     -33.555  16.478  -1.801  1.00 20.00    -0.353 OA
ENDROOT
BRANCH   3   6
HETATM    6  C7  UNL     1     -32.429  18.653  -1.676  1.00 20.00     0.056 C 
BRANCH   6   7
HETATM    7  C8  UNL     1     -32.430  18.555  -0.143  1.00 20.00    -0.000 C 
HETATM    8  C5  UNL     1     -31.023  18.520   0.435  1.00 20.00     0.005 C 
ENDBRANCH   6   7
ENDBRANCH   3   6
BRANCH   2   9
HETATM    9  C6  UNL     1     -34.031  16.029  -4.168  1.00 20.00     0.032 C 
HETATM   10  C4  UNL     1     -33.801  14.550  -4.353  1.00 20.00     0.007 C 
ENDBRANCH   2   9
TORSDOF 3
ENDMDL
MODEL 7
REMARK VINA RESULT:      -3.6     10.321     11.171
REMARK  3 active torsions:
REMARK  status: ('A' for Active; 'I' for Inactive)
REMARK    1  A    between atoms: C2_2  and  C6_6 
REMARK    2  A    between atoms: C3_3  and  C7_7 
REMARK    3  A    between atoms: C7_7  and  C8_8 
ROOT
HETATM    1  C1  UNL     1     -41.585  13.874   4.832  1.00 20.00     0.100 C 
HETATM    2  C2  UNL     1     -41.559  13.835   7.390  1.00 20.00     0.172 A 
HETATM    3  C3  UNL     1     -41.056  13.338   6.050  1.00 20.00     0.175 A 
HETATM    4  N9  UNL     1     -42.014  14.308   3.845  1.00 20.00    -0.194 NA
HETATM    5  O10 UNL     1     -40.333  14.311   6.824  1.00 20.00    -0.353 OA
ENDROOT
BRANCH   3   6
HETATM    6  C7  UNL     1     -40.373  12.011   5.975  1.00 20.00     0.056 C 
BRANCH   6   7
HETATM    7  C8  UNL     1     -38.959  12.113   5.382  1.00 20.00    -0.000 C 
HETATM    8  C5  UNL     1     -38.896  11.614   3.947  1.00 20.00     0.005 C 
ENDBRANCH   6   7
ENDBRANCH   3   6
BRANCH   2   9
HETATM    9  C6  UNL     1     -42.614  14.875   7.536  1.00 20.00     0.032 C 
HETATM   10  C4  UNL     1     -42.222  15.986   8.477  1.00 20.00     0.007 C 
ENDBRANCH   2   9
TORSDOF 3
ENDMDL
MODEL 8
REMARK VINA RESULT:      -3.5     11.259     12.698
REMARK  3 active torsions:
REMARK  status: ('A' for Active; 'I' for Inactive)
REMARK    1  A    between atoms: C2_2  and  C6_6 
REMARK    2  A    between atoms: C3_3  and  C7_7 
REMARK    3  A    between atoms: C7_7  and  C8_8 
ROOT
HETATM    1  C1  UNL     1     -35.295  14.185  -4.846  1.00 20.00     0.100 C 
HETATM    2  C2  UNL     1     -33.824  16.241  -4.446  1.00 20.00     0.172 A 
HETATM    3  C3  UNL     1     -34.684  15.380  -5.348  1.00 20.00     0.175 A 
HETATM    4  N9  UNL     1     -35.790  13.218  -4.438  1.00 20.00    -0.194 NA
HETATM    5  O10 UNL     1     -35.188  16.574  -4.725  1.00 20.00    -0.353 OA
ENDROOT
BRANCH   3   6
HETATM    6  C7  UNL     1     -34.533  15.500  -6.830  1.00 20.00     0.056 C 
BRANCH   6   7
HETATM    7  C8  UNL     1     -35.840  15.193  -7.578  1.00 20.00    -0.000 C 
HETATM    8  C5  UNL     1     -36.643  16.449  -7.877  1.00 20.00     0.005 C 
ENDBRANCH   6   7
ENDBRANCH   3   6
BRANCH   2   9
HETATM    9  C6  UNL     1     -33.549  15.915  -3.019  1.00 20.00     0.032 C 
HETATM   10  C4  UNL     1     -33.339  17.139  -2.164  1.00 20.00     0.007 C 
ENDBRANCH   2   9
TORSDOF 3
ENDMDL
MODEL 9
REMARK VINA RESULT:      -3.5     10.620     11.501
REMARK  3 active torsions:
REMARK  status: ('A' for Active; 'I' for Inactive)
REMARK    1  A    between atoms: C2_2  and  C6_6 
REMARK    2  A    between atoms: C3_3  and  C7_7 
REMARK    3  A    between atoms: C7_7  and  C8_8 
ROOT
HETATM    1  C1  UNL     1     -42.368  12.812   7.180  1.00 20.00     0.100 C 
HETATM    2  C2  UNL     1     -41.057  15.009   7.118  1.00 20.00     0.172 A 
HETATM    3  C3  UNL     1     -41.562  13.746   6.452  1.00 20.00     0.175 A 
HETATM    4  N9  UNL     1     -43.021  12.056   7.770  1.00 20.00    -0.194 NA
HETATM    5  O10 UNL     1     -42.206  15.018   6.264  1.00 20.00    -0.353 OA
ENDROOT
BRANCH   3   6
HETATM    6  C7  UNL     1     -40.870  13.243   5.226  1.00 20.00     0.056 C 
BRANCH   6   7
HETATM    7  C8  UNL     1     -40.019  11.994   5.504  1.00 20.00    -0.000 C 
HETATM    8  C5  UNL     1     -39.086  11.662   4.350  1.00 20.00     0.005 C 
ENDBRANCH   6   7
ENDBRANCH   3   6
BRANCH   2   9
HETATM    9  C6  UNL     1     -41.342  15.357   8.538  1.00 20.00     0.032 C 
HETATM   10  C4  UNL     1     -40.152  15.163   9.443  1.00 20.00     0.007 C 
ENDBRANCH   2   9
TORSDOF 3
ENDMDL
