MODEL 1
REMARK VINA RESULT:      -4.2      0.000      0.000
REMARK  1 active torsions:
REMARK  status: ('A' for Active; 'I' for Inactive)
REMARK    1  A    between atoms: C7_7  and  C11_11 
ROOT
HETATM    1  C1  UNL     1     -35.787  14.887  -5.848  1.00 20.00     0.131 C 
HETATM    2  C2  UNL     1     -34.830  14.530  -4.736  1.00 20.00     0.079 C 
HETATM    3  C3  UNL     1     -33.778  15.619  -4.605  1.00 20.00     0.017 C 
HETATM    4  C4  UNL     1     -34.546  17.843  -5.659  1.00 20.00     0.016 A 
HETATM    5  C5  UNL     1     -36.580  16.173  -5.654  1.00 20.00     0.056 C 
HETATM    6  C6  UNL     1     -35.773  17.268  -5.006  1.00 20.00     0.006 A 
HETATM    7  C7  UNL     1     -34.398  16.989  -4.417  1.00 20.00    -0.032 A 
HETATM    8  C8  UNL     1     -37.209  16.653  -6.958  1.00 20.00     0.018 C 
HETATM    9  O12 UNL     1     -35.964  14.134  -6.803  1.00 20.00    -0.298 OA
ENDROOT
BRANCH   7  10
HETATM   10  C11 UNL     1     -34.042  17.674  -3.126  1.00 20.00    -0.014 C 
HETATM   11  C9  UNL     1     -33.450  16.685  -2.111  1.00 20.00     0.010 C 
HETATM   12  C10 UNL     1     -33.057  18.828  -3.358  1.00 20.00     0.010 C 
ENDBRANCH   7  10
TORSDOF 1
ENDMDL
MODEL 2
REMARK VINA RESULT:      -4.0     11.436     13.113
REMARK  1 active torsions:
REMARK  status: ('A' for Active; 'I' for Inactive)
REMARK    1  A    between atoms: C7_7  and  C11_11 
ROOT
HETATM    1  C1  UNL     1     -33.727   7.067   5.647  1.00 20.00     0.131 C 
HETATM    2  C2  UNL     1     -33.301   8.468   5.276  1.00 20.00     0.079 C 
HETATM    3  C3  UNL     1     -32.273   8.404   4.158  1.00 20.00     0.017 C 
HETATM    4  C4  UNL     1     -32.362   6.164   2.883  1.00 20.00     0.016 A 
HETATM    5  C5  UNL     1     -34.403   6.264   4.542  1.00 20.00     0.056 C 
HETATM    6  C6  UNL     1     -33.795   6.507   3.186  1.00 20.00     0.006 A 
HETATM    7  C7  UNL     1     -32.780   7.618   2.965  1.00 20.00    -0.032 A 
HETATM    8  C8  UNL     1     -34.442   4.774   4.868  1.00 20.00     0.018 C 
HETATM    9  O12 UNL     1     -33.604   6.647   6.795  1.00 20.00    -0.298 OA
ENDROOT
BRANCH   7  10
HETATM   10  C11 UNL     1     -32.871   8.400   1.683  1.00 20.00    -0.014 C 
HETATM   11  C9  UNL     1     -32.923   9.911   1.951  1.00 20.00     0.010 C 
HETATM   12  C10 UNL     1     -31.696   8.081   0.748  1.00 20.00     0.010 C 
ENDBRANCH   7  10
TORSDOF 1
ENDMDL
MODEL 3
REMARK VINA RESULT:      -3.8      2.222      4.071
REMARK  1 active torsions:
REMARK  status: ('A' for Active; 'I' for Inactive)
REMARK    1  A    between atoms: C7_7  and  C11_11 
ROOT
HETATM    1  C1  UNL     1     -33.420  16.709  -3.127  1.00 20.00     0.131 C 
HETATM    2  C2  UNL     1     -33.216  15.470  -3.967  1.00 20.00     0.079 C 
HETATM    3  C3  UNL     1     -34.452  15.227  -4.817  1.00 20.00     0.017 C 
HETATM    4  C4  UNL     1     -35.879  17.356  -5.088  1.00 20.00     0.016 A 
HETATM    5  C5  UNL     1     -33.624  18.007  -3.898  1.00 20.00     0.056 C 
HETATM    6  C6  UNL     1     -34.451  17.825  -5.144  1.00 20.00     0.006 A 
HETATM    7  C7  UNL     1     -34.814  16.437  -5.652  1.00 20.00    -0.032 A 
HETATM    8  C8  UNL     1     -34.201  19.107  -3.012  1.00 20.00     0.018 C 
HETATM    9  O12 UNL     1     -33.340  16.668  -1.901  1.00 20.00    -0.298 OA
ENDROOT
BRANCH   7  10
HETATM   10  C11 UNL     1     -34.790  16.213  -7.139  1.00 20.00    -0.014 C 
HETATM   11  C9  UNL     1     -33.632  15.290  -7.548  1.00 20.00     0.010 C 
HETATM   12  C10 UNL     1     -36.119  15.628  -7.639  1.00 20.00     0.010 C 
ENDBRANCH   7  10
TORSDOF 1
ENDMDL
MODEL 4
REMARK VINA RESULT:      -3.7      1.455      2.005
REMARK  1 active torsions:
REMARK  status: ('A' for Active; 'I' for Inactive)
REMARK    1  A    between atoms: C7_7  and  C11_11 
ROOT
HETATM    1  C1  UNL     1     -34.354  15.941  -4.938  1.00 20.00     0.131 C 
HETATM    2  C2  UNL     1     -33.769  15.508  -3.614  1.00 20.00     0.079 C 
HETATM    3  C3  UNL     1     -32.811  16.576  -3.112  1.00 20.00     0.017 C 
HETATM    4  C4  UNL     1     -33.246  18.867  -4.213  1.00 20.00     0.016 A 
HETATM    5  C5  UNL     1     -35.177  17.222  -4.913  1.00 20.00     0.056 C 
HETATM    6  C6  UNL     1     -34.607  18.268  -3.991  1.00 20.00     0.006 A 
HETATM    7  C7  UNL     1     -33.469  17.939  -3.036  1.00 20.00    -0.032 A 
HETATM    8  C8  UNL     1     -35.392  17.785  -6.315  1.00 20.00     0.018 C 
HETATM    9  O12 UNL     1     -34.233  15.247  -5.945  1.00 20.00    -0.298 OA
ENDROOT
BRANCH   7  10
HETATM   10  C11 UNL     1     -33.518  18.544  -1.660  1.00 20.00    -0.014 C 
HETATM   11  C9  UNL     1     -33.823  17.482  -0.592  1.00 20.00     0.010 C 
HETATM   12  C10 UNL     1     -32.205  19.261  -1.315  1.00 20.00     0.010 C 
ENDBRANCH   7  10
TORSDOF 1
ENDMDL
MODEL 5
REMARK VINA RESULT:      -3.7      1.683      3.612
REMARK  1 active torsions:
REMARK  status: ('A' for Active; 'I' for Inactive)
REMARK    1  A    between atoms: C7_7  and  C11_11 
ROOT
HETATM    1  C1  UNL     1     -33.860  15.076  -4.452  1.00 20.00     0.131 C 
HETATM    2  C2  UNL     1     -34.043  15.118  -5.950  1.00 20.00     0.079 C 
HETATM    3  C3  UNL     1     -35.155  16.095  -6.296  1.00 20.00     0.017 C 
HETATM    4  C4  UNL     1     -35.602  17.773  -4.391  1.00 20.00     0.016 A 
HETATM    5  C5  UNL     1     -33.446  16.387  -3.796  1.00 20.00     0.056 C 
HETATM    6  C6  UNL     1     -34.110  17.588  -4.416  1.00 20.00     0.006 A 
HETATM    7  C7  UNL     1     -34.911  17.468  -5.704  1.00 20.00    -0.032 A 
HETATM    8  C8  UNL     1     -33.663  16.358  -2.286  1.00 20.00     0.018 C 
HETATM    9  O12 UNL     1     -33.963  14.022  -3.827  1.00 20.00    -0.298 OA
ENDROOT
BRANCH   7  10
HETATM   10  C11 UNL     1     -34.782  18.579  -6.710  1.00 20.00    -0.014 C 
HETATM   11  C9  UNL     1     -33.937  18.146  -7.918  1.00 20.00     0.010 C 
HETATM   12  C10 UNL     1     -36.158  19.063  -7.189  1.00 20.00     0.010 C 
ENDBRANCH   7  10
TORSDOF 1
ENDMDL
MODEL 6
REMARK VINA RESULT:      -3.7     24.898     26.165
REMARK  1 active torsions:
REMARK  status: ('A' for Active; 'I' for Inactive)
REMARK    1  A    between atoms: C7_7  and  C11_11 
ROOT
HETATM    1  C1  UNL     1     -27.976  -0.803  11.582  1.00 20.00     0.131 C 
HETATM    2  C2  UNL     1     -26.521  -0.399  11.595  1.00 20.00     0.079 C 
HETATM    3  C3  UNL     1     -25.665  -1.605  11.950  1.00 20.00     0.017 C 
HETATM    4  C4  UNL     1     -26.902  -3.829  11.538  1.00 20.00     0.016 A 
HETATM    5  C5  UNL     1     -28.361  -1.868  10.564  1.00 20.00     0.056 C 
HETATM    6  C6  UNL     1     -27.308  -2.932  10.401  1.00 20.00     0.006 A 
HETATM    7  C7  UNL     1     -25.932  -2.781  11.032  1.00 20.00    -0.032 A 
HETATM    8  C8  UNL     1     -29.722  -2.485  10.876  1.00 20.00     0.018 C 
HETATM    9  O12 UNL     1     -28.800  -0.238  12.299  1.00 20.00    -0.298 OA
ENDROOT
BRANCH   7  10
HETATM   10  C11 UNL     1     -24.745  -3.244  10.233  1.00 20.00    -0.014 C 
HETATM   11  C9  UNL     1     -23.488  -2.428  10.573  1.00 20.00     0.010 C 
HETATM   12  C10 UNL     1     -24.468  -4.737  10.456  1.00 20.00     0.010 C 
ENDBRANCH   7  10
TORSDOF 1
ENDMDL
MODEL 7
REMARK VINA RESULT:      -3.5     12.174     13.736
REMARK  1 active torsions:
REMARK  status: ('A' for Active; 'I' for Inactive)
REMARK    1  A    between atoms: C7_7  and  C11_11 
ROOT
HETATM    1  C1  UNL     1     -32.329   7.275   2.544  1.00 20.00     0.131 C 
HETATM    2  C2  UNL     1     -32.218   8.174   3.753  1.00 20.00     0.079 C 
HETATM    3  C3  UNL     1     -33.515   8.122   4.542  1.00 20.00     0.017 C 
HETATM    4  C4  UNL     1     -34.898   6.014   4.002  1.00 20.00     0.016 A 
HETATM    5  C5  UNL     1     -32.549   5.796   2.835  1.00 20.00     0.056 C 
HETATM    6  C6  UNL     1     -33.465   5.559   4.008  1.00 20.00     0.006 A 
HETATM    7  C7  UNL     1     -33.901   6.704   4.910  1.00 20.00    -0.032 A 
HETATM    8  C8  UNL     1     -33.033   5.042   1.600  1.00 20.00     0.018 C 
HETATM    9  O12 UNL     1     -32.167   7.713   1.407  1.00 20.00    -0.298 OA
ENDROOT
BRANCH   7  10
HETATM   10  C11 UNL     1     -33.985   6.432   6.387  1.00 20.00    -0.014 C 
HETATM   11  C9  UNL     1     -34.243   7.722   7.180  1.00 20.00     0.010 C 
HETATM   12  C10 UNL     1     -35.078   5.402   6.705  1.00 20.00     0.010 C 
ENDBRANCH   7  10
TORSDOF 1
ENDMDL
MODEL 8
REMARK VINA RESULT:      -3.5     17.202     18.731
REMARK  1 active torsions:
REMARK  status: ('A' for Active; 'I' for Inactive)
REMARK    1  A    between atoms: C7_7  and  C11_11 
ROOT
HETATM    1  C1  UNL     1     -23.688  19.118   7.776  1.00 20.00     0.131 C 
HETATM    2  C2  UNL     1     -24.826  19.263   8.759  1.00 20.00     0.079 C 
HETATM    3  C3  UNL     1     -24.941  17.995   9.589  1.00 20.00     0.017 C 
HETATM    4  C4  UNL     1     -22.762  16.617   9.566  1.00 20.00     0.016 A 
HETATM    5  C5  UNL     1     -22.306  18.924   8.385  1.00 20.00     0.056 C 
HETATM    6  C6  UNL     1     -22.324  18.054   9.615  1.00 20.00     0.006 A 
HETATM    7  C7  UNL     1     -23.634  17.639  10.267  1.00 20.00    -0.032 A 
HETATM    8  C8  UNL     1     -21.303  18.404   7.359  1.00 20.00     0.018 C 
HETATM    9  O12 UNL     1     -23.873  19.234   6.566  1.00 20.00    -0.298 OA
ENDROOT
BRANCH   7  10
HETATM   10  C11 UNL     1     -23.685  17.611  11.770  1.00 20.00    -0.014 C 
HETATM   11  C9  UNL     1     -24.563  18.745  12.322  1.00 20.00     0.010 C 
HETATM   12  C10 UNL     1     -24.199  16.261  12.288  1.00 20.00     0.010 C 
ENDBRANCH   7  10
TORSDOF 1
ENDMDL
MODEL 9
REMARK VINA RESULT:      -3.3     13.765     15.246
REMARK  1 active torsions:
REMARK  status: ('A' for Active; 'I' for Inactive)
REMARK    1  A    between atoms: C7_7  and  C11_11 
ROOT
HETATM    1  C1  UNL     1     -42.257  14.081   9.961  1.00 20.00     0.131 C 
HETATM    2  C2  UNL     1     -42.958  13.324   8.858  1.00 20.00     0.079 C 
HETATM    3  C3  UNL     1     -42.781  14.065   7.543  1.00 20.00     0.017 C 
HETATM    4  C4  UNL     1     -40.779  15.689   7.606  1.00 20.00     0.016 A 
HETATM    5  C5  UNL     1     -40.751  14.241   9.803  1.00 20.00     0.056 C 
HETATM    6  C6  UNL     1     -40.332  14.477   8.375  1.00 20.00     0.006 A 
HETATM    7  C7  UNL     1     -41.322  14.325   7.229  1.00 20.00    -0.032 A 
HETATM    8  C8  UNL     1     -40.196  15.324  10.724  1.00 20.00     0.018 C 
HETATM    9  O12 UNL     1     -42.867  14.467  10.956  1.00 20.00    -0.298 OA
ENDROOT
BRANCH   7  10
HETATM   10  C11 UNL     1     -40.824  13.693   5.959  1.00 20.00    -0.014 C 
HETATM   11  C9  UNL     1     -40.696  12.169   6.104  1.00 20.00     0.010 C 
HETATM   12  C10 UNL     1     -41.740  14.024   4.772  1.00 20.00     0.010 C 
ENDBRANCH   7  10
TORSDOF 1
ENDMDL
