MODEL 1
REMARK VINA RESULT:      -4.6      0.000      0.000
REMARK  1 active torsions:
REMARK  status: ('A' for Active; 'I' for Inactive)
REMARK    1  A    between atoms: C9_9  and  N10_10 
ROOT
HETATM    1  C1  UNL     1     -32.030   8.825   4.025  1.00 20.00     0.004 A 
HETATM    2  C2  UNL     1     -32.033   7.792   3.176  1.00 20.00     0.042 A 
HETATM    3  C3  UNL     1     -32.850   8.815   5.202  1.00 20.00     0.017 A 
HETATM    4  C4  UNL     1     -33.621   7.756   5.465  1.00 20.00     0.093 A 
HETATM    5  C5  UNL     1     -32.902   6.591   3.441  1.00 20.00     0.103 A 
HETATM    6  N10 UNL     1     -33.674   6.633   4.636  1.00 20.00    -0.339 N 
HETATM    7  S11 UNL     1     -32.915   5.306   2.339  1.00 20.00    -0.060 SA
ENDROOT
BRANCH   6   8
HETATM    8  C9  UNL     1     -34.557   5.552   5.034  1.00 20.00     0.027 C 
HETATM    9  C6  UNL     1     -34.749   5.590   6.554  1.00 20.00     0.038 C 
HETATM   10  C7  UNL     1     -35.910   5.729   4.336  1.00 20.00     0.038 C 
HETATM   11  C8  UNL     1     -33.934   4.213   4.628  1.00 20.00     0.038 C 
ENDBRANCH   6   8
TORSDOF 1
ENDMDL
MODEL 2
REMARK VINA RESULT:      -4.2      0.897      3.546
REMARK  1 active torsions:
REMARK  status: ('A' for Active; 'I' for Inactive)
REMARK    1  A    between atoms: C9_9  and  N10_10 
ROOT
HETATM    1  C1  UNL     1     -34.901   5.305   6.023  1.00 20.00     0.004 A 
HETATM    2  C2  UNL     1     -34.468   4.954   4.808  1.00 20.00     0.042 A 
HETATM    3  C3  UNL     1     -34.553   6.575   6.592  1.00 20.00     0.017 A 
HETATM    4  C4  UNL     1     -33.796   7.430   5.897  1.00 20.00     0.093 A 
HETATM    5  C5  UNL     1     -33.602   5.891   4.008  1.00 20.00     0.103 A 
HETATM    6  N10 UNL     1     -33.312   7.144   4.618  1.00 20.00    -0.339 N 
HETATM    7  S11 UNL     1     -33.039   5.418   2.484  1.00 20.00    -0.060 SA
ENDROOT
BRANCH   6   8
HETATM    8  C9  UNL     1     -32.496   8.157   3.974  1.00 20.00     0.027 C 
HETATM    9  C6  UNL     1     -33.288   8.789   2.824  1.00 20.00     0.038 C 
HETATM   10  C7  UNL     1     -32.128   9.232   5.004  1.00 20.00     0.038 C 
HETATM   11  C8  UNL     1     -31.221   7.507   3.425  1.00 20.00     0.038 C 
ENDBRANCH   6   8
TORSDOF 1
ENDMDL
MODEL 3
REMARK VINA RESULT:      -4.0     12.673     13.894
REMARK  1 active torsions:
REMARK  status: ('A' for Active; 'I' for Inactive)
REMARK    1  A    between atoms: C9_9  and  N10_10 
ROOT
HETATM    1  C1  UNL     1     -34.036  14.977  -5.763  1.00 20.00     0.004 A 
HETATM    2  C2  UNL     1     -34.506  16.177  -6.117  1.00 20.00     0.042 A 
HETATM    3  C3  UNL     1     -33.521  14.746  -4.443  1.00 20.00     0.017 A 
HETATM    4  C4  UNL     1     -33.519  15.738  -3.548  1.00 20.00     0.093 A 
HETATM    5  C5  UNL     1     -34.504  17.316  -5.133  1.00 20.00     0.103 A 
HETATM    6  N10 UNL     1     -34.001  17.017  -3.836  1.00 20.00    -0.339 N 
HETATM    7  S11 UNL     1     -35.076  18.837  -5.610  1.00 20.00    -0.060 SA
ENDROOT
BRANCH   6   8
HETATM    8  C9  UNL     1     -33.937  18.006  -2.775  1.00 20.00     0.027 C 
HETATM    9  C6  UNL     1     -35.322  18.635  -2.585  1.00 20.00     0.038 C 
HETATM   10  C7  UNL     1     -33.497  17.320  -1.477  1.00 20.00     0.038 C 
HETATM   11  C8  UNL     1     -32.926  19.093  -3.156  1.00 20.00     0.038 C 
ENDBRANCH   6   8
TORSDOF 1
ENDMDL
MODEL 4
REMARK VINA RESULT:      -3.8     12.814     14.031
REMARK  1 active torsions:
REMARK  status: ('A' for Active; 'I' for Inactive)
REMARK    1  A    between atoms: C9_9  and  N10_10 
ROOT
HETATM    1  C1  UNL     1     -33.912  17.740  -1.912  1.00 20.00     0.004 A 
HETATM    2  C2  UNL     1     -34.843  18.431  -2.579  1.00 20.00     0.042 A 
HETATM    3  C3  UNL     1     -33.301  16.578  -2.490  1.00 20.00     0.017 A 
HETATM    4  C4  UNL     1     -33.654  16.182  -3.717  1.00 20.00     0.093 A 
HETATM    5  C5  UNL     1     -35.269  18.000  -3.956  1.00 20.00     0.103 A 
HETATM    6  N10 UNL     1     -34.609  16.854  -4.482  1.00 20.00    -0.339 N 
HETATM    7  S11 UNL     1     -36.470  18.870  -4.773  1.00 20.00    -0.060 SA
ENDROOT
BRANCH   6   8
HETATM    8  C9  UNL     1     -34.904  16.317  -5.799  1.00 20.00     0.027 C 
HETATM    9  C6  UNL     1     -36.385  15.925  -5.865  1.00 20.00     0.038 C 
HETATM   10  C7  UNL     1     -34.603  17.387  -6.855  1.00 20.00     0.038 C 
HETATM   11  C8  UNL     1     -34.034  15.081  -6.049  1.00 20.00     0.038 C 
ENDBRANCH   6   8
TORSDOF 1
ENDMDL
MODEL 5
REMARK VINA RESULT:      -3.8     12.818     14.032
REMARK  1 active torsions:
REMARK  status: ('A' for Active; 'I' for Inactive)
REMARK    1  A    between atoms: C9_9  and  N10_10 
ROOT
HETATM    1  C1  UNL     1     -33.904  17.760  -1.888  1.00 20.00     0.004 A 
HETATM    2  C2  UNL     1     -34.848  18.437  -2.550  1.00 20.00     0.042 A 
HETATM    3  C3  UNL     1     -33.279  16.606  -2.468  1.00 20.00     0.017 A 
HETATM    4  C4  UNL     1     -33.632  16.205  -3.693  1.00 20.00     0.093 A 
HETATM    5  C5  UNL     1     -35.275  17.999  -3.925  1.00 20.00     0.103 A 
HETATM    6  N10 UNL     1     -34.602  16.862  -4.454  1.00 20.00    -0.339 N 
HETATM    7  S11 UNL     1     -36.493  18.851  -4.736  1.00 20.00    -0.060 SA
ENDROOT
BRANCH   6   8
HETATM    8  C9  UNL     1     -34.896  16.320  -5.768  1.00 20.00     0.027 C 
HETATM    9  C6  UNL     1     -34.017  15.090  -6.017  1.00 20.00     0.038 C 
HETATM   10  C7  UNL     1     -36.375  15.920  -5.825  1.00 20.00     0.038 C 
HETATM   11  C8  UNL     1     -34.605  17.384  -6.832  1.00 20.00     0.038 C 
ENDBRANCH   6   8
TORSDOF 1
ENDMDL
MODEL 6
REMARK VINA RESULT:      -3.8     12.800     14.026
REMARK  1 active torsions:
REMARK  status: ('A' for Active; 'I' for Inactive)
REMARK    1  A    between atoms: C9_9  and  N10_10 
ROOT
HETATM    1  C1  UNL     1     -33.886  17.793  -1.847  1.00 20.00     0.004 A 
HETATM    2  C2  UNL     1     -34.822  18.474  -2.517  1.00 20.00     0.042 A 
HETATM    3  C3  UNL     1     -33.280  16.622  -2.412  1.00 20.00     0.017 A 
HETATM    4  C4  UNL     1     -33.643  16.208  -3.630  1.00 20.00     0.093 A 
HETATM    5  C5  UNL     1     -35.260  18.022  -3.884  1.00 20.00     0.103 A 
HETATM    6  N10 UNL     1     -34.605  16.868  -4.398  1.00 20.00    -0.339 N 
HETATM    7  S11 UNL     1     -36.468  18.880  -4.704  1.00 20.00    -0.060 SA
ENDROOT
BRANCH   6   8
HETATM    8  C9  UNL     1     -34.912  16.310  -5.703  1.00 20.00     0.027 C 
HETATM    9  C6  UNL     1     -34.640  17.366  -6.780  1.00 20.00     0.038 C 
HETATM   10  C7  UNL     1     -34.025  15.083  -5.943  1.00 20.00     0.038 C 
HETATM   11  C8  UNL     1     -36.388  15.901  -5.745  1.00 20.00     0.038 C 
ENDBRANCH   6   8
TORSDOF 1
ENDMDL
MODEL 7
REMARK VINA RESULT:      -3.7     12.459     13.782
REMARK  1 active torsions:
REMARK  status: ('A' for Active; 'I' for Inactive)
REMARK    1  A    between atoms: C9_9  and  N10_10 
ROOT
HETATM    1  C1  UNL     1     -33.721  17.756  -1.934  1.00 20.00     0.004 A 
HETATM    2  C2  UNL     1     -33.339  16.612  -2.511  1.00 20.00     0.042 A 
HETATM    3  C3  UNL     1     -34.700  18.603  -2.553  1.00 20.00     0.017 A 
HETATM    4  C4  UNL     1     -35.249  18.243  -3.717  1.00 20.00     0.093 A 
HETATM    5  C5  UNL     1     -33.931  16.189  -3.828  1.00 20.00     0.103 A 
HETATM    6  N10 UNL     1     -34.912  17.061  -4.379  1.00 20.00    -0.339 N 
HETATM    7  S11 UNL     1     -33.412  14.752  -4.558  1.00 20.00    -0.060 SA
ENDROOT
BRANCH   6   8
HETATM    8  C9  UNL     1     -35.579  16.790  -5.640  1.00 20.00     0.027 C 
HETATM    9  C6  UNL     1     -36.268  15.423  -5.565  1.00 20.00     0.038 C 
HETATM   10  C7  UNL     1     -36.623  17.883  -5.897  1.00 20.00     0.038 C 
HETATM   11  C8  UNL     1     -34.545  16.784  -6.770  1.00 20.00     0.038 C 
ENDBRANCH   6   8
TORSDOF 1
ENDMDL
MODEL 8
REMARK VINA RESULT:      -3.7      1.636      2.500
REMARK  1 active torsions:
REMARK  status: ('A' for Active; 'I' for Inactive)
REMARK    1  A    between atoms: C9_9  and  N10_10 
ROOT
HETATM    1  C1  UNL     1     -31.845   8.490   3.281  1.00 20.00     0.004 A 
HETATM    2  C2  UNL     1     -32.396   8.699   4.480  1.00 20.00     0.042 A 
HETATM    3  C3  UNL     1     -32.105   7.283   2.549  1.00 20.00     0.017 A 
HETATM    4  C4  UNL     1     -32.919   6.357   3.064  1.00 20.00     0.093 A 
HETATM    5  C5  UNL     1     -33.305   7.666   5.091  1.00 20.00     0.103 A 
HETATM    6  N10 UNL     1     -33.541   6.503   4.306  1.00 20.00    -0.339 N 
HETATM    7  S11 UNL     1     -33.970   7.935   6.624  1.00 20.00    -0.060 SA
ENDROOT
BRANCH   6   8
HETATM    8  C9  UNL     1     -34.397   5.418   4.752  1.00 20.00     0.027 C 
HETATM    9  C6  UNL     1     -35.847   5.726   4.363  1.00 20.00     0.038 C 
HETATM   10  C7  UNL     1     -33.945   4.116   4.082  1.00 20.00     0.038 C 
HETATM   11  C8  UNL     1     -34.291   5.283   6.275  1.00 20.00     0.038 C 
ENDBRANCH   6   8
TORSDOF 1
ENDMDL
MODEL 9
REMARK VINA RESULT:      -3.6     12.793     14.183
REMARK  1 active torsions:
REMARK  status: ('A' for Active; 'I' for Inactive)
REMARK    1  A    between atoms: C9_9  and  N10_10 
ROOT
HETATM    1  C1  UNL     1     -33.320  16.701  -2.775  1.00 20.00     0.004 A 
HETATM    2  C2  UNL     1     -34.157  17.728  -2.949  1.00 20.00     0.042 A 
HETATM    3  C3  UNL     1     -33.341  15.573  -3.661  1.00 20.00     0.017 A 
HETATM    4  C4  UNL     1     -34.200  15.549  -4.685  1.00 20.00     0.093 A 
HETATM    5  C5  UNL     1     -35.144  17.722  -4.086  1.00 20.00     0.103 A 
HETATM    6  N10 UNL     1     -35.099  16.586  -4.942  1.00 20.00    -0.339 N 
HETATM    7  S11 UNL     1     -36.216  19.018  -4.273  1.00 20.00    -0.060 SA
ENDROOT
BRANCH   6   8
HETATM    8  C9  UNL     1     -35.982  16.433  -6.085  1.00 20.00     0.027 C 
HETATM    9  C6  UNL     1     -35.750  17.590  -7.062  1.00 20.00     0.038 C 
HETATM   10  C7  UNL     1     -35.678  15.099  -6.777  1.00 20.00     0.038 C 
HETATM   11  C8  UNL     1     -37.438  16.448  -5.606  1.00 20.00     0.038 C 
ENDBRANCH   6   8
TORSDOF 1
ENDMDL
