MODEL 1
REMARK VINA RESULT:      -5.4      0.000      0.000
REMARK  1 active torsions:
REMARK  status: ('A' for Active; 'I' for Inactive)
REMARK    1  A    between atoms: C4_4  and  C10_10 
ROOT
HETATM    1  C1  UNL     1     -34.319   6.696   6.569  1.00 20.00    -0.003 C 
HETATM    2  C2  UNL     1     -33.567   7.607   5.738  1.00 20.00     0.011 C 
HETATM    3  C3  UNL     1     -34.696   5.433   6.332  1.00 20.00    -0.026 C 
HETATM    4  C4  UNL     1     -33.067   7.473   4.498  1.00 20.00    -0.009 C 
HETATM    5  C5  UNL     1     -33.284   6.274   3.633  1.00 20.00     0.156 C 
HETATM    6  C6  UNL     1     -34.520   4.635   5.078  1.00 20.00     0.035 C 
HETATM    7  C7  UNL     1     -34.544   5.464   3.808  1.00 20.00     0.087 C 
HETATM    8  O11 UNL     1     -32.469   5.986   2.756  1.00 20.00    -0.293 OA
ENDROOT
BRANCH   4   9
HETATM    9  C10 UNL     1     -32.215   8.550   3.884  1.00 20.00     0.014 C 
HETATM   10  C8  UNL     1     -32.926   9.157   2.680  1.00 20.00     0.015 C 
HETATM   11  C9  UNL     1     -31.873   9.618   4.916  1.00 20.00     0.015 C 
ENDBRANCH   4   9
TORSDOF 1
ENDMDL
MODEL 2
REMARK VINA RESULT:      -4.5      1.538      2.430
REMARK  1 active torsions:
REMARK  status: ('A' for Active; 'I' for Inactive)
REMARK    1  A    between atoms: C4_4  and  C10_10 
ROOT
HETATM    1  C1  UNL     1     -34.186   4.942   4.119  1.00 20.00    -0.003 C 
HETATM    2  C2  UNL     1     -33.374   5.957   3.488  1.00 20.00     0.011 C 
HETATM    3  C3  UNL     1     -34.816   4.960   5.300  1.00 20.00    -0.026 C 
HETATM    4  C4  UNL     1     -32.991   7.176   3.906  1.00 20.00    -0.009 C 
HETATM    5  C5  UNL     1     -33.294   7.729   5.261  1.00 20.00     0.156 C 
HETATM    6  C6  UNL     1     -34.774   6.021   6.354  1.00 20.00     0.035 C 
HETATM    7  C7  UNL     1     -33.461   6.778   6.419  1.00 20.00     0.087 C 
HETATM    8  O11 UNL     1     -33.353   8.947   5.434  1.00 20.00    -0.293 OA
ENDROOT
BRANCH   4   9
HETATM    9  C10 UNL     1     -32.221   8.100   3.003  1.00 20.00     0.014 C 
HETATM   10  C8  UNL     1     -31.977   7.431   1.655  1.00 20.00     0.015 C 
HETATM   11  C9  UNL     1     -32.958   9.423   2.834  1.00 20.00     0.015 C 
ENDBRANCH   4   9
TORSDOF 1
ENDMDL
MODEL 3
REMARK VINA RESULT:      -4.1     11.889     13.535
REMARK  1 active torsions:
REMARK  status: ('A' for Active; 'I' for Inactive)
REMARK    1  A    between atoms: C4_4  and  C10_10 
ROOT
HETATM    1  C1  UNL     1     -34.861  18.501  -4.123  1.00 20.00    -0.003 C 
HETATM    2  C2  UNL     1     -34.948  17.333  -4.968  1.00 20.00     0.011 C 
HETATM    3  C3  UNL     1     -34.058  18.747  -3.080  1.00 20.00    -0.026 C 
HETATM    4  C4  UNL     1     -34.289  16.163  -4.937  1.00 20.00    -0.009 C 
HETATM    5  C5  UNL     1     -33.309  15.782  -3.876  1.00 20.00     0.156 C 
HETATM    6  C6  UNL     1     -33.074  17.823  -2.434  1.00 20.00     0.035 C 
HETATM    7  C7  UNL     1     -33.468  16.360  -2.492  1.00 20.00     0.087 C 
HETATM    8  O11 UNL     1     -32.418  14.967  -4.118  1.00 20.00    -0.293 OA
ENDROOT
BRANCH   4   9
HETATM    9  C10 UNL     1     -34.488  15.131  -6.014  1.00 20.00     0.014 C 
HETATM   10  C8  UNL     1     -35.844  14.454  -5.845  1.00 20.00     0.015 C 
HETATM   11  C9  UNL     1     -34.359  15.763  -7.395  1.00 20.00     0.015 C 
ENDBRANCH   4   9
TORSDOF 1
ENDMDL
MODEL 4
REMARK VINA RESULT:      -4.1     11.987     13.304
REMARK  1 active torsions:
REMARK  status: ('A' for Active; 'I' for Inactive)
REMARK    1  A    between atoms: C4_4  and  C10_10 
ROOT
HETATM    1  C1  UNL     1     -36.345  17.038  -5.326  1.00 20.00    -0.003 C 
HETATM    2  C2  UNL     1     -35.229  17.395  -4.482  1.00 20.00     0.011 C 
HETATM    3  C3  UNL     1     -36.564  15.920  -6.030  1.00 20.00    -0.026 C 
HETATM    4  C4  UNL     1     -34.092  16.742  -4.188  1.00 20.00    -0.009 C 
HETATM    5  C5  UNL     1     -33.694  15.438  -4.799  1.00 20.00     0.156 C 
HETATM    6  C6  UNL     1     -35.651  14.749  -6.212  1.00 20.00     0.035 C 
HETATM    7  C7  UNL     1     -34.177  15.104  -6.188  1.00 20.00     0.087 C 
HETATM    8  O11 UNL     1     -32.940  14.674  -4.196  1.00 20.00    -0.293 OA
ENDROOT
BRANCH   4   9
HETATM    9  C10 UNL     1     -33.120  17.290  -3.179  1.00 20.00     0.014 C 
HETATM   10  C8  UNL     1     -32.898  18.778  -3.422  1.00 20.00     0.015 C 
HETATM   11  C9  UNL     1     -33.617  17.033  -1.760  1.00 20.00     0.015 C 
ENDBRANCH   4   9
TORSDOF 1
ENDMDL
MODEL 5
REMARK VINA RESULT:      -4.0     11.944     13.748
REMARK  1 active torsions:
REMARK  status: ('A' for Active; 'I' for Inactive)
REMARK    1  A    between atoms: C4_4  and  C10_10 
ROOT
HETATM    1  C1  UNL     1     -33.967  16.918  -3.964  1.00 20.00    -0.003 C 
HETATM    2  C2  UNL     1     -35.130  17.161  -4.787  1.00 20.00     0.011 C 
HETATM    3  C3  UNL     1     -33.258  15.795  -3.793  1.00 20.00    -0.026 C 
HETATM    4  C4  UNL     1     -35.847  16.343  -5.576  1.00 20.00    -0.009 C 
HETATM    5  C5  UNL     1     -35.604  14.875  -5.700  1.00 20.00     0.156 C 
HETATM    6  C6  UNL     1     -33.538  14.432  -4.344  1.00 20.00     0.035 C 
HETATM    7  C7  UNL     1     -35.012  14.130  -4.529  1.00 20.00     0.087 C 
HETATM    8  O11 UNL     1     -35.932  14.276  -6.724  1.00 20.00    -0.293 OA
ENDROOT
BRANCH   4   9
HETATM    9  C10 UNL     1     -36.969  16.873  -6.427  1.00 20.00     0.014 C 
HETATM   10  C8  UNL     1     -38.294  16.745  -5.684  1.00 20.00     0.015 C 
HETATM   11  C9  UNL     1     -36.702  18.320  -6.828  1.00 20.00     0.015 C 
ENDBRANCH   4   9
TORSDOF 1
ENDMDL
MODEL 6
REMARK VINA RESULT:      -4.0     12.374     13.707
REMARK  1 active torsions:
REMARK  status: ('A' for Active; 'I' for Inactive)
REMARK    1  A    between atoms: C4_4  and  C10_10 
ROOT
HETATM    1  C1  UNL     1     -33.248  16.381  -2.735  1.00 20.00    -0.003 C 
HETATM    2  C2  UNL     1     -33.775  15.928  -4.001  1.00 20.00     0.011 C 
HETATM    3  C3  UNL     1     -33.626  17.412  -1.969  1.00 20.00    -0.026 C 
HETATM    4  C4  UNL     1     -34.754  16.415  -4.782  1.00 20.00    -0.009 C 
HETATM    5  C5  UNL     1     -35.496  17.682  -4.502  1.00 20.00     0.156 C 
HETATM    6  C6  UNL     1     -34.658  18.454  -2.265  1.00 20.00     0.035 C 
HETATM    7  C7  UNL     1     -34.802  18.782  -3.738  1.00 20.00     0.087 C 
HETATM    8  O11 UNL     1     -36.637  17.841  -4.935  1.00 20.00    -0.293 OA
ENDROOT
BRANCH   4   9
HETATM    9  C10 UNL     1     -35.194  15.685  -6.022  1.00 20.00     0.014 C 
HETATM   10  C8  UNL     1     -33.989  15.380  -6.904  1.00 20.00     0.015 C 
HETATM   11  C9  UNL     1     -35.944  14.410  -5.657  1.00 20.00     0.015 C 
ENDBRANCH   4   9
TORSDOF 1
ENDMDL
MODEL 7
REMARK VINA RESULT:      -4.0      1.023      3.745
REMARK  1 active torsions:
REMARK  status: ('A' for Active; 'I' for Inactive)
REMARK    1  A    between atoms: C4_4  and  C10_10 
ROOT
HETATM    1  C1  UNL     1     -33.043   8.824   4.945  1.00 20.00    -0.003 C 
HETATM    2  C2  UNL     1     -33.643   7.548   5.254  1.00 20.00     0.011 C 
HETATM    3  C3  UNL     1     -32.469   9.250   3.812  1.00 20.00    -0.026 C 
HETATM    4  C4  UNL     1     -33.770   6.425   4.526  1.00 20.00    -0.009 C 
HETATM    5  C5  UNL     1     -33.187   6.242   3.163  1.00 20.00     0.156 C 
HETATM    6  C6  UNL     1     -32.205   8.473   2.562  1.00 20.00     0.035 C 
HETATM    7  C7  UNL     1     -31.936   6.998   2.794  1.00 20.00     0.087 C 
HETATM    8  O11 UNL     1     -33.695   5.445   2.374  1.00 20.00    -0.293 OA
ENDROOT
BRANCH   4   9
HETATM    9  C10 UNL     1     -34.545   5.246   5.047  1.00 20.00     0.014 C 
HETATM   10  C8  UNL     1     -33.790   3.954   4.756  1.00 20.00     0.015 C 
HETATM   11  C9  UNL     1     -34.818   5.398   6.539  1.00 20.00     0.015 C 
ENDBRANCH   4   9
TORSDOF 1
ENDMDL
MODEL 8
REMARK VINA RESULT:      -3.9      1.318      2.295
REMARK  1 active torsions:
REMARK  status: ('A' for Active; 'I' for Inactive)
REMARK    1  A    between atoms: C4_4  and  C10_10 
ROOT
HETATM    1  C1  UNL     1     -33.593   7.952   5.851  1.00 20.00    -0.003 C 
HETATM    2  C2  UNL     1     -33.044   7.609   4.559  1.00 20.00     0.011 C 
HETATM    3  C3  UNL     1     -34.311   7.208   6.702  1.00 20.00    -0.026 C 
HETATM    4  C4  UNL     1     -33.118   6.482   3.833  1.00 20.00    -0.009 C 
HETATM    5  C5  UNL     1     -33.926   5.287   4.222  1.00 20.00     0.156 C 
HETATM    6  C6  UNL     1     -34.830   5.819   6.502  1.00 20.00     0.035 C 
HETATM    7  C7  UNL     1     -35.163   5.483   5.062  1.00 20.00     0.087 C 
HETATM    8  O11 UNL     1     -33.612   4.167   3.817  1.00 20.00    -0.293 OA
ENDROOT
BRANCH   4   9
HETATM    9  C10 UNL     1     -32.355   6.337   2.544  1.00 20.00     0.014 C 
HETATM   10  C8  UNL     1     -33.039   5.316   1.643  1.00 20.00     0.015 C 
HETATM   11  C9  UNL     1     -32.222   7.685   1.844  1.00 20.00     0.015 C 
ENDBRANCH   4   9
TORSDOF 1
ENDMDL
MODEL 9
REMARK VINA RESULT:      -3.8     13.124     14.373
REMARK  1 active torsions:
REMARK  status: ('A' for Active; 'I' for Inactive)
REMARK    1  A    between atoms: C4_4  and  C10_10 
ROOT
HETATM    1  C1  UNL     1     -27.454  -2.485  10.073  1.00 20.00    -0.003 C 
HETATM    2  C2  UNL     1     -26.218  -3.171  10.371  1.00 20.00     0.011 C 
HETATM    3  C3  UNL     1     -27.841  -1.242  10.388  1.00 20.00    -0.026 C 
HETATM    4  C4  UNL     1     -25.133  -2.788  11.064  1.00 20.00    -0.009 C 
HETATM    5  C5  UNL     1     -25.022  -1.490  11.795  1.00 20.00     0.156 C 
HETATM    6  C6  UNL     1     -27.123  -0.237  11.232  1.00 20.00     0.035 C 
HETATM    7  C7  UNL     1     -26.274  -0.844  12.332  1.00 20.00     0.087 C 
HETATM    8  O11 UNL     1     -23.918  -0.985  11.999  1.00 20.00    -0.293 OA
ENDROOT
BRANCH   4   9
HETATM    9  C10 UNL     1     -23.911  -3.663  11.140  1.00 20.00     0.014 C 
HETATM   10  C8  UNL     1     -24.090  -4.718  12.225  1.00 20.00     0.015 C 
HETATM   11  C9  UNL     1     -23.628  -4.308   9.788  1.00 20.00     0.015 C 
ENDBRANCH   4   9
TORSDOF 1
ENDMDL
