MODEL 1
REMARK VINA RESULT:      -4.0      0.000      0.000
REMARK  0 active torsions:
REMARK  status: ('A' for Active; 'I' for Inactive)
ROOT
HETATM    1  C1  UNL     1     -40.545  13.921   8.387  1.00 20.00     0.100 C 
HETATM    2  C2  UNL     1     -39.883  12.835   6.314  1.00 20.00     0.067 A 
HETATM    3  C3  UNL     1     -40.719  13.725   6.980  1.00 20.00     0.056 A 
HETATM    4  C4  UNL     1     -41.704  14.407   6.273  1.00 20.00    -0.001 A 
HETATM    5  C5  UNL     1     -40.072  12.663   4.952  1.00 20.00     0.129 A 
HETATM    6  C6  UNL     1     -41.811  14.164   4.913  1.00 20.00     0.135 A 
HETATM    7  C7  UNL     1     -42.618  15.367   6.961  1.00 20.00     0.053 C 
HETATM    8  N8  UNL     1     -40.403  14.080   9.527  1.00 20.00    -0.191 NA
HETATM    9  N9  UNL     1     -41.018  13.307   4.232  1.00 20.00    -0.224 NA
HETATM   10 CL10 UNL     1     -39.088  11.586   4.048  1.00 20.00    -0.062 Cl
HETATM   11 CL11 UNL     1     -42.985  14.942   3.926  1.00 20.00    -0.062 Cl
ENDROOT
TORSDOF 0
ENDMDL
MODEL 2
REMARK VINA RESULT:      -3.9     10.248     11.011
REMARK  0 active torsions:
REMARK  status: ('A' for Active; 'I' for Inactive)
ROOT
HETATM    1  C1  UNL     1     -32.375   8.964   4.831  1.00 20.00     0.100 C 
HETATM    2  C2  UNL     1     -33.697   7.119   5.702  1.00 20.00     0.067 A 
HETATM    3  C3  UNL     1     -32.955   7.667   4.661  1.00 20.00     0.056 A 
HETATM    4  C4  UNL     1     -32.788   6.951   3.481  1.00 20.00    -0.001 A 
HETATM    5  C5  UNL     1     -34.248   5.861   5.514  1.00 20.00     0.129 A 
HETATM    6  C6  UNL     1     -33.379   5.701   3.393  1.00 20.00     0.135 A 
HETATM    7  C7  UNL     1     -31.998   7.514   2.345  1.00 20.00     0.053 C 
HETATM    8  N8  UNL     1     -31.905  10.017   4.968  1.00 20.00    -0.191 NA
HETATM    9  N9  UNL     1     -34.108   5.136   4.381  1.00 20.00    -0.224 NA
HETATM   10 CL10 UNL     1     -35.178   5.106   6.742  1.00 20.00    -0.062 Cl
HETATM   11 CL11 UNL     1     -33.248   4.715   1.989  1.00 20.00    -0.062 Cl
ENDROOT
TORSDOF 0
ENDMDL
MODEL 3
REMARK VINA RESULT:      -3.9      0.485      3.019
REMARK  0 active torsions:
REMARK  status: ('A' for Active; 'I' for Inactive)
ROOT
HETATM    1  C1  UNL     1     -40.589  13.929   8.248  1.00 20.00     0.100 C 
HETATM    2  C2  UNL     1     -41.747  14.443   6.172  1.00 20.00     0.067 A 
HETATM    3  C3  UNL     1     -40.747  13.741   6.838  1.00 20.00     0.056 A 
HETATM    4  C4  UNL     1     -39.924  12.873   6.129  1.00 20.00    -0.001 A 
HETATM    5  C5  UNL     1     -41.880  14.243   4.807  1.00 20.00     0.129 A 
HETATM    6  C6  UNL     1     -40.140  12.743   4.766  1.00 20.00     0.135 A 
HETATM    7  C7  UNL     1     -38.841  12.107   6.816  1.00 20.00     0.053 C 
HETATM    8  N8  UNL     1     -40.460  14.082   9.391  1.00 20.00    -0.191 NA
HETATM    9  N9  UNL     1     -41.099  13.408   4.085  1.00 20.00    -0.224 NA
HETATM   10 CL10 UNL     1     -43.085  15.065   3.903  1.00 20.00    -0.062 Cl
HETATM   11 CL11 UNL     1     -39.192  11.704   3.776  1.00 20.00    -0.062 Cl
ENDROOT
TORSDOF 0
ENDMDL
MODEL 4
REMARK VINA RESULT:      -3.8      9.888     10.938
REMARK  0 active torsions:
REMARK  status: ('A' for Active; 'I' for Inactive)
ROOT
HETATM    1  C1  UNL     1     -32.413   8.764   4.158  1.00 20.00     0.100 C 
HETATM    2  C2  UNL     1     -32.669   6.629   3.022  1.00 20.00     0.067 A 
HETATM    3  C3  UNL     1     -32.932   7.431   4.128  1.00 20.00     0.056 A 
HETATM    4  C4  UNL     1     -33.691   6.928   5.180  1.00 20.00    -0.001 A 
HETATM    5  C5  UNL     1     -33.183   5.343   3.017  1.00 20.00     0.129 A 
HETATM    6  C6  UNL     1     -34.159   5.628   5.077  1.00 20.00     0.135 A 
HETATM    7  C7  UNL     1     -33.988   7.764   6.381  1.00 20.00     0.053 C 
HETATM    8  N8  UNL     1     -31.992   9.845   4.182  1.00 20.00    -0.191 NA
HETATM    9  N9  UNL     1     -33.924   4.819   4.020  1.00 20.00    -0.224 NA
HETATM   10 CL10 UNL     1     -32.910   4.283   1.695  1.00 20.00    -0.062 Cl
HETATM   11 CL11 UNL     1     -35.108   4.889   6.307  1.00 20.00    -0.062 Cl
ENDROOT
TORSDOF 0
ENDMDL
MODEL 5
REMARK VINA RESULT:      -3.7     11.676     12.527
REMARK  0 active torsions:
REMARK  status: ('A' for Active; 'I' for Inactive)
ROOT
HETATM    1  C1  UNL     1     -33.301  15.009  -4.088  1.00 20.00     0.100 C 
HETATM    2  C2  UNL     1     -33.293  16.642  -2.287  1.00 20.00     0.067 A 
HETATM    3  C3  UNL     1     -33.774  16.237  -3.527  1.00 20.00     0.056 A 
HETATM    4  C4  UNL     1     -34.704  17.025  -4.197  1.00 20.00    -0.001 A 
HETATM    5  C5  UNL     1     -33.767  17.834  -1.765  1.00 20.00     0.129 A 
HETATM    6  C6  UNL     1     -35.116  18.200  -3.588  1.00 20.00     0.135 A 
HETATM    7  C7  UNL     1     -35.239  16.617  -5.530  1.00 20.00     0.053 C 
HETATM    8  N8  UNL     1     -32.917  14.012  -4.543  1.00 20.00    -0.191 NA
HETATM    9  N9  UNL     1     -34.669  18.627  -2.386  1.00 20.00    -0.224 NA
HETATM   10 CL10 UNL     1     -33.229  18.413  -0.241  1.00 20.00    -0.062 Cl
HETATM   11 CL11 UNL     1     -36.259  19.262  -4.311  1.00 20.00    -0.062 Cl
ENDROOT
TORSDOF 0
ENDMDL
MODEL 6
REMARK VINA RESULT:      -3.7      2.505      3.501
REMARK  0 active torsions:
REMARK  status: ('A' for Active; 'I' for Inactive)
ROOT
HETATM    1  C1  UNL     1     -42.702  15.500   5.044  1.00 20.00     0.100 C 
HETATM    2  C2  UNL     1     -41.280  13.562   5.408  1.00 20.00     0.067 A 
HETATM    3  C3  UNL     1     -41.820  14.751   5.885  1.00 20.00     0.056 A 
HETATM    4  C4  UNL     1     -41.498  15.191   7.165  1.00 20.00    -0.001 A 
HETATM    5  C5  UNL     1     -40.429  12.855   6.242  1.00 20.00     0.129 A 
HETATM    6  C6  UNL     1     -40.637  14.410   7.921  1.00 20.00     0.135 A 
HETATM    7  C7  UNL     1     -42.061  16.464   7.705  1.00 20.00     0.053 C 
HETATM    8  N8  UNL     1     -43.417  16.108   4.361  1.00 20.00    -0.191 NA
HETATM    9  N9  UNL     1     -40.092  13.250   7.491  1.00 20.00    -0.224 NA
HETATM   10 CL10 UNL     1     -39.716  11.377   5.738  1.00 20.00    -0.062 Cl
HETATM   11 CL11 UNL     1     -40.161  14.841   9.516  1.00 20.00    -0.062 Cl
ENDROOT
TORSDOF 0
ENDMDL
MODEL 7
REMARK VINA RESULT:      -3.6     10.252     10.961
REMARK  0 active torsions:
REMARK  status: ('A' for Active; 'I' for Inactive)
ROOT
HETATM    1  C1  UNL     1     -33.929   5.055   4.305  1.00 20.00     0.100 C 
HETATM    2  C2  UNL     1     -32.938   6.526   2.642  1.00 20.00     0.067 A 
HETATM    3  C3  UNL     1     -33.340   6.312   3.955  1.00 20.00     0.056 A 
HETATM    4  C4  UNL     1     -33.164   7.314   4.903  1.00 20.00    -0.001 A 
HETATM    5  C5  UNL     1     -32.370   7.750   2.329  1.00 20.00     0.129 A 
HETATM    6  C6  UNL     1     -32.585   8.503   4.489  1.00 20.00     0.135 A 
HETATM    7  C7  UNL     1     -33.587   7.114   6.322  1.00 20.00     0.053 C 
HETATM    8  N8  UNL     1     -34.406   4.036   4.588  1.00 20.00    -0.191 NA
HETATM    9  N9  UNL     1     -32.183   8.748   3.222  1.00 20.00    -0.224 NA
HETATM   10 CL10 UNL     1     -31.843   8.103   0.734  1.00 20.00    -0.062 Cl
HETATM   11 CL11 UNL     1     -32.312   9.820   5.561  1.00 20.00    -0.062 Cl
ENDROOT
TORSDOF 0
ENDMDL
MODEL 8
REMARK VINA RESULT:      -3.6     11.279     11.847
REMARK  0 active torsions:
REMARK  status: ('A' for Active; 'I' for Inactive)
ROOT
HETATM    1  C1  UNL     1     -33.645  17.888  -0.844  1.00 20.00     0.100 C 
HETATM    2  C2  UNL     1     -33.290  16.267  -2.622  1.00 20.00     0.067 A 
HETATM    3  C3  UNL     1     -33.945  17.402  -2.156  1.00 20.00     0.056 A 
HETATM    4  C4  UNL     1     -34.875  18.043  -2.968  1.00 20.00    -0.001 A 
HETATM    5  C5  UNL     1     -33.598  15.817  -3.896  1.00 20.00     0.129 A 
HETATM    6  C6  UNL     1     -35.112  17.514  -4.226  1.00 20.00     0.135 A 
HETATM    7  C7  UNL     1     -35.596  19.263  -2.495  1.00 20.00     0.053 C 
HETATM    8  N8  UNL     1     -33.400  18.281   0.220  1.00 20.00    -0.191 NA
HETATM    9  N9  UNL     1     -34.496  16.413  -4.713  1.00 20.00    -0.224 NA
HETATM   10 CL10 UNL     1     -32.839  14.425  -4.554  1.00 20.00    -0.062 Cl
HETATM   11 CL11 UNL     1     -36.236  18.212  -5.325  1.00 20.00    -0.062 Cl
ENDROOT
TORSDOF 0
ENDMDL
MODEL 9
REMARK VINA RESULT:      -3.6     10.867     11.882
REMARK  0 active torsions:
REMARK  status: ('A' for Active; 'I' for Inactive)
ROOT
HETATM    1  C1  UNL     1     -32.915  18.701  -2.682  1.00 20.00     0.100 C 
HETATM    2  C2  UNL     1     -31.725  18.538  -0.568  1.00 20.00     0.067 A 
HETATM    3  C3  UNL     1     -32.919  18.738  -1.252  1.00 20.00     0.056 A 
HETATM    4  C4  UNL     1     -34.092  18.969  -0.540  1.00 20.00    -0.001 A 
HETATM    5  C5  UNL     1     -31.756  18.578   0.817  1.00 20.00     0.129 A 
HETATM    6  C6  UNL     1     -34.016  18.989   0.844  1.00 20.00     0.135 A 
HETATM    7  C7  UNL     1     -35.389  19.189  -1.246  1.00 20.00     0.053 C 
HETATM    8  N8  UNL     1     -32.911  18.671  -3.843  1.00 20.00    -0.191 NA
HETATM    9  N9  UNL     1     -32.875  18.799   1.543  1.00 20.00    -0.224 NA
HETATM   10 CL10 UNL     1     -30.331  18.341   1.744  1.00 20.00    -0.062 Cl
HETATM   11 CL11 UNL     1     -35.392  19.263   1.839  1.00 20.00    -0.062 Cl
ENDROOT
TORSDOF 0
ENDMDL
