MODEL 1
REMARK VINA RESULT:      -3.5      0.000      0.000
REMARK  1 active torsions:
REMARK  status: ('A' for Active; 'I' for Inactive)
REMARK    1  A    between atoms: C4_4  and  C9_9 
ROOT
HETATM    1  C1  UNL     1     -33.774  15.576  -3.804  1.00 20.00     0.174 C 
HETATM    2  C2  UNL     1     -35.192  17.094  -5.331  1.00 20.00     0.083 C 
HETATM    3  C3  UNL     1     -34.698  15.672  -5.029  1.00 20.00     0.015 C 
HETATM    4  C4  UNL     1     -33.674  17.905  -3.186  1.00 20.00     0.108 C 
HETATM    5  C5  UNL     1     -33.997  15.111  -6.272  1.00 20.00     0.012 C 
HETATM    6  C6  UNL     1     -32.861  19.120  -3.641  1.00 20.00     0.058 C 
HETATM    7  O10 UNL     1     -32.974  16.747  -3.676  1.00 20.00    -0.369 OA
HETATM    8  S11 UNL     1     -35.386  18.086  -3.826  1.00 20.00    -0.131 SA
ENDROOT
BRANCH   4   9
HETATM    9  C9  UNL     1     -33.718  17.862  -1.655  1.00 20.00     0.022 C 
HETATM   10  C7  UNL     1     -32.327  18.103  -1.079  1.00 20.00     0.013 C 
HETATM   11  C8  UNL     1     -34.712  18.889  -1.124  1.00 20.00     0.013 C 
ENDBRANCH   4   9
TORSDOF 1
ENDMDL
MODEL 2
REMARK VINA RESULT:      -3.4     25.088     26.136
REMARK  1 active torsions:
REMARK  status: ('A' for Active; 'I' for Inactive)
REMARK    1  A    between atoms: C4_4  and  C9_9 
ROOT
HETATM    1  C1  UNL     1     -24.514  -3.175   9.764  1.00 20.00     0.174 C 
HETATM    2  C2  UNL     1     -23.997  -2.162  12.077  1.00 20.00     0.083 C 
HETATM    3  C3  UNL     1     -23.436  -2.718  10.761  1.00 20.00     0.015 C 
HETATM    4  C4  UNL     1     -26.491  -2.731  11.070  1.00 20.00     0.108 C 
HETATM    5  C5  UNL     1     -22.474  -3.871  11.073  1.00 20.00     0.012 C 
HETATM    6  C6  UNL     1     -27.263  -3.471  12.166  1.00 20.00     0.058 C 
HETATM    7  O10 UNL     1     -25.643  -3.712  10.445  1.00 20.00    -0.369 OA
HETATM    8  S11 UNL     1     -25.591  -1.331  11.847  1.00 20.00    -0.131 SA
ENDROOT
BRANCH   4   9
HETATM    9  C9  UNL     1     -27.476  -2.177  10.036  1.00 20.00     0.022 C 
HETATM   10  C7  UNL     1     -28.753  -3.009  10.021  1.00 20.00     0.013 C 
HETATM   11  C8  UNL     1     -27.784  -0.713  10.329  1.00 20.00     0.013 C 
ENDBRANCH   4   9
TORSDOF 1
ENDMDL
MODEL 3
REMARK VINA RESULT:      -3.3     12.642     14.454
REMARK  1 active torsions:
REMARK  status: ('A' for Active; 'I' for Inactive)
REMARK    1  A    between atoms: C4_4  and  C9_9 
ROOT
HETATM    1  C1  UNL     1     -40.274  14.729   8.808  1.00 20.00     0.174 C 
HETATM    2  C2  UNL     1     -42.678  15.658   8.834  1.00 20.00     0.083 C 
HETATM    3  C3  UNL     1     -41.271  15.711   9.445  1.00 20.00     0.015 C 
HETATM    4  C4  UNL     1     -41.725  13.655   7.209  1.00 20.00     0.108 C 
HETATM    5  C5  UNL     1     -41.371  15.466  10.956  1.00 20.00     0.012 C 
HETATM    6  C6  UNL     1     -42.743  12.512   7.257  1.00 20.00     0.058 C 
HETATM    7  O10 UNL     1     -40.928  13.531   8.401  1.00 20.00    -0.369 OA
HETATM    8  S11 UNL     1     -42.645  15.238   7.071  1.00 20.00    -0.131 SA
ENDROOT
BRANCH   4   9
HETATM    9  C9  UNL     1     -40.829  13.492   5.979  1.00 20.00     0.022 C 
HETATM   10  C7  UNL     1     -40.298  12.065   5.895  1.00 20.00     0.013 C 
HETATM   11  C8  UNL     1     -41.594  13.861   4.713  1.00 20.00     0.013 C 
ENDBRANCH   4   9
TORSDOF 1
ENDMDL
MODEL 4
REMARK VINA RESULT:      -3.3     12.450     13.384
REMARK  1 active torsions:
REMARK  status: ('A' for Active; 'I' for Inactive)
REMARK    1  A    between atoms: C4_4  and  C9_9 
ROOT
HETATM    1  C1  UNL     1     -32.453   7.978   3.908  1.00 20.00     0.174 C 
HETATM    2  C2  UNL     1     -32.810   6.094   2.186  1.00 20.00     0.083 C 
HETATM    3  C3  UNL     1     -32.065   7.388   2.543  1.00 20.00     0.015 C 
HETATM    4  C4  UNL     1     -34.136   6.385   4.577  1.00 20.00     0.108 C 
HETATM    5  C5  UNL     1     -32.291   8.420   1.431  1.00 20.00     0.012 C 
HETATM    6  C6  UNL     1     -35.628   6.192   4.293  1.00 20.00     0.058 C 
HETATM    7  O10 UNL     1     -33.827   7.739   4.195  1.00 20.00    -0.369 OA
HETATM    8  S11 UNL     1     -33.204   5.103   3.651  1.00 20.00    -0.131 SA
ENDROOT
BRANCH   4   9
HETATM    9  C9  UNL     1     -33.872   6.207   6.075  1.00 20.00     0.022 C 
HETATM   10  C7  UNL     1     -34.145   7.510   6.820  1.00 20.00     0.013 C 
HETATM   11  C8  UNL     1     -34.726   5.074   6.632  1.00 20.00     0.013 C 
ENDBRANCH   4   9
TORSDOF 1
ENDMDL
MODEL 5
REMARK VINA RESULT:      -3.0      1.990      4.048
REMARK  1 active torsions:
REMARK  status: ('A' for Active; 'I' for Inactive)
REMARK    1  A    between atoms: C4_4  and  C9_9 
ROOT
HETATM    1  C1  UNL     1     -34.779  18.237  -2.235  1.00 20.00     0.174 C 
HETATM    2  C2  UNL     1     -33.061  16.611  -3.259  1.00 20.00     0.083 C 
HETATM    3  C3  UNL     1     -33.616  17.263  -1.984  1.00 20.00     0.015 C 
HETATM    4  C4  UNL     1     -34.904  18.114  -4.639  1.00 20.00     0.108 C 
HETATM    5  C5  UNL     1     -32.475  17.972  -1.246  1.00 20.00     0.012 C 
HETATM    6  C6  UNL     1     -34.164  18.776  -5.805  1.00 20.00     0.058 C 
HETATM    7  O10 UNL     1     -34.619  18.914  -3.477  1.00 20.00    -0.369 OA
HETATM    8  S11 UNL     1     -34.341  16.370  -4.519  1.00 20.00    -0.131 SA
ENDROOT
BRANCH   4   9
HETATM    9  C9  UNL     1     -36.411  18.133  -4.912  1.00 20.00     0.022 C 
HETATM   10  C7  UNL     1     -36.754  19.229  -5.914  1.00 20.00     0.013 C 
HETATM   11  C8  UNL     1     -36.875  16.771  -5.417  1.00 20.00     0.013 C 
ENDBRANCH   4   9
TORSDOF 1
ENDMDL
MODEL 6
REMARK VINA RESULT:      -2.9      2.327      3.895
REMARK  1 active torsions:
REMARK  status: ('A' for Active; 'I' for Inactive)
REMARK    1  A    between atoms: C4_4  and  C9_9 
ROOT
HETATM    1  C1  UNL     1     -37.186  16.289  -5.375  1.00 20.00     0.174 C 
HETATM    2  C2  UNL     1     -36.206  18.012  -7.024  1.00 20.00     0.083 C 
HETATM    3  C3  UNL     1     -37.455  17.485  -6.304  1.00 20.00     0.015 C 
HETATM    4  C4  UNL     1     -34.823  15.998  -5.762  1.00 20.00     0.108 C 
HETATM    5  C5  UNL     1     -38.520  17.122  -7.346  1.00 20.00     0.012 C 
HETATM    6  C6  UNL     1     -33.971  15.301  -6.825  1.00 20.00     0.058 C 
HETATM    7  O10 UNL     1     -36.152  15.461  -5.898  1.00 20.00    -0.369 OA
HETATM    8  S11 UNL     1     -34.705  17.811  -6.029  1.00 20.00    -0.131 SA
ENDROOT
BRANCH   4   9
HETATM    9  C9  UNL     1     -34.280  15.664  -4.369  1.00 20.00     0.022 C 
HETATM   10  C7  UNL     1     -33.286  14.511  -4.451  1.00 20.00     0.013 C 
HETATM   11  C8  UNL     1     -33.635  16.895  -3.743  1.00 20.00     0.013 C 
ENDBRANCH   4   9
TORSDOF 1
ENDMDL
MODEL 7
REMARK VINA RESULT:      -2.9      1.613      2.580
REMARK  1 active torsions:
REMARK  status: ('A' for Active; 'I' for Inactive)
REMARK    1  A    between atoms: C4_4  and  C9_9 
ROOT
HETATM    1  C1  UNL     1     -35.779  16.500  -5.697  1.00 20.00     0.174 C 
HETATM    2  C2  UNL     1     -36.645  18.858  -5.118  1.00 20.00     0.083 C 
HETATM    3  C3  UNL     1     -36.855  17.572  -5.930  1.00 20.00     0.015 C 
HETATM    4  C4  UNL     1     -34.357  17.681  -4.149  1.00 20.00     0.108 C 
HETATM    5  C5  UNL     1     -36.941  17.928  -7.419  1.00 20.00     0.012 C 
HETATM    6  C6  UNL     1     -33.232  18.712  -4.271  1.00 20.00     0.058 C 
HETATM    7  O10 UNL     1     -34.509  17.097  -5.455  1.00 20.00    -0.369 OA
HETATM    8  S11 UNL     1     -35.855  18.537  -3.519  1.00 20.00    -0.131 SA
ENDROOT
BRANCH   4   9
HETATM    9  C9  UNL     1     -33.948  16.594  -3.150  1.00 20.00     0.022 C 
HETATM   10  C7  UNL     1     -33.065  15.554  -3.831  1.00 20.00     0.013 C 
HETATM   11  C8  UNL     1     -33.235  17.214  -1.954  1.00 20.00     0.013 C 
ENDBRANCH   4   9
TORSDOF 1
ENDMDL
MODEL 8
REMARK VINA RESULT:      -2.9      1.945      4.503
REMARK  1 active torsions:
REMARK  status: ('A' for Active; 'I' for Inactive)
REMARK    1  A    between atoms: C4_4  and  C9_9 
ROOT
HETATM    1  C1  UNL     1     -35.003  17.403  -4.289  1.00 20.00     0.174 C 
HETATM    2  C2  UNL     1     -32.966  15.977  -3.611  1.00 20.00     0.083 C 
HETATM    3  C3  UNL     1     -33.845  17.197  -3.300  1.00 20.00     0.015 C 
HETATM    4  C4  UNL     1     -34.580  15.572  -5.800  1.00 20.00     0.108 C 
HETATM    5  C5  UNL     1     -32.962  18.449  -3.242  1.00 20.00     0.012 C 
HETATM    6  C6  UNL     1     -33.660  15.342  -7.003  1.00 20.00     0.058 C 
HETATM    7  O10 UNL     1     -34.631  16.997  -5.603  1.00 20.00    -0.369 OA
HETATM    8  S11 UNL     1     -33.908  14.630  -4.374  1.00 20.00    -0.131 SA
ENDROOT
BRANCH   4   9
HETATM    9  C9  UNL     1     -35.984  15.053  -6.122  1.00 20.00     0.022 C 
HETATM   10  C7  UNL     1     -36.534  14.248  -4.950  1.00 20.00     0.013 C 
HETATM   11  C8  UNL     1     -36.912  16.213  -6.466  1.00 20.00     0.013 C 
ENDBRANCH   4   9
TORSDOF 1
ENDMDL
MODEL 9
REMARK VINA RESULT:      -2.9     11.755     13.325
REMARK  1 active torsions:
REMARK  status: ('A' for Active; 'I' for Inactive)
REMARK    1  A    between atoms: C4_4  and  C9_9 
ROOT
HETATM    1  C1  UNL     1     -40.465  15.482   7.537  1.00 20.00     0.174 C 
HETATM    2  C2  UNL     1     -42.680  15.675   6.234  1.00 20.00     0.083 C 
HETATM    3  C3  UNL     1     -41.665  16.364   7.157  1.00 20.00     0.015 C 
HETATM    4  C4  UNL     1     -41.073  13.450   6.390  1.00 20.00     0.108 C 
HETATM    5  C5  UNL     1     -42.387  16.856   8.418  1.00 20.00     0.012 C 
HETATM    6  C6  UNL     1     -41.982  12.256   6.694  1.00 20.00     0.058 C 
HETATM    7  O10 UNL     1     -40.851  14.115   7.647  1.00 20.00    -0.369 OA
HETATM    8  S11 UNL     1     -41.893  14.486   5.115  1.00 20.00    -0.131 SA
ENDROOT
BRANCH   4   9
HETATM    9  C9  UNL     1     -39.736  12.947   5.838  1.00 20.00     0.022 C 
HETATM   10  C7  UNL     1     -39.041  12.056   6.861  1.00 20.00     0.013 C 
HETATM   11  C8  UNL     1     -39.951  12.202   4.525  1.00 20.00     0.013 C 
ENDBRANCH   4   9
TORSDOF 1
ENDMDL
