MODEL 1
REMARK VINA RESULT:      -5.5      0.000      0.000
REMARK  0 active torsions:
REMARK  status: ('A' for Active; 'I' for Inactive)
ROOT
HETATM    1  C1  UNL     1     -32.747   7.626   4.059  1.00 20.00     0.086 C 
HETATM    2  C2  UNL     1     -33.604   7.059   4.915  1.00 20.00    -0.064 C 
HETATM    3  C3  UNL     1     -32.569   7.042   2.715  1.00 20.00     0.283 C 
HETATM    4  C4  UNL     1     -33.823   7.466   6.342  1.00 20.00     0.035 C 
HETATM    5  C5  UNL     1     -34.723   6.362   6.901  1.00 20.00     0.005 C 
HETATM    6  C6  UNL     1     -34.505   5.164   5.976  1.00 20.00     0.016 C 
HETATM    7  C7  UNL     1     -33.454   4.976   3.654  1.00 20.00     0.192 C 
HETATM    8  C8  UNL     1     -34.340   5.792   4.588  1.00 20.00     0.002 C 
HETATM    9  C9  UNL     1     -35.699   6.098   3.936  1.00 20.00     0.022 C 
HETATM   10  O10 UNL     1     -32.022   7.681   1.822  1.00 20.00    -0.260 OA
HETATM   11  O11 UNL     1     -33.041   5.778   2.522  1.00 20.00    -0.317 OA
ENDROOT
TORSDOF 0
ENDMDL
MODEL 2
REMARK VINA RESULT:      -4.6      1.342      1.843
REMARK  0 active torsions:
REMARK  status: ('A' for Active; 'I' for Inactive)
ROOT
HETATM    1  C1  UNL     1     -32.698   6.311   3.171  1.00 20.00     0.086 C 
HETATM    2  C2  UNL     1     -33.341   6.884   4.193  1.00 20.00    -0.064 C 
HETATM    3  C3  UNL     1     -33.050   4.934   2.770  1.00 20.00     0.283 C 
HETATM    4  C4  UNL     1     -33.034   8.228   4.785  1.00 20.00     0.035 C 
HETATM    5  C5  UNL     1     -33.907   8.281   6.040  1.00 20.00     0.005 C 
HETATM    6  C6  UNL     1     -34.207   6.820   6.378  1.00 20.00     0.016 C 
HETATM    7  C7  UNL     1     -33.971   4.674   5.011  1.00 20.00     0.192 C 
HETATM    8  C8  UNL     1     -34.362   6.147   5.010  1.00 20.00     0.002 C 
HETATM    9  C9  UNL     1     -35.774   6.345   4.435  1.00 20.00     0.022 C 
HETATM   10  O10 UNL     1     -32.695   4.487   1.685  1.00 20.00    -0.260 OA
HETATM   11  O11 UNL     1     -33.783   4.201   3.656  1.00 20.00    -0.317 OA
ENDROOT
TORSDOF 0
ENDMDL
MODEL 3
REMARK VINA RESULT:      -4.1     12.483     13.800
REMARK  0 active torsions:
REMARK  status: ('A' for Active; 'I' for Inactive)
ROOT
HETATM    1  C1  UNL     1     -33.750  15.577  -4.469  1.00 20.00     0.086 C 
HETATM    2  C2  UNL     1     -33.819  16.623  -3.640  1.00 20.00    -0.064 C 
HETATM    3  C3  UNL     1     -34.315  15.689  -5.829  1.00 20.00     0.283 C 
HETATM    4  C4  UNL     1     -33.386  16.639  -2.203  1.00 20.00     0.035 C 
HETATM    5  C5  UNL     1     -33.889  17.988  -1.687  1.00 20.00     0.005 C 
HETATM    6  C6  UNL     1     -35.012  18.387  -2.645  1.00 20.00     0.016 C 
HETATM    7  C7  UNL     1     -35.662  17.524  -4.961  1.00 20.00     0.192 C 
HETATM    8  C8  UNL     1     -34.528  17.894  -4.012  1.00 20.00     0.002 C 
HETATM    9  C9  UNL     1     -33.559  18.892  -4.668  1.00 20.00     0.022 C 
HETATM   10  O10 UNL     1     -34.025  14.872  -6.696  1.00 20.00    -0.260 OA
HETATM   11  O11 UNL     1     -35.158  16.733  -6.064  1.00 20.00    -0.317 OA
ENDROOT
TORSDOF 0
ENDMDL
MODEL 4
REMARK VINA RESULT:      -3.9     10.528     11.416
REMARK  0 active torsions:
REMARK  status: ('A' for Active; 'I' for Inactive)
ROOT
HETATM    1  C1  UNL     1     -40.675  13.031   5.195  1.00 20.00     0.086 C 
HETATM    2  C2  UNL     1     -41.659  13.935   5.248  1.00 20.00    -0.064 C 
HETATM    3  C3  UNL     1     -40.016  12.600   6.443  1.00 20.00     0.283 C 
HETATM    4  C4  UNL     1     -42.358  14.547   4.070  1.00 20.00     0.035 C 
HETATM    5  C5  UNL     1     -43.214  15.653   4.690  1.00 20.00     0.005 C 
HETATM    6  C6  UNL     1     -42.554  15.961   6.035  1.00 20.00     0.016 C 
HETATM    7  C7  UNL     1     -40.834  14.676   7.421  1.00 20.00     0.192 C 
HETATM    8  C8  UNL     1     -42.070  14.595   6.533  1.00 20.00     0.002 C 
HETATM    9  C9  UNL     1     -43.196  13.807   7.221  1.00 20.00     0.022 C 
HETATM   10  O10 UNL     1     -39.323  11.588   6.468  1.00 20.00    -0.260 OA
HETATM   11  O11 UNL     1     -40.218  13.372   7.548  1.00 20.00    -0.317 OA
ENDROOT
TORSDOF 0
ENDMDL
MODEL 5
REMARK VINA RESULT:      -3.9      2.277      3.983
REMARK  0 active torsions:
REMARK  status: ('A' for Active; 'I' for Inactive)
ROOT
HETATM    1  C1  UNL     1     -34.098   5.198   4.616  1.00 20.00     0.086 C 
HETATM    2  C2  UNL     1     -33.495   6.191   3.954  1.00 20.00    -0.064 C 
HETATM    3  C3  UNL     1     -34.654   5.452   5.960  1.00 20.00     0.283 C 
HETATM    4  C4  UNL     1     -32.795   6.072   2.633  1.00 20.00     0.035 C 
HETATM    5  C5  UNL     1     -32.112   7.430   2.460  1.00 20.00     0.005 C 
HETATM    6  C6  UNL     1     -31.997   8.000   3.874  1.00 20.00     0.016 C 
HETATM    7  C7  UNL     1     -33.137   7.355   6.068  1.00 20.00     0.192 C 
HETATM    8  C8  UNL     1     -33.288   7.548   4.563  1.00 20.00     0.002 C 
HETATM    9  C9  UNL     1     -34.464   8.482   4.239  1.00 20.00     0.022 C 
HETATM   10  O10 UNL     1     -35.447   4.667   6.468  1.00 20.00    -0.260 OA
HETATM   11  O11 UNL     1     -34.248   6.589   6.592  1.00 20.00    -0.317 OA
ENDROOT
TORSDOF 0
ENDMDL
MODEL 6
REMARK VINA RESULT:      -3.8     12.534     13.524
REMARK  0 active torsions:
REMARK  status: ('A' for Active; 'I' for Inactive)
ROOT
HETATM    1  C1  UNL     1     -26.691  -0.637  12.129  1.00 20.00     0.086 C 
HETATM    2  C2  UNL     1     -25.770  -1.538  11.774  1.00 20.00    -0.064 C 
HETATM    3  C3  UNL     1     -28.108  -0.873  11.788  1.00 20.00     0.283 C 
HETATM    4  C4  UNL     1     -24.287  -1.401  11.955  1.00 20.00     0.035 C 
HETATM    5  C5  UNL     1     -23.714  -2.592  11.185  1.00 20.00     0.005 C 
HETATM    6  C6  UNL     1     -24.808  -2.987  10.192  1.00 20.00     0.016 C 
HETATM    7  C7  UNL     1     -27.289  -2.392  10.067  1.00 20.00     0.192 C 
HETATM    8  C8  UNL     1     -26.111  -2.755  10.963  1.00 20.00     0.002 C 
HETATM    9  C9  UNL     1     -26.454  -3.945  11.874  1.00 20.00     0.022 C 
HETATM   10  O10 UNL     1     -28.999  -0.229  12.332  1.00 20.00    -0.260 OA
HETATM   11  O11 UNL     1     -28.368  -1.832  10.855  1.00 20.00    -0.317 OA
ENDROOT
TORSDOF 0
ENDMDL
MODEL 7
REMARK VINA RESULT:      -3.8     12.107     13.649
REMARK  0 active torsions:
REMARK  status: ('A' for Active; 'I' for Inactive)
ROOT
HETATM    1  C1  UNL     1     -35.837  16.817  -5.781  1.00 20.00     0.086 C 
HETATM    2  C2  UNL     1     -34.976  16.492  -4.811  1.00 20.00    -0.064 C 
HETATM    3  C3  UNL     1     -36.042  15.890  -6.912  1.00 20.00     0.283 C 
HETATM    4  C4  UNL     1     -34.582  17.363  -3.654  1.00 20.00     0.035 C 
HETATM    5  C5  UNL     1     -33.428  16.599  -3.001  1.00 20.00     0.005 C 
HETATM    6  C6  UNL     1     -32.889  15.679  -4.097  1.00 20.00     0.016 C 
HETATM    7  C7  UNL     1     -33.873  14.941  -6.337  1.00 20.00     0.192 C 
HETATM    8  C8  UNL     1     -34.140  15.246  -4.868  1.00 20.00     0.002 C 
HETATM    9  C9  UNL     1     -34.856  14.072  -4.179  1.00 20.00     0.022 C 
HETATM   10  O10 UNL     1     -37.009  16.014  -7.655  1.00 20.00    -0.260 OA
HETATM   11  O11 UNL     1     -35.116  14.904  -7.078  1.00 20.00    -0.317 OA
ENDROOT
TORSDOF 0
ENDMDL
MODEL 8
REMARK VINA RESULT:      -3.8     12.536     13.993
REMARK  0 active torsions:
REMARK  status: ('A' for Active; 'I' for Inactive)
ROOT
HETATM    1  C1  UNL     1     -33.344  16.206  -3.141  1.00 20.00     0.086 C 
HETATM    2  C2  UNL     1     -33.996  16.098  -4.303  1.00 20.00    -0.064 C 
HETATM    3  C3  UNL     1     -33.259  17.521  -2.475  1.00 20.00     0.283 C 
HETATM    4  C4  UNL     1     -34.086  14.863  -5.151  1.00 20.00     0.035 C 
HETATM    5  C5  UNL     1     -34.743  15.356  -6.442  1.00 20.00     0.005 C 
HETATM    6  C6  UNL     1     -34.479  16.862  -6.473  1.00 20.00     0.016 C 
HETATM    7  C7  UNL     1     -33.718  18.495  -4.661  1.00 20.00     0.192 C 
HETATM    8  C8  UNL     1     -34.583  17.288  -5.005  1.00 20.00     0.002 C 
HETATM    9  C9  UNL     1     -36.043  17.513  -4.580  1.00 20.00     0.022 C 
HETATM   10  O10 UNL     1     -32.927  17.606  -1.297  1.00 20.00    -0.260 OA
HETATM   11  O11 UNL     1     -33.570  18.615  -3.226  1.00 20.00    -0.317 OA
ENDROOT
TORSDOF 0
ENDMDL
MODEL 9
REMARK VINA RESULT:      -3.7      1.967      2.963
REMARK  0 active torsions:
REMARK  status: ('A' for Active; 'I' for Inactive)
ROOT
HETATM    1  C1  UNL     1     -32.350   7.715   3.835  1.00 20.00     0.086 C 
HETATM    2  C2  UNL     1     -33.054   6.599   4.055  1.00 20.00    -0.064 C 
HETATM    3  C3  UNL     1     -32.546   8.883   4.717  1.00 20.00     0.283 C 
HETATM    4  C4  UNL     1     -33.046   5.369   3.197  1.00 20.00     0.035 C 
HETATM    5  C5  UNL     1     -34.174   4.514   3.776  1.00 20.00     0.005 C 
HETATM    6  C6  UNL     1     -35.079   5.499   4.518  1.00 20.00     0.016 C 
HETATM    7  C7  UNL     1     -34.703   7.905   5.290  1.00 20.00     0.192 C 
HETATM    8  C8  UNL     1     -34.104   6.513   5.124  1.00 20.00     0.002 C 
HETATM    9  C9  UNL     1     -33.504   6.007   6.446  1.00 20.00     0.022 C 
HETATM   10  O10 UNL     1     -31.735   9.802   4.727  1.00 20.00    -0.260 OA
HETATM   11  O11 UNL     1     -33.656   8.881   5.507  1.00 20.00    -0.317 OA
ENDROOT
TORSDOF 0
ENDMDL
