MODEL 1
REMARK VINA RESULT:      -4.2      0.000      0.000
REMARK  1 active torsions:
REMARK  status: ('A' for Active; 'I' for Inactive)
REMARK    1  A    between atoms: C7_7  and  C11_11 
ROOT
HETATM    1  C1  UNL     1     -42.142  14.540   4.968  1.00 20.00    -0.023 C 
HETATM    2  C2  UNL     1     -41.408  13.420   4.877  1.00 20.00     0.007 C 
HETATM    3  C3  UNL     1     -40.577  13.772   7.211  1.00 20.00     0.050 C 
HETATM    4  C4  UNL     1     -42.718  12.928   7.586  1.00 20.00     0.174 C 
HETATM    5  C5  UNL     1     -42.500  15.140   6.314  1.00 20.00     0.010 C 
HETATM    6  C6  UNL     1     -41.984  14.273   7.502  1.00 20.00     0.020 C 
HETATM    7  C7  UNL     1     -40.911  12.740   6.132  1.00 20.00     0.082 C 
HETATM    8  C8  UNL     1     -41.960  16.569   6.401  1.00 20.00     0.015 C 
HETATM    9  O12 UNL     1     -42.040  12.025   6.683  1.00 20.00    -0.375 OA
ENDROOT
BRANCH   7  10
HETATM   10  C11 UNL     1     -39.767  11.776   5.863  1.00 20.00     0.016 C 
HETATM   11  C9  UNL     1     -39.378  11.794   4.383  1.00 20.00     0.013 C 
HETATM   12  C10 UNL     1     -38.555  12.114   6.733  1.00 20.00     0.013 C 
ENDBRANCH   7  10
TORSDOF 1
ENDMDL
MODEL 2
REMARK VINA RESULT:      -3.9      1.195      2.025
REMARK  1 active torsions:
REMARK  status: ('A' for Active; 'I' for Inactive)
REMARK    1  A    between atoms: C7_7  and  C11_11 
ROOT
HETATM    1  C1  UNL     1     -41.117  14.957   7.615  1.00 20.00    -0.023 C 
HETATM    2  C2  UNL     1     -40.313  14.090   6.979  1.00 20.00     0.007 C 
HETATM    3  C3  UNL     1     -42.252  12.549   6.623  1.00 20.00     0.050 C 
HETATM    4  C4  UNL     1     -42.621  14.170   4.988  1.00 20.00     0.174 C 
HETATM    5  C5  UNL     1     -42.622  14.909   7.440  1.00 20.00     0.010 C 
HETATM    6  C6  UNL     1     -43.062  13.819   6.416  1.00 20.00     0.020 C 
HETATM    7  C7  UNL     1     -40.907  13.033   6.076  1.00 20.00     0.082 C 
HETATM    8  C8  UNL     1     -43.292  14.689   8.798  1.00 20.00     0.015 C 
HETATM    9  O12 UNL     1     -41.262  13.700   4.844  1.00 20.00    -0.375 OA
ENDROOT
BRANCH   7  10
HETATM   10  C11 UNL     1     -39.941  11.894   5.792  1.00 20.00     0.016 C 
HETATM   11  C9  UNL     1     -39.525  11.888   4.320  1.00 20.00     0.013 C 
HETATM   12  C10 UNL     1     -38.707  11.991   6.691  1.00 20.00     0.013 C 
ENDBRANCH   7  10
TORSDOF 1
ENDMDL
MODEL 3
REMARK VINA RESULT:      -3.9     11.812     13.322
REMARK  1 active torsions:
REMARK  status: ('A' for Active; 'I' for Inactive)
REMARK    1  A    between atoms: C7_7  and  C11_11 
ROOT
HETATM    1  C1  UNL     1     -33.259  16.154  -3.372  1.00 20.00    -0.023 C 
HETATM    2  C2  UNL     1     -34.038  15.886  -4.433  1.00 20.00     0.007 C 
HETATM    3  C3  UNL     1     -35.505  17.827  -3.851  1.00 20.00     0.050 C 
HETATM    4  C4  UNL     1     -33.677  18.886  -4.838  1.00 20.00     0.174 C 
HETATM    5  C5  UNL     1     -33.273  17.518  -2.711  1.00 20.00     0.010 C 
HETATM    6  C6  UNL     1     -34.213  18.521  -3.446  1.00 20.00     0.020 C 
HETATM    7  C7  UNL     1     -34.960  16.951  -4.980  1.00 20.00     0.082 C 
HETATM    8  C8  UNL     1     -33.670  17.373  -1.240  1.00 20.00     0.015 C 
HETATM    9  O12 UNL     1     -34.132  17.856  -5.744  1.00 20.00    -0.375 OA
ENDROOT
BRANCH   7  10
HETATM   10  C11 UNL     1     -36.056  16.378  -5.864  1.00 20.00     0.016 C 
HETATM   11  C9  UNL     1     -35.881  14.868  -6.039  1.00 20.00     0.013 C 
HETATM   12  C10 UNL     1     -37.439  16.688  -5.286  1.00 20.00     0.013 C 
ENDBRANCH   7  10
TORSDOF 1
ENDMDL
MODEL 4
REMARK VINA RESULT:      -3.8     11.853     13.435
REMARK  1 active torsions:
REMARK  status: ('A' for Active; 'I' for Inactive)
REMARK    1  A    between atoms: C7_7  and  C11_11 
ROOT
HETATM    1  C1  UNL     1     -33.264  16.152  -3.300  1.00 20.00    -0.023 C 
HETATM    2  C2  UNL     1     -34.044  15.879  -4.358  1.00 20.00     0.007 C 
HETATM    3  C3  UNL     1     -35.501  17.833  -3.790  1.00 20.00     0.050 C 
HETATM    4  C4  UNL     1     -33.667  18.875  -4.785  1.00 20.00     0.174 C 
HETATM    5  C5  UNL     1     -33.271  17.520  -2.648  1.00 20.00     0.010 C 
HETATM    6  C6  UNL     1     -34.205  18.523  -3.391  1.00 20.00     0.020 C 
HETATM    7  C7  UNL     1     -34.962  16.946  -4.913  1.00 20.00     0.082 C 
HETATM    8  C8  UNL     1     -33.668  17.388  -1.176  1.00 20.00     0.015 C 
HETATM    9  O12 UNL     1     -34.128  17.841  -5.684  1.00 20.00    -0.375 OA
ENDROOT
BRANCH   7  10
HETATM   10  C11 UNL     1     -36.061  16.373  -5.793  1.00 20.00     0.016 C 
HETATM   11  C9  UNL     1     -36.048  17.028  -7.176  1.00 20.00     0.013 C 
HETATM   12  C10 UNL     1     -35.917  14.855  -5.924  1.00 20.00     0.013 C 
ENDBRANCH   7  10
TORSDOF 1
ENDMDL
MODEL 5
REMARK VINA RESULT:      -3.7     11.405     12.728
REMARK  1 active torsions:
REMARK  status: ('A' for Active; 'I' for Inactive)
REMARK    1  A    between atoms: C7_7  and  C11_11 
ROOT
HETATM    1  C1  UNL     1     -32.530  19.254  -2.959  1.00 20.00    -0.023 C 
HETATM    2  C2  UNL     1     -33.190  18.464  -3.821  1.00 20.00     0.007 C 
HETATM    3  C3  UNL     1     -33.685  16.854  -1.971  1.00 20.00     0.050 C 
HETATM    4  C4  UNL     1     -35.239  18.544  -1.564  1.00 20.00     0.174 C 
HETATM    5  C5  UNL     1     -32.751  19.144  -1.463  1.00 20.00     0.010 C 
HETATM    6  C6  UNL     1     -33.845  18.093  -1.104  1.00 20.00     0.020 C 
HETATM    7  C7  UNL     1     -34.166  17.432  -3.303  1.00 20.00     0.082 C 
HETATM    8  C8  UNL     1     -31.427  18.815  -0.770  1.00 20.00     0.015 C 
HETATM    9  O12 UNL     1     -35.370  18.149  -2.948  1.00 20.00    -0.375 OA
ENDROOT
BRANCH   7  10
HETATM   10  C11 UNL     1     -34.485  16.359  -4.332  1.00 20.00     0.016 C 
HETATM   11  C9  UNL     1     -34.409  16.927  -5.751  1.00 20.00     0.013 C 
HETATM   12  C10 UNL     1     -33.536  15.168  -4.187  1.00 20.00     0.013 C 
ENDBRANCH   7  10
TORSDOF 1
ENDMDL
MODEL 6
REMARK VINA RESULT:      -3.6     20.087     22.875
REMARK  1 active torsions:
REMARK  status: ('A' for Active; 'I' for Inactive)
REMARK    1  A    between atoms: C7_7  and  C11_11 
ROOT
HETATM    1  C1  UNL     1     -23.913  -1.940  11.664  1.00 20.00    -0.023 C 
HETATM    2  C2  UNL     1     -25.104  -1.397  11.962  1.00 20.00     0.007 C 
HETATM    3  C3  UNL     1     -26.157  -2.669  10.082  1.00 20.00     0.050 C 
HETATM    4  C4  UNL     1     -25.946  -4.317  11.718  1.00 20.00     0.174 C 
HETATM    5  C5  UNL     1     -23.810  -3.209  10.840  1.00 20.00     0.010 C 
HETATM    6  C6  UNL     1     -25.210  -3.791  10.478  1.00 20.00     0.020 C 
HETATM    7  C7  UNL     1     -26.375  -2.045  11.462  1.00 20.00     0.082 C 
HETATM    8  C8  UNL     1     -22.985  -2.940   9.580  1.00 20.00     0.015 C 
HETATM    9  O12 UNL     1     -26.616  -3.185  12.317  1.00 20.00    -0.375 OA
ENDROOT
BRANCH   7  10
HETATM   10  C11 UNL     1     -27.568  -1.103  11.503  1.00 20.00     0.016 C 
HETATM   11  C9  UNL     1     -27.248   0.143  12.331  1.00 20.00     0.013 C 
HETATM   12  C10 UNL     1     -27.995  -0.705  10.089  1.00 20.00     0.013 C 
ENDBRANCH   7  10
TORSDOF 1
ENDMDL
MODEL 7
REMARK VINA RESULT:      -3.6      1.785      2.939
REMARK  1 active torsions:
REMARK  status: ('A' for Active; 'I' for Inactive)
REMARK    1  A    between atoms: C7_7  and  C11_11 
ROOT
HETATM    1  C1  UNL     1     -42.644  16.358   8.119  1.00 20.00    -0.023 C 
HETATM    2  C2  UNL     1     -42.890  15.139   7.613  1.00 20.00     0.007 C 
HETATM    3  C3  UNL     1     -40.440  14.797   7.238  1.00 20.00     0.050 C 
HETATM    4  C4  UNL     1     -40.630  14.426   9.532  1.00 20.00     0.174 C 
HETATM    5  C5  UNL     1     -41.267  16.736   8.628  1.00 20.00     0.010 C 
HETATM    6  C6  UNL     1     -40.262  15.546   8.550  1.00 20.00     0.020 C 
HETATM    7  C7  UNL     1     -41.778  14.117   7.532  1.00 20.00     0.082 C 
HETATM    8  C8  UNL     1     -40.745  17.947   7.852  1.00 20.00     0.015 C 
HETATM    9  O12 UNL     1     -41.607  13.593   8.868  1.00 20.00    -0.375 OA
ENDROOT
BRANCH   7  10
HETATM   10  C11 UNL     1     -42.091  12.986   6.565  1.00 20.00     0.016 C 
HETATM   11  C9  UNL     1     -40.811  12.260   6.146  1.00 20.00     0.013 C 
HETATM   12  C10 UNL     1     -43.082  12.000   7.186  1.00 20.00     0.013 C 
ENDBRANCH   7  10
TORSDOF 1
ENDMDL
MODEL 8
REMARK VINA RESULT:      -3.6     11.487     12.823
REMARK  1 active torsions:
REMARK  status: ('A' for Active; 'I' for Inactive)
REMARK    1  A    between atoms: C7_7  and  C11_11 
ROOT
HETATM    1  C1  UNL     1     -35.909  18.746  -3.125  1.00 20.00    -0.023 C 
HETATM    2  C2  UNL     1     -35.095  18.695  -2.058  1.00 20.00     0.007 C 
HETATM    3  C3  UNL     1     -33.615  17.074  -3.261  1.00 20.00     0.050 C 
HETATM    4  C4  UNL     1     -33.009  19.099  -4.245  1.00 20.00     0.174 C 
HETATM    5  C5  UNL     1     -35.434  18.314  -4.498  1.00 20.00     0.010 C 
HETATM    6  C6  UNL     1     -33.931  17.898  -4.499  1.00 20.00     0.020 C 
HETATM    7  C7  UNL     1     -33.679  18.187  -2.212  1.00 20.00     0.082 C 
HETATM    8  C8  UNL     1     -36.318  17.176  -5.015  1.00 20.00     0.015 C 
HETATM    9  O12 UNL     1     -32.922  19.263  -2.812  1.00 20.00    -0.375 OA
ENDROOT
BRANCH   7  10
HETATM   10  C11 UNL     1     -33.053  17.786  -0.887  1.00 20.00     0.016 C 
HETATM   11  C9  UNL     1     -31.687  18.453  -0.707  1.00 20.00     0.013 C 
HETATM   12  C10 UNL     1     -33.975  18.143   0.281  1.00 20.00     0.013 C 
ENDBRANCH   7  10
TORSDOF 1
ENDMDL
MODEL 9
REMARK VINA RESULT:      -3.5      1.985      4.041
REMARK  1 active torsions:
REMARK  status: ('A' for Active; 'I' for Inactive)
REMARK    1  A    between atoms: C7_7  and  C11_11 
ROOT
HETATM    1  C1  UNL     1     -42.358  12.494   6.807  1.00 20.00    -0.023 C 
HETATM    2  C2  UNL     1     -42.723  12.976   8.006  1.00 20.00     0.007 C 
HETATM    3  C3  UNL     1     -40.478  14.051   8.261  1.00 20.00     0.050 C 
HETATM    4  C4  UNL     1     -41.548  15.516   6.796  1.00 20.00     0.174 C 
HETATM    5  C5  UNL     1     -41.197  13.095   6.038  1.00 20.00     0.010 C 
HETATM    6  C6  UNL     1     -40.579  14.326   6.769  1.00 20.00     0.020 C 
HETATM    7  C7  UNL     1     -41.963  14.130   8.619  1.00 20.00     0.082 C 
HETATM    8  C8  UNL     1     -40.138  12.021   5.781  1.00 20.00     0.015 C 
HETATM    9  O12 UNL     1     -42.414  15.323   7.937  1.00 20.00    -0.375 OA
ENDROOT
BRANCH   7  10
HETATM   10  C11 UNL     1     -42.205  14.263  10.114  1.00 20.00     0.016 C 
HETATM   11  C9  UNL     1     -43.110  13.138  10.620  1.00 20.00     0.013 C 
HETATM   12  C10 UNL     1     -40.881  14.265  10.881  1.00 20.00     0.013 C 
ENDBRANCH   7  10
TORSDOF 1
ENDMDL
