MODEL 1
REMARK VINA RESULT:      -6.4      0.000      0.000
REMARK  0 active torsions:
REMARK  status: ('A' for Active; 'I' for Inactive)
ROOT
HETATM    1  C1  UNL     1     -33.215   6.038   3.228  1.00 20.00     0.082 C 
HETATM    2  C2  UNL     1     -33.981   6.065   4.313  1.00 20.00    -0.050 C 
HETATM    3  C3  UNL     1     -32.570   7.363   3.174  1.00 20.00     0.171 C 
HETATM    4  C4  UNL     1     -34.616   4.981   5.114  1.00 20.00     0.036 C 
HETATM    5  C5  UNL     1     -32.892   8.180   4.405  1.00 20.00     0.094 C 
HETATM    6  C6  UNL     1     -34.733   5.629   6.503  1.00 20.00     0.005 C 
HETATM    7  C7  UNL     1     -33.842   6.879   6.467  1.00 20.00     0.010 C 
HETATM    8  C8  UNL     1     -34.011   7.371   5.040  1.00 20.00     0.023 C 
HETATM    9  O9  UNL     1     -31.830   7.728   2.272  1.00 20.00    -0.291 OA
HETATM   10 CL10 UNL     1     -32.812   4.752   2.223  1.00 20.00    -0.080 Cl
ENDROOT
TORSDOF 0
ENDMDL
MODEL 2
REMARK VINA RESULT:      -5.7      1.713      2.401
REMARK  0 active torsions:
REMARK  status: ('A' for Active; 'I' for Inactive)
ROOT
HETATM    1  C1  UNL     1     -32.686   7.705   4.260  1.00 20.00     0.082 C 
HETATM    2  C2  UNL     1     -33.286   6.788   5.012  1.00 20.00    -0.050 C 
HETATM    3  C3  UNL     1     -32.554   7.089   2.926  1.00 20.00     0.171 C 
HETATM    4  C4  UNL     1     -34.001   6.879   6.316  1.00 20.00     0.036 C 
HETATM    5  C5  UNL     1     -33.255   5.751   2.869  1.00 20.00     0.094 C 
HETATM    6  C6  UNL     1     -34.971   5.689   6.239  1.00 20.00     0.005 C 
HETATM    7  C7  UNL     1     -34.980   5.241   4.770  1.00 20.00     0.010 C 
HETATM    8  C8  UNL     1     -33.544   5.479   4.337  1.00 20.00     0.023 C 
HETATM    9  O9  UNL     1     -31.994   7.621   1.979  1.00 20.00    -0.291 OA
HETATM   10 CL10 UNL     1     -32.343   9.317   4.592  1.00 20.00    -0.080 Cl
ENDROOT
TORSDOF 0
ENDMDL
MODEL 3
REMARK VINA RESULT:      -5.7      2.387      3.487
REMARK  0 active torsions:
REMARK  status: ('A' for Active; 'I' for Inactive)
ROOT
HETATM    1  C1  UNL     1     -34.203   5.982   5.130  1.00 20.00     0.082 C 
HETATM    2  C2  UNL     1     -33.719   7.148   4.714  1.00 20.00    -0.050 C 
HETATM    3  C3  UNL     1     -33.828   5.010   4.087  1.00 20.00     0.171 C 
HETATM    4  C4  UNL     1     -33.454   8.430   5.425  1.00 20.00     0.036 C 
HETATM    5  C5  UNL     1     -32.941   5.645   3.040  1.00 20.00     0.094 C 
HETATM    6  C6  UNL     1     -32.330   9.046   4.577  1.00 20.00     0.005 C 
HETATM    7  C7  UNL     1     -31.809   7.917   3.675  1.00 20.00     0.010 C 
HETATM    8  C8  UNL     1     -33.067   7.124   3.369  1.00 20.00     0.023 C 
HETATM    9  O9  UNL     1     -34.155   3.833   4.099  1.00 20.00    -0.291 OA
HETATM   10 CL10 UNL     1     -34.880   5.561   6.611  1.00 20.00    -0.080 Cl
ENDROOT
TORSDOF 0
ENDMDL
MODEL 4
REMARK VINA RESULT:      -5.7      1.474      1.806
REMARK  0 active torsions:
REMARK  status: ('A' for Active; 'I' for Inactive)
ROOT
HETATM    1  C1  UNL     1     -32.924   7.479   3.849  1.00 20.00     0.082 C 
HETATM    2  C2  UNL     1     -33.827   6.656   4.371  1.00 20.00    -0.050 C 
HETATM    3  C3  UNL     1     -32.706   8.518   4.873  1.00 20.00     0.171 C 
HETATM    4  C4  UNL     1     -34.227   5.263   4.024  1.00 20.00     0.036 C 
HETATM    5  C5  UNL     1     -33.453   8.196   6.147  1.00 20.00     0.094 C 
HETATM    6  C6  UNL     1     -34.757   4.733   5.367  1.00 20.00     0.005 C 
HETATM    7  C7  UNL     1     -34.288   5.733   6.434  1.00 20.00     0.010 C 
HETATM    8  C8  UNL     1     -34.365   7.063   5.706  1.00 20.00     0.023 C 
HETATM    9  O9  UNL     1     -31.975   9.486   4.721  1.00 20.00    -0.291 OA
HETATM   10 CL10 UNL     1     -31.997   7.320   2.455  1.00 20.00    -0.080 Cl
ENDROOT
TORSDOF 0
ENDMDL
MODEL 5
REMARK VINA RESULT:      -5.5      2.517      3.651
REMARK  0 active torsions:
REMARK  status: ('A' for Active; 'I' for Inactive)
ROOT
HETATM    1  C1  UNL     1     -33.406   7.486   4.963  1.00 20.00     0.082 C 
HETATM    2  C2  UNL     1     -33.530   6.592   3.988  1.00 20.00    -0.050 C 
HETATM    3  C3  UNL     1     -34.200   6.952   6.086  1.00 20.00     0.171 C 
HETATM    4  C4  UNL     1     -32.740   6.350   2.749  1.00 20.00     0.036 C 
HETATM    5  C5  UNL     1     -34.722   5.567   5.777  1.00 20.00     0.094 C 
HETATM    6  C6  UNL     1     -32.980   4.852   2.497  1.00 20.00     0.005 C 
HETATM    7  C7  UNL     1     -33.586   4.294   3.794  1.00 20.00     0.010 C 
HETATM    8  C8  UNL     1     -34.443   5.446   4.288  1.00 20.00     0.023 C 
HETATM    9  O9  UNL     1     -34.367   7.537   7.145  1.00 20.00    -0.291 OA
HETATM   10 CL10 UNL     1     -32.396   8.826   5.076  1.00 20.00    -0.080 Cl
ENDROOT
TORSDOF 0
ENDMDL
MODEL 6
REMARK VINA RESULT:      -5.3      1.920      3.073
REMARK  0 active torsions:
REMARK  status: ('A' for Active; 'I' for Inactive)
ROOT
HETATM    1  C1  UNL     1     -33.380   5.818   3.881  1.00 20.00     0.082 C 
HETATM    2  C2  UNL     1     -32.863   6.941   4.368  1.00 20.00    -0.050 C 
HETATM    3  C3  UNL     1     -34.385   5.391   4.872  1.00 20.00     0.171 C 
HETATM    4  C4  UNL     1     -32.074   8.034   3.733  1.00 20.00     0.036 C 
HETATM    5  C5  UNL     1     -34.554   6.425   5.962  1.00 20.00     0.094 C 
HETATM    6  C6  UNL     1     -32.409   9.239   4.627  1.00 20.00     0.005 C 
HETATM    7  C7  UNL     1     -33.623   8.820   5.469  1.00 20.00     0.010 C 
HETATM    8  C8  UNL     1     -33.368   7.344   5.716  1.00 20.00     0.023 C 
HETATM    9  O9  UNL     1     -35.031   4.357   4.790  1.00 20.00    -0.291 OA
HETATM   10 CL10 UNL     1     -33.181   5.103   2.372  1.00 20.00    -0.080 Cl
ENDROOT
TORSDOF 0
ENDMDL
MODEL 7
REMARK VINA RESULT:      -5.1      2.200      3.464
REMARK  0 active torsions:
REMARK  status: ('A' for Active; 'I' for Inactive)
ROOT
HETATM    1  C1  UNL     1     -33.736   6.204   4.794  1.00 20.00     0.082 C 
HETATM    2  C2  UNL     1     -32.920   6.748   3.897  1.00 20.00    -0.050 C 
HETATM    3  C3  UNL     1     -33.887   7.222   5.851  1.00 20.00     0.171 C 
HETATM    4  C4  UNL     1     -32.633   6.413   2.475  1.00 20.00     0.036 C 
HETATM    5  C5  UNL     1     -33.202   8.514   5.469  1.00 20.00     0.094 C 
HETATM    6  C6  UNL     1     -32.185   7.768   1.904  1.00 20.00     0.005 C 
HETATM    7  C7  UNL     1     -32.590   8.823   2.944  1.00 20.00     0.010 C 
HETATM    8  C8  UNL     1     -32.381   8.095   4.260  1.00 20.00     0.023 C 
HETATM    9  O9  UNL     1     -34.528   7.052   6.878  1.00 20.00    -0.291 OA
HETATM   10 CL10 UNL     1     -34.639   4.788   4.712  1.00 20.00    -0.080 Cl
ENDROOT
TORSDOF 0
ENDMDL
MODEL 8
REMARK VINA RESULT:      -4.3     16.235     16.549
REMARK  0 active torsions:
REMARK  status: ('A' for Active; 'I' for Inactive)
ROOT
HETATM    1  C1  UNL     1     -24.121  18.976   8.805  1.00 20.00     0.082 C 
HETATM    2  C2  UNL     1     -24.104  18.903  10.132  1.00 20.00    -0.050 C 
HETATM    3  C3  UNL     1     -22.785  18.524   8.373  1.00 20.00     0.171 C 
HETATM    4  C4  UNL     1     -25.196  18.887  11.145  1.00 20.00     0.036 C 
HETATM    5  C5  UNL     1     -21.970  18.026   9.545  1.00 20.00     0.094 C 
HETATM    6  C6  UNL     1     -24.546  18.127  12.312  1.00 20.00     0.005 C 
HETATM    7  C7  UNL     1     -23.280  17.471  11.741  1.00 20.00     0.010 C 
HETATM    8  C8  UNL     1     -22.796  18.496  10.731  1.00 20.00     0.023 C 
HETATM    9  O9  UNL     1     -22.410  18.510   7.210  1.00 20.00    -0.291 OA
HETATM   10 CL10 UNL     1     -25.404  19.263   7.756  1.00 20.00    -0.080 Cl
ENDROOT
TORSDOF 0
ENDMDL
MODEL 9
REMARK VINA RESULT:      -4.3      1.642      2.453
REMARK  0 active torsions:
REMARK  status: ('A' for Active; 'I' for Inactive)
ROOT
HETATM    1  C1  UNL     1     -32.786   6.580   3.330  1.00 20.00     0.082 C 
HETATM    2  C2  UNL     1     -33.137   6.667   4.609  1.00 20.00    -0.050 C 
HETATM    3  C3  UNL     1     -33.176   5.222   2.909  1.00 20.00     0.171 C 
HETATM    4  C4  UNL     1     -33.335   7.834   5.513  1.00 20.00     0.036 C 
HETATM    5  C5  UNL     1     -33.933   4.506   4.005  1.00 20.00     0.094 C 
HETATM    6  C6  UNL     1     -34.342   7.285   6.537  1.00 20.00     0.005 C 
HETATM    7  C7  UNL     1     -34.899   5.988   5.932  1.00 20.00     0.010 C 
HETATM    8  C8  UNL     1     -33.699   5.414   5.201  1.00 20.00     0.023 C 
HETATM    9  O9  UNL     1     -32.956   4.759   1.800  1.00 20.00    -0.291 OA
HETATM   10 CL10 UNL     1     -32.247   7.775   2.276  1.00 20.00    -0.080 Cl
ENDROOT
TORSDOF 0
ENDMDL
