MODEL 1
REMARK VINA RESULT:      -3.7      0.000      0.000
REMARK  1 active torsions:
REMARK  status: ('A' for Active; 'I' for Inactive)
REMARK    1  A    between atoms: C6_6  and  C7_7 
ROOT
HETATM    1  C1  UNL     1     -33.003   8.683   3.399  1.00 20.00     0.146 C 
HETATM    2  C2  UNL     1     -33.894   8.823   4.643  1.00 20.00     0.091 C 
HETATM    3  C5  UNL     1     -32.373   7.375   3.919  1.00 20.00     0.160 C 
HETATM    4  C7  UNL     1     -33.568   7.316   4.959  1.00 20.00    -0.010 C 
HETATM    5  C8  UNL     1     -33.042   7.145   6.392  1.00 20.00     0.018 C 
HETATM    6  O9  UNL     1     -32.857   9.351   2.397  1.00 20.00    -0.296 OA
HETATM    7 CL10 UNL     1     -32.182   6.104   2.682  1.00 20.00    -0.116 Cl
ENDROOT
BRANCH   4   8
HETATM    8  C6  UNL     1     -34.711   6.330   4.676  1.00 20.00    -0.004 A 
HETATM    9  C3  UNL     1     -34.492   4.859   4.455  1.00 20.00     0.006 A 
HETATM   10  C4  UNL     1     -35.207   5.336   5.688  1.00 20.00     0.006 A 
ENDBRANCH   4   8
TORSDOF 1
ENDMDL
MODEL 2
REMARK VINA RESULT:      -3.7      9.527     10.507
REMARK  1 active torsions:
REMARK  status: ('A' for Active; 'I' for Inactive)
REMARK    1  A    between atoms: C6_6  and  C7_7 
ROOT
HETATM    1  C1  UNL     1     -41.842  13.944   7.999  1.00 20.00     0.146 C 
HETATM    2  C2  UNL     1     -40.733  14.378   7.028  1.00 20.00     0.091 C 
HETATM    3  C5  UNL     1     -42.617  13.211   6.885  1.00 20.00     0.160 C 
HETATM    4  C7  UNL     1     -41.292  13.304   6.021  1.00 20.00    -0.010 C 
HETATM    5  C8  UNL     1     -41.576  13.923   4.644  1.00 20.00     0.018 C 
HETATM    6  O9  UNL     1     -42.028  14.117   9.185  1.00 20.00    -0.296 OA
HETATM    7 CL10 UNL     1     -43.278  11.625   7.366  1.00 20.00    -0.116 Cl
ENDROOT
BRANCH   4   8
HETATM    8  C6  UNL     1     -40.440  12.035   5.884  1.00 20.00    -0.004 A 
HETATM    9  C3  UNL     1     -39.527  11.780   4.717  1.00 20.00     0.006 A 
HETATM   10  C4  UNL     1     -38.950  12.021   6.084  1.00 20.00     0.006 A 
ENDBRANCH   4   8
TORSDOF 1
ENDMDL
MODEL 3
REMARK VINA RESULT:      -3.6      9.875     10.803
REMARK  1 active torsions:
REMARK  status: ('A' for Active; 'I' for Inactive)
REMARK    1  A    between atoms: C6_6  and  C7_7 
ROOT
HETATM    1  C1  UNL     1     -42.069  15.616   6.324  1.00 20.00     0.146 C 
HETATM    2  C2  UNL     1     -42.377  14.454   5.367  1.00 20.00     0.091 C 
HETATM    3  C5  UNL     1     -41.624  14.658   7.447  1.00 20.00     0.160 C 
HETATM    4  C7  UNL     1     -41.546  13.531   6.336  1.00 20.00    -0.010 C 
HETATM    5  C8  UNL     1     -42.350  12.290   6.753  1.00 20.00     0.018 C 
HETATM    6  O9  UNL     1     -42.150  16.823   6.225  1.00 20.00    -0.296 OA
HETATM    7 CL10 UNL     1     -40.158  15.174   8.322  1.00 20.00    -0.116 Cl
ENDROOT
BRANCH   4   8
HETATM    8  C6  UNL     1     -40.155  13.133   5.821  1.00 20.00    -0.004 A 
HETATM    9  C3  UNL     1     -39.287  12.113   6.504  1.00 20.00     0.006 A 
HETATM   10  C4  UNL     1     -39.874  11.817   5.152  1.00 20.00     0.006 A 
ENDBRANCH   4   8
TORSDOF 1
ENDMDL
MODEL 4
REMARK VINA RESULT:      -3.6      9.353     10.348
REMARK  1 active torsions:
REMARK  status: ('A' for Active; 'I' for Inactive)
REMARK    1  A    between atoms: C6_6  and  C7_7 
ROOT
HETATM    1  C1  UNL     1     -43.235   4.171   1.082  1.00 20.00     0.146 C 
HETATM    2  C2  UNL     1     -42.854   5.195   2.162  1.00 20.00     0.091 C 
HETATM    3  C5  UNL     1     -43.411   5.269   0.013  1.00 20.00     0.160 C 
HETATM    4  C7  UNL     1     -42.628   6.232   0.999  1.00 20.00    -0.010 C 
HETATM    5  C8  UNL     1     -43.417   7.528   1.244  1.00 20.00     0.018 C 
HETATM    6  O9  UNL     1     -43.351   2.963   1.080  1.00 20.00    -0.296 OA
HETATM    7 CL10 UNL     1     -42.732   4.860  -1.585  1.00 20.00    -0.116 Cl
ENDROOT
BRANCH   4   8
HETATM    8  C6  UNL     1     -41.159   6.540   0.678  1.00 20.00    -0.004 A 
HETATM    9  C3  UNL     1     -40.737   7.523  -0.378  1.00 20.00     0.006 A 
HETATM   10  C4  UNL     1     -40.484   7.824   1.073  1.00 20.00     0.006 A 
ENDBRANCH   4   8
TORSDOF 1
ENDMDL
MODEL 5
REMARK VINA RESULT:      -3.6     11.842     13.713
REMARK  1 active torsions:
REMARK  status: ('A' for Active; 'I' for Inactive)
REMARK    1  A    between atoms: C6_6  and  C7_7 
ROOT
HETATM    1  C1  UNL     1     -35.407  13.963  -5.037  1.00 20.00     0.146 C 
HETATM    2  C2  UNL     1     -35.976  14.603  -6.313  1.00 20.00     0.091 C 
HETATM    3  C5  UNL     1     -34.111  14.795  -5.122  1.00 20.00     0.160 C 
HETATM    4  C7  UNL     1     -34.874  15.717  -6.160  1.00 20.00    -0.010 C 
HETATM    5  C8  UNL     1     -34.059  15.881  -7.452  1.00 20.00     0.018 C 
HETATM    6  O9  UNL     1     -35.825  13.124  -4.267  1.00 20.00    -0.296 OA
HETATM    7 CL10 UNL     1     -33.553  15.453  -3.560  1.00 20.00    -0.116 Cl
ENDROOT
BRANCH   4   8
HETATM    8  C6  UNL     1     -35.388  17.076  -5.663  1.00 20.00    -0.004 A 
HETATM    9  C3  UNL     1     -34.489  18.259  -5.427  1.00 20.00     0.006 A 
HETATM   10  C4  UNL     1     -35.492  18.287  -6.547  1.00 20.00     0.006 A 
ENDBRANCH   4   8
TORSDOF 1
ENDMDL
MODEL 6
REMARK VINA RESULT:      -3.6     12.258     13.689
REMARK  1 active torsions:
REMARK  status: ('A' for Active; 'I' for Inactive)
REMARK    1  A    between atoms: C6_6  and  C7_7 
ROOT
HETATM    1  C1  UNL     1     -35.573  14.855  -6.891  1.00 20.00     0.146 C 
HETATM    2  C2  UNL     1     -34.106  15.172  -6.558  1.00 20.00     0.091 C 
HETATM    3  C5  UNL     1     -36.009  15.031  -5.422  1.00 20.00     0.160 C 
HETATM    4  C7  UNL     1     -34.616  15.746  -5.184  1.00 20.00    -0.010 C 
HETATM    5  C8  UNL     1     -33.868  15.114  -4.000  1.00 20.00     0.018 C 
HETATM    6  O9  UNL     1     -36.154  14.575  -7.918  1.00 20.00    -0.296 OA
HETATM    7 CL10 UNL     1     -37.538  15.925  -5.207  1.00 20.00    -0.116 Cl
ENDROOT
BRANCH   4   8
HETATM    8  C6  UNL     1     -34.610  17.278  -5.077  1.00 20.00    -0.004 A 
HETATM    9  C3  UNL     1     -35.150  18.021  -3.887  1.00 20.00     0.006 A 
HETATM   10  C4  UNL     1     -33.675  18.035  -4.176  1.00 20.00     0.006 A 
ENDBRANCH   4   8
TORSDOF 1
ENDMDL
MODEL 7
REMARK VINA RESULT:      -3.4      2.329      3.704
REMARK  1 active torsions:
REMARK  status: ('A' for Active; 'I' for Inactive)
REMARK    1  A    between atoms: C6_6  and  C7_7 
ROOT
HETATM    1  C1  UNL     1     -34.277   5.722   6.156  1.00 20.00     0.146 C 
HETATM    2  C2  UNL     1     -34.045   7.210   6.463  1.00 20.00     0.091 C 
HETATM    3  C5  UNL     1     -34.568   6.008   4.669  1.00 20.00     0.160 C 
HETATM    4  C7  UNL     1     -33.929   7.438   4.909  1.00 20.00    -0.010 C 
HETATM    5  C8  UNL     1     -34.875   8.551   4.434  1.00 20.00     0.018 C 
HETATM    6  O9  UNL     1     -34.243   4.715   6.833  1.00 20.00    -0.296 OA
HETATM    7 CL10 UNL     1     -33.816   4.855   3.534  1.00 20.00    -0.116 Cl
ENDROOT
BRANCH   4   8
HETATM    8  C6  UNL     1     -32.502   7.677   4.392  1.00 20.00    -0.004 A 
HETATM    9  C3  UNL     1     -32.125   7.569   2.940  1.00 20.00     0.006 A 
HETATM   10  C4  UNL     1     -32.103   8.907   3.626  1.00 20.00     0.006 A 
ENDBRANCH   4   8
TORSDOF 1
ENDMDL
MODEL 8
REMARK VINA RESULT:      -3.4     12.340     13.712
REMARK  1 active torsions:
REMARK  status: ('A' for Active; 'I' for Inactive)
REMARK    1  A    between atoms: C6_6  and  C7_7 
ROOT
HETATM    1  C1  UNL     1     -36.202  16.299  -6.630  1.00 20.00     0.146 C 
HETATM    2  C2  UNL     1     -36.331  17.027  -5.283  1.00 20.00     0.091 C 
HETATM    3  C5  UNL     1     -34.683  16.559  -6.697  1.00 20.00     0.160 C 
HETATM    4  C7  UNL     1     -34.766  16.921  -5.156  1.00 20.00    -0.010 C 
HETATM    5  C8  UNL     1     -34.131  18.292  -4.879  1.00 20.00     0.018 C 
HETATM    6  O9  UNL     1     -36.997  15.739  -7.356  1.00 20.00    -0.296 OA
HETATM    7 CL10 UNL     1     -33.719  15.164  -7.252  1.00 20.00    -0.116 Cl
ENDROOT
BRANCH   4   8
HETATM    8  C6  UNL     1     -34.264  15.874  -4.151  1.00 20.00    -0.004 A 
HETATM    9  C3  UNL     1     -32.827  15.441  -4.063  1.00 20.00     0.006 A 
HETATM   10  C4  UNL     1     -33.446  16.226  -2.940  1.00 20.00     0.006 A 
ENDBRANCH   4   8
TORSDOF 1
ENDMDL
MODEL 9
REMARK VINA RESULT:      -3.4      1.831      2.553
REMARK  1 active torsions:
REMARK  status: ('A' for Active; 'I' for Inactive)
REMARK    1  A    between atoms: C6_6  and  C7_7 
ROOT
HETATM    1  C1  UNL     1     -32.564   6.984   3.039  1.00 20.00     0.146 C 
HETATM    2  C2  UNL     1     -33.303   5.647   3.209  1.00 20.00     0.091 C 
HETATM    3  C5  UNL     1     -33.638   7.752   3.836  1.00 20.00     0.160 C 
HETATM    4  C7  UNL     1     -34.146   6.339   4.345  1.00 20.00    -0.010 C 
HETATM    5  C8  UNL     1     -35.654   6.177   4.101  1.00 20.00     0.018 C 
HETATM    6  O9  UNL     1     -31.532   7.303   2.487  1.00 20.00    -0.296 OA
HETATM    7 CL10 UNL     1     -32.989   8.951   4.986  1.00 20.00    -0.116 Cl
ENDROOT
BRANCH   4   8
HETATM    8  C6  UNL     1     -33.776   5.922   5.776  1.00 20.00    -0.004 A 
HETATM    9  C3  UNL     1     -34.328   6.601   6.998  1.00 20.00     0.006 A 
HETATM   10  C4  UNL     1     -34.718   5.183   6.684  1.00 20.00     0.006 A 
ENDBRANCH   4   8
TORSDOF 1
ENDMDL
