MODEL 1
REMARK VINA RESULT:      -5.1      0.000      0.000
REMARK  0 active torsions:
REMARK  status: ('A' for Active; 'I' for Inactive)
ROOT
HETATM    1  C1  UNL     1     -32.822   5.826   2.922  1.00 20.00     0.050 C 
HETATM    2  C2  UNL     1     -33.739   5.211   3.678  1.00 20.00    -0.014 C 
HETATM    3  C3  UNL     1     -32.412   7.221   3.212  1.00 20.00     0.188 C 
HETATM    4  C4  UNL     1     -33.600   7.030   5.413  1.00 20.00     0.064 C 
HETATM    5  C5  UNL     1     -34.400   5.808   4.900  1.00 20.00    -0.026 C 
HETATM    6  C6  UNL     1     -33.159   7.983   4.298  1.00 20.00     0.164 C 
HETATM    7  C7  UNL     1     -34.442   4.752   6.021  1.00 20.00     0.019 C 
HETATM    8  C8  UNL     1     -35.847   6.194   4.543  1.00 20.00     0.019 C 
HETATM    9  C9  UNL     1     -32.292   9.101   4.869  1.00 20.00     0.060 C 
HETATM   10  O10 UNL     1     -31.536   7.739   2.521  1.00 20.00    -0.290 OA
HETATM   11  F11 UNL     1     -34.265   8.574   3.762  1.00 20.00    -0.235 F 
ENDROOT
TORSDOF 0
ENDMDL
MODEL 2
REMARK VINA RESULT:      -4.0     12.282     13.301
REMARK  0 active torsions:
REMARK  status: ('A' for Active; 'I' for Inactive)
ROOT
HETATM    1  C1  UNL     1     -35.509  18.885  -2.689  1.00 20.00     0.050 C 
HETATM    2  C2  UNL     1     -34.864  19.140  -1.545  1.00 20.00    -0.014 C 
HETATM    3  C3  UNL     1     -35.028  17.829  -3.612  1.00 20.00     0.188 C 
HETATM    4  C4  UNL     1     -33.509  17.032  -1.781  1.00 20.00     0.064 C 
HETATM    5  C5  UNL     1     -33.656  18.383  -1.041  1.00 20.00    -0.026 C 
HETATM    6  C6  UNL     1     -33.707  17.140  -3.296  1.00 20.00     0.164 C 
HETATM    7  C7  UNL     1     -33.829  18.094   0.463  1.00 20.00     0.019 C 
HETATM    8  C8  UNL     1     -32.407  19.263  -1.224  1.00 20.00     0.019 C 
HETATM    9  C9  UNL     1     -33.649  15.757  -3.939  1.00 20.00     0.060 C 
HETATM   10  O10 UNL     1     -35.670  17.595  -4.635  1.00 20.00    -0.290 OA
HETATM   11  F11 UNL     1     -32.677  17.865  -3.822  1.00 20.00    -0.235 F 
ENDROOT
TORSDOF 0
ENDMDL
MODEL 3
REMARK VINA RESULT:      -3.9     12.249     13.566
REMARK  0 active torsions:
REMARK  status: ('A' for Active; 'I' for Inactive)
ROOT
HETATM    1  C1  UNL     1     -33.658  16.244  -3.048  1.00 20.00     0.050 C 
HETATM    2  C2  UNL     1     -33.294  16.816  -1.895  1.00 20.00    -0.014 C 
HETATM    3  C3  UNL     1     -33.944  17.069  -4.247  1.00 20.00     0.188 C 
HETATM    4  C4  UNL     1     -32.925  19.023  -3.048  1.00 20.00     0.064 C 
HETATM    5  C5  UNL     1     -33.081  18.299  -1.689  1.00 20.00    -0.026 C 
HETATM    6  C6  UNL     1     -33.952  18.584  -4.096  1.00 20.00     0.164 C 
HETATM    7  C7  UNL     1     -31.792  18.519  -0.873  1.00 20.00     0.019 C 
HETATM    8  C8  UNL     1     -34.266  18.863  -0.885  1.00 20.00     0.019 C 
HETATM    9  C9  UNL     1     -33.669  19.263  -5.433  1.00 20.00     0.060 C 
HETATM   10  O10 UNL     1     -34.235  16.505  -5.301  1.00 20.00    -0.290 OA
HETATM   11  F11 UNL     1     -35.190  18.996  -3.696  1.00 20.00    -0.235 F 
ENDROOT
TORSDOF 0
ENDMDL
MODEL 4
REMARK VINA RESULT:      -3.9      2.028      3.522
REMARK  0 active torsions:
REMARK  status: ('A' for Active; 'I' for Inactive)
ROOT
HETATM    1  C1  UNL     1     -32.908   5.612   3.009  1.00 20.00     0.050 C 
HETATM    2  C2  UNL     1     -32.480   6.862   2.799  1.00 20.00    -0.014 C 
HETATM    3  C3  UNL     1     -33.726   5.280   4.201  1.00 20.00     0.188 C 
HETATM    4  C4  UNL     1     -34.017   7.742   4.588  1.00 20.00     0.064 C 
HETATM    5  C5  UNL     1     -32.806   8.051   3.675  1.00 20.00    -0.026 C 
HETATM    6  C6  UNL     1     -33.946   6.361   5.250  1.00 20.00     0.164 C 
HETATM    7  C7  UNL     1     -33.169   9.254   2.783  1.00 20.00     0.019 C 
HETATM    8  C8  UNL     1     -31.559   8.417   4.499  1.00 20.00     0.019 C 
HETATM    9  C9  UNL     1     -35.218   6.090   6.048  1.00 20.00     0.060 C 
HETATM   10  O10 UNL     1     -34.136   4.129   4.339  1.00 20.00    -0.290 OA
HETATM   11  F11 UNL     1     -32.911   6.353   6.138  1.00 20.00    -0.235 F 
ENDROOT
TORSDOF 0
ENDMDL
MODEL 5
REMARK VINA RESULT:      -3.9     12.345     13.412
REMARK  0 active torsions:
REMARK  status: ('A' for Active; 'I' for Inactive)
ROOT
HETATM    1  C1  UNL     1     -33.286  15.938  -3.437  1.00 20.00     0.050 C 
HETATM    2  C2  UNL     1     -33.817  15.039  -4.273  1.00 20.00    -0.014 C 
HETATM    3  C3  UNL     1     -33.670  17.368  -3.517  1.00 20.00     0.188 C 
HETATM    4  C4  UNL     1     -35.555  16.695  -5.030  1.00 20.00     0.064 C 
HETATM    5  C5  UNL     1     -34.868  15.338  -5.317  1.00 20.00    -0.026 C 
HETATM    6  C6  UNL     1     -34.572  17.811  -4.661  1.00 20.00     0.164 C 
HETATM    7  C7  UNL     1     -35.945  14.235  -5.285  1.00 20.00     0.019 C 
HETATM    8  C8  UNL     1     -34.206  15.327  -6.706  1.00 20.00     0.019 C 
HETATM    9  C9  UNL     1     -35.329  19.084  -4.293  1.00 20.00     0.060 C 
HETATM   10  O10 UNL     1     -33.192  18.159  -2.705  1.00 20.00    -0.290 OA
HETATM   11  F11 UNL     1     -33.811  18.104  -5.755  1.00 20.00    -0.235 F 
ENDROOT
TORSDOF 0
ENDMDL
MODEL 6
REMARK VINA RESULT:      -3.8      2.231      3.897
REMARK  0 active torsions:
REMARK  status: ('A' for Active; 'I' for Inactive)
ROOT
HETATM    1  C1  UNL     1     -34.131   7.097   6.628  1.00 20.00     0.050 C 
HETATM    2  C2  UNL     1     -33.592   8.100   5.925  1.00 20.00    -0.014 C 
HETATM    3  C3  UNL     1     -34.442   5.799   5.981  1.00 20.00     0.188 C 
HETATM    4  C4  UNL     1     -33.097   6.555   4.001  1.00 20.00     0.064 C 
HETATM    5  C5  UNL     1     -33.197   8.027   4.468  1.00 20.00    -0.026 C 
HETATM    6  C6  UNL     1     -34.267   5.684   4.472  1.00 20.00     0.164 C 
HETATM    7  C7  UNL     1     -31.817   8.687   4.282  1.00 20.00     0.019 C 
HETATM    8  C8  UNL     1     -34.226   8.812   3.635  1.00 20.00     0.019 C 
HETATM    9  C9  UNL     1     -34.045   4.231   4.062  1.00 20.00     0.060 C 
HETATM   10  O10 UNL     1     -34.897   4.886   6.667  1.00 20.00    -0.290 OA
HETATM   11  F11 UNL     1     -35.405   6.103   3.848  1.00 20.00    -0.235 F 
ENDROOT
TORSDOF 0
ENDMDL
MODEL 7
REMARK VINA RESULT:      -3.7     12.164     13.543
REMARK  0 active torsions:
REMARK  status: ('A' for Active; 'I' for Inactive)
ROOT
HETATM    1  C1  UNL     1     -33.324  15.803  -3.360  1.00 20.00     0.050 C 
HETATM    2  C2  UNL     1     -33.427  17.133  -3.268  1.00 20.00    -0.014 C 
HETATM    3  C3  UNL     1     -33.976  15.066  -4.470  1.00 20.00     0.188 C 
HETATM    4  C4  UNL     1     -34.367  17.273  -5.599  1.00 20.00     0.064 C 
HETATM    5  C5  UNL     1     -34.139  18.021  -4.263  1.00 20.00    -0.026 C 
HETATM    6  C6  UNL     1     -34.883  15.841  -5.417  1.00 20.00     0.164 C 
HETATM    7  C7  UNL     1     -33.271  19.263  -4.547  1.00 20.00     0.019 C 
HETATM    8  C8  UNL     1     -35.469  18.490  -3.648  1.00 20.00     0.019 C 
HETATM    9  C9  UNL     1     -34.983  15.138  -6.767  1.00 20.00     0.060 C 
HETATM   10  O10 UNL     1     -33.825  13.848  -4.545  1.00 20.00    -0.290 OA
HETATM   11  F11 UNL     1     -36.144  15.892  -4.901  1.00 20.00    -0.235 F 
ENDROOT
TORSDOF 0
ENDMDL
MODEL 8
REMARK VINA RESULT:      -3.6     10.462     11.553
REMARK  0 active torsions:
REMARK  status: ('A' for Active; 'I' for Inactive)
ROOT
HETATM    1  C1  UNL     1     -42.902  13.033   8.001  1.00 20.00     0.050 C 
HETATM    2  C2  UNL     1     -42.557  12.846   6.722  1.00 20.00    -0.014 C 
HETATM    3  C3  UNL     1     -42.109  13.930   8.877  1.00 20.00     0.188 C 
HETATM    4  C4  UNL     1     -40.942  14.774   6.822  1.00 20.00     0.064 C 
HETATM    5  C5  UNL     1     -41.407  13.534   6.022  1.00 20.00    -0.026 C 
HETATM    6  C6  UNL     1     -40.816  14.518   8.328  1.00 20.00     0.164 C 
HETATM    7  C7  UNL     1     -41.868  14.003   4.628  1.00 20.00     0.019 C 
HETATM    8  C8  UNL     1     -40.262  12.523   5.839  1.00 20.00     0.019 C 
HETATM    9  C9  UNL     1     -40.456  15.809   9.057  1.00 20.00     0.060 C 
HETATM   10  O10 UNL     1     -42.480  14.110  10.036  1.00 20.00    -0.290 OA
HETATM   11  F11 UNL     1     -39.791  13.644   8.540  1.00 20.00    -0.235 F 
ENDROOT
TORSDOF 0
ENDMDL
MODEL 9
REMARK VINA RESULT:      -3.6      1.653      2.485
REMARK  0 active torsions:
REMARK  status: ('A' for Active; 'I' for Inactive)
ROOT
HETATM    1  C1  UNL     1     -33.323   7.621   6.097  1.00 20.00     0.050 C 
HETATM    2  C2  UNL     1     -34.084   6.543   5.873  1.00 20.00    -0.014 C 
HETATM    3  C3  UNL     1     -32.669   8.334   4.973  1.00 20.00     0.188 C 
HETATM    4  C4  UNL     1     -34.110   7.013   3.401  1.00 20.00     0.064 C 
HETATM    5  C5  UNL     1     -34.408   5.976   4.510  1.00 20.00    -0.026 C 
HETATM    6  C6  UNL     1     -32.768   7.730   3.579  1.00 20.00     0.164 C 
HETATM    7  C7  UNL     1     -35.907   5.622   4.451  1.00 20.00     0.019 C 
HETATM    8  C8  UNL     1     -33.596   4.685   4.304  1.00 20.00     0.019 C 
HETATM    9  C9  UNL     1     -32.595   8.804   2.509  1.00 20.00     0.060 C 
HETATM   10  O10 UNL     1     -32.010   9.345   5.213  1.00 20.00    -0.290 OA
HETATM   11  F11 UNL     1     -31.762   6.827   3.400  1.00 20.00    -0.235 F 
ENDROOT
TORSDOF 0
ENDMDL
