MODEL 1
REMARK VINA RESULT:      -5.3      0.000      0.000
REMARK  2 active torsions:
REMARK  status: ('A' for Active; 'I' for Inactive)
REMARK    1  A    between atoms: C1_1  and  C2_2 
REMARK    2  A    between atoms: C1_1  and  C3_3 
ROOT
HETATM    1  C1  UNL     1     -33.833   6.723   5.378  1.00 20.00     0.280 C 
HETATM    2  O4  UNL     1     -33.465   7.026   6.513  1.00 20.00    -0.284 OA
ENDROOT
BRANCH   1   3
HETATM    3  C2  UNL     1     -33.326   7.465   4.171  1.00 20.00     0.344 C 
HETATM    4  F5  UNL     1     -32.600   6.646   3.362  1.00 20.00    -0.224 F 
HETATM    5 CL9  UNL     1     -32.294   8.792   4.719  1.00 20.00    -0.081 Cl
ENDBRANCH   1   3
BRANCH   1   6
HETATM    6  C3  UNL     1     -34.780   5.578   5.150  1.00 20.00     0.455 C 
HETATM    7  F6  UNL     1     -34.178   4.540   4.517  1.00 20.00    -0.163 F 
HETATM    8  F7  UNL     1     -35.847   5.939   4.393  1.00 20.00    -0.163 F 
HETATM    9  F8  UNL     1     -35.275   5.091   6.316  1.00 20.00    -0.163 F 
ENDBRANCH   1   6
TORSDOF 2
ENDMDL
MODEL 2
REMARK VINA RESULT:      -5.2      1.603      2.082
REMARK  2 active torsions:
REMARK  status: ('A' for Active; 'I' for Inactive)
REMARK    1  A    between atoms: C1_1  and  C2_2 
REMARK    2  A    between atoms: C1_1  and  C3_3 
ROOT
HETATM    1  C1  UNL     1     -33.657   6.532   4.520  1.00 20.00     0.280 C 
HETATM    2  O4  UNL     1     -33.108   6.413   3.424  1.00 20.00    -0.284 OA
ENDROOT
BRANCH   1   3
HETATM    3  C2  UNL     1     -33.251   7.617   5.481  1.00 20.00     0.344 C 
HETATM    4  F5  UNL     1     -34.338   8.286   5.951  1.00 20.00    -0.224 F 
HETATM    5 CL9  UNL     1     -32.199   8.757   4.630  1.00 20.00    -0.081 Cl
ENDBRANCH   1   3
BRANCH   1   6
HETATM    6  C3  UNL     1     -34.776   5.617   4.930  1.00 20.00     0.455 C 
HETATM    7  F6  UNL     1     -35.959   5.981   4.373  1.00 20.00    -0.163 F 
HETATM    8  F7  UNL     1     -34.959   5.602   6.274  1.00 20.00    -0.163 F 
HETATM    9  F8  UNL     1     -34.545   4.334   4.552  1.00 20.00    -0.163 F 
ENDBRANCH   1   6
TORSDOF 2
ENDMDL
MODEL 3
REMARK VINA RESULT:      -5.2      1.604      1.688
REMARK  2 active torsions:
REMARK  status: ('A' for Active; 'I' for Inactive)
REMARK    1  A    between atoms: C1_1  and  C2_2 
REMARK    2  A    between atoms: C1_1  and  C3_3 
ROOT
HETATM    1  C1  UNL     1     -33.660   6.534   4.521  1.00 20.00     0.280 C 
HETATM    2  O4  UNL     1     -33.108   6.412   3.427  1.00 20.00    -0.284 OA
ENDROOT
BRANCH   1   3
HETATM    3  C2  UNL     1     -33.256   7.621   5.481  1.00 20.00     0.344 C 
HETATM    4  F5  UNL     1     -34.344   8.296   5.941  1.00 20.00    -0.224 F 
HETATM    5 CL9  UNL     1     -32.194   8.753   4.633  1.00 20.00    -0.081 Cl
ENDBRANCH   1   3
BRANCH   1   6
HETATM    6  C3  UNL     1     -34.782   5.621   4.929  1.00 20.00     0.455 C 
HETATM    7  F6  UNL     1     -34.549   4.336   4.562  1.00 20.00    -0.163 F 
HETATM    8  F7  UNL     1     -35.965   5.984   4.372  1.00 20.00    -0.163 F 
HETATM    9  F8  UNL     1     -34.967   5.617   6.274  1.00 20.00    -0.163 F 
ENDBRANCH   1   6
TORSDOF 2
ENDMDL
MODEL 4
REMARK VINA RESULT:      -5.1      2.106      2.712
REMARK  2 active torsions:
REMARK  status: ('A' for Active; 'I' for Inactive)
REMARK    1  A    between atoms: C1_1  and  C2_2 
REMARK    2  A    between atoms: C1_1  and  C3_3 
ROOT
HETATM    1  C1  UNL     1     -33.910   6.376   4.839  1.00 20.00     0.280 C 
HETATM    2  O4  UNL     1     -33.410   7.435   4.458  1.00 20.00    -0.284 OA
ENDROOT
BRANCH   1   3
HETATM    3  C2  UNL     1     -34.114   5.226   3.890  1.00 20.00     0.344 C 
HETATM    4  F5  UNL     1     -33.960   4.034   4.527  1.00 20.00    -0.224 F 
HETATM    5 CL9  UNL     1     -32.914   5.344   2.597  1.00 20.00    -0.081 Cl
ENDBRANCH   1   3
BRANCH   1   6
HETATM    6  C3  UNL     1     -34.307   6.179   6.275  1.00 20.00     0.455 C 
HETATM    7  F6  UNL     1     -34.500   7.360   6.915  1.00 20.00    -0.163 F 
HETATM    8  F7  UNL     1     -33.368   5.496   6.977  1.00 20.00    -0.163 F 
HETATM    9  F8  UNL     1     -35.465   5.480   6.388  1.00 20.00    -0.163 F 
ENDBRANCH   1   6
TORSDOF 2
ENDMDL
MODEL 5
REMARK VINA RESULT:      -5.1      2.108      2.575
REMARK  2 active torsions:
REMARK  status: ('A' for Active; 'I' for Inactive)
REMARK    1  A    between atoms: C1_1  and  C2_2 
REMARK    2  A    between atoms: C1_1  and  C3_3 
ROOT
HETATM    1  C1  UNL     1     -33.884   6.367   4.838  1.00 20.00     0.280 C 
HETATM    2  O4  UNL     1     -33.352   7.413   4.463  1.00 20.00    -0.284 OA
ENDROOT
BRANCH   1   3
HETATM    3  C2  UNL     1     -34.106   5.222   3.887  1.00 20.00     0.344 C 
HETATM    4  F5  UNL     1     -33.959   4.026   4.519  1.00 20.00    -0.224 F 
HETATM    5 CL9  UNL     1     -32.915   5.333   2.585  1.00 20.00    -0.081 Cl
ENDBRANCH   1   3
BRANCH   1   6
HETATM    6  C3  UNL     1     -34.305   6.181   6.269  1.00 20.00     0.455 C 
HETATM    7  F6  UNL     1     -35.464   5.484   6.371  1.00 20.00    -0.163 F 
HETATM    8  F7  UNL     1     -34.497   7.365   6.904  1.00 20.00    -0.163 F 
HETATM    9  F8  UNL     1     -33.374   5.500   6.986  1.00 20.00    -0.163 F 
ENDBRANCH   1   6
TORSDOF 2
ENDMDL
MODEL 6
REMARK VINA RESULT:      -5.0      1.935      3.502
REMARK  2 active torsions:
REMARK  status: ('A' for Active; 'I' for Inactive)
REMARK    1  A    between atoms: C1_1  and  C2_2 
REMARK    2  A    between atoms: C1_1  and  C3_3 
ROOT
HETATM    1  C1  UNL     1     -33.633   7.416   4.806  1.00 20.00     0.280 C 
HETATM    2  O4  UNL     1     -33.939   8.250   5.658  1.00 20.00    -0.284 OA
ENDROOT
BRANCH   1   3
HETATM    3  C2  UNL     1     -34.315   6.075   4.749  1.00 20.00     0.344 C 
HETATM    4  F5  UNL     1     -35.580   6.190   4.260  1.00 20.00    -0.224 F 
HETATM    5 CL9  UNL     1     -34.390   5.413   6.387  1.00 20.00    -0.081 Cl
ENDBRANCH   1   3
BRANCH   1   6
HETATM    6  C3  UNL     1     -32.588   7.715   3.768  1.00 20.00     0.455 C 
HETATM    7  F6  UNL     1     -32.934   8.769   2.988  1.00 20.00    -0.163 F 
HETATM    8  F7  UNL     1     -32.374   6.662   2.939  1.00 20.00    -0.163 F 
HETATM    9  F8  UNL     1     -31.390   8.020   4.329  1.00 20.00    -0.163 F 
ENDBRANCH   1   6
TORSDOF 2
ENDMDL
MODEL 7
REMARK VINA RESULT:      -4.9      1.907      2.093
REMARK  2 active torsions:
REMARK  status: ('A' for Active; 'I' for Inactive)
REMARK    1  A    between atoms: C1_1  and  C2_2 
REMARK    2  A    between atoms: C1_1  and  C3_3 
ROOT
HETATM    1  C1  UNL     1     -33.895   6.266   4.831  1.00 20.00     0.280 C 
HETATM    2  O4  UNL     1     -34.126   5.472   3.918  1.00 20.00    -0.284 OA
ENDROOT
BRANCH   1   3
HETATM    3  C2  UNL     1     -33.175   7.562   4.573  1.00 20.00     0.344 C 
HETATM    4  F5  UNL     1     -34.055   8.586   4.408  1.00 20.00    -0.224 F 
HETATM    5 CL9  UNL     1     -32.215   7.388   3.098  1.00 20.00    -0.081 Cl
ENDBRANCH   1   3
BRANCH   1   6
HETATM    6  C3  UNL     1     -34.353   5.986   6.235  1.00 20.00     0.455 C 
HETATM    7  F6  UNL     1     -33.432   5.280   6.937  1.00 20.00    -0.163 F 
HETATM    8  F7  UNL     1     -35.507   5.273   6.265  1.00 20.00    -0.163 F 
HETATM    9  F8  UNL     1     -34.582   7.130   6.930  1.00 20.00    -0.163 F 
ENDBRANCH   1   6
TORSDOF 2
ENDMDL
MODEL 8
REMARK VINA RESULT:      -4.9      2.832      3.825
REMARK  2 active torsions:
REMARK  status: ('A' for Active; 'I' for Inactive)
REMARK    1  A    between atoms: C1_1  and  C2_2 
REMARK    2  A    between atoms: C1_1  and  C3_3 
ROOT
HETATM    1  C1  UNL     1     -33.362   7.048   4.494  1.00 20.00     0.280 C 
HETATM    2  O4  UNL     1     -33.499   6.156   3.655  1.00 20.00    -0.284 OA
ENDROOT
BRANCH   1   3
HETATM    3  C2  UNL     1     -34.004   6.944   5.851  1.00 20.00     0.344 C 
HETATM    4  F5  UNL     1     -33.066   6.963   6.838  1.00 20.00    -0.224 F 
HETATM    5 CL9  UNL     1     -34.896   5.420   5.937  1.00 20.00    -0.081 Cl
ENDBRANCH   1   3
BRANCH   1   6
HETATM    6  C3  UNL     1     -32.523   8.261   4.206  1.00 20.00     0.455 C 
HETATM    7  F6  UNL     1     -31.206   7.953   4.096  1.00 20.00    -0.163 F 
HETATM    8  F7  UNL     1     -32.630   9.200   5.180  1.00 20.00    -0.163 F 
HETATM    9  F8  UNL     1     -32.883   8.861   3.043  1.00 20.00    -0.163 F 
ENDBRANCH   1   6
TORSDOF 2
ENDMDL
MODEL 9
REMARK VINA RESULT:      -4.9      2.356      3.430
REMARK  2 active torsions:
REMARK  status: ('A' for Active; 'I' for Inactive)
REMARK    1  A    between atoms: C1_1  and  C2_2 
REMARK    2  A    between atoms: C1_1  and  C3_3 
ROOT
HETATM    1  C1  UNL     1     -33.690   6.083   3.946  1.00 20.00     0.280 C 
HETATM    2  O4  UNL     1     -33.070   5.493   3.060  1.00 20.00    -0.284 OA
ENDROOT
BRANCH   1   3
HETATM    3  C2  UNL     1     -34.850   5.433   4.650  1.00 20.00     0.344 C 
HETATM    4  F5  UNL     1     -36.027   6.016   4.294  1.00 20.00    -0.224 F 
HETATM    5 CL9  UNL     1     -34.624   5.615   6.394  1.00 20.00    -0.081 Cl
ENDBRANCH   1   3
BRANCH   1   6
HETATM    6  C3  UNL     1     -33.292   7.465   4.381  1.00 20.00     0.455 C 
HETATM    7  F6  UNL     1     -32.456   8.057   3.491  1.00 20.00    -0.163 F 
HETATM    8  F7  UNL     1     -32.656   7.461   5.580  1.00 20.00    -0.163 F 
HETATM    9  F8  UNL     1     -34.367   8.284   4.512  1.00 20.00    -0.163 F 
ENDBRANCH   1   6
TORSDOF 2
ENDMDL
