MODEL 1
REMARK VINA RESULT:      -5.3      0.000      0.000
REMARK  0 active torsions:
REMARK  status: ('A' for Active; 'I' for Inactive)
ROOT
HETATM    1  C1  UNL     1     -33.642   4.451   3.896  1.00 20.00     0.088 C 
HETATM    2  C2  UNL     1     -32.916   6.583   3.039  1.00 20.00    -0.041 C 
HETATM    3  C3  UNL     1     -33.106   7.285   4.311  1.00 20.00    -0.050 C 
HETATM    4  C4  UNL     1     -33.164   5.276   2.849  1.00 20.00     0.101 C 
HETATM    5  C5  UNL     1     -33.948   6.894   5.282  1.00 20.00    -0.081 C 
HETATM    6  C6  UNL     1     -32.385   7.434   1.902  1.00 20.00     0.044 C 
HETATM    7  C7  UNL     1     -32.311   8.560   4.441  1.00 20.00     0.040 C 
HETATM    8  C8  UNL     1     -32.601   9.546   3.305  1.00 20.00     0.009 C 
HETATM    9  C9  UNL     1     -32.942   8.866   1.964  1.00 20.00    -0.014 C 
HETATM   10  C10 UNL     1     -34.094   7.662   6.561  1.00 20.00     0.043 C 
HETATM   11  C11 UNL     1     -34.794   5.664   5.147  1.00 20.00     0.043 C 
HETATM   12  C12 UNL     1     -32.451   9.702   0.785  1.00 20.00     0.010 C 
HETATM   13  N13 UNL     1     -34.034   3.769   4.749  1.00 20.00    -0.192 NA
ENDROOT
TORSDOF 0
ENDMDL
MODEL 2
REMARK VINA RESULT:      -4.8     11.744     13.268
REMARK  0 active torsions:
REMARK  status: ('A' for Active; 'I' for Inactive)
ROOT
HETATM    1  C1  UNL     1     -34.290  15.054  -5.598  1.00 20.00     0.088 C 
HETATM    2  C2  UNL     1     -33.868  16.465  -3.691  1.00 20.00    -0.041 C 
HETATM    3  C3  UNL     1     -34.735  17.549  -4.161  1.00 20.00    -0.050 C 
HETATM    4  C4  UNL     1     -33.663  15.315  -4.355  1.00 20.00     0.101 C 
HETATM    5  C5  UNL     1     -35.056  17.769  -5.446  1.00 20.00    -0.081 C 
HETATM    6  C6  UNL     1     -33.198  16.705  -2.352  1.00 20.00     0.044 C 
HETATM    7  C7  UNL     1     -35.213  18.477  -3.072  1.00 20.00     0.040 C 
HETATM    8  C8  UNL     1     -34.054  19.100  -2.286  1.00 20.00     0.009 C 
HETATM    9  C9  UNL     1     -32.820  18.184  -2.169  1.00 20.00    -0.014 C 
HETATM   10  C10 UNL     1     -35.950  18.901  -5.857  1.00 20.00     0.043 C 
HETATM   11  C11 UNL     1     -34.541  16.897  -6.551  1.00 20.00     0.043 C 
HETATM   12  C12 UNL     1     -32.094  18.410  -0.845  1.00 20.00     0.010 C 
HETATM   13  N13 UNL     1     -34.799  14.833  -6.617  1.00 20.00    -0.192 NA
ENDROOT
TORSDOF 0
ENDMDL
MODEL 3
REMARK VINA RESULT:      -4.2     11.801     13.621
REMARK  0 active torsions:
REMARK  status: ('A' for Active; 'I' for Inactive)
ROOT
HETATM    1  C1  UNL     1     -34.680  18.126  -6.643  1.00 20.00     0.088 C 
HETATM    2  C2  UNL     1     -34.098  18.273  -4.310  1.00 20.00    -0.041 C 
HETATM    3  C3  UNL     1     -33.980  16.823  -4.133  1.00 20.00    -0.050 C 
HETATM    4  C4  UNL     1     -34.422  18.872  -5.468  1.00 20.00     0.101 C 
HETATM    5  C5  UNL     1     -34.596  15.907  -4.896  1.00 20.00    -0.081 C 
HETATM    6  C6  UNL     1     -33.808  19.103  -3.074  1.00 20.00     0.044 C 
HETATM    7  C7  UNL     1     -33.137  16.409  -2.952  1.00 20.00     0.040 C 
HETATM    8  C8  UNL     1     -33.642  17.010  -1.636  1.00 20.00     0.009 C 
HETATM    9  C9  UNL     1     -34.293  18.399  -1.797  1.00 20.00    -0.014 C 
HETATM   10  C10 UNL     1     -34.431  14.436  -4.658  1.00 20.00     0.043 C 
HETATM   11  C11 UNL     1     -35.489  16.297  -6.036  1.00 20.00     0.043 C 
HETATM   12  C12 UNL     1     -34.050  19.263  -0.562  1.00 20.00     0.010 C 
HETATM   13  N13 UNL     1     -34.894  17.521  -7.610  1.00 20.00    -0.192 NA
ENDROOT
TORSDOF 0
ENDMDL
MODEL 4
REMARK VINA RESULT:      -4.2     11.899     13.825
REMARK  0 active torsions:
REMARK  status: ('A' for Active; 'I' for Inactive)
ROOT
HETATM    1  C1  UNL     1     -35.616  18.348  -6.905  1.00 20.00     0.088 C 
HETATM    2  C2  UNL     1     -34.271  17.901  -4.956  1.00 20.00    -0.041 C 
HETATM    3  C3  UNL     1     -34.586  16.470  -4.929  1.00 20.00    -0.050 C 
HETATM    4  C4  UNL     1     -34.747  18.766  -5.867  1.00 20.00     0.101 C 
HETATM    5  C5  UNL     1     -35.689  15.920  -5.462  1.00 20.00    -0.081 C 
HETATM    6  C6  UNL     1     -33.326  18.377  -3.870  1.00 20.00     0.044 C 
HETATM    7  C7  UNL     1     -33.583  15.628  -4.180  1.00 20.00     0.040 C 
HETATM    8  C8  UNL     1     -33.388  16.100  -2.735  1.00 20.00     0.009 C 
HETATM    9  C9  UNL     1     -33.558  17.621  -2.551  1.00 20.00    -0.014 C 
HETATM   10  C10 UNL     1     -35.949  14.444  -5.398  1.00 20.00     0.043 C 
HETATM   11  C11 UNL     1     -36.729  16.746  -6.156  1.00 20.00     0.043 C 
HETATM   12  C12 UNL     1     -32.645  18.144  -1.446  1.00 20.00     0.010 C 
HETATM   13  N13 UNL     1     -36.328  18.013  -7.757  1.00 20.00    -0.192 NA
ENDROOT
TORSDOF 0
ENDMDL
MODEL 5
REMARK VINA RESULT:      -3.8     11.886     13.828
REMARK  0 active torsions:
REMARK  status: ('A' for Active; 'I' for Inactive)
ROOT
HETATM    1  C1  UNL     1     -34.623  15.773  -7.061  1.00 20.00     0.088 C 
HETATM    2  C2  UNL     1     -35.862  17.356  -5.733  1.00 20.00    -0.041 C 
HETATM    3  C3  UNL     1     -34.946  17.285  -4.591  1.00 20.00    -0.050 C 
HETATM    4  C4  UNL     1     -35.712  16.658  -6.871  1.00 20.00     0.101 C 
HETATM    5  C5  UNL     1     -34.148  16.241  -4.315  1.00 20.00    -0.081 C 
HETATM    6  C6  UNL     1     -37.029  18.311  -5.570  1.00 20.00     0.044 C 
HETATM    7  C7  UNL     1     -35.005  18.481  -3.674  1.00 20.00     0.040 C 
HETATM    8  C8  UNL     1     -36.418  18.735  -3.136  1.00 20.00     0.009 C 
HETATM    9  C9  UNL     1     -37.536  18.336  -4.119  1.00 20.00    -0.014 C 
HETATM   10  C10 UNL     1     -33.234  16.235  -3.127  1.00 20.00     0.043 C 
HETATM   11  C11 UNL     1     -34.120  15.016  -5.179  1.00 20.00     0.043 C 
HETATM   12  C12 UNL     1     -38.747  19.254  -3.972  1.00 20.00     0.010 C 
HETATM   13  N13 UNL     1     -33.733  15.046  -7.224  1.00 20.00    -0.192 NA
ENDROOT
TORSDOF 0
ENDMDL
MODEL 6
REMARK VINA RESULT:      -3.8     11.381     13.698
REMARK  0 active torsions:
REMARK  status: ('A' for Active; 'I' for Inactive)
ROOT
HETATM    1  C1  UNL     1     -34.373  18.140  -1.943  1.00 20.00     0.088 C 
HETATM    2  C2  UNL     1     -35.075  18.172  -4.248  1.00 20.00    -0.041 C 
HETATM    3  C3  UNL     1     -34.625  16.804  -4.520  1.00 20.00    -0.050 C 
HETATM    4  C4  UNL     1     -34.958  18.787  -3.059  1.00 20.00     0.101 C 
HETATM    5  C5  UNL     1     -33.664  16.165  -3.835  1.00 20.00    -0.081 C 
HETATM    6  C6  UNL     1     -35.725  18.886  -5.418  1.00 20.00     0.044 C 
HETATM    7  C7  UNL     1     -35.294  16.156  -5.707  1.00 20.00     0.040 C 
HETATM    8  C8  UNL     1     -35.127  16.977  -6.991  1.00 20.00     0.009 C 
HETATM    9  C9  UNL     1     -35.064  18.498  -6.750  1.00 20.00    -0.014 C 
HETATM   10  C10 UNL     1     -33.253  14.762  -4.168  1.00 20.00     0.043 C 
HETATM   11  C11 UNL     1     -32.943  16.813  -2.691  1.00 20.00     0.043 C 
HETATM   12  C12 UNL     1     -35.683  19.263  -7.918  1.00 20.00     0.010 C 
HETATM   13  N13 UNL     1     -33.895  17.617  -1.025  1.00 20.00    -0.192 NA
ENDROOT
TORSDOF 0
ENDMDL
MODEL 7
REMARK VINA RESULT:      -3.7     10.321     11.598
REMARK  0 active torsions:
REMARK  status: ('A' for Active; 'I' for Inactive)
ROOT
HETATM    1  C1  UNL     1     -42.741  16.351   6.095  1.00 20.00     0.088 C 
HETATM    2  C2  UNL     1     -41.484  14.326   5.743  1.00 20.00    -0.041 C 
HETATM    3  C3  UNL     1     -40.894  14.326   7.084  1.00 20.00    -0.050 C 
HETATM    4  C4  UNL     1     -42.335  15.261   5.288  1.00 20.00     0.101 C 
HETATM    5  C5  UNL     1     -40.729  15.418   7.847  1.00 20.00    -0.081 C 
HETATM    6  C6  UNL     1     -41.086  13.159   4.859  1.00 20.00     0.044 C 
HETATM    7  C7  UNL     1     -40.406  12.975   7.547  1.00 20.00     0.040 C 
HETATM    8  C8  UNL     1     -39.390  12.359   6.579  1.00 20.00     0.009 C 
HETATM    9  C9  UNL     1     -39.628  12.740   5.104  1.00 20.00    -0.014 C 
HETATM   10  C10 UNL     1     -40.116  15.346   9.213  1.00 20.00     0.043 C 
HETATM   11  C11 UNL     1     -41.150  16.780   7.380  1.00 20.00     0.043 C 
HETATM   12  C12 UNL     1     -39.214  11.604   4.172  1.00 20.00     0.010 C 
HETATM   13  N13 UNL     1     -43.077  17.248   6.751  1.00 20.00    -0.192 NA
ENDROOT
TORSDOF 0
ENDMDL
MODEL 8
REMARK VINA RESULT:      -3.7     11.587     13.380
REMARK  0 active torsions:
REMARK  status: ('A' for Active; 'I' for Inactive)
ROOT
HETATM    1  C1  UNL     1     -33.617  14.734  -4.703  1.00 20.00     0.088 C 
HETATM    2  C2  UNL     1     -35.553  16.049  -5.273  1.00 20.00    -0.041 C 
HETATM    3  C3  UNL     1     -34.961  17.316  -4.834  1.00 20.00    -0.050 C 
HETATM    4  C4  UNL     1     -34.933  14.859  -5.211  1.00 20.00     0.101 C 
HETATM    5  C5  UNL     1     -33.978  17.426  -3.926  1.00 20.00    -0.081 C 
HETATM    6  C6  UNL     1     -36.956  16.152  -5.841  1.00 20.00     0.044 C 
HETATM    7  C7  UNL     1     -35.593  18.541  -5.447  1.00 20.00     0.040 C 
HETATM    8  C8  UNL     1     -37.102  18.608  -5.191  1.00 20.00     0.009 C 
HETATM    9  C9  UNL     1     -37.780  17.225  -5.113  1.00 20.00    -0.014 C 
HETATM   10  C10 UNL     1     -33.417  18.757  -3.523  1.00 20.00     0.043 C 
HETATM   11  C11 UNL     1     -33.378  16.225  -3.259  1.00 20.00     0.043 C 
HETATM   12  C12 UNL     1     -39.208  17.285  -5.649  1.00 20.00     0.010 C 
HETATM   13  N13 UNL     1     -32.539  14.623  -4.288  1.00 20.00    -0.192 NA
ENDROOT
TORSDOF 0
ENDMDL
MODEL 9
REMARK VINA RESULT:      -3.7     10.606     12.268
REMARK  0 active torsions:
REMARK  status: ('A' for Active; 'I' for Inactive)
ROOT
HETATM    1  C1  UNL     1     -40.808  16.038  10.165  1.00 20.00     0.088 C 
HETATM    2  C2  UNL     1     -40.964  14.686   8.177  1.00 20.00    -0.041 C 
HETATM    3  C3  UNL     1     -42.044  13.845   8.698  1.00 20.00    -0.050 C 
HETATM    4  C4  UNL     1     -40.394  15.696   8.854  1.00 20.00     0.101 C 
HETATM    5  C5  UNL     1     -42.292  13.640  10.002  1.00 20.00    -0.081 C 
HETATM    6  C6  UNL     1     -40.511  14.359   6.767  1.00 20.00     0.044 C 
HETATM    7  C7  UNL     1     -42.856  13.147   7.635  1.00 20.00     0.040 C 
HETATM    8  C8  UNL     1     -41.987  12.287   6.710  1.00 20.00     0.009 C 
HETATM    9  C9  UNL     1     -40.567  12.847   6.494  1.00 20.00    -0.014 C 
HETATM   10  C10 UNL     1     -43.417  12.764  10.467  1.00 20.00     0.043 C 
HETATM   11  C11 UNL     1     -41.459  14.274  11.075  1.00 20.00     0.043 C 
HETATM   12  C12 UNL     1     -40.056  12.517   5.094  1.00 20.00     0.010 C 
HETATM   13  N13 UNL     1     -41.141  16.324  11.239  1.00 20.00    -0.192 NA
ENDROOT
TORSDOF 0
ENDMDL
