MODEL 1
REMARK VINA RESULT:      -5.8      0.000      0.000
REMARK  0 active torsions:
REMARK  status: ('A' for Active; 'I' for Inactive)
ROOT
HETATM    1  C1  UNL     1     -33.306   7.126   4.829  1.00 20.00     0.117 A 
HETATM    2  C2  UNL     1     -33.509   6.049   4.067  1.00 20.00    -0.042 A 
HETATM    3  C3  UNL     1     -32.463   8.041   4.055  1.00 20.00     0.186 A 
HETATM    4  C4  UNL     1     -34.301   4.884   4.553  1.00 20.00     0.039 C 
HETATM    5  C5  UNL     1     -32.878   6.107   2.715  1.00 20.00     0.049 A 
HETATM    6  C6  UNL     1     -34.523   5.008   6.065  1.00 20.00     0.031 C 
HETATM    7  C7  UNL     1     -34.818   6.459   6.463  1.00 20.00     0.176 C 
HETATM    8  C8  UNL     1     -32.095   7.432   2.719  1.00 20.00     0.062 A 
HETATM    9  C9  UNL     1     -32.470   8.347   1.565  1.00 20.00     0.018 C 
HETATM   10  O10 UNL     1     -32.111   9.140   4.456  1.00 20.00    -0.290 OA
HETATM   11  O11 UNL     1     -33.775   7.373   6.083  1.00 20.00    -0.347 OA
ENDROOT
TORSDOF 0
ENDMDL
MODEL 2
REMARK VINA RESULT:      -4.3      1.590      2.521
REMARK  0 active torsions:
REMARK  status: ('A' for Active; 'I' for Inactive)
ROOT
HETATM    1  C1  UNL     1     -33.429   6.605   4.084  1.00 20.00     0.117 A 
HETATM    2  C2  UNL     1     -33.969   6.904   5.267  1.00 20.00    -0.042 A 
HETATM    3  C3  UNL     1     -32.765   7.819   3.599  1.00 20.00     0.186 A 
HETATM    4  C4  UNL     1     -34.762   5.909   6.040  1.00 20.00     0.039 C 
HETATM    5  C5  UNL     1     -33.722   8.301   5.735  1.00 20.00     0.049 A 
HETATM    6  C6  UNL     1     -35.091   4.706   5.146  1.00 20.00     0.031 C 
HETATM    7  C7  UNL     1     -33.897   4.336   4.259  1.00 20.00     0.176 C 
HETATM    8  C8  UNL     1     -32.964   8.962   4.571  1.00 20.00     0.062 A 
HETATM    9  C9  UNL     1     -31.639   9.572   4.996  1.00 20.00     0.018 C 
HETATM   10  O10 UNL     1     -32.145   7.879   2.549  1.00 20.00    -0.290 OA
HETATM   11  O11 UNL     1     -33.458   5.417   3.419  1.00 20.00    -0.347 OA
ENDROOT
TORSDOF 0
ENDMDL
MODEL 3
REMARK VINA RESULT:      -4.3      0.783      3.719
REMARK  0 active torsions:
REMARK  status: ('A' for Active; 'I' for Inactive)
ROOT
HETATM    1  C1  UNL     1     -33.299   7.273   4.577  1.00 20.00     0.117 A 
HETATM    2  C2  UNL     1     -33.450   6.204   3.793  1.00 20.00    -0.042 A 
HETATM    3  C3  UNL     1     -34.155   7.066   5.748  1.00 20.00     0.186 A 
HETATM    4  C4  UNL     1     -32.751   6.089   2.483  1.00 20.00     0.039 C 
HETATM    5  C5  UNL     1     -34.370   5.156   4.328  1.00 20.00     0.049 A 
HETATM    6  C6  UNL     1     -32.156   7.449   2.096  1.00 20.00     0.031 C 
HETATM    7  C7  UNL     1     -31.559   8.158   3.316  1.00 20.00     0.176 C 
HETATM    8  C8  UNL     1     -34.920   5.765   5.630  1.00 20.00     0.062 A 
HETATM    9  C9  UNL     1     -34.698   4.874   6.841  1.00 20.00     0.018 C 
HETATM   10  O10 UNL     1     -34.231   7.853   6.680  1.00 20.00    -0.290 OA
HETATM   11  O11 UNL     1     -32.512   8.365   4.373  1.00 20.00    -0.347 OA
ENDROOT
TORSDOF 0
ENDMDL
MODEL 4
REMARK VINA RESULT:      -4.1     15.539     16.413
REMARK  0 active torsions:
REMARK  status: ('A' for Active; 'I' for Inactive)
ROOT
HETATM    1  C1  UNL     1     -23.197  18.005  10.127  1.00 20.00     0.117 A 
HETATM    2  C2  UNL     1     -24.035  18.813   9.477  1.00 20.00    -0.042 A 
HETATM    3  C3  UNL     1     -23.732  17.837  11.481  1.00 20.00     0.186 A 
HETATM    4  C4  UNL     1     -23.783  19.237   8.071  1.00 20.00     0.039 C 
HETATM    5  C5  UNL     1     -25.223  19.256  10.268  1.00 20.00     0.049 A 
HETATM    6  C6  UNL     1     -22.345  18.876   7.676  1.00 20.00     0.031 C 
HETATM    7  C7  UNL     1     -21.947  17.505   8.233  1.00 20.00     0.176 C 
HETATM    8  C8  UNL     1     -24.990  18.657  11.666  1.00 20.00     0.062 A 
HETATM    9  C9  UNL     1     -26.151  17.801  12.145  1.00 20.00     0.018 C 
HETATM   10  O10 UNL     1     -23.213  17.129  12.332  1.00 20.00    -0.290 OA
HETATM   11  O11 UNL     1     -22.057  17.421   9.664  1.00 20.00    -0.347 OA
ENDROOT
TORSDOF 0
ENDMDL
MODEL 5
REMARK VINA RESULT:      -4.1     12.366     13.513
REMARK  0 active torsions:
REMARK  status: ('A' for Active; 'I' for Inactive)
ROOT
HETATM    1  C1  UNL     1     -34.097  17.343  -4.468  1.00 20.00     0.117 A 
HETATM    2  C2  UNL     1     -33.755  16.420  -3.568  1.00 20.00    -0.042 A 
HETATM    3  C3  UNL     1     -34.551  16.625  -5.663  1.00 20.00     0.186 A 
HETATM    4  C4  UNL     1     -33.208  16.793  -2.234  1.00 20.00     0.039 C 
HETATM    5  C5  UNL     1     -33.956  15.007  -4.009  1.00 20.00     0.049 A 
HETATM    6  C6  UNL     1     -32.833  18.280  -2.229  1.00 20.00     0.031 C 
HETATM    7  C7  UNL     1     -33.875  19.114  -2.981  1.00 20.00     0.176 C 
HETATM    8  C8  UNL     1     -34.428  15.129  -5.468  1.00 20.00     0.062 A 
HETATM    9  C9  UNL     1     -35.748  14.422  -5.725  1.00 20.00     0.018 C 
HETATM   10  O10 UNL     1     -34.962  17.179  -6.671  1.00 20.00    -0.290 OA
HETATM   11  O11 UNL     1     -34.056  18.699  -4.345  1.00 20.00    -0.347 OA
ENDROOT
TORSDOF 0
ENDMDL
MODEL 6
REMARK VINA RESULT:      -4.1      9.395     10.444
REMARK  0 active torsions:
REMARK  status: ('A' for Active; 'I' for Inactive)
ROOT
HETATM    1  C1  UNL     1     -40.335  13.613   7.146  1.00 20.00     0.117 A 
HETATM    2  C2  UNL     1     -41.163  14.092   6.215  1.00 20.00    -0.042 A 
HETATM    3  C3  UNL     1     -39.697  12.423   6.577  1.00 20.00     0.186 A 
HETATM    4  C4  UNL     1     -42.015  15.288   6.465  1.00 20.00     0.039 C 
HETATM    5  C5  UNL     1     -41.169  13.332   4.929  1.00 20.00     0.049 A 
HETATM    6  C6  UNL     1     -42.007  15.621   7.962  1.00 20.00     0.031 C 
HETATM    7  C7  UNL     1     -40.609  15.435   8.562  1.00 20.00     0.176 C 
HETATM    8  C8  UNL     1     -40.227  12.143   5.187  1.00 20.00     0.062 A 
HETATM    9  C9  UNL     1     -39.104  12.045   4.169  1.00 20.00     0.018 C 
HETATM   10  O10 UNL     1     -38.858  11.758   7.164  1.00 20.00    -0.290 OA
HETATM   11  O11 UNL     1     -40.093  14.104   8.392  1.00 20.00    -0.347 OA
ENDROOT
TORSDOF 0
ENDMDL
MODEL 7
REMARK VINA RESULT:      -4.0     12.409     13.425
REMARK  0 active torsions:
REMARK  status: ('A' for Active; 'I' for Inactive)
ROOT
HETATM    1  C1  UNL     1     -34.572  17.226  -4.090  1.00 20.00     0.117 A 
HETATM    2  C2  UNL     1     -33.720  16.390  -3.492  1.00 20.00    -0.042 A 
HETATM    3  C3  UNL     1     -34.843  18.309  -3.140  1.00 20.00     0.186 A 
HETATM    4  C4  UNL     1     -33.250  15.144  -4.158  1.00 20.00     0.039 C 
HETATM    5  C5  UNL     1     -33.294  16.802  -2.121  1.00 20.00     0.049 A 
HETATM    6  C6  UNL     1     -34.112  14.864  -5.395  1.00 20.00     0.031 C 
HETATM    7  C7  UNL     1     -34.431  16.159  -6.149  1.00 20.00     0.176 C 
HETATM    8  C8  UNL     1     -34.113  18.073  -1.835  1.00 20.00     0.062 A 
HETATM    9  C9  UNL     1     -33.247  19.263  -1.456  1.00 20.00     0.018 C 
HETATM   10  O10 UNL     1     -35.569  19.260  -3.386  1.00 20.00    -0.290 OA
HETATM   11  O11 UNL     1     -35.107  17.135  -5.338  1.00 20.00    -0.347 OA
ENDROOT
TORSDOF 0
ENDMDL
MODEL 8
REMARK VINA RESULT:      -4.0     11.812     13.910
REMARK  0 active torsions:
REMARK  status: ('A' for Active; 'I' for Inactive)
ROOT
HETATM    1  C1  UNL     1     -34.442  15.618  -5.656  1.00 20.00     0.117 A 
HETATM    2  C2  UNL     1     -34.615  16.941  -5.647  1.00 20.00    -0.042 A 
HETATM    3  C3  UNL     1     -33.616  15.288  -4.491  1.00 20.00     0.186 A 
HETATM    4  C4  UNL     1     -35.382  17.638  -6.717  1.00 20.00     0.039 C 
HETATM    5  C5  UNL     1     -33.978  17.650  -4.497  1.00 20.00     0.049 A 
HETATM    6  C6  UNL     1     -35.616  16.678  -7.890  1.00 20.00     0.031 C 
HETATM    7  C7  UNL     1     -35.947  15.268  -7.391  1.00 20.00     0.176 C 
HETATM    8  C8  UNL     1     -33.226  16.542  -3.739  1.00 20.00     0.062 A 
HETATM    9  C9  UNL     1     -33.616  16.459  -2.272  1.00 20.00     0.018 C 
HETATM   10  O10 UNL     1     -33.292  14.150  -4.190  1.00 20.00    -0.290 OA
HETATM   11  O11 UNL     1     -34.924  14.710  -6.549  1.00 20.00    -0.347 OA
ENDROOT
TORSDOF 0
ENDMDL
MODEL 9
REMARK VINA RESULT:      -4.0     12.191     13.149
REMARK  0 active torsions:
REMARK  status: ('A' for Active; 'I' for Inactive)
ROOT
HETATM    1  C1  UNL     1     -33.879  16.281  -3.689  1.00 20.00     0.117 A 
HETATM    2  C2  UNL     1     -34.509  17.292  -4.290  1.00 20.00    -0.042 A 
HETATM    3  C3  UNL     1     -33.899  15.152  -4.623  1.00 20.00     0.186 A 
HETATM    4  C4  UNL     1     -34.712  18.602  -3.612  1.00 20.00     0.039 C 
HETATM    5  C5  UNL     1     -34.992  16.999  -5.673  1.00 20.00     0.049 A 
HETATM    6  C6  UNL     1     -34.392  18.463  -2.118  1.00 20.00     0.031 C 
HETATM    7  C7  UNL     1     -33.163  17.576  -1.897  1.00 20.00     0.176 C 
HETATM    8  C8  UNL     1     -34.649  15.514  -5.886  1.00 20.00     0.062 A 
HETATM    9  C9  UNL     1     -33.805  15.273  -7.127  1.00 20.00     0.018 C 
HETATM   10  O10 UNL     1     -33.379  14.071  -4.390  1.00 20.00    -0.290 OA
HETATM   11  O11 UNL     1     -33.308  16.258  -2.453  1.00 20.00    -0.347 OA
ENDROOT
TORSDOF 0
ENDMDL
