MODEL 1
REMARK VINA RESULT:      -4.2      0.000      0.000
REMARK  0 active torsions:
REMARK  status: ('A' for Active; 'I' for Inactive)
ROOT
HETATM    1  C1  UNL     1     -32.429   8.653   3.365  1.00 20.00    -0.021 C 
HETATM    2  C2  UNL     1     -32.417   7.835   2.297  1.00 20.00    -0.087 C 
HETATM    3  C3  UNL     1     -32.939   8.235   4.716  1.00 20.00     0.068 C 
HETATM    4  C4  UNL     1     -32.893   6.405   2.384  1.00 20.00     0.036 C 
HETATM    5  C5  UNL     1     -32.953   5.858   3.814  1.00 20.00     0.045 C 
HETATM    6  C6  UNL     1     -34.348   6.455   5.979  1.00 20.00     0.153 A 
HETATM    7  C7  UNL     1     -33.559   6.864   4.749  1.00 20.00     0.090 A 
HETATM    8  C8  UNL     1     -31.947   8.298   0.950  1.00 20.00     0.043 C 
HETATM    9  C9  UNL     1     -34.589   5.040   6.365  1.00 20.00     0.042 C 
HETATM   10  O10 UNL     1     -34.997   6.865   4.767  1.00 20.00    -0.369 OA
ENDROOT
TORSDOF 0
ENDMDL
MODEL 2
REMARK VINA RESULT:      -4.0      1.435      4.083
REMARK  0 active torsions:
REMARK  status: ('A' for Active; 'I' for Inactive)
ROOT
HETATM    1  C1  UNL     1     -34.040   7.310   6.092  1.00 20.00    -0.021 C 
HETATM    2  C2  UNL     1     -34.274   6.023   5.782  1.00 20.00    -0.087 C 
HETATM    3  C3  UNL     1     -33.476   8.303   5.114  1.00 20.00     0.068 C 
HETATM    4  C4  UNL     1     -34.015   5.477   4.398  1.00 20.00     0.036 C 
HETATM    5  C5  UNL     1     -33.907   6.558   3.316  1.00 20.00     0.045 C 
HETATM    6  C6  UNL     1     -32.244   8.556   2.841  1.00 20.00     0.153 A 
HETATM    7  C7  UNL     1     -33.072   7.710   3.790  1.00 20.00     0.090 A 
HETATM    8  C8  UNL     1     -34.790   5.045   6.795  1.00 20.00     0.043 C 
HETATM    9  C9  UNL     1     -32.186   8.323   1.374  1.00 20.00     0.042 C 
HETATM   10  O10 UNL     1     -31.655   7.518   3.636  1.00 20.00    -0.369 OA
ENDROOT
TORSDOF 0
ENDMDL
MODEL 3
REMARK VINA RESULT:      -4.0     11.624     13.167
REMARK  0 active torsions:
REMARK  status: ('A' for Active; 'I' for Inactive)
ROOT
HETATM    1  C1  UNL     1     -33.326  15.531  -3.516  1.00 20.00    -0.021 C 
HETATM    2  C2  UNL     1     -33.678  16.775  -3.148  1.00 20.00    -0.087 C 
HETATM    3  C3  UNL     1     -33.809  14.880  -4.783  1.00 20.00     0.068 C 
HETATM    4  C4  UNL     1     -34.573  17.637  -4.006  1.00 20.00     0.036 C 
HETATM    5  C5  UNL     1     -34.665  17.175  -5.465  1.00 20.00     0.045 C 
HETATM    6  C6  UNL     1     -35.580  15.013  -6.679  1.00 20.00     0.153 A 
HETATM    7  C7  UNL     1     -34.826  15.685  -5.547  1.00 20.00     0.090 A 
HETATM    8  C8  UNL     1     -33.219  17.378  -1.854  1.00 20.00     0.043 C 
HETATM    9  C9  UNL     1     -36.219  15.759  -7.795  1.00 20.00     0.042 C 
HETATM   10  O10 UNL     1     -36.180  15.227  -5.394  1.00 20.00    -0.369 OA
ENDROOT
TORSDOF 0
ENDMDL
MODEL 4
REMARK VINA RESULT:      -3.9     11.744     13.122
REMARK  0 active torsions:
REMARK  status: ('A' for Active; 'I' for Inactive)
ROOT
HETATM    1  C1  UNL     1     -33.314  16.549  -2.523  1.00 20.00    -0.021 C 
HETATM    2  C2  UNL     1     -34.106  17.632  -2.423  1.00 20.00    -0.087 C 
HETATM    3  C3  UNL     1     -33.203  15.724  -3.775  1.00 20.00     0.068 C 
HETATM    4  C4  UNL     1     -34.930  18.126  -3.587  1.00 20.00     0.036 C 
HETATM    5  C5  UNL     1     -34.463  17.596  -4.948  1.00 20.00     0.045 C 
HETATM    6  C6  UNL     1     -34.318  15.204  -6.063  1.00 20.00     0.153 A 
HETATM    7  C7  UNL     1     -34.149  16.130  -4.873  1.00 20.00     0.090 A 
HETATM    8  C8  UNL     1     -34.233  18.405  -1.145  1.00 20.00     0.043 C 
HETATM    9  C9  UNL     1     -34.802  15.659  -7.394  1.00 20.00     0.042 C 
HETATM   10  O10 UNL     1     -35.294  15.272  -5.015  1.00 20.00    -0.369 OA
ENDROOT
TORSDOF 0
ENDMDL
MODEL 5
REMARK VINA RESULT:      -3.9      9.525     10.264
REMARK  0 active torsions:
REMARK  status: ('A' for Active; 'I' for Inactive)
ROOT
HETATM    1  C1  UNL     1     -40.916  13.147   4.709  1.00 20.00    -0.021 C 
HETATM    2  C2  UNL     1     -39.857  12.389   5.044  1.00 20.00    -0.087 C 
HETATM    3  C3  UNL     1     -41.781  13.844   5.722  1.00 20.00     0.068 C 
HETATM    4  C4  UNL     1     -39.433  12.201   6.481  1.00 20.00     0.036 C 
HETATM    5  C5  UNL     1     -39.996  13.260   7.436  1.00 20.00     0.045 C 
HETATM    6  C6  UNL     1     -42.421  13.942   8.238  1.00 20.00     0.153 A 
HETATM    7  C7  UNL     1     -41.447  13.520   7.154  1.00 20.00     0.090 A 
HETATM    8  C8  UNL     1     -39.043  11.666   4.013  1.00 20.00     0.043 C 
HETATM    9  C9  UNL     1     -42.031  14.134   9.660  1.00 20.00     0.042 C 
HETATM   10  O10 UNL     1     -42.348  12.587   7.775  1.00 20.00    -0.369 OA
ENDROOT
TORSDOF 0
ENDMDL
MODEL 6
REMARK VINA RESULT:      -3.7     11.696     12.817
REMARK  0 active torsions:
REMARK  status: ('A' for Active; 'I' for Inactive)
ROOT
HETATM    1  C1  UNL     1     -34.752  17.069  -5.499  1.00 20.00    -0.021 C 
HETATM    2  C2  UNL     1     -34.766  15.754  -5.217  1.00 20.00    -0.087 C 
HETATM    3  C3  UNL     1     -34.096  18.093  -4.614  1.00 20.00     0.068 C 
HETATM    4  C4  UNL     1     -34.089  15.194  -3.990  1.00 20.00     0.036 C 
HETATM    5  C5  UNL     1     -33.048  16.137  -3.372  1.00 20.00     0.045 C 
HETATM    6  C6  UNL     1     -33.140  18.522  -2.237  1.00 20.00     0.153 A 
HETATM    7  C7  UNL     1     -33.566  17.544  -3.316  1.00 20.00     0.090 A 
HETATM    8  C8  UNL     1     -35.472  14.763  -6.094  1.00 20.00     0.043 C 
HETATM    9  C9  UNL     1     -32.182  18.179  -1.152  1.00 20.00     0.042 C 
HETATM   10  O10 UNL     1     -34.392  17.826  -2.173  1.00 20.00    -0.369 OA
ENDROOT
TORSDOF 0
ENDMDL
MODEL 7
REMARK VINA RESULT:      -3.7     15.754     16.337
REMARK  0 active torsions:
REMARK  status: ('A' for Active; 'I' for Inactive)
ROOT
HETATM    1  C1  UNL     1     -25.924  19.263  10.101  1.00 20.00    -0.021 C 
HETATM    2  C2  UNL     1     -25.888  18.683  11.314  1.00 20.00    -0.087 C 
HETATM    3  C3  UNL     1     -24.830  19.108   9.082  1.00 20.00     0.068 C 
HETATM    4  C4  UNL     1     -24.743  17.795  11.739  1.00 20.00     0.036 C 
HETATM    5  C5  UNL     1     -23.902  17.267  10.570  1.00 20.00     0.045 C 
HETATM    6  C6  UNL     1     -22.360  18.380   8.735  1.00 20.00     0.153 A 
HETATM    7  C7  UNL     1     -23.623  18.355   9.576  1.00 20.00     0.090 A 
HETATM    8  C8  UNL     1     -26.973  18.897  12.327  1.00 20.00     0.043 C 
HETATM    9  C9  UNL     1     -21.299  17.342   8.819  1.00 20.00     0.042 C 
HETATM   10  O10 UNL     1     -22.501  19.190   9.910  1.00 20.00    -0.369 OA
ENDROOT
TORSDOF 0
ENDMDL
MODEL 8
REMARK VINA RESULT:      -3.6      9.449     10.635
REMARK  0 active torsions:
REMARK  status: ('A' for Active; 'I' for Inactive)
ROOT
HETATM    1  C1  UNL     1     -40.967  14.147   8.128  1.00 20.00    -0.021 C 
HETATM    2  C2  UNL     1     -42.226  13.930   7.707  1.00 20.00    -0.087 C 
HETATM    3  C3  UNL     1     -39.754  13.709   7.356  1.00 20.00     0.068 C 
HETATM    4  C4  UNL     1     -42.520  13.247   6.393  1.00 20.00     0.036 C 
HETATM    5  C5  UNL     1     -41.335  13.238   5.420  1.00 20.00     0.045 C 
HETATM    6  C6  UNL     1     -38.920  12.165   5.439  1.00 20.00     0.153 A 
HETATM    7  C7  UNL     1     -40.061  12.888   6.131  1.00 20.00     0.090 A 
HETATM    8  C8  UNL     1     -43.416  14.336   8.525  1.00 20.00     0.043 C 
HETATM    9  C9  UNL     1     -38.961  11.745   4.014  1.00 20.00     0.042 C 
HETATM   10  O10 UNL     1     -39.842  11.477   6.294  1.00 20.00    -0.369 OA
ENDROOT
TORSDOF 0
ENDMDL
MODEL 9
REMARK VINA RESULT:      -3.5     12.230     13.403
REMARK  0 active torsions:
REMARK  status: ('A' for Active; 'I' for Inactive)
ROOT
HETATM    1  C1  UNL     1     -34.683  18.107  -3.049  1.00 20.00    -0.021 C 
HETATM    2  C2  UNL     1     -33.628  17.348  -2.704  1.00 20.00    -0.087 C 
HETATM    3  C3  UNL     1     -35.533  17.833  -4.258  1.00 20.00     0.068 C 
HETATM    4  C4  UNL     1     -33.230  16.128  -3.500  1.00 20.00     0.036 C 
HETATM    5  C5  UNL     1     -34.340  15.593  -4.411  1.00 20.00     0.045 C 
HETATM    6  C6  UNL     1     -35.645  16.537  -6.507  1.00 20.00     0.153 A 
HETATM    7  C7  UNL     1     -35.030  16.714  -5.131  1.00 20.00     0.090 A 
HETATM    8  C8  UNL     1     -32.769  17.676  -1.519  1.00 20.00     0.043 C 
HETATM    9  C9  UNL     1     -35.620  15.253  -7.257  1.00 20.00     0.042 C 
HETATM   10  O10 UNL     1     -34.362  17.151  -6.326  1.00 20.00    -0.369 OA
ENDROOT
TORSDOF 0
ENDMDL
