MODEL 1
REMARK VINA RESULT:      -3.2      0.000      0.000
REMARK  1 active torsions:
REMARK  status: ('A' for Active; 'I' for Inactive)
REMARK    1  A    between atoms: C7_7  and  N8_8 
ROOT
HETATM    1  C1  UNL     1     -34.759  17.313  -5.130  1.00 20.00     0.137 C 
HETATM    2  C2  UNL     1     -33.296  15.831  -3.928  1.00 20.00     0.140 C 
HETATM    3  C3  UNL     1     -33.883  14.852  -4.934  1.00 20.00     0.068 C 
HETATM    4  C4  UNL     1     -34.994  13.995  -4.340  1.00 20.00     0.023 C 
HETATM    5  N8  UNL     1     -34.082  17.055  -3.945  1.00 20.00    -0.361 N 
HETATM    6  S9  UNL     1     -35.645  18.663  -5.553  1.00 20.00    -0.053 SA
HETATM    7  S10 UNL     1     -34.558  15.940  -6.224  1.00 20.00    -0.095 SA
ENDROOT
BRANCH   5   8
HETATM    8  C7  UNL     1     -33.944  17.964  -2.814  1.00 20.00     0.077 C 
HETATM    9  C5  UNL     1     -32.859  18.985  -3.126  1.00 20.00     0.032 C 
HETATM   10  C6  UNL     1     -33.614  17.155  -1.568  1.00 20.00     0.032 C 
ENDBRANCH   5   8
TORSDOF 1
ENDMDL
MODEL 2
REMARK VINA RESULT:      -3.0      1.948      3.241
REMARK  1 active torsions:
REMARK  status: ('A' for Active; 'I' for Inactive)
REMARK    1  A    between atoms: C7_7  and  N8_8 
ROOT
HETATM    1  C1  UNL     1     -34.894  15.627  -4.891  1.00 20.00     0.137 C 
HETATM    2  C2  UNL     1     -33.976  17.770  -4.302  1.00 20.00     0.140 C 
HETATM    3  C3  UNL     1     -33.109  16.871  -3.434  1.00 20.00     0.068 C 
HETATM    4  C4  UNL     1     -33.569  16.836  -1.981  1.00 20.00     0.023 C 
HETATM    5  N8  UNL     1     -35.102  16.998  -4.805  1.00 20.00    -0.361 N 
HETATM    6  S9  UNL     1     -35.900  14.459  -5.531  1.00 20.00    -0.053 SA
HETATM    7  S10 UNL     1     -33.320  15.234  -4.194  1.00 20.00    -0.095 SA
ENDROOT
BRANCH   5   8
HETATM    8  C7  UNL     1     -36.246  17.733  -5.329  1.00 20.00     0.077 C 
HETATM    9  C5  UNL     1     -35.747  18.859  -6.224  1.00 20.00     0.032 C 
HETATM   10  C6  UNL     1     -37.068  18.263  -4.163  1.00 20.00     0.032 C 
ENDBRANCH   5   8
TORSDOF 1
ENDMDL
MODEL 3
REMARK VINA RESULT:      -3.0      1.405      3.024
REMARK  1 active torsions:
REMARK  status: ('A' for Active; 'I' for Inactive)
REMARK    1  A    between atoms: C7_7  and  N8_8 
ROOT
HETATM    1  C1  UNL     1     -34.425  16.133  -4.580  1.00 20.00     0.137 C 
HETATM    2  C2  UNL     1     -35.266  18.338  -4.117  1.00 20.00     0.140 C 
HETATM    3  C3  UNL     1     -36.004  18.048  -5.416  1.00 20.00     0.068 C 
HETATM    4  C4  UNL     1     -35.353  18.712  -6.622  1.00 20.00     0.023 C 
HETATM    5  N8  UNL     1     -34.215  17.348  -3.940  1.00 20.00    -0.361 N 
HETATM    6  S9  UNL     1     -33.509  14.739  -4.500  1.00 20.00    -0.053 SA
HETATM    7  S10 UNL     1     -35.890  16.240  -5.562  1.00 20.00    -0.095 SA
ENDROOT
BRANCH   5   8
HETATM    8  C7  UNL     1     -33.155  17.648  -2.987  1.00 20.00     0.077 C 
HETATM    9  C5  UNL     1     -33.601  17.221  -1.596  1.00 20.00     0.032 C 
HETATM   10  C6  UNL     1     -32.846  19.137  -3.046  1.00 20.00     0.032 C 
ENDBRANCH   5   8
TORSDOF 1
ENDMDL
MODEL 4
REMARK VINA RESULT:      -2.9      1.620      2.912
REMARK  1 active torsions:
REMARK  status: ('A' for Active; 'I' for Inactive)
REMARK    1  A    between atoms: C7_7  and  N8_8 
ROOT
HETATM    1  C1  UNL     1     -34.324  18.162  -5.167  1.00 20.00     0.137 C 
HETATM    2  C2  UNL     1     -35.553  16.109  -5.409  1.00 20.00     0.140 C 
HETATM    3  C3  UNL     1     -36.634  17.104  -5.805  1.00 20.00     0.068 C 
HETATM    4  C4  UNL     1     -37.617  17.385  -4.675  1.00 20.00     0.023 C 
HETATM    5  N8  UNL     1     -34.450  16.830  -4.793  1.00 20.00    -0.361 N 
HETATM    6  S9  UNL     1     -33.122  19.249  -4.768  1.00 20.00    -0.053 SA
HETATM    7  S10 UNL     1     -35.690  18.606  -6.197  1.00 20.00    -0.095 SA
ENDROOT
BRANCH   5   8
HETATM    8  C7  UNL     1     -33.496  16.062  -4.003  1.00 20.00     0.077 C 
HETATM    9  C5  UNL     1     -33.786  14.578  -4.178  1.00 20.00     0.032 C 
HETATM   10  C6  UNL     1     -33.605  16.490  -2.546  1.00 20.00     0.032 C 
ENDBRANCH   5   8
TORSDOF 1
ENDMDL
MODEL 5
REMARK VINA RESULT:      -2.9      2.296      3.142
REMARK  1 active torsions:
REMARK  status: ('A' for Active; 'I' for Inactive)
REMARK    1  A    between atoms: C7_7  and  N8_8 
ROOT
HETATM    1  C1  UNL     1     -34.096  16.340  -3.946  1.00 20.00     0.137 C 
HETATM    2  C2  UNL     1     -35.739  16.136  -5.690  1.00 20.00     0.140 C 
HETATM    3  C3  UNL     1     -34.790  15.019  -6.098  1.00 20.00     0.068 C 
HETATM    4  C4  UNL     1     -33.856  15.427  -7.231  1.00 20.00     0.023 C 
HETATM    5  N8  UNL     1     -35.088  16.967  -4.689  1.00 20.00    -0.361 N 
HETATM    6  S9  UNL     1     -33.234  16.934  -2.646  1.00 20.00    -0.053 SA
HETATM    7  S10 UNL     1     -33.834  14.713  -4.583  1.00 20.00    -0.095 SA
ENDROOT
BRANCH   5   8
HETATM    8  C7  UNL     1     -35.645  18.291  -4.442  1.00 20.00     0.077 C 
HETATM    9  C5  UNL     1     -37.154  18.173  -4.278  1.00 20.00     0.032 C 
HETATM   10  C6  UNL     1     -35.274  19.206  -5.600  1.00 20.00     0.032 C 
ENDBRANCH   5   8
TORSDOF 1
ENDMDL
MODEL 6
REMARK VINA RESULT:      -2.9      1.462      3.597
REMARK  1 active torsions:
REMARK  status: ('A' for Active; 'I' for Inactive)
REMARK    1  A    between atoms: C7_7  and  N8_8 
ROOT
HETATM    1  C1  UNL     1     -34.630  17.899  -3.885  1.00 20.00     0.137 C 
HETATM    2  C2  UNL     1     -33.667  16.377  -2.291  1.00 20.00     0.140 C 
HETATM    3  C3  UNL     1     -33.610  17.665  -1.484  1.00 20.00     0.068 C 
HETATM    4  C4  UNL     1     -32.224  18.299  -1.489  1.00 20.00     0.023 C 
HETATM    5  N8  UNL     1     -33.956  16.702  -3.680  1.00 20.00    -0.361 N 
HETATM    6  S9  UNL     1     -35.230  18.528  -5.310  1.00 20.00    -0.053 SA
HETATM    7  S10 UNL     1     -34.793  18.745  -2.342  1.00 20.00    -0.095 SA
ENDROOT
BRANCH   5   8
HETATM    8  C7  UNL     1     -33.681  15.683  -4.685  1.00 20.00     0.077 C 
HETATM    9  C5  UNL     1     -34.963  14.918  -4.981  1.00 20.00     0.032 C 
HETATM   10  C6  UNL     1     -32.583  14.764  -4.169  1.00 20.00     0.032 C 
ENDBRANCH   5   8
TORSDOF 1
ENDMDL
MODEL 7
REMARK VINA RESULT:      -2.9      2.078      4.048
REMARK  1 active torsions:
REMARK  status: ('A' for Active; 'I' for Inactive)
REMARK    1  A    between atoms: C7_7  and  N8_8 
ROOT
HETATM    1  C1  UNL     1     -34.390  17.235  -3.902  1.00 20.00     0.137 C 
HETATM    2  C2  UNL     1     -35.768  17.398  -5.867  1.00 20.00     0.140 C 
HETATM    3  C3  UNL     1     -36.315  18.573  -5.070  1.00 20.00     0.068 C 
HETATM    4  C4  UNL     1     -37.624  18.243  -4.362  1.00 20.00     0.023 C 
HETATM    5  N8  UNL     1     -34.945  16.576  -4.992  1.00 20.00    -0.361 N 
HETATM    6  S9  UNL     1     -33.308  16.653  -2.773  1.00 20.00    -0.053 SA
HETATM    7  S10 UNL     1     -35.009  18.889  -3.847  1.00 20.00    -0.095 SA
ENDROOT
BRANCH   5   8
HETATM    8  C7  UNL     1     -34.640  15.220  -5.428  1.00 20.00     0.077 C 
HETATM    9  C5  UNL     1     -34.029  15.270  -6.821  1.00 20.00     0.032 C 
HETATM   10  C6  UNL     1     -35.919  14.394  -5.404  1.00 20.00     0.032 C 
ENDBRANCH   5   8
TORSDOF 1
ENDMDL
MODEL 8
REMARK VINA RESULT:      -2.8     13.511     14.396
REMARK  1 active torsions:
REMARK  status: ('A' for Active; 'I' for Inactive)
REMARK    1  A    between atoms: C7_7  and  N8_8 
ROOT
HETATM    1  C1  UNL     1     -42.510  13.551   8.301  1.00 20.00     0.137 C 
HETATM    2  C2  UNL     1     -41.254  14.528   6.498  1.00 20.00     0.140 C 
HETATM    3  C3  UNL     1     -41.415  13.112   5.963  1.00 20.00     0.068 C 
HETATM    4  C4  UNL     1     -40.168  12.261   6.171  1.00 20.00     0.023 C 
HETATM    5  N8  UNL     1     -41.626  14.546   7.904  1.00 20.00    -0.361 N 
HETATM    6  S9  UNL     1     -43.244  13.340   9.785  1.00 20.00    -0.053 SA
HETATM    7  S10 UNL     1     -42.792  12.452   6.947  1.00 20.00    -0.095 SA
ENDROOT
BRANCH   5   8
HETATM    8  C7  UNL     1     -41.192  15.684   8.704  1.00 20.00     0.077 C 
HETATM    9  C5  UNL     1     -40.746  16.805   7.775  1.00 20.00     0.032 C 
HETATM   10  C6  UNL     1     -40.067  15.238   9.627  1.00 20.00     0.032 C 
ENDBRANCH   5   8
TORSDOF 1
ENDMDL
MODEL 9
REMARK VINA RESULT:      -2.8      2.036      3.936
REMARK  1 active torsions:
REMARK  status: ('A' for Active; 'I' for Inactive)
REMARK    1  A    between atoms: C7_7  and  N8_8 
ROOT
HETATM    1  C1  UNL     1     -33.875  16.301  -4.015  1.00 20.00     0.137 C 
HETATM    2  C2  UNL     1     -33.982  18.684  -4.322  1.00 20.00     0.140 C 
HETATM    3  C3  UNL     1     -33.955  18.621  -2.802  1.00 20.00     0.068 C 
HETATM    4  C4  UNL     1     -35.338  18.789  -2.183  1.00 20.00     0.023 C 
HETATM    5  N8  UNL     1     -34.244  17.352  -4.846  1.00 20.00    -0.361 N 
HETATM    6  S9  UNL     1     -33.907  14.662  -4.330  1.00 20.00    -0.053 SA
HETATM    7  S10 UNL     1     -33.322  16.951  -2.468  1.00 20.00    -0.095 SA
ENDROOT
BRANCH   5   8
HETATM    8  C7  UNL     1     -34.689  17.243  -6.229  1.00 20.00     0.077 C 
HETATM    9  C5  UNL     1     -34.250  18.486  -6.992  1.00 20.00     0.032 C 
HETATM   10  C6  UNL     1     -36.201  17.075  -6.249  1.00 20.00     0.032 C 
ENDBRANCH   5   8
TORSDOF 1
ENDMDL
