MODEL 1
REMARK VINA RESULT:      -5.7      0.000      0.000
REMARK  1 active torsions:
REMARK  status: ('A' for Active; 'I' for Inactive)
REMARK    1  A    between atoms: C2_2  and  C10_10 
ROOT
HETATM    1  C1  UNL     1     -32.744   7.959   5.042  1.00 20.00    -0.017 C 
HETATM    2  C2  UNL     1     -33.019   7.191   3.968  1.00 20.00    -0.068 C 
HETATM    3  C3  UNL     1     -34.446   5.409   5.113  1.00 20.00     0.135 C 
HETATM    4  C4  UNL     1     -34.107   5.535   6.583  1.00 20.00     0.080 C 
HETATM    5  C5  UNL     1     -34.342   7.021   6.898  1.00 20.00     0.017 C 
HETATM    6  C6  UNL     1     -34.140   7.839   5.616  1.00 20.00     0.024 C 
HETATM    7  C7  UNL     1     -34.407   6.833   4.477  1.00 20.00     0.092 C 
HETATM    8  O11 UNL     1     -34.657   4.335   4.560  1.00 20.00    -0.297 OA
ENDROOT
BRANCH   2   9
HETATM    9  C10 UNL     1     -32.206   6.753   2.736  1.00 20.00     0.007 C 
HETATM   10  C8  UNL     1     -32.792   5.469   2.196  1.00 20.00     0.014 C 
HETATM   11  C9  UNL     1     -32.211   7.866   1.712  1.00 20.00     0.014 C 
ENDBRANCH   2   9
TORSDOF 1
ENDMDL
MODEL 2
REMARK VINA RESULT:      -5.4      1.406      2.252
REMARK  1 active torsions:
REMARK  status: ('A' for Active; 'I' for Inactive)
REMARK    1  A    between atoms: C2_2  and  C10_10 
ROOT
HETATM    1  C1  UNL     1     -33.574   7.183   6.204  1.00 20.00    -0.017 C 
HETATM    2  C2  UNL     1     -33.266   7.522   4.936  1.00 20.00    -0.068 C 
HETATM    3  C3  UNL     1     -33.776   5.295   3.797  1.00 20.00     0.135 C 
HETATM    4  C4  UNL     1     -33.771   4.281   4.921  1.00 20.00     0.080 C 
HETATM    5  C5  UNL     1     -34.757   4.856   5.951  1.00 20.00     0.017 C 
HETATM    6  C6  UNL     1     -34.795   6.382   5.804  1.00 20.00     0.024 C 
HETATM    7  C7  UNL     1     -34.352   6.636   4.347  1.00 20.00     0.092 C 
HETATM    8  O11 UNL     1     -33.340   5.058   2.675  1.00 20.00    -0.297 OA
ENDROOT
BRANCH   2   9
HETATM    9  C10 UNL     1     -32.166   8.397   4.305  1.00 20.00     0.007 C 
HETATM   10  C8  UNL     1     -32.552   8.711   2.878  1.00 20.00     0.014 C 
HETATM   11  C9  UNL     1     -31.977   9.643   5.141  1.00 20.00     0.014 C 
ENDBRANCH   2   9
TORSDOF 1
ENDMDL
MODEL 3
REMARK VINA RESULT:      -4.9      1.416      3.627
REMARK  1 active torsions:
REMARK  status: ('A' for Active; 'I' for Inactive)
REMARK    1  A    between atoms: C2_2  and  C10_10 
ROOT
HETATM    1  C1  UNL     1     -33.887   8.626   5.336  1.00 20.00    -0.017 C 
HETATM    2  C2  UNL     1     -33.839   7.278   5.337  1.00 20.00    -0.068 C 
HETATM    3  C3  UNL     1     -32.579   6.926   3.145  1.00 20.00     0.135 C 
HETATM    4  C4  UNL     1     -32.742   8.232   2.397  1.00 20.00     0.080 C 
HETATM    5  C5  UNL     1     -32.261   9.299   3.392  1.00 20.00     0.017 C 
HETATM    6  C6  UNL     1     -32.472   8.779   4.819  1.00 20.00     0.024 C 
HETATM    7  C7  UNL     1     -32.474   7.243   4.668  1.00 20.00     0.092 C 
HETATM    8  O11 UNL     1     -32.585   5.830   2.595  1.00 20.00    -0.297 OA
ENDROOT
BRANCH   2   9
HETATM    9  C10 UNL     1     -34.831   6.177   5.760  1.00 20.00     0.007 C 
HETATM   10  C8  UNL     1     -35.526   5.648   4.527  1.00 20.00     0.014 C 
HETATM   11  C9  UNL     1     -34.087   5.097   6.512  1.00 20.00     0.014 C 
ENDBRANCH   2   9
TORSDOF 1
ENDMDL
MODEL 4
REMARK VINA RESULT:      -4.7      9.113     10.318
REMARK  1 active torsions:
REMARK  status: ('A' for Active; 'I' for Inactive)
REMARK    1  A    between atoms: C2_2  and  C10_10 
ROOT
HETATM    1  C1  UNL     1     -41.257  13.606   4.731  1.00 20.00    -0.017 C 
HETATM    2  C2  UNL     1     -40.674  12.700   5.542  1.00 20.00    -0.068 C 
HETATM    3  C3  UNL     1     -40.789  14.002   7.735  1.00 20.00     0.135 C 
HETATM    4  C4  UNL     1     -41.002  15.440   7.315  1.00 20.00     0.080 C 
HETATM    5  C5  UNL     1     -42.231  15.386   6.393  1.00 20.00     0.017 C 
HETATM    6  C6  UNL     1     -42.308  13.996   5.749  1.00 20.00     0.024 C 
HETATM    7  C7  UNL     1     -41.544  13.080   6.729  1.00 20.00     0.092 C 
HETATM    8  O11 UNL     1     -40.089  13.675   8.687  1.00 20.00    -0.297 OA
ENDROOT
BRANCH   2   9
HETATM    9  C10 UNL     1     -39.500  11.717   5.370  1.00 20.00     0.007 C 
HETATM   10  C8  UNL     1     -39.183  11.589   3.898  1.00 20.00     0.014 C 
HETATM   11  C9  UNL     1     -38.318  12.206   6.177  1.00 20.00     0.014 C 
ENDBRANCH   2   9
TORSDOF 1
ENDMDL
MODEL 5
REMARK VINA RESULT:      -4.2     15.271     16.081
REMARK  1 active torsions:
REMARK  status: ('A' for Active; 'I' for Inactive)
REMARK    1  A    between atoms: C2_2  and  C10_10 
ROOT
HETATM    1  C1  UNL     1     -23.289  17.026  10.126  1.00 20.00    -0.017 C 
HETATM    2  C2  UNL     1     -23.673  18.313  10.007  1.00 20.00    -0.068 C 
HETATM    3  C3  UNL     1     -25.476  18.357  11.814  1.00 20.00     0.135 C 
HETATM    4  C4  UNL     1     -25.822  16.901  12.042  1.00 20.00     0.080 C 
HETATM    5  C5  UNL     1     -24.469  16.233  12.330  1.00 20.00     0.017 C 
HETATM    6  C6  UNL     1     -23.361  17.037  11.639  1.00 20.00     0.024 C 
HETATM    7  C7  UNL     1     -23.953  18.455  11.495  1.00 20.00     0.092 C 
HETATM    8  O11 UNL     1     -26.307  19.259  11.838  1.00 20.00    -0.297 OA
ENDROOT
BRANCH   2   9
HETATM    9  C10 UNL     1     -23.858  19.262   8.807  1.00 20.00     0.007 C 
HETATM   10  C8  UNL     1     -22.921  18.837   7.700  1.00 20.00     0.014 C 
HETATM   11  C9  UNL     1     -25.308  19.245   8.377  1.00 20.00     0.014 C 
ENDBRANCH   2   9
TORSDOF 1
ENDMDL
MODEL 6
REMARK VINA RESULT:      -4.0     12.307     14.427
REMARK  1 active torsions:
REMARK  status: ('A' for Active; 'I' for Inactive)
REMARK    1  A    between atoms: C2_2  and  C10_10 
ROOT
HETATM    1  C1  UNL     1     -34.912  17.863  -5.023  1.00 20.00    -0.017 C 
HETATM    2  C2  UNL     1     -34.415  16.611  -4.954  1.00 20.00    -0.068 C 
HETATM    3  C3  UNL     1     -35.846  15.519  -6.766  1.00 20.00     0.135 C 
HETATM    4  C4  UNL     1     -37.022  16.455  -6.938  1.00 20.00     0.080 C 
HETATM    5  C5  UNL     1     -36.378  17.826  -7.197  1.00 20.00     0.017 C 
HETATM    6  C6  UNL     1     -34.995  17.858  -6.535  1.00 20.00     0.024 C 
HETATM    7  C7  UNL     1     -34.581  16.374  -6.447  1.00 20.00     0.092 C 
HETATM    8  O11 UNL     1     -35.942  14.298  -6.827  1.00 20.00    -0.297 OA
ENDROOT
BRANCH   2   9
HETATM    9  C10 UNL     1     -33.948  15.712  -3.793  1.00 20.00     0.007 C 
HETATM   10  C8  UNL     1     -32.994  14.673  -4.334  1.00 20.00     0.014 C 
HETATM   11  C9  UNL     1     -33.320  16.571  -2.718  1.00 20.00     0.014 C 
ENDBRANCH   2   9
TORSDOF 1
ENDMDL
MODEL 7
REMARK VINA RESULT:      -4.0     12.548     13.812
REMARK  1 active torsions:
REMARK  status: ('A' for Active; 'I' for Inactive)
REMARK    1  A    between atoms: C2_2  and  C10_10 
ROOT
HETATM    1  C1  UNL     1     -32.844  15.280  -4.125  1.00 20.00    -0.017 C 
HETATM    2  C2  UNL     1     -33.428  16.289  -3.447  1.00 20.00    -0.068 C 
HETATM    3  C3  UNL     1     -35.038  17.100  -5.255  1.00 20.00     0.135 C 
HETATM    4  C4  UNL     1     -34.479  16.537  -6.544  1.00 20.00     0.080 C 
HETATM    5  C5  UNL     1     -34.337  15.032  -6.268  1.00 20.00     0.017 C 
HETATM    6  C6  UNL     1     -34.139  14.820  -4.761  1.00 20.00     0.024 C 
HETATM    7  C7  UNL     1     -34.776  16.069  -4.115  1.00 20.00     0.092 C 
HETATM    8  O11 UNL     1     -35.555  18.209  -5.172  1.00 20.00    -0.297 OA
ENDROOT
BRANCH   2   9
HETATM    9  C10 UNL     1     -32.910  17.340  -2.447  1.00 20.00     0.007 C 
HETATM   10  C8  UNL     1     -32.852  18.683  -3.138  1.00 20.00     0.014 C 
HETATM   11  C9  UNL     1     -33.805  17.354  -1.228  1.00 20.00     0.014 C 
ENDBRANCH   2   9
TORSDOF 1
ENDMDL
MODEL 8
REMARK VINA RESULT:      -4.0     12.142     13.508
REMARK  1 active torsions:
REMARK  status: ('A' for Active; 'I' for Inactive)
REMARK    1  A    between atoms: C2_2  and  C10_10 
ROOT
HETATM    1  C1  UNL     1     -35.431  17.416  -4.578  1.00 20.00    -0.017 C 
HETATM    2  C2  UNL     1     -34.146  17.129  -4.282  1.00 20.00    -0.068 C 
HETATM    3  C3  UNL     1     -34.181  14.623  -4.767  1.00 20.00     0.135 C 
HETATM    4  C4  UNL     1     -35.647  14.249  -4.742  1.00 20.00     0.080 C 
HETATM    5  C5  UNL     1     -36.303  15.227  -5.730  1.00 20.00     0.017 C 
HETATM    6  C6  UNL     1     -35.463  16.509  -5.790  1.00 20.00     0.024 C 
HETATM    7  C7  UNL     1     -34.051  16.060  -5.358  1.00 20.00     0.092 C 
HETATM    8  O11 UNL     1     -33.293  13.896  -4.334  1.00 20.00    -0.297 OA
ENDROOT
BRANCH   2   9
HETATM    9  C10 UNL     1     -33.168  17.620  -3.198  1.00 20.00     0.007 C 
HETATM   10  C8  UNL     1     -33.170  19.131  -3.189  1.00 20.00     0.014 C 
HETATM   11  C9  UNL     1     -33.567  17.034  -1.862  1.00 20.00     0.014 C 
ENDBRANCH   2   9
TORSDOF 1
ENDMDL
MODEL 9
REMARK VINA RESULT:      -4.0     12.518     13.628
REMARK  1 active torsions:
REMARK  status: ('A' for Active; 'I' for Inactive)
REMARK    1  A    between atoms: C2_2  and  C10_10 
ROOT
HETATM    1  C1  UNL     1     -33.822  15.463  -3.468  1.00 20.00    -0.017 C 
HETATM    2  C2  UNL     1     -34.211  16.111  -4.586  1.00 20.00    -0.068 C 
HETATM    3  C3  UNL     1     -34.599  18.427  -3.583  1.00 20.00     0.135 C 
HETATM    4  C4  UNL     1     -34.734  18.181  -2.095  1.00 20.00     0.080 C 
HETATM    5  C5  UNL     1     -33.467  17.393  -1.728  1.00 20.00     0.017 C 
HETATM    6  C6  UNL     1     -32.987  16.621  -2.963  1.00 20.00     0.024 C 
HETATM    7  C7  UNL     1     -33.559  17.416  -4.155  1.00 20.00     0.092 C 
HETATM    8  O11 UNL     1     -35.261  19.262  -4.190  1.00 20.00    -0.297 OA
ENDROOT
BRANCH   2   9
HETATM    9  C10 UNL     1     -35.076  15.719  -5.798  1.00 20.00     0.007 C 
HETATM   10  C8  UNL     1     -34.169  15.451  -6.977  1.00 20.00     0.014 C 
HETATM   11  C9  UNL     1     -35.926  14.520  -5.439  1.00 20.00     0.014 C 
ENDBRANCH   2   9
TORSDOF 1
ENDMDL
