MODEL 1
REMARK VINA RESULT:      -5.3      0.000      0.000
REMARK  1 active torsions:
REMARK  status: ('A' for Active; 'I' for Inactive)
REMARK    1  A    between atoms: C2_2  and  C6_6 
ROOT
HETATM    1  C3  UNL     1     -34.373   6.851   6.630  1.00 20.00     0.003 C 
HETATM    2  C4  UNL     1     -33.621   7.732   5.611  1.00 20.00     0.011 C 
HETATM    3  C5  UNL     1     -34.456   5.368   6.262  1.00 20.00     0.034 C 
HETATM    4  C6  UNL     1     -33.044   6.965   4.404  1.00 20.00     0.039 C 
HETATM    5  C7  UNL     1     -34.848   5.210   4.830  1.00 20.00     0.151 A 
HETATM    6  C8  UNL     1     -34.106   6.059   3.839  1.00 20.00     0.158 A 
HETATM    7  O9  UNL     1     -33.848   4.656   3.970  1.00 20.00    -0.375 OA
ENDROOT
BRANCH   4   8
HETATM    8  C2  UNL     1     -32.466   7.924   3.407  1.00 20.00    -0.030 C 
HETATM    9  C1  UNL     1     -32.164   7.598   2.146  1.00 20.00     0.007 C 
ENDBRANCH   4   8
TORSDOF 1
ENDMDL
MODEL 2
REMARK VINA RESULT:      -4.9      1.770      3.929
REMARK  1 active torsions:
REMARK  status: ('A' for Active; 'I' for Inactive)
REMARK    1  A    between atoms: C2_2  and  C6_6 
ROOT
HETATM    1  C3  UNL     1     -32.859   6.239   2.742  1.00 20.00     0.003 C 
HETATM    2  C4  UNL     1     -33.693   5.895   3.992  1.00 20.00     0.011 C 
HETATM    3  C5  UNL     1     -31.944   7.457   2.893  1.00 20.00     0.034 C 
HETATM    4  C6  UNL     1     -33.442   6.815   5.204  1.00 20.00     0.039 C 
HETATM    5  C7  UNL     1     -32.686   8.586   3.528  1.00 20.00     0.151 A 
HETATM    6  C8  UNL     1     -33.487   8.251   4.753  1.00 20.00     0.158 A 
HETATM    7  O9  UNL     1     -32.245   8.959   4.838  1.00 20.00    -0.375 OA
ENDROOT
BRANCH   4   8
HETATM    8  C2  UNL     1     -34.401   6.493   6.310  1.00 20.00    -0.030 C 
HETATM    9  C1  UNL     1     -34.794   5.253   6.622  1.00 20.00     0.007 C 
ENDBRANCH   4   8
TORSDOF 1
ENDMDL
MODEL 3
REMARK VINA RESULT:      -4.9      1.450      2.185
REMARK  1 active torsions:
REMARK  status: ('A' for Active; 'I' for Inactive)
REMARK    1  A    between atoms: C2_2  and  C6_6 
ROOT
HETATM    1  C3  UNL     1     -34.347   4.765   4.428  1.00 20.00     0.003 C 
HETATM    2  C4  UNL     1     -33.489   5.821   3.701  1.00 20.00     0.011 C 
HETATM    3  C5  UNL     1     -35.055   5.268   5.689  1.00 20.00     0.034 C 
HETATM    4  C6  UNL     1     -33.513   7.221   4.345  1.00 20.00     0.039 C 
HETATM    5  C7  UNL     1     -34.108   6.054   6.535  1.00 20.00     0.151 A 
HETATM    6  C8  UNL     1     -33.284   7.089   5.827  1.00 20.00     0.158 A 
HETATM    7  O9  UNL     1     -34.396   7.451   6.654  1.00 20.00    -0.375 OA
ENDROOT
BRANCH   4   8
HETATM    8  C2  UNL     1     -32.539   8.128   3.655  1.00 20.00    -0.030 C 
HETATM    9  C1  UNL     1     -32.132   7.967   2.392  1.00 20.00     0.007 C 
ENDBRANCH   4   8
TORSDOF 1
ENDMDL
MODEL 4
REMARK VINA RESULT:      -4.8      1.242      3.376
REMARK  1 active torsions:
REMARK  status: ('A' for Active; 'I' for Inactive)
REMARK    1  A    between atoms: C2_2  and  C6_6 
ROOT
HETATM    1  C3  UNL     1     -32.682   8.841   4.924  1.00 20.00     0.003 C 
HETATM    2  C4  UNL     1     -33.594   7.749   5.522  1.00 20.00     0.011 C 
HETATM    3  C5  UNL     1     -32.395   8.692   3.428  1.00 20.00     0.034 C 
HETATM    4  C6  UNL     1     -34.097   6.706   4.504  1.00 20.00     0.039 C 
HETATM    5  C7  UNL     1     -32.037   7.278   3.108  1.00 20.00     0.151 A 
HETATM    6  C8  UNL     1     -32.935   6.218   3.679  1.00 20.00     0.158 A 
HETATM    7  O9  UNL     1     -32.977   6.571   2.292  1.00 20.00    -0.375 OA
ENDROOT
BRANCH   4   8
HETATM    8  C2  UNL     1     -34.848   5.615   5.205  1.00 20.00    -0.030 C 
HETATM    9  C1  UNL     1     -34.624   5.247   6.471  1.00 20.00     0.007 C 
ENDBRANCH   4   8
TORSDOF 1
ENDMDL
MODEL 5
REMARK VINA RESULT:      -4.6      1.326      1.752
REMARK  1 active torsions:
REMARK  status: ('A' for Active; 'I' for Inactive)
REMARK    1  A    between atoms: C2_2  and  C6_6 
ROOT
HETATM    1  C3  UNL     1     -33.674   7.990   5.667  1.00 20.00     0.003 C 
HETATM    2  C4  UNL     1     -33.183   7.600   4.258  1.00 20.00     0.011 C 
HETATM    3  C5  UNL     1     -34.127   6.816   6.539  1.00 20.00     0.034 C 
HETATM    4  C6  UNL     1     -33.194   6.085   3.971  1.00 20.00     0.039 C 
HETATM    5  C7  UNL     1     -35.009   5.900   5.757  1.00 20.00     0.151 A 
HETATM    6  C8  UNL     1     -34.522   5.512   4.391  1.00 20.00     0.158 A 
HETATM    7  O9  UNL     1     -34.475   4.599   5.494  1.00 20.00    -0.375 OA
ENDROOT
BRANCH   4   8
HETATM    8  C2  UNL     1     -32.843   5.824   2.538  1.00 20.00    -0.030 C 
HETATM    9  C1  UNL     1     -32.873   4.615   1.969  1.00 20.00     0.007 C 
ENDBRANCH   4   8
TORSDOF 1
ENDMDL
MODEL 6
REMARK VINA RESULT:      -4.5      1.758      2.766
REMARK  1 active torsions:
REMARK  status: ('A' for Active; 'I' for Inactive)
REMARK    1  A    between atoms: C2_2  and  C6_6 
ROOT
HETATM    1  C3  UNL     1     -34.145   7.321   6.500  1.00 20.00     0.003 C 
HETATM    2  C4  UNL     1     -34.143   6.071   5.595  1.00 20.00     0.011 C 
HETATM    3  C5  UNL     1     -33.808   8.632   5.786  1.00 20.00     0.034 C 
HETATM    4  C6  UNL     1     -33.837   6.354   4.111  1.00 20.00     0.039 C 
HETATM    5  C7  UNL     1     -32.617   8.451   4.904  1.00 20.00     0.151 A 
HETATM    6  C8  UNL     1     -32.624   7.241   4.015  1.00 20.00     0.158 A 
HETATM    7  O9  UNL     1     -32.864   8.555   3.498  1.00 20.00    -0.375 OA
ENDROOT
BRANCH   4   8
HETATM    8  C2  UNL     1     -33.714   5.068   3.350  1.00 20.00    -0.030 C 
HETATM    9  C1  UNL     1     -32.878   4.884   2.324  1.00 20.00     0.007 C 
ENDBRANCH   4   8
TORSDOF 1
ENDMDL
MODEL 7
REMARK VINA RESULT:      -3.9      1.671      3.036
REMARK  1 active torsions:
REMARK  status: ('A' for Active; 'I' for Inactive)
REMARK    1  A    between atoms: C2_2  and  C6_6 
ROOT
HETATM    1  C3  UNL     1     -32.211   8.722   3.712  1.00 20.00     0.003 C 
HETATM    2  C4  UNL     1     -32.524   7.363   3.052  1.00 20.00     0.011 C 
HETATM    3  C5  UNL     1     -32.523   8.797   5.209  1.00 20.00     0.034 C 
HETATM    4  C6  UNL     1     -33.067   6.291   4.017  1.00 20.00     0.039 C 
HETATM    5  C7  UNL     1     -33.871   8.217   5.487  1.00 20.00     0.151 A 
HETATM    6  C8  UNL     1     -34.167   6.889   4.854  1.00 20.00     0.158 A 
HETATM    7  O9  UNL     1     -33.880   7.008   6.251  1.00 20.00    -0.375 OA
ENDROOT
BRANCH   4   8
HETATM    8  C2  UNL     1     -33.476   5.066   3.257  1.00 20.00    -0.030 C 
HETATM    9  C1  UNL     1     -32.921   4.681   2.103  1.00 20.00     0.007 C 
ENDBRANCH   4   8
TORSDOF 1
ENDMDL
MODEL 8
REMARK VINA RESULT:      -3.8     12.253     13.185
REMARK  1 active torsions:
REMARK  status: ('A' for Active; 'I' for Inactive)
REMARK    1  A    between atoms: C2_2  and  C6_6 
ROOT
HETATM    1  C3  UNL     1     -35.046  16.939  -5.633  1.00 20.00     0.003 C 
HETATM    2  C4  UNL     1     -34.338  17.491  -4.379  1.00 20.00     0.011 C 
HETATM    3  C5  UNL     1     -35.186  15.416  -5.675  1.00 20.00     0.034 C 
HETATM    4  C6  UNL     1     -33.918  16.418  -3.355  1.00 20.00     0.039 C 
HETATM    5  C7  UNL     1     -33.894  14.766  -5.301  1.00 20.00     0.151 A 
HETATM    6  C8  UNL     1     -33.214  15.297  -4.072  1.00 20.00     0.158 A 
HETATM    7  O9  UNL     1     -33.900  14.040  -4.068  1.00 20.00    -0.375 OA
ENDROOT
BRANCH   4   8
HETATM    8  C2  UNL     1     -33.114  17.037  -2.252  1.00 20.00    -0.030 C 
HETATM    9  C1  UNL     1     -33.636  17.481  -1.104  1.00 20.00     0.007 C 
ENDBRANCH   4   8
TORSDOF 1
ENDMDL
MODEL 9
REMARK VINA RESULT:      -3.7      9.998     10.706
REMARK  1 active torsions:
REMARK  status: ('A' for Active; 'I' for Inactive)
REMARK    1  A    between atoms: C2_2  and  C6_6 
ROOT
HETATM    1  C3  UNL     1     -42.396  14.662   5.044  1.00 20.00     0.003 C 
HETATM    2  C4  UNL     1     -41.284  13.626   4.783  1.00 20.00     0.011 C 
HETATM    3  C5  UNL     1     -42.898  14.718   6.489  1.00 20.00     0.034 C 
HETATM    4  C6  UNL     1     -40.833  12.840   6.031  1.00 20.00     0.039 C 
HETATM    5  C7  UNL     1     -43.139  13.338   7.007  1.00 20.00     0.151 A 
HETATM    6  C8  UNL     1     -42.049  12.335   6.764  1.00 20.00     0.158 A 
HETATM    7  O9  UNL     1     -42.266  12.909   8.057  1.00 20.00    -0.375 OA
ENDROOT
BRANCH   4   8
HETATM    8  C2  UNL     1     -39.863  11.765   5.647  1.00 20.00    -0.030 C 
HETATM    9  C1  UNL     1     -39.229  11.715   4.471  1.00 20.00     0.007 C 
ENDBRANCH   4   8
TORSDOF 1
ENDMDL
