MODEL 1
REMARK VINA RESULT:      -3.7      0.000      0.000
REMARK  1 active torsions:
REMARK  status: ('A' for Active; 'I' for Inactive)
REMARK    1  A    between atoms: C3_3  and  C9_9 
ROOT
HETATM    1  C1  UNL     1     -33.362  15.274  -4.571  1.00 20.00     0.178 C 
HETATM    2  C2  UNL     1     -34.424  17.307  -5.669  1.00 20.00     0.087 C 
HETATM    3  C3  UNL     1     -33.433  17.156  -3.120  1.00 20.00     0.185 C 
HETATM    4  C4  UNL     1     -34.407  15.765  -5.596  1.00 20.00    -0.018 C 
HETATM    5  C5  UNL     1     -34.032  15.214  -6.985  1.00 20.00     0.018 C 
HETATM    6  C6  UNL     1     -35.803  15.223  -5.225  1.00 20.00     0.018 C 
HETATM    7  O10 UNL     1     -33.630  15.747  -3.252  1.00 20.00    -0.374 OA
HETATM    8  S11 UNL     1     -34.654  18.121  -4.060  1.00 20.00    -0.136 SA
ENDROOT
BRANCH   3   9
HETATM    9  C9  UNL     1     -33.565  17.501  -1.643  1.00 20.00     0.017 C 
HETATM   10  C7  UNL     1     -32.254  18.068  -1.099  1.00 20.00     0.013 C 
HETATM   11  C8  UNL     1     -34.709  18.491  -1.418  1.00 20.00     0.013 C 
ENDBRANCH   3   9
TORSDOF 1
ENDMDL
MODEL 2
REMARK VINA RESULT:      -3.6      1.688      2.413
REMARK  1 active torsions:
REMARK  status: ('A' for Active; 'I' for Inactive)
REMARK    1  A    between atoms: C3_3  and  C9_9 
ROOT
HETATM    1  C1  UNL     1     -35.136  17.188  -6.178  1.00 20.00     0.178 C 
HETATM    2  C2  UNL     1     -35.117  14.715  -5.586  1.00 20.00     0.087 C 
HETATM    3  C3  UNL     1     -34.203  16.776  -4.030  1.00 20.00     0.185 C 
HETATM    4  C4  UNL     1     -35.029  15.750  -6.729  1.00 20.00    -0.018 C 
HETATM    5  C5  UNL     1     -36.198  15.505  -7.700  1.00 20.00     0.018 C 
HETATM    6  C6  UNL     1     -33.709  15.583  -7.511  1.00 20.00     0.018 C 
HETATM    7  O10 UNL     1     -34.091  17.499  -5.258  1.00 20.00    -0.374 OA
HETATM    8  S11 UNL     1     -33.924  14.993  -4.242  1.00 20.00    -0.136 SA
ENDROOT
BRANCH   3   9
HETATM    9  C9  UNL     1     -33.153  17.329  -3.077  1.00 20.00     0.017 C 
HETATM   10  C7  UNL     1     -32.903  18.813  -3.346  1.00 20.00     0.013 C 
HETATM   11  C8  UNL     1     -33.577  17.115  -1.622  1.00 20.00     0.013 C 
ENDBRANCH   3   9
TORSDOF 1
ENDMDL
MODEL 3
REMARK VINA RESULT:      -3.6      1.185      4.454
REMARK  1 active torsions:
REMARK  status: ('A' for Active; 'I' for Inactive)
REMARK    1  A    between atoms: C3_3  and  C9_9 
ROOT
HETATM    1  C1  UNL     1     -33.433  16.551  -2.469  1.00 20.00     0.178 C 
HETATM    2  C2  UNL     1     -35.065  18.499  -2.373  1.00 20.00     0.087 C 
HETATM    3  C3  UNL     1     -34.661  16.806  -4.489  1.00 20.00     0.185 C 
HETATM    4  C4  UNL     1     -33.706  17.954  -1.883  1.00 20.00    -0.018 C 
HETATM    5  C5  UNL     1     -33.748  17.847  -0.348  1.00 20.00     0.018 C 
HETATM    6  C6  UNL     1     -32.564  18.916  -2.268  1.00 20.00     0.018 C 
HETATM    7  O10 UNL     1     -33.386  16.556  -3.894  1.00 20.00    -0.374 OA
HETATM    8  S11 UNL     1     -35.255  18.496  -4.182  1.00 20.00    -0.136 SA
ENDROOT
BRANCH   3   9
HETATM    9  C9  UNL     1     -34.515  16.600  -5.990  1.00 20.00     0.017 C 
HETATM   10  C7  UNL     1     -34.156  15.148  -6.306  1.00 20.00     0.013 C 
HETATM   11  C8  UNL     1     -35.798  17.003  -6.719  1.00 20.00     0.013 C 
ENDBRANCH   3   9
TORSDOF 1
ENDMDL
MODEL 4
REMARK VINA RESULT:      -3.5     11.822     13.642
REMARK  1 active torsions:
REMARK  status: ('A' for Active; 'I' for Inactive)
REMARK    1  A    between atoms: C3_3  and  C9_9 
ROOT
HETATM    1  C1  UNL     1     -41.605  13.970   8.288  1.00 20.00     0.178 C 
HETATM    2  C2  UNL     1     -42.649  14.880   6.155  1.00 20.00     0.087 C 
HETATM    3  C3  UNL     1     -41.049  12.667   6.378  1.00 20.00     0.185 C 
HETATM    4  C4  UNL     1     -42.075  15.238   7.543  1.00 20.00    -0.018 C 
HETATM    5  C5  UNL     1     -43.184  15.913   8.370  1.00 20.00     0.018 C 
HETATM    6  C6  UNL     1     -40.903  16.232   7.406  1.00 20.00     0.018 C 
HETATM    7  O10 UNL     1     -40.579  13.273   7.584  1.00 20.00    -0.374 OA
HETATM    8  S11 UNL     1     -41.525  13.892   5.122  1.00 20.00    -0.136 SA
ENDROOT
BRANCH   3   9
HETATM    9  C9  UNL     1     -39.919  11.810   5.826  1.00 20.00     0.017 C 
HETATM   10  C7  UNL     1     -39.683  12.111   4.346  1.00 20.00     0.013 C 
HETATM   11  C8  UNL     1     -38.634  12.027   6.626  1.00 20.00     0.013 C 
ENDBRANCH   3   9
TORSDOF 1
ENDMDL
MODEL 5
REMARK VINA RESULT:      -3.4      3.010      4.298
REMARK  1 active torsions:
REMARK  status: ('A' for Active; 'I' for Inactive)
REMARK    1  A    between atoms: C3_3  and  C9_9 
ROOT
HETATM    1  C1  UNL     1     -32.454  18.969  -2.300  1.00 20.00     0.178 C 
HETATM    2  C2  UNL     1     -34.660  18.373  -1.184  1.00 20.00     0.087 C 
HETATM    3  C3  UNL     1     -32.387  19.263   0.059  1.00 20.00     0.185 C 
HETATM    4  C4  UNL     1     -33.707  18.069  -2.360  1.00 20.00    -0.018 C 
HETATM    5  C5  UNL     1     -34.452  18.348  -3.678  1.00 20.00     0.018 C 
HETATM    6  C6  UNL     1     -33.288  16.584  -2.348  1.00 20.00     0.018 C 
HETATM    7  O10 UNL     1     -31.704  18.781  -1.101  1.00 20.00    -0.374 OA
HETATM    8  S11 UNL     1     -33.869  18.287   0.451  1.00 20.00    -0.136 SA
ENDROOT
BRANCH   3   9
HETATM    9  C9  UNL     1     -31.417  19.177   1.229  1.00 20.00     0.017 C 
HETATM   10  C7  UNL     1     -32.166  19.237   2.560  1.00 20.00     0.013 C 
HETATM   11  C8  UNL     1     -30.580  17.899   1.146  1.00 20.00     0.013 C 
ENDBRANCH   3   9
TORSDOF 1
ENDMDL
MODEL 6
REMARK VINA RESULT:      -3.3     12.067     12.903
REMARK  1 active torsions:
REMARK  status: ('A' for Active; 'I' for Inactive)
REMARK    1  A    between atoms: C3_3  and  C9_9 
ROOT
HETATM    1  C1  UNL     1     -33.702   7.227   5.351  1.00 20.00     0.178 C 
HETATM    2  C2  UNL     1     -33.506   5.018   4.107  1.00 20.00     0.087 C 
HETATM    3  C3  UNL     1     -32.388   7.410   3.377  1.00 20.00     0.185 C 
HETATM    4  C4  UNL     1     -34.401   5.893   5.010  1.00 20.00    -0.018 C 
HETATM    5  C5  UNL     1     -34.670   5.129   6.319  1.00 20.00     0.018 C 
HETATM    6  C6  UNL     1     -35.757   6.170   4.327  1.00 20.00     0.018 C 
HETATM    7  O10 UNL     1     -33.406   7.999   4.189  1.00 20.00    -0.374 OA
HETATM    8  S11 UNL     1     -32.927   5.857   2.601  1.00 20.00    -0.136 SA
ENDROOT
BRANCH   3   9
HETATM    9  C9  UNL     1     -32.037   8.410   2.285  1.00 20.00     0.017 C 
HETATM   10  C7  UNL     1     -32.073   7.746   0.909  1.00 20.00     0.013 C 
HETATM   11  C8  UNL     1     -32.986   9.609   2.323  1.00 20.00     0.013 C 
ENDBRANCH   3   9
TORSDOF 1
ENDMDL
MODEL 7
REMARK VINA RESULT:      -3.3      1.434      1.599
REMARK  1 active torsions:
REMARK  status: ('A' for Active; 'I' for Inactive)
REMARK    1  A    between atoms: C3_3  and  C9_9 
ROOT
HETATM    1  C1  UNL     1     -33.998  16.313  -4.169  1.00 20.00     0.178 C 
HETATM    2  C2  UNL     1     -33.697  18.728  -4.908  1.00 20.00     0.087 C 
HETATM    3  C3  UNL     1     -32.920  17.640  -2.517  1.00 20.00     0.185 C 
HETATM    4  C4  UNL     1     -34.583  17.467  -5.011  1.00 20.00    -0.018 C 
HETATM    5  C5  UNL     1     -34.634  17.026  -6.486  1.00 20.00     0.018 C 
HETATM    6  C6  UNL     1     -36.023  17.776  -4.551  1.00 20.00     0.018 C 
HETATM    7  O10 UNL     1     -33.906  16.641  -2.784  1.00 20.00    -0.374 OA
HETATM    8  S11 UNL     1     -33.368  19.263  -3.202  1.00 20.00    -0.136 SA
ENDROOT
BRANCH   3   9
HETATM    9  C9  UNL     1     -32.790  17.762  -1.005  1.00 20.00     0.017 C 
HETATM   10  C7  UNL     1     -31.529  18.540  -0.630  1.00 20.00     0.013 C 
HETATM   11  C8  UNL     1     -34.028  18.434  -0.408  1.00 20.00     0.013 C 
ENDBRANCH   3   9
TORSDOF 1
ENDMDL
MODEL 8
REMARK VINA RESULT:      -3.2     12.505     14.546
REMARK  1 active torsions:
REMARK  status: ('A' for Active; 'I' for Inactive)
REMARK    1  A    between atoms: C3_3  and  C9_9 
ROOT
HETATM    1  C1  UNL     1     -40.379  14.412   9.186  1.00 20.00     0.178 C 
HETATM    2  C2  UNL     1     -42.725  15.268   8.703  1.00 20.00     0.087 C 
HETATM    3  C3  UNL     1     -41.418  13.250   7.390  1.00 20.00     0.185 C 
HETATM    4  C4  UNL     1     -41.313  15.642   9.203  1.00 20.00    -0.018 C 
HETATM    5  C5  UNL     1     -41.427  16.154  10.650  1.00 20.00     0.018 C 
HETATM    6  C6  UNL     1     -40.711  16.770   8.339  1.00 20.00     0.018 C 
HETATM    7  O10 UNL     1     -40.223  13.864   7.878  1.00 20.00    -0.374 OA
HETATM    8  S11 UNL     1     -42.743  14.454   7.077  1.00 20.00    -0.136 SA
ENDROOT
BRANCH   3   9
HETATM    9  C9  UNL     1     -41.071  12.550   6.084  1.00 20.00     0.017 C 
HETATM   10  C7  UNL     1     -41.256  13.494   4.896  1.00 20.00     0.013 C 
HETATM   11  C8  UNL     1     -39.639  12.014   6.121  1.00 20.00     0.013 C 
ENDBRANCH   3   9
TORSDOF 1
ENDMDL
MODEL 9
REMARK VINA RESULT:      -3.2     12.715     14.135
REMARK  1 active torsions:
REMARK  status: ('A' for Active; 'I' for Inactive)
REMARK    1  A    between atoms: C3_3  and  C9_9 
ROOT
HETATM    1  C1  UNL     1     -40.063  13.466   7.115  1.00 20.00     0.178 C 
HETATM    2  C2  UNL     1     -41.897  15.110   6.479  1.00 20.00     0.087 C 
HETATM    3  C3  UNL     1     -40.417  15.123   8.784  1.00 20.00     0.185 C 
HETATM    4  C4  UNL     1     -41.392  13.656   6.352  1.00 20.00    -0.018 C 
HETATM    5  C5  UNL     1     -41.152  13.351   4.862  1.00 20.00     0.018 C 
HETATM    6  C6  UNL     1     -42.449  12.666   6.883  1.00 20.00     0.018 C 
HETATM    7  O10 UNL     1     -40.193  13.739   8.510  1.00 20.00    -0.374 OA
HETATM    8  S11 UNL     1     -42.038  15.697   8.194  1.00 20.00    -0.136 SA
ENDROOT
BRANCH   3   9
HETATM    9  C9  UNL     1     -40.350  15.308  10.294  1.00 20.00     0.017 C 
HETATM   10  C7  UNL     1     -41.128  16.551  10.724  1.00 20.00     0.013 C 
HETATM   11  C8  UNL     1     -40.883  14.069  11.015  1.00 20.00     0.013 C 
ENDBRANCH   3   9
TORSDOF 1
ENDMDL
