MODEL 1
REMARK VINA RESULT:      -4.9      0.000      0.000
REMARK  0 active torsions:
REMARK  status: ('A' for Active; 'I' for Inactive)
ROOT
HETATM    1  C1  UNL     1     -33.380   5.439   3.910  1.00 20.00     0.051 C 
HETATM    2  C2  UNL     1     -34.321   4.553   4.626  1.00 20.00     0.058 C 
HETATM    3  C3  UNL     1     -35.443   5.603   4.828  1.00 20.00     0.007 C 
HETATM    4  C4  UNL     1     -32.649   8.966   5.050  1.00 20.00     0.004 C 
HETATM    5  C5  UNL     1     -32.531   8.813   3.507  1.00 20.00     0.036 C 
HETATM    6  C6  UNL     1     -34.946   6.929   4.180  1.00 20.00     0.018 C 
HETATM    7  C7  UNL     1     -32.971   7.545   5.608  1.00 20.00     0.018 C 
HETATM    8  C8  UNL     1     -32.377   7.322   3.394  1.00 20.00     0.169 C 
HETATM    9  C9  UNL     1     -33.427   6.840   4.359  1.00 20.00     0.031 C 
HETATM   10  N10 UNL     1     -32.890   5.242   2.723  1.00 20.00    -0.142 NA
HETATM   11  O11 UNL     1     -32.570   6.561   2.228  1.00 20.00    -0.250 OA
ENDROOT
TORSDOF 0
ENDMDL
MODEL 2
REMARK VINA RESULT:      -4.7     15.909     16.965
REMARK  0 active torsions:
REMARK  status: ('A' for Active; 'I' for Inactive)
ROOT
HETATM    1  C1  UNL     1     -23.411  18.581  11.704  1.00 20.00     0.051 C 
HETATM    2  C2  UNL     1     -24.690  18.191  12.332  1.00 20.00     0.058 C 
HETATM    3  C3  UNL     1     -25.023  17.028  11.365  1.00 20.00     0.007 C 
HETATM    4  C4  UNL     1     -23.005  18.902   7.962  1.00 20.00     0.004 C 
HETATM    5  C5  UNL     1     -21.685  18.465   8.658  1.00 20.00     0.036 C 
HETATM    6  C6  UNL     1     -23.858  16.946  10.334  1.00 20.00     0.018 C 
HETATM    7  C7  UNL     1     -24.048  19.128   9.100  1.00 20.00     0.018 C 
HETATM    8  C8  UNL     1     -21.974  18.884  10.073  1.00 20.00     0.169 C 
HETATM    9  C9  UNL     1     -23.390  18.403  10.243  1.00 20.00     0.031 C 
HETATM   10  N10 UNL     1     -22.250  18.622  12.285  1.00 20.00    -0.142 NA
HETATM   11  O11 UNL     1     -21.293  18.440  11.218  1.00 20.00    -0.250 OA
ENDROOT
TORSDOF 0
ENDMDL
MODEL 3
REMARK VINA RESULT:      -4.3     15.891     16.669
REMARK  0 active torsions:
REMARK  status: ('A' for Active; 'I' for Inactive)
ROOT
HETATM    1  C1  UNL     1     -22.895  18.960   8.424  1.00 20.00     0.051 C 
HETATM    2  C2  UNL     1     -21.599  18.667   7.777  1.00 20.00     0.058 C 
HETATM    3  C3  UNL     1     -21.412  17.250   8.373  1.00 20.00     0.007 C 
HETATM    4  C4  UNL     1     -23.557  18.209  12.066  1.00 20.00     0.004 C 
HETATM    5  C5  UNL     1     -24.846  18.103  11.203  1.00 20.00     0.036 C 
HETATM    6  C6  UNL     1     -22.654  16.967   9.270  1.00 20.00     0.018 C 
HETATM    7  C7  UNL     1     -22.420  18.672  11.102  1.00 20.00     0.018 C 
HETATM    8  C8  UNL     1     -24.427  18.891   9.993  1.00 20.00     0.169 C 
HETATM    9  C9  UNL     1     -23.036  18.366   9.763  1.00 20.00     0.031 C 
HETATM   10  N10 UNL     1     -24.004  19.262   7.820  1.00 20.00    -0.142 NA
HETATM   11  O11 UNL     1     -25.048  18.856   8.734  1.00 20.00    -0.250 OA
ENDROOT
TORSDOF 0
ENDMDL
MODEL 4
REMARK VINA RESULT:      -4.1      0.762      3.177
REMARK  0 active torsions:
REMARK  status: ('A' for Active; 'I' for Inactive)
ROOT
HETATM    1  C1  UNL     1     -32.947   7.573   3.288  1.00 20.00     0.051 C 
HETATM    2  C2  UNL     1     -32.762   8.998   3.633  1.00 20.00     0.058 C 
HETATM    3  C3  UNL     1     -32.675   8.805   5.167  1.00 20.00     0.007 C 
HETATM    4  C4  UNL     1     -35.332   5.326   5.167  1.00 20.00     0.004 C 
HETATM    5  C5  UNL     1     -34.110   4.544   4.606  1.00 20.00     0.036 C 
HETATM    6  C6  UNL     1     -32.824   7.279   5.443  1.00 20.00     0.018 C 
HETATM    7  C7  UNL     1     -35.171   6.799   4.680  1.00 20.00     0.018 C 
HETATM    8  C8  UNL     1     -33.634   5.506   3.553  1.00 20.00     0.169 C 
HETATM    9  C9  UNL     1     -33.718   6.817   4.287  1.00 20.00     0.031 C 
HETATM   10  N10 UNL     1     -32.187   6.866   2.507  1.00 20.00    -0.142 NA
HETATM   11  O11 UNL     1     -32.366   5.502   2.949  1.00 20.00    -0.250 OA
ENDROOT
TORSDOF 0
ENDMDL
MODEL 5
REMARK VINA RESULT:      -4.0     12.253     13.145
REMARK  0 active torsions:
REMARK  status: ('A' for Active; 'I' for Inactive)
ROOT
HETATM    1  C1  UNL     1     -33.646  18.256  -0.157  1.00 20.00     0.051 C 
HETATM    2  C2  UNL     1     -32.457  18.140   0.712  1.00 20.00     0.058 C 
HETATM    3  C3  UNL     1     -31.415  18.587  -0.343  1.00 20.00     0.007 C 
HETATM    4  C4  UNL     1     -33.699  16.963  -3.706  1.00 20.00     0.004 C 
HETATM    5  C5  UNL     1     -34.621  18.200  -3.521  1.00 20.00     0.036 C 
HETATM    6  C6  UNL     1     -32.197  18.891  -1.655  1.00 20.00     0.018 C 
HETATM    7  C7  UNL     1     -33.110  16.639  -2.297  1.00 20.00     0.018 C 
HETATM    8  C8  UNL     1     -34.793  18.188  -2.027  1.00 20.00     0.169 C 
HETATM    9  C9  UNL     1     -33.384  17.926  -1.567  1.00 20.00     0.031 C 
HETATM   10  N10 UNL     1     -34.692  18.994   0.066  1.00 20.00    -0.142 NA
HETATM   11  O11 UNL     1     -35.244  19.263  -1.243  1.00 20.00    -0.250 OA
ENDROOT
TORSDOF 0
ENDMDL
MODEL 6
REMARK VINA RESULT:      -3.8     11.877     13.409
REMARK  0 active torsions:
REMARK  status: ('A' for Active; 'I' for Inactive)
ROOT
HETATM    1  C1  UNL     1     -34.646  14.452  -4.876  1.00 20.00     0.051 C 
HETATM    2  C2  UNL     1     -33.460  14.591  -4.007  1.00 20.00     0.058 C 
HETATM    3  C3  UNL     1     -33.475  16.137  -3.922  1.00 20.00     0.007 C 
HETATM    4  C4  UNL     1     -35.199  16.626  -7.916  1.00 20.00     0.004 C 
HETATM    5  C5  UNL     1     -36.538  16.185  -7.260  1.00 20.00     0.036 C 
HETATM    6  C6  UNL     1     -34.689  16.627  -4.767  1.00 20.00     0.018 C 
HETATM    7  C7  UNL     1     -34.063  15.934  -7.101  1.00 20.00     0.018 C 
HETATM    8  C8  UNL     1     -36.069  15.007  -6.452  1.00 20.00     0.169 C 
HETATM    9  C9  UNL     1     -34.801  15.547  -5.848  1.00 20.00     0.031 C 
HETATM   10  N10 UNL     1     -35.725  13.782  -4.603  1.00 20.00    -0.142 NA
HETATM   11  O11 UNL     1     -36.764  14.414  -5.385  1.00 20.00    -0.250 OA
ENDROOT
TORSDOF 0
ENDMDL
MODEL 7
REMARK VINA RESULT:      -3.8     15.742     16.724
REMARK  0 active torsions:
REMARK  status: ('A' for Active; 'I' for Inactive)
ROOT
HETATM    1  C1  UNL     1     -22.983  18.586   8.924  1.00 20.00     0.051 C 
HETATM    2  C2  UNL     1     -23.918  18.830   7.807  1.00 20.00     0.058 C 
HETATM    3  C3  UNL     1     -25.129  19.260   8.671  1.00 20.00     0.007 C 
HETATM    4  C4  UNL     1     -23.994  16.706  12.041  1.00 20.00     0.004 C 
HETATM    5  C5  UNL     1     -22.907  17.779  12.332  1.00 20.00     0.036 C 
HETATM    6  C6  UNL     1     -24.672  19.192  10.159  1.00 20.00     0.018 C 
HETATM    7  C7  UNL     1     -24.242  16.739  10.501  1.00 20.00     0.018 C 
HETATM    8  C8  UNL     1     -22.365  17.997  10.946  1.00 20.00     0.169 C 
HETATM    9  C9  UNL     1     -23.633  18.066  10.138  1.00 20.00     0.031 C 
HETATM   10  N10 UNL     1     -21.831  19.159   9.102  1.00 20.00    -0.142 NA
HETATM   11  O11 UNL     1     -21.599  19.098  10.527  1.00 20.00    -0.250 OA
ENDROOT
TORSDOF 0
ENDMDL
MODEL 8
REMARK VINA RESULT:      -3.7     12.243     13.187
REMARK  0 active torsions:
REMARK  status: ('A' for Active; 'I' for Inactive)
ROOT
HETATM    1  C1  UNL     1     -34.854  14.946  -4.884  1.00 20.00     0.051 C 
HETATM    2  C2  UNL     1     -35.782  14.405  -5.898  1.00 20.00     0.058 C 
HETATM    3  C3  UNL     1     -35.498  15.465  -6.991  1.00 20.00     0.007 C 
HETATM    4  C4  UNL     1     -34.639  18.635  -4.096  1.00 20.00     0.004 C 
HETATM    5  C5  UNL     1     -33.278  17.912  -3.891  1.00 20.00     0.036 C 
HETATM    6  C6  UNL     1     -34.437  16.446  -6.409  1.00 20.00     0.018 C 
HETATM    7  C7  UNL     1     -35.665  17.531  -4.502  1.00 20.00     0.018 C 
HETATM    8  C8  UNL     1     -33.742  16.486  -3.785  1.00 20.00     0.169 C 
HETATM    9  C9  UNL     1     -34.741  16.413  -4.907  1.00 20.00     0.031 C 
HETATM   10  N10 UNL     1     -33.864  14.312  -4.331  1.00 20.00    -0.142 NA
HETATM   11  O11 UNL     1     -32.935  15.346  -3.934  1.00 20.00    -0.250 OA
ENDROOT
TORSDOF 0
ENDMDL
MODEL 9
REMARK VINA RESULT:      -3.6     12.394     13.978
REMARK  0 active torsions:
REMARK  status: ('A' for Active; 'I' for Inactive)
ROOT
HETATM    1  C1  UNL     1     -36.178  16.410  -6.404  1.00 20.00     0.051 C 
HETATM    2  C2  UNL     1     -36.178  17.597  -7.283  1.00 20.00     0.058 C 
HETATM    3  C3  UNL     1     -34.686  17.523  -7.691  1.00 20.00     0.007 C 
HETATM    4  C4  UNL     1     -33.438  15.748  -3.889  1.00 20.00     0.004 C 
HETATM    5  C5  UNL     1     -34.059  14.432  -4.438  1.00 20.00     0.036 C 
HETATM    6  C6  UNL     1     -34.078  16.284  -6.968  1.00 20.00     0.018 C 
HETATM    7  C7  UNL     1     -34.240  16.917  -4.541  1.00 20.00     0.018 C 
HETATM    8  C8  UNL     1     -35.361  14.953  -4.980  1.00 20.00     0.169 C 
HETATM    9  C9  UNL     1     -34.911  16.204  -5.685  1.00 20.00     0.031 C 
HETATM   10  N10 UNL     1     -36.932  15.360  -6.531  1.00 20.00    -0.142 NA
HETATM   11  O11 UNL     1     -36.192  14.291  -5.899  1.00 20.00    -0.250 OA
ENDROOT
TORSDOF 0
ENDMDL
