MODEL 1
REMARK VINA RESULT:      -2.7      0.000      0.000
REMARK  3 active torsions:
REMARK  status: ('A' for Active; 'I' for Inactive)
REMARK    1  A    between atoms: C1_1  and  C7_7 
REMARK    2  A    between atoms: C1_1  and  N9_9 
REMARK    3  A    between atoms: C7_7  and  C8_8 
ROOT
HETATM    1  C1  UNL     1     -41.173  14.906   8.180  1.00 20.00     0.075 C 
HETATM    2  S10 UNL     1     -41.100  14.453   9.817  1.00 20.00    -0.066 SA
ENDROOT
BRANCH   1   3
HETATM    3  C7  UNL     1     -40.352  14.056   7.189  1.00 20.00     0.077 C 
BRANCH   3   4
HETATM    4  C8  UNL     1     -41.152  13.125   6.230  1.00 20.00    -0.045 C 
HETATM    5  C2  UNL     1     -40.216  11.973   5.808  1.00 20.00     0.015 C 
HETATM    6  C3  UNL     1     -41.624  13.843   4.958  1.00 20.00     0.015 C 
HETATM    7  C4  UNL     1     -42.376  12.510   6.931  1.00 20.00     0.015 C 
ENDBRANCH   3   4
ENDBRANCH   1   3
BRANCH   1   8
HETATM    8  N9  UNL     1     -41.909  15.996   7.698  1.00 20.00    -0.384 N 
HETATM    9  C5  UNL     1     -43.367  16.022   7.578  1.00 20.00     0.149 C 
HETATM   10  C6  UNL     1     -41.263  17.180   7.121  1.00 20.00     0.149 C 
ENDBRANCH   1   8
TORSDOF 3
ENDMDL
MODEL 2
REMARK VINA RESULT:      -2.7     13.050     14.067
REMARK  3 active torsions:
REMARK  status: ('A' for Active; 'I' for Inactive)
REMARK    1  A    between atoms: C1_1  and  C7_7 
REMARK    2  A    between atoms: C1_1  and  N9_9 
REMARK    3  A    between atoms: C7_7  and  C8_8 
ROOT
HETATM    1  C1  UNL     1     -34.913  16.750  -5.341  1.00 20.00     0.075 C 
HETATM    2  S10 UNL     1     -34.601  17.912  -6.542  1.00 20.00    -0.066 SA
ENDROOT
BRANCH   1   3
HETATM    3  C7  UNL     1     -33.888  16.647  -4.193  1.00 20.00     0.077 C 
BRANCH   3   4
HETATM    4  C8  UNL     1     -33.935  17.762  -3.107  1.00 20.00    -0.045 C 
HETATM    5  C2  UNL     1     -33.567  17.114  -1.755  1.00 20.00     0.015 C 
HETATM    6  C3  UNL     1     -35.324  18.399  -2.965  1.00 20.00     0.015 C 
HETATM    7  C4  UNL     1     -32.911  18.874  -3.393  1.00 20.00     0.015 C 
ENDBRANCH   3   4
ENDBRANCH   1   3
BRANCH   1   8
HETATM    8  N9  UNL     1     -36.017  15.887  -5.349  1.00 20.00    -0.384 N 
HETATM    9  C5  UNL     1     -35.926  14.429  -5.425  1.00 20.00     0.149 C 
HETATM   10  C6  UNL     1     -37.395  16.383  -5.431  1.00 20.00     0.149 C 
ENDBRANCH   1   8
TORSDOF 3
ENDMDL
MODEL 3
REMARK VINA RESULT:      -2.6      1.748      2.565
REMARK  3 active torsions:
REMARK  status: ('A' for Active; 'I' for Inactive)
REMARK    1  A    between atoms: C1_1  and  C7_7 
REMARK    2  A    between atoms: C1_1  and  N9_9 
REMARK    3  A    between atoms: C7_7  and  C8_8 
ROOT
HETATM    1  C1  UNL     1     -41.633  14.749   8.207  1.00 20.00     0.075 C 
HETATM    2  S10 UNL     1     -42.595  15.994   7.564  1.00 20.00    -0.066 SA
ENDROOT
BRANCH   1   3
HETATM    3  C7  UNL     1     -40.611  14.099   7.251  1.00 20.00     0.077 C 
BRANCH   3   4
HETATM    4  C8  UNL     1     -41.154  13.020   6.269  1.00 20.00    -0.045 C 
HETATM    5  C2  UNL     1     -41.510  13.730   4.945  1.00 20.00     0.015 C 
HETATM    6  C3  UNL     1     -42.420  12.323   6.788  1.00 20.00     0.015 C 
HETATM    7  C4  UNL     1     -40.094  11.949   5.962  1.00 20.00     0.015 C 
ENDBRANCH   3   4
ENDBRANCH   1   3
BRANCH   1   8
HETATM    8  N9  UNL     1     -41.729  14.280   9.523  1.00 20.00    -0.384 N 
HETATM    9  C5  UNL     1     -42.967  13.804  10.142  1.00 20.00     0.149 C 
HETATM   10  C6  UNL     1     -40.609  14.362  10.467  1.00 20.00     0.149 C 
ENDBRANCH   1   8
TORSDOF 3
ENDMDL
MODEL 4
REMARK VINA RESULT:      -2.6     12.948     14.194
REMARK  3 active torsions:
REMARK  status: ('A' for Active; 'I' for Inactive)
REMARK    1  A    between atoms: C1_1  and  C7_7 
REMARK    2  A    between atoms: C1_1  and  N9_9 
REMARK    3  A    between atoms: C7_7  and  C8_8 
ROOT
HETATM    1  C1  UNL     1     -35.536  16.782  -5.195  1.00 20.00     0.075 C 
HETATM    2  S10 UNL     1     -37.145  17.326  -5.124  1.00 20.00    -0.066 SA
ENDROOT
BRANCH   1   3
HETATM    3  C7  UNL     1     -34.438  17.821  -4.884  1.00 20.00     0.077 C 
BRANCH   3   4
HETATM    4  C8  UNL     1     -33.968  17.926  -3.404  1.00 20.00    -0.045 C 
HETATM    5  C2  UNL     1     -32.818  18.954  -3.350  1.00 20.00     0.015 C 
HETATM    6  C3  UNL     1     -33.442  16.595  -2.849  1.00 20.00     0.015 C 
HETATM    7  C4  UNL     1     -35.097  18.429  -2.486  1.00 20.00     0.015 C 
ENDBRANCH   3   4
ENDBRANCH   1   3
BRANCH   1   8
HETATM    8  N9  UNL     1     -35.162  15.475  -5.531  1.00 20.00    -0.384 N 
HETATM    9  C5  UNL     1     -33.985  15.131  -6.330  1.00 20.00     0.149 C 
HETATM   10  C6  UNL     1     -36.011  14.317  -5.231  1.00 20.00     0.149 C 
ENDBRANCH   1   8
TORSDOF 3
ENDMDL
MODEL 5
REMARK VINA RESULT:      -2.6     12.998     14.042
REMARK  3 active torsions:
REMARK  status: ('A' for Active; 'I' for Inactive)
REMARK    1  A    between atoms: C1_1  and  C7_7 
REMARK    2  A    between atoms: C1_1  and  N9_9 
REMARK    3  A    between atoms: C7_7  and  C8_8 
ROOT
HETATM    1  C1  UNL     1     -34.900  16.808  -5.299  1.00 20.00     0.075 C 
HETATM    2  S10 UNL     1     -34.615  18.007  -6.470  1.00 20.00    -0.066 SA
ENDROOT
BRANCH   1   3
HETATM    3  C7  UNL     1     -33.857  16.682  -4.168  1.00 20.00     0.077 C 
BRANCH   3   4
HETATM    4  C8  UNL     1     -33.924  17.741  -3.029  1.00 20.00    -0.045 C 
HETATM    5  C2  UNL     1     -32.894  18.844  -3.355  1.00 20.00     0.015 C 
HETATM    6  C3  UNL     1     -33.576  17.160  -1.652  1.00 20.00     0.015 C 
HETATM    7  C4  UNL     1     -35.313  18.398  -2.949  1.00 20.00     0.015 C 
ENDBRANCH   3   4
ENDBRANCH   1   3
BRANCH   1   8
HETATM    8  N9  UNL     1     -35.996  15.936  -5.316  1.00 20.00    -0.384 N 
HETATM    9  C5  UNL     1     -35.892  14.480  -5.413  1.00 20.00     0.149 C 
HETATM   10  C6  UNL     1     -37.379  16.421  -5.389  1.00 20.00     0.149 C 
ENDBRANCH   1   8
TORSDOF 3
ENDMDL
MODEL 6
REMARK VINA RESULT:      -2.6     13.744     14.514
REMARK  3 active torsions:
REMARK  status: ('A' for Active; 'I' for Inactive)
REMARK    1  A    between atoms: C1_1  and  C7_7 
REMARK    2  A    between atoms: C1_1  and  N9_9 
REMARK    3  A    between atoms: C7_7  and  C8_8 
ROOT
HETATM    1  C1  UNL     1     -34.421  17.691  -4.986  1.00 20.00     0.075 C 
HETATM    2  S10 UNL     1     -34.255  18.783  -6.278  1.00 20.00    -0.066 SA
ENDROOT
BRANCH   1   3
HETATM    3  C7  UNL     1     -35.595  16.693  -5.069  1.00 20.00     0.077 C 
BRANCH   3   4
HETATM    4  C8  UNL     1     -35.414  15.472  -6.017  1.00 20.00    -0.045 C 
HETATM    5  C2  UNL     1     -36.003  14.235  -5.306  1.00 20.00     0.015 C 
HETATM    6  C3  UNL     1     -33.942  15.178  -6.337  1.00 20.00     0.015 C 
HETATM    7  C4  UNL     1     -36.176  15.665  -7.340  1.00 20.00     0.015 C 
ENDBRANCH   3   4
ENDBRANCH   1   3
BRANCH   1   8
HETATM    8  N9  UNL     1     -33.579  17.662  -3.867  1.00 20.00    -0.384 N 
HETATM    9  C5  UNL     1     -33.372  16.489  -3.018  1.00 20.00     0.149 C 
HETATM   10  C6  UNL     1     -32.928  18.870  -3.348  1.00 20.00     0.149 C 
ENDBRANCH   1   8
TORSDOF 3
ENDMDL
MODEL 7
REMARK VINA RESULT:      -2.6     12.525     13.571
REMARK  3 active torsions:
REMARK  status: ('A' for Active; 'I' for Inactive)
REMARK    1  A    between atoms: C1_1  and  C7_7 
REMARK    2  A    between atoms: C1_1  and  N9_9 
REMARK    3  A    between atoms: C7_7  and  C8_8 
ROOT
HETATM    1  C1  UNL     1     -35.148  18.205  -4.337  1.00 20.00     0.075 C 
HETATM    2  S10 UNL     1     -34.114  19.081  -5.364  1.00 20.00    -0.066 SA
ENDROOT
BRANCH   1   3
HETATM    3  C7  UNL     1     -34.988  18.448  -2.821  1.00 20.00     0.077 C 
BRANCH   3   4
HETATM    4  C8  UNL     1     -33.692  17.902  -2.155  1.00 20.00    -0.045 C 
HETATM    5  C2  UNL     1     -33.988  17.699  -0.653  1.00 20.00     0.015 C 
HETATM    6  C3  UNL     1     -32.505  18.867  -2.278  1.00 20.00     0.015 C 
HETATM    7  C4  UNL     1     -33.283  16.541  -2.746  1.00 20.00     0.015 C 
ENDBRANCH   3   4
ENDBRANCH   1   3
BRANCH   1   8
HETATM    8  N9  UNL     1     -36.102  17.282  -4.782  1.00 20.00    -0.384 N 
HETATM    9  C5  UNL     1     -35.782  16.012  -5.436  1.00 20.00     0.149 C 
HETATM   10  C6  UNL     1     -37.539  17.574  -4.767  1.00 20.00     0.149 C 
ENDBRANCH   1   8
TORSDOF 3
ENDMDL
MODEL 8
REMARK VINA RESULT:      -2.5     21.321     22.717
REMARK  3 active torsions:
REMARK  status: ('A' for Active; 'I' for Inactive)
REMARK    1  A    between atoms: C1_1  and  C7_7 
REMARK    2  A    between atoms: C1_1  and  N9_9 
REMARK    3  A    between atoms: C7_7  and  C8_8 
ROOT
HETATM    1  C1  UNL     1     -26.629  -1.700  10.956  1.00 20.00     0.075 C 
HETATM    2  S10 UNL     1     -27.099  -0.364  11.897  1.00 20.00    -0.066 SA
ENDROOT
BRANCH   1   3
HETATM    3  C7  UNL     1     -27.724  -2.358  10.091  1.00 20.00     0.077 C 
BRANCH   3   4
HETATM    4  C8  UNL     1     -28.728  -3.297  10.822  1.00 20.00    -0.045 C 
HETATM    5  C2  UNL     1     -29.222  -4.342   9.799  1.00 20.00     0.015 C 
HETATM    6  C3  UNL     1     -29.954  -2.552  11.368  1.00 20.00     0.015 C 
HETATM    7  C4  UNL     1     -28.055  -4.051  11.982  1.00 20.00     0.015 C 
ENDBRANCH   3   4
ENDBRANCH   1   3
BRANCH   1   8
HETATM    8  N9  UNL     1     -25.335  -2.235  10.940  1.00 20.00    -0.384 N 
HETATM    9  C5  UNL     1     -24.266  -1.841  11.860  1.00 20.00     0.149 C 
HETATM   10  C6  UNL     1     -24.880  -3.150   9.888  1.00 20.00     0.149 C 
ENDBRANCH   1   8
TORSDOF 3
ENDMDL
MODEL 9
REMARK VINA RESULT:      -2.5     13.060     13.996
REMARK  3 active torsions:
REMARK  status: ('A' for Active; 'I' for Inactive)
REMARK    1  A    between atoms: C1_1  and  C7_7 
REMARK    2  A    between atoms: C1_1  and  N9_9 
REMARK    3  A    between atoms: C7_7  and  C8_8 
ROOT
HETATM    1  C1  UNL     1     -34.307  17.453  -4.796  1.00 20.00     0.075 C 
HETATM    2  S10 UNL     1     -34.303  18.821  -5.806  1.00 20.00    -0.066 SA
ENDROOT
BRANCH   1   3
HETATM    3  C7  UNL     1     -34.351  16.077  -5.493  1.00 20.00     0.077 C 
BRANCH   3   4
HETATM    4  C8  UNL     1     -35.760  15.494  -5.809  1.00 20.00    -0.045 C 
HETATM    5  C2  UNL     1     -35.841  15.267  -7.333  1.00 20.00     0.015 C 
HETATM    6  C3  UNL     1     -36.901  16.440  -5.409  1.00 20.00     0.015 C 
HETATM    7  C4  UNL     1     -35.979  14.138  -5.115  1.00 20.00     0.015 C 
ENDBRANCH   3   4
ENDBRANCH   1   3
BRANCH   1   8
HETATM    8  N9  UNL     1     -34.293  17.509  -3.396  1.00 20.00    -0.384 N 
HETATM    9  C5  UNL     1     -35.012  18.504  -2.601  1.00 20.00     0.149 C 
HETATM   10  C6  UNL     1     -33.421  16.648  -2.589  1.00 20.00     0.149 C 
ENDBRANCH   1   8
TORSDOF 3
ENDMDL
