MODEL 1
REMARK VINA RESULT:      -4.8      0.000      0.000
REMARK  0 active torsions:
REMARK  status: ('A' for Active; 'I' for Inactive)
ROOT
HETATM    1  C1  UNL     1     -34.410   5.627   4.994  1.00 20.00     0.218 C 
HETATM    2  C2  UNL     1     -34.326   6.434   6.272  1.00 20.00     0.105 C 
HETATM    3  C3  UNL     1     -33.821   7.818   5.838  1.00 20.00     0.040 C 
HETATM    4  C4  UNL     1     -32.969   8.741   3.557  1.00 20.00     0.033 A 
HETATM    5  C5  UNL     1     -31.810   8.028   4.190  1.00 20.00     0.033 A 
HETATM    6  C6  UNL     1     -33.220   7.579   4.482  1.00 20.00     0.033 A 
HETATM    7  N7  UNL     1     -33.718   6.328   4.017  1.00 20.00    -0.352 N 
HETATM    8  O8  UNL     1     -34.959   4.542   4.879  1.00 20.00    -0.274 OA
HETATM    9  H17 UNL     1     -33.581   5.986   3.073  1.00 20.00     0.163 HD
ENDROOT
TORSDOF 0
ENDMDL
MODEL 2
REMARK VINA RESULT:      -4.8      2.005      3.272
REMARK  0 active torsions:
REMARK  status: ('A' for Active; 'I' for Inactive)
ROOT
HETATM    1  C1  UNL     1     -32.546   7.609   3.717  1.00 20.00     0.218 C 
HETATM    2  C2  UNL     1     -33.089   8.403   4.887  1.00 20.00     0.105 C 
HETATM    3  C3  UNL     1     -33.838   7.379   5.751  1.00 20.00     0.040 C 
HETATM    4  C4  UNL     1     -34.430   4.870   5.386  1.00 20.00     0.033 A 
HETATM    5  C5  UNL     1     -35.466   5.666   4.648  1.00 20.00     0.033 A 
HETATM    6  C6  UNL     1     -34.076   6.222   4.823  1.00 20.00     0.033 A 
HETATM    7  N7  UNL     1     -33.189   6.380   3.720  1.00 20.00    -0.352 N 
HETATM    8  O8  UNL     1     -31.724   8.014   2.910  1.00 20.00    -0.274 OA
HETATM    9  H17 UNL     1     -33.042   5.670   3.012  1.00 20.00     0.163 HD
ENDROOT
TORSDOF 0
ENDMDL
MODEL 3
REMARK VINA RESULT:      -4.7      2.287      3.548
REMARK  0 active torsions:
REMARK  status: ('A' for Active; 'I' for Inactive)
ROOT
HETATM    1  C1  UNL     1     -32.692   8.179   4.531  1.00 20.00     0.218 C 
HETATM    2  C2  UNL     1     -32.212   7.268   3.421  1.00 20.00     0.105 C 
HETATM    3  C3  UNL     1     -33.315   6.211   3.266  1.00 20.00     0.040 C 
HETATM    4  C4  UNL     1     -35.467   5.704   4.642  1.00 20.00     0.033 A 
HETATM    5  C5  UNL     1     -34.329   5.051   5.371  1.00 20.00     0.033 A 
HETATM    6  C6  UNL     1     -34.084   6.295   4.554  1.00 20.00     0.033 A 
HETATM    7  N7  UNL     1     -33.745   7.536   5.166  1.00 20.00    -0.352 N 
HETATM    8  O8  UNL     1     -32.201   9.258   4.820  1.00 20.00    -0.274 OA
HETATM    9  H17 UNL     1     -34.222   7.910   5.978  1.00 20.00     0.163 HD
ENDROOT
TORSDOF 0
ENDMDL
MODEL 4
REMARK VINA RESULT:      -4.3     15.431     16.207
REMARK  0 active torsions:
REMARK  status: ('A' for Active; 'I' for Inactive)
ROOT
HETATM    1  C1  UNL     1     -22.215  17.486   8.340  1.00 20.00     0.218 C 
HETATM    2  C2  UNL     1     -23.069  18.736   8.316  1.00 20.00     0.105 C 
HETATM    3  C3  UNL     1     -23.511  18.947   9.771  1.00 20.00     0.040 C 
HETATM    4  C4  UNL     1     -23.235  17.498  11.918  1.00 20.00     0.033 A 
HETATM    5  C5  UNL     1     -24.414  16.943  11.175  1.00 20.00     0.033 A 
HETATM    6  C6  UNL     1     -23.294  17.607  10.416  1.00 20.00     0.033 A 
HETATM    7  N7  UNL     1     -22.426  16.866   9.563  1.00 20.00    -0.352 N 
HETATM    8  O8  UNL     1     -21.509  17.096   7.424  1.00 20.00    -0.274 OA
HETATM    9  H17 UNL     1     -22.006  15.981   9.822  1.00 20.00     0.163 HD
ENDROOT
TORSDOF 0
ENDMDL
MODEL 5
REMARK VINA RESULT:      -4.3      1.189      1.965
REMARK  0 active torsions:
REMARK  status: ('A' for Active; 'I' for Inactive)
ROOT
HETATM    1  C1  UNL     1     -34.149   5.455   4.315  1.00 20.00     0.218 C 
HETATM    2  C2  UNL     1     -33.380   5.350   3.015  1.00 20.00     0.105 C 
HETATM    3  C3  UNL     1     -32.397   6.529   3.037  1.00 20.00     0.040 C 
HETATM    4  C4  UNL     1     -32.103   8.541   4.663  1.00 20.00     0.033 A 
HETATM    5  C5  UNL     1     -33.212   8.910   3.722  1.00 20.00     0.033 A 
HETATM    6  C6  UNL     1     -32.968   7.462   4.066  1.00 20.00     0.033 A 
HETATM    7  N7  UNL     1     -33.896   6.712   4.844  1.00 20.00    -0.352 N 
HETATM    8  O8  UNL     1     -34.883   4.592   4.773  1.00 20.00    -0.274 OA
HETATM    9  H17 UNL     1     -34.326   7.059   5.694  1.00 20.00     0.163 HD
ENDROOT
TORSDOF 0
ENDMDL
MODEL 6
REMARK VINA RESULT:      -4.1      1.237      1.803
REMARK  0 active torsions:
REMARK  status: ('A' for Active; 'I' for Inactive)
ROOT
HETATM    1  C1  UNL     1     -34.457   5.916   5.840  1.00 20.00     0.218 C 
HETATM    2  C2  UNL     1     -34.560   5.389   4.424  1.00 20.00     0.105 C 
HETATM    3  C3  UNL     1     -33.503   6.168   3.630  1.00 20.00     0.040 C 
HETATM    4  C4  UNL     1     -31.958   8.170   4.254  1.00 20.00     0.033 A 
HETATM    5  C5  UNL     1     -33.295   8.754   3.900  1.00 20.00     0.033 A 
HETATM    6  C6  UNL     1     -33.213   7.368   4.487  1.00 20.00     0.033 A 
HETATM    7  N7  UNL     1     -33.701   7.078   5.793  1.00 20.00    -0.352 N 
HETATM    8  O8  UNL     1     -34.985   5.415   6.820  1.00 20.00    -0.274 OA
HETATM    9  H17 UNL     1     -33.515   7.659   6.603  1.00 20.00     0.163 HD
ENDROOT
TORSDOF 0
ENDMDL
MODEL 7
REMARK VINA RESULT:      -4.0      1.834      2.270
REMARK  0 active torsions:
REMARK  status: ('A' for Active; 'I' for Inactive)
ROOT
HETATM    1  C1  UNL     1     -33.324   5.382   3.342  1.00 20.00     0.218 C 
HETATM    2  C2  UNL     1     -34.322   4.702   4.254  1.00 20.00     0.105 C 
HETATM    3  C3  UNL     1     -34.874   5.822   5.148  1.00 20.00     0.040 C 
HETATM    4  C4  UNL     1     -34.219   8.327   5.430  1.00 20.00     0.033 A 
HETATM    5  C5  UNL     1     -33.252   7.535   6.262  1.00 20.00     0.033 A 
HETATM    6  C6  UNL     1     -33.857   6.922   5.024  1.00 20.00     0.033 A 
HETATM    7  N7  UNL     1     -33.073   6.640   3.869  1.00 20.00    -0.352 N 
HETATM    8  O8  UNL     1     -32.816   4.879   2.351  1.00 20.00    -0.274 OA
HETATM    9  H17 UNL     1     -32.403   7.290   3.473  1.00 20.00     0.163 HD
ENDROOT
TORSDOF 0
ENDMDL
MODEL 8
REMARK VINA RESULT:      -3.9     15.313     16.002
REMARK  0 active torsions:
REMARK  status: ('A' for Active; 'I' for Inactive)
ROOT
HETATM    1  C1  UNL     1     -23.958  16.990  10.780  1.00 20.00     0.218 C 
HETATM    2  C2  UNL     1     -24.608  18.341  10.570  1.00 20.00     0.105 C 
HETATM    3  C3  UNL     1     -23.904  18.937   9.343  1.00 20.00     0.040 C 
HETATM    4  C4  UNL     1     -21.856  18.151   7.939  1.00 20.00     0.033 A 
HETATM    5  C5  UNL     1     -21.304  18.850   9.147  1.00 20.00     0.033 A 
HETATM    6  C6  UNL     1     -22.633  18.143   9.230  1.00 20.00     0.033 A 
HETATM    7  N7  UNL     1     -22.806  16.962  10.008  1.00 20.00    -0.352 N 
HETATM    8  O8  UNL     1     -24.370  16.116  11.527  1.00 20.00    -0.274 OA
HETATM    9  H17 UNL     1     -22.156  16.184   9.999  1.00 20.00     0.163 HD
ENDROOT
TORSDOF 0
ENDMDL
MODEL 9
REMARK VINA RESULT:      -3.8     15.457     16.274
REMARK  0 active torsions:
REMARK  status: ('A' for Active; 'I' for Inactive)
ROOT
HETATM    1  C1  UNL     1     -23.901  18.909   8.729  1.00 20.00     0.218 C 
HETATM    2  C2  UNL     1     -22.673  19.142   9.582  1.00 20.00     0.105 C 
HETATM    3  C3  UNL     1     -22.979  18.453  10.920  1.00 20.00     0.040 C 
HETATM    4  C4  UNL     1     -25.128  17.322  11.862  1.00 20.00     0.033 A 
HETATM    5  C5  UNL     1     -25.290  18.799  12.080  1.00 20.00     0.033 A 
HETATM    6  C6  UNL     1     -24.473  18.296  10.916  1.00 20.00     0.033 A 
HETATM    7  N7  UNL     1     -24.909  18.460   9.570  1.00 20.00    -0.352 N 
HETATM    8  O8  UNL     1     -23.978  19.121   7.528  1.00 20.00    -0.274 OA
HETATM    9  H17 UNL     1     -25.855  18.270   9.259  1.00 20.00     0.163 HD
ENDROOT
TORSDOF 0
ENDMDL
