MODEL 1
REMARK VINA RESULT:      -5.3      0.000      0.000
REMARK  1 active torsions:
REMARK  status: ('A' for Active; 'I' for Inactive)
REMARK    1  A    between atoms: C7_7  and  C10_10 
ROOT
HETATM    1  C1  UNL     1     -33.844   5.020   5.984  1.00 20.00    -0.018 C 
HETATM    2  C2  UNL     1     -33.919   6.335   6.251  1.00 20.00    -0.024 C 
HETATM    3  C3  UNL     1     -33.628   5.461   3.654  1.00 20.00     0.139 C 
HETATM    4  C4  UNL     1     -35.626   5.860   4.764  1.00 20.00     0.025 C 
HETATM    5  C5  UNL     1     -34.538   4.784   4.672  1.00 20.00     0.078 C 
HETATM    6  C6  UNL     1     -34.642   6.995   5.091  1.00 20.00     0.020 C 
HETATM    7  C7  UNL     1     -33.747   6.983   3.817  1.00 20.00     0.067 C 
HETATM    8  O11 UNL     1     -32.887   4.884   2.873  1.00 20.00    -0.297 OA
ENDROOT
BRANCH   7   9
HETATM    9  C10 UNL     1     -32.407   7.679   3.962  1.00 20.00    -0.011 C 
HETATM   10  C8  UNL     1     -31.857   8.096   2.596  1.00 20.00     0.010 C 
HETATM   11  C9  UNL     1     -32.519   8.898   4.880  1.00 20.00     0.010 C 
ENDBRANCH   7   9
TORSDOF 1
ENDMDL
MODEL 2
REMARK VINA RESULT:      -4.1      1.680      2.557
REMARK  1 active torsions:
REMARK  status: ('A' for Active; 'I' for Inactive)
REMARK    1  A    between atoms: C7_7  and  C10_10 
ROOT
HETATM    1  C1  UNL     1     -35.781   5.853   4.522  1.00 20.00    -0.018 C 
HETATM    2  C2  UNL     1     -34.966   5.876   3.454  1.00 20.00    -0.024 C 
HETATM    3  C3  UNL     1     -34.050   6.710   5.916  1.00 20.00     0.139 C 
HETATM    4  C4  UNL     1     -33.932   4.560   5.051  1.00 20.00     0.025 C 
HETATM    5  C5  UNL     1     -34.947   5.493   5.720  1.00 20.00     0.078 C 
HETATM    6  C6  UNL     1     -33.564   5.560   3.943  1.00 20.00     0.020 C 
HETATM    7  C7  UNL     1     -33.006   6.743   4.789  1.00 20.00     0.067 C 
HETATM    8  O11 UNL     1     -34.175   7.548   6.795  1.00 20.00    -0.297 OA
ENDROOT
BRANCH   7   9
HETATM    9  C10 UNL     1     -32.938   8.076   4.071  1.00 20.00    -0.011 C 
HETATM   10  C8  UNL     1     -32.189   9.113   4.912  1.00 20.00     0.010 C 
HETATM   11  C9  UNL     1     -32.273   7.927   2.701  1.00 20.00     0.010 C 
ENDBRANCH   7   9
TORSDOF 1
ENDMDL
MODEL 3
REMARK VINA RESULT:      -3.8      9.776     10.754
REMARK  1 active torsions:
REMARK  status: ('A' for Active; 'I' for Inactive)
REMARK    1  A    between atoms: C7_7  and  C10_10 
ROOT
HETATM    1  C1  UNL     1     -43.417  13.240   6.337  1.00 20.00    -0.018 C 
HETATM    2  C2  UNL     1     -42.493  12.768   7.191  1.00 20.00    -0.024 C 
HETATM    3  C3  UNL     1     -41.719  14.052   4.877  1.00 20.00     0.139 C 
HETATM    4  C4  UNL     1     -42.083  15.032   6.949  1.00 20.00     0.025 C 
HETATM    5  C5  UNL     1     -42.882  14.515   5.748  1.00 20.00     0.078 C 
HETATM    6  C6  UNL     1     -41.310  13.719   7.151  1.00 20.00     0.020 C 
HETATM    7  C7  UNL     1     -40.567  13.603   5.788  1.00 20.00     0.067 C 
HETATM    8  O11 UNL     1     -41.726  13.998   3.658  1.00 20.00    -0.297 OA
ENDROOT
BRANCH   7   9
HETATM    9  C10 UNL     1     -40.040  12.221   5.454  1.00 20.00    -0.011 C 
HETATM   10  C8  UNL     1     -39.398  12.201   4.064  1.00 20.00     0.010 C 
HETATM   11  C9  UNL     1     -39.034  11.749   6.507  1.00 20.00     0.010 C 
ENDBRANCH   7   9
TORSDOF 1
ENDMDL
MODEL 4
REMARK VINA RESULT:      -3.7     12.337     13.681
REMARK  1 active torsions:
REMARK  status: ('A' for Active; 'I' for Inactive)
REMARK    1  A    between atoms: C7_7  and  C10_10 
ROOT
HETATM    1  C1  UNL     1     -36.566  15.474  -5.739  1.00 20.00    -0.018 C 
HETATM    2  C2  UNL     1     -36.265  16.784  -5.729  1.00 20.00    -0.024 C 
HETATM    3  C3  UNL     1     -34.448  14.935  -4.794  1.00 20.00     0.139 C 
HETATM    4  C4  UNL     1     -34.618  15.731  -6.967  1.00 20.00     0.025 C 
HETATM    5  C5  UNL     1     -35.300  14.720  -6.039  1.00 20.00     0.078 C 
HETATM    6  C6  UNL     1     -34.776  16.910  -5.993  1.00 20.00     0.020 C 
HETATM    7  C7  UNL     1     -33.962  16.392  -4.771  1.00 20.00     0.067 C 
HETATM    8  O11 UNL     1     -34.231  14.098  -3.931  1.00 20.00    -0.297 OA
ENDROOT
BRANCH   7   9
HETATM    9  C10 UNL     1     -34.245  17.099  -3.459  1.00 20.00    -0.011 C 
HETATM   10  C8  UNL     1     -33.224  16.700  -2.391  1.00 20.00     0.010 C 
HETATM   11  C9  UNL     1     -34.248  18.618  -3.645  1.00 20.00     0.010 C 
ENDBRANCH   7   9
TORSDOF 1
ENDMDL
MODEL 5
REMARK VINA RESULT:      -3.7      1.245      1.876
REMARK  1 active torsions:
REMARK  status: ('A' for Active; 'I' for Inactive)
REMARK    1  A    between atoms: C7_7  and  C10_10 
ROOT
HETATM    1  C1  UNL     1     -33.435   6.126   6.600  1.00 20.00    -0.018 C 
HETATM    2  C2  UNL     1     -33.218   7.175   5.788  1.00 20.00    -0.024 C 
HETATM    3  C3  UNL     1     -34.190   4.806   4.768  1.00 20.00     0.139 C 
HETATM    4  C4  UNL     1     -35.445   6.594   5.548  1.00 20.00     0.025 C 
HETATM    5  C5  UNL     1     -34.650   5.402   6.092  1.00 20.00     0.078 C 
HETATM    6  C6  UNL     1     -34.280   7.137   4.704  1.00 20.00     0.020 C 
HETATM    7  C7  UNL     1     -34.031   5.938   3.742  1.00 20.00     0.067 C 
HETATM    8  O11 UNL     1     -33.938   3.627   4.572  1.00 20.00    -0.297 OA
ENDROOT
BRANCH   7   9
HETATM    9  C10 UNL     1     -32.684   5.935   3.047  1.00 20.00    -0.011 C 
HETATM   10  C8  UNL     1     -32.674   4.950   1.875  1.00 20.00     0.010 C 
HETATM   11  C9  UNL     1     -32.316   7.339   2.559  1.00 20.00     0.010 C 
ENDBRANCH   7   9
TORSDOF 1
ENDMDL
MODEL 6
REMARK VINA RESULT:      -3.6     12.585     14.687
REMARK  1 active torsions:
REMARK  status: ('A' for Active; 'I' for Inactive)
REMARK    1  A    between atoms: C7_7  and  C10_10 
ROOT
HETATM    1  C1  UNL     1     -34.286  16.736  -7.700  1.00 20.00    -0.018 C 
HETATM    2  C2  UNL     1     -34.568  15.561  -7.111  1.00 20.00    -0.024 C 
HETATM    3  C3  UNL     1     -34.501  17.879  -5.622  1.00 20.00     0.139 C 
HETATM    4  C4  UNL     1     -36.353  16.967  -6.681  1.00 20.00     0.025 C 
HETATM    5  C5  UNL     1     -35.107  17.793  -7.018  1.00 20.00     0.078 C 
HETATM    6  C6  UNL     1     -35.565  15.836  -6.001  1.00 20.00     0.020 C 
HETATM    7  C7  UNL     1     -34.881  16.614  -4.838  1.00 20.00     0.067 C 
HETATM    8  O11 UNL     1     -33.787  18.782  -5.214  1.00 20.00    -0.297 OA
ENDROOT
BRANCH   7   9
HETATM    9  C10 UNL     1     -33.691  15.918  -4.207  1.00 20.00    -0.011 C 
HETATM   10  C8  UNL     1     -33.374  16.514  -2.833  1.00 20.00     0.010 C 
HETATM   11  C9  UNL     1     -33.938  14.413  -4.084  1.00 20.00     0.010 C 
ENDBRANCH   7   9
TORSDOF 1
ENDMDL
MODEL 7
REMARK VINA RESULT:      -3.5      1.003      3.488
REMARK  1 active torsions:
REMARK  status: ('A' for Active; 'I' for Inactive)
REMARK    1  A    between atoms: C7_7  and  C10_10 
ROOT
HETATM    1  C1  UNL     1     -33.129   8.683   2.634  1.00 20.00    -0.018 C 
HETATM    2  C2  UNL     1     -33.364   8.968   3.926  1.00 20.00    -0.024 C 
HETATM    3  C3  UNL     1     -32.769   6.389   3.160  1.00 20.00     0.139 C 
HETATM    4  C4  UNL     1     -31.257   8.018   3.826  1.00 20.00     0.025 C 
HETATM    5  C5  UNL     1     -32.070   7.617   2.590  1.00 20.00     0.078 C 
HETATM    6  C6  UNL     1     -32.477   8.062   4.761  1.00 20.00     0.020 C 
HETATM    7  C7  UNL     1     -32.970   6.588   4.670  1.00 20.00     0.067 C 
HETATM    8  O11 UNL     1     -33.152   5.428   2.511  1.00 20.00    -0.297 OA
ENDROOT
BRANCH   7   9
HETATM    9  C10 UNL     1     -34.398   6.354   5.122  1.00 20.00    -0.011 C 
HETATM   10  C8  UNL     1     -34.816   4.900   4.888  1.00 20.00     0.010 C 
HETATM   11  C9  UNL     1     -34.573   6.722   6.597  1.00 20.00     0.010 C 
ENDBRANCH   7   9
TORSDOF 1
ENDMDL
MODEL 8
REMARK VINA RESULT:      -3.4     12.572     14.254
REMARK  1 active torsions:
REMARK  status: ('A' for Active; 'I' for Inactive)
REMARK    1  A    between atoms: C7_7  and  C10_10 
ROOT
HETATM    1  C1  UNL     1     -33.666  17.052  -1.549  1.00 20.00    -0.018 C 
HETATM    2  C2  UNL     1     -33.229  16.681  -2.765  1.00 20.00    -0.024 C 
HETATM    3  C3  UNL     1     -35.085  18.702  -2.514  1.00 20.00     0.139 C 
HETATM    4  C4  UNL     1     -32.777  18.940  -2.556  1.00 20.00     0.025 C 
HETATM    5  C5  UNL     1     -33.890  18.537  -1.582  1.00 20.00     0.078 C 
HETATM    6  C6  UNL     1     -33.191  17.924  -3.634  1.00 20.00     0.020 C 
HETATM    7  C7  UNL     1     -34.636  18.408  -3.953  1.00 20.00     0.067 C 
HETATM    8  O11 UNL     1     -36.223  18.973  -2.165  1.00 20.00    -0.297 OA
ENDROOT
BRANCH   7   9
HETATM    9  C10 UNL     1     -35.515  17.396  -4.661  1.00 20.00    -0.011 C 
HETATM   10  C8  UNL     1     -36.799  18.051  -5.177  1.00 20.00     0.010 C 
HETATM   11  C9  UNL     1     -34.762  16.729  -5.815  1.00 20.00     0.010 C 
ENDBRANCH   7   9
TORSDOF 1
ENDMDL
MODEL 9
REMARK VINA RESULT:      -3.4     10.792     11.766
REMARK  1 active torsions:
REMARK  status: ('A' for Active; 'I' for Inactive)
REMARK    1  A    between atoms: C7_7  and  C10_10 
ROOT
HETATM    1  C1  UNL     1     -42.567  12.533   6.715  1.00 20.00    -0.018 C 
HETATM    2  C2  UNL     1     -43.082  13.634   6.140  1.00 20.00    -0.024 C 
HETATM    3  C3  UNL     1     -40.624  13.737   7.383  1.00 20.00     0.139 C 
HETATM    4  C4  UNL     1     -41.025  13.263   5.148  1.00 20.00     0.025 C 
HETATM    5  C5  UNL     1     -41.078  12.570   6.513  1.00 20.00     0.078 C 
HETATM    6  C6  UNL     1     -41.924  14.435   5.575  1.00 20.00     0.020 C 
HETATM    7  C7  UNL     1     -41.076  15.050   6.727  1.00 20.00     0.067 C 
HETATM    8  O11 UNL     1     -40.043  13.638   8.452  1.00 20.00    -0.297 OA
ENDROOT
BRANCH   7   9
HETATM    9  C10 UNL     1     -41.832  15.964   7.670  1.00 20.00    -0.011 C 
HETATM   10  C8  UNL     1     -40.869  16.728   8.583  1.00 20.00     0.010 C 
HETATM   11  C9  UNL     1     -42.713  16.945   6.893  1.00 20.00     0.010 C 
ENDBRANCH   7   9
TORSDOF 1
ENDMDL
