MODEL 1
REMARK VINA RESULT:      -3.5      0.000      0.000
REMARK  1 active torsions:
REMARK  status: ('A' for Active; 'I' for Inactive)
REMARK    1  A    between atoms: C6_6  and  C9_9 
ROOT
HETATM    1  C1  UNL     1     -43.085  13.990   7.108  1.00 20.00     0.302 C 
HETATM    2  C2  UNL     1     -41.932  13.449   7.967  1.00 20.00     0.303 C 
HETATM    3  C3  UNL     1     -41.804  15.946   6.620  1.00 20.00     0.307 C 
HETATM    4  C4  UNL     1     -41.654  14.012   5.195  1.00 20.00     0.308 C 
HETATM    5  C5  UNL     1     -40.615  15.413   7.452  1.00 20.00     0.247 C 
HETATM    6  C6  UNL     1     -40.467  13.494   6.041  1.00 20.00     0.251 C 
HETATM    7  C7  UNL     1     -40.579  16.017   8.858  1.00 20.00     0.045 C 
HETATM    8  N10 UNL     1     -42.575  14.838   6.010  1.00 20.00     0.094 N 
HETATM    9  N11 UNL     1     -40.621  13.921   7.462  1.00 20.00     0.102 N 
ENDROOT
BRANCH   6  10
HETATM   10  C9  UNL     1     -40.270  11.984   5.891  1.00 20.00     0.033 C 
HETATM   11  C8  UNL     1     -39.402  11.658   4.722  1.00 20.00     0.007 C 
ENDBRANCH   6  10
TORSDOF 1
ENDMDL
MODEL 2
REMARK VINA RESULT:      -3.4      1.135      1.690
REMARK  1 active torsions:
REMARK  status: ('A' for Active; 'I' for Inactive)
REMARK    1  A    between atoms: C6_6  and  C9_9 
ROOT
HETATM    1  C1  UNL     1     -41.892  13.743   8.734  1.00 20.00     0.302 C 
HETATM    2  C2  UNL     1     -40.627  14.392   8.155  1.00 20.00     0.303 C 
HETATM    3  C3  UNL     1     -43.190  14.692   6.967  1.00 20.00     0.307 C 
HETATM    4  C4  UNL     1     -42.196  12.515   6.707  1.00 20.00     0.308 C 
HETATM    5  C5  UNL     1     -41.928  15.331   6.342  1.00 20.00     0.247 C 
HETATM    6  C6  UNL     1     -40.941  13.174   6.087  1.00 20.00     0.251 C 
HETATM    7  C7  UNL     1     -41.781  16.807   6.722  1.00 20.00     0.045 C 
HETATM    8  N10 UNL     1     -42.863  13.427   7.665  1.00 20.00     0.094 N 
HETATM    9  N11 UNL     1     -40.720  14.524   6.681  1.00 20.00     0.102 N 
ENDROOT
BRANCH   6  10
HETATM   10  C9  UNL     1     -39.709  12.270   6.186  1.00 20.00     0.033 C 
HETATM   11  C8  UNL     1     -39.293  11.763   4.846  1.00 20.00     0.007 C 
ENDBRANCH   6  10
TORSDOF 1
ENDMDL
MODEL 3
REMARK VINA RESULT:      -3.2     12.856     14.209
REMARK  1 active torsions:
REMARK  status: ('A' for Active; 'I' for Inactive)
REMARK    1  A    between atoms: C6_6  and  C9_9 
ROOT
HETATM    1  C1  UNL     1     -36.341  15.505  -5.776  1.00 20.00     0.302 C 
HETATM    2  C2  UNL     1     -36.103  16.770  -4.940  1.00 20.00     0.303 C 
HETATM    3  C3  UNL     1     -34.773  16.282  -7.402  1.00 20.00     0.307 C 
HETATM    4  C4  UNL     1     -34.034  14.921  -5.558  1.00 20.00     0.308 C 
HETATM    5  C5  UNL     1     -34.488  17.551  -6.565  1.00 20.00     0.247 C 
HETATM    6  C6  UNL     1     -33.759  16.203  -4.736  1.00 20.00     0.251 C 
HETATM    7  C7  UNL     1     -35.272  18.764  -7.074  1.00 20.00     0.045 C 
HETATM    8  N10 UNL     1     -35.127  15.134  -6.535  1.00 20.00     0.094 N 
HETATM    9  N11 UNL     1     -34.722  17.277  -5.117  1.00 20.00     0.102 N 
ENDROOT
BRANCH   6  10
HETATM   10  C9  UNL     1     -33.740  15.927  -3.231  1.00 20.00     0.033 C 
HETATM   11  C8  UNL     1     -33.224  17.101  -2.466  1.00 20.00     0.007 C 
ENDBRANCH   6  10
TORSDOF 1
ENDMDL
MODEL 4
REMARK VINA RESULT:      -3.1     13.333     14.354
REMARK  1 active torsions:
REMARK  status: ('A' for Active; 'I' for Inactive)
REMARK    1  A    between atoms: C6_6  and  C9_9 
ROOT
HETATM    1  C1  UNL     1     -36.958  16.552  -5.662  1.00 20.00     0.302 C 
HETATM    2  C2  UNL     1     -35.808  17.314  -4.988  1.00 20.00     0.303 C 
HETATM    3  C3  UNL     1     -35.776  16.603  -7.738  1.00 20.00     0.307 C 
HETATM    4  C4  UNL     1     -35.462  14.770  -6.209  1.00 20.00     0.308 C 
HETATM    5  C5  UNL     1     -34.589  17.342  -7.079  1.00 20.00     0.247 C 
HETATM    6  C6  UNL     1     -34.279  15.527  -5.561  1.00 20.00     0.251 C 
HETATM    7  C7  UNL     1     -34.638  18.852  -7.330  1.00 20.00     0.045 C 
HETATM    8  N10 UNL     1     -36.458  15.712  -6.772  1.00 20.00     0.094 N 
HETATM    9  N11 UNL     1     -34.509  16.999  -5.629  1.00 20.00     0.102 N 
ENDROOT
BRANCH   6  10
HETATM   10  C9  UNL     1     -33.989  15.034  -4.142  1.00 20.00     0.033 C 
HETATM   11  C8  UNL     1     -33.110  15.985  -3.400  1.00 20.00     0.007 C 
ENDBRANCH   6  10
TORSDOF 1
ENDMDL
MODEL 5
REMARK VINA RESULT:      -3.0     20.413     21.935
REMARK  1 active torsions:
REMARK  status: ('A' for Active; 'I' for Inactive)
REMARK    1  A    between atoms: C6_6  and  C9_9 
ROOT
HETATM    1  C1  UNL     1     -27.667  -0.612  10.086  1.00 20.00     0.302 C 
HETATM    2  C2  UNL     1     -27.841  -2.112   9.809  1.00 20.00     0.303 C 
HETATM    3  C3  UNL     1     -28.412  -0.939  12.332  1.00 20.00     0.307 C 
HETATM    4  C4  UNL     1     -26.071  -1.107  11.794  1.00 20.00     0.308 C 
HETATM    5  C5  UNL     1     -28.565  -2.459  12.092  1.00 20.00     0.247 C 
HETATM    6  C6  UNL     1     -26.246  -2.626  11.555  1.00 20.00     0.251 C 
HETATM    7  C7  UNL     1     -30.015  -2.852  11.795  1.00 20.00     0.045 C 
HETATM    8  N10 UNL     1     -27.324  -0.371  11.503  1.00 20.00     0.094 N 
HETATM    9  N11 UNL     1     -27.614  -2.912  11.035  1.00 20.00     0.102 N 
ENDROOT
BRANCH   6  10
HETATM   10  C9  UNL     1     -25.139  -3.199  10.668  1.00 20.00     0.033 C 
HETATM   11  C8  UNL     1     -23.844  -2.487  10.878  1.00 20.00     0.007 C 
ENDBRANCH   6  10
TORSDOF 1
ENDMDL
MODEL 6
REMARK VINA RESULT:      -3.0     12.570     14.193
REMARK  1 active torsions:
REMARK  status: ('A' for Active; 'I' for Inactive)
REMARK    1  A    between atoms: C6_6  and  C9_9 
ROOT
HETATM    1  C1  UNL     1     -34.515  17.454  -6.823  1.00 20.00     0.302 C 
HETATM    2  C2  UNL     1     -34.961  17.530  -5.355  1.00 20.00     0.303 C 
HETATM    3  C3  UNL     1     -33.994  15.139  -6.547  1.00 20.00     0.307 C 
HETATM    4  C4  UNL     1     -36.196  15.810  -7.253  1.00 20.00     0.308 C 
HETATM    5  C5  UNL     1     -34.467  15.177  -5.075  1.00 20.00     0.247 C 
HETATM    6  C6  UNL     1     -36.648  15.845  -5.774  1.00 20.00     0.251 C 
HETATM    7  C7  UNL     1     -33.297  15.323  -4.098  1.00 20.00     0.045 C 
HETATM    8  N10 UNL     1     -34.749  16.104  -7.379  1.00 20.00     0.094 N 
HETATM    9  N11 UNL     1     -35.507  16.231  -4.894  1.00 20.00     0.102 N 
ENDROOT
BRANCH   6  10
HETATM   10  C9  UNL     1     -37.882  16.727  -5.571  1.00 20.00     0.033 C 
HETATM   11  C8  UNL     1     -38.915  16.041  -4.741  1.00 20.00     0.007 C 
ENDBRANCH   6  10
TORSDOF 1
ENDMDL
MODEL 7
REMARK VINA RESULT:      -3.0      1.223      3.717
REMARK  1 active torsions:
REMARK  status: ('A' for Active; 'I' for Inactive)
REMARK    1  A    between atoms: C6_6  and  C9_9 
ROOT
HETATM    1  C1  UNL     1     -42.958  14.761   6.741  1.00 20.00     0.302 C 
HETATM    2  C2  UNL     1     -41.532  15.206   6.385  1.00 20.00     0.303 C 
HETATM    3  C3  UNL     1     -42.223  12.492   6.856  1.00 20.00     0.307 C 
HETATM    4  C4  UNL     1     -42.170  13.884   8.819  1.00 20.00     0.308 C 
HETATM    5  C5  UNL     1     -40.771  12.913   6.531  1.00 20.00     0.247 C 
HETATM    6  C6  UNL     1     -40.719  14.296   8.475  1.00 20.00     0.251 C 
HETATM    7  C7  UNL     1     -40.430  12.710   5.052  1.00 20.00     0.045 C 
HETATM    8  N10 UNL     1     -42.940  13.556   7.596  1.00 20.00     0.094 N 
HETATM    9  N11 UNL     1     -40.524  14.309   6.996  1.00 20.00     0.102 N 
ENDROOT
BRANCH   6  10
HETATM   10  C9  UNL     1     -40.324  15.617   9.139  1.00 20.00     0.033 C 
HETATM   11  C8  UNL     1     -41.393  16.111  10.056  1.00 20.00     0.007 C 
ENDBRANCH   6  10
TORSDOF 1
ENDMDL
MODEL 8
REMARK VINA RESULT:      -2.9     12.745     14.180
REMARK  1 active torsions:
REMARK  status: ('A' for Active; 'I' for Inactive)
REMARK    1  A    between atoms: C6_6  and  C9_9 
ROOT
HETATM    1  C1  UNL     1     -34.449  16.994  -7.210  1.00 20.00     0.302 C 
HETATM    2  C2  UNL     1     -35.056  15.891  -6.331  1.00 20.00     0.303 C 
HETATM    3  C3  UNL     1     -36.145  18.510  -6.483  1.00 20.00     0.307 C 
HETATM    4  C4  UNL     1     -34.073  18.339  -5.271  1.00 20.00     0.308 C 
HETATM    5  C5  UNL     1     -36.760  17.430  -5.564  1.00 20.00     0.247 C 
HETATM    6  C6  UNL     1     -34.705  17.257  -4.364  1.00 20.00     0.251 C 
HETATM    7  C7  UNL     1     -37.968  16.744  -6.208  1.00 20.00     0.045 C 
HETATM    8  N10 UNL     1     -34.682  18.330  -6.622  1.00 20.00     0.094 N 
HETATM    9  N11 UNL     1     -35.709  16.464  -5.130  1.00 20.00     0.102 N 
ENDROOT
BRANCH   6  10
HETATM   10  C9  UNL     1     -33.646  16.384  -3.687  1.00 20.00     0.033 C 
HETATM   11  C8  UNL     1     -33.352  16.853  -2.301  1.00 20.00     0.007 C 
ENDBRANCH   6  10
TORSDOF 1
ENDMDL
MODEL 9
REMARK VINA RESULT:      -2.9      1.441      3.111
REMARK  1 active torsions:
REMARK  status: ('A' for Active; 'I' for Inactive)
REMARK    1  A    between atoms: C6_6  and  C9_9 
ROOT
HETATM    1  C1  UNL     1     -42.668  13.326   8.015  1.00 20.00     0.302 C 
HETATM    2  C2  UNL     1     -42.601  12.728   6.602  1.00 20.00     0.303 C 
HETATM    3  C3  UNL     1     -40.407  14.069   7.809  1.00 20.00     0.307 C 
HETATM    4  C4  UNL     1     -42.220  15.497   7.123  1.00 20.00     0.308 C 
HETATM    5  C5  UNL     1     -40.321  13.506   6.371  1.00 20.00     0.247 C 
HETATM    6  C6  UNL     1     -42.120  14.918   5.692  1.00 20.00     0.251 C 
HETATM    7  C7  UNL     1     -39.636  12.137   6.329  1.00 20.00     0.045 C 
HETATM    8  N10 UNL     1     -41.784  14.505   8.134  1.00 20.00     0.094 N 
HETATM    9  N11 UNL     1     -41.673  13.496   5.740  1.00 20.00     0.102 N 
ENDROOT
BRANCH   6  10
HETATM   10  C9  UNL     1     -43.417  15.108   4.903  1.00 20.00     0.033 C 
HETATM   11  C8  UNL     1     -43.197  14.937   3.437  1.00 20.00     0.007 C 
ENDBRANCH   6  10
TORSDOF 1
ENDMDL
