MODEL 1
REMARK VINA RESULT:      -5.6      0.000      0.000
REMARK  0 active torsions:
REMARK  status: ('A' for Active; 'I' for Inactive)
ROOT
HETATM    1  C1  UNL     1     -33.001   5.375   2.468  1.00 20.00     0.154 A 
HETATM    2  C2  UNL     1     -32.989   6.652   2.976  1.00 20.00     0.005 A 
HETATM    3  C3  UNL     1     -33.693   6.601   4.172  1.00 20.00     0.013 A 
HETATM    4  C4  UNL     1     -33.991   5.297   4.421  1.00 20.00     0.062 A 
HETATM    5  C5  UNL     1     -32.333   8.848   3.594  1.00 20.00     0.143 C 
HETATM    6  C6  UNL     1     -32.365   7.882   2.646  1.00 20.00    -0.027 C 
HETATM    7  C7  UNL     1     -34.470   4.752   5.706  1.00 20.00     0.066 C 
HETATM    8  C8  UNL     1     -34.780   5.933   6.677  1.00 20.00     0.009 C 
HETATM    9  C9  UNL     1     -33.841   7.171   6.529  1.00 20.00     0.038 C 
HETATM   10  C10 UNL     1     -33.871   7.734   5.089  1.00 20.00     0.164 C 
HETATM   11  C11 UNL     1     -31.732   7.993   1.300  1.00 20.00     0.051 C 
HETATM   12  O12 UNL     1     -33.607   4.520   3.370  1.00 20.00    -0.326 OA
HETATM   13  O13 UNL     1     -32.886   8.778   4.874  1.00 20.00    -0.352 OA
ENDROOT
TORSDOF 0
ENDMDL
MODEL 2
REMARK VINA RESULT:      -4.9      0.749      2.740
REMARK  0 active torsions:
REMARK  status: ('A' for Active; 'I' for Inactive)
ROOT
HETATM    1  C1  UNL     1     -32.618   8.944   4.195  1.00 20.00     0.154 A 
HETATM    2  C2  UNL     1     -32.637   7.740   3.532  1.00 20.00     0.005 A 
HETATM    3  C3  UNL     1     -33.138   6.809   4.433  1.00 20.00     0.013 A 
HETATM    4  C4  UNL     1     -33.527   7.482   5.549  1.00 20.00     0.062 A 
HETATM    5  C5  UNL     1     -32.855   6.066   1.864  1.00 20.00     0.143 C 
HETATM    6  C6  UNL     1     -32.401   7.295   2.207  1.00 20.00    -0.027 C 
HETATM    7  C7  UNL     1     -34.370   6.940   6.632  1.00 20.00     0.066 C 
HETATM    8  C8  UNL     1     -34.577   5.411   6.401  1.00 20.00     0.009 C 
HETATM    9  C9  UNL     1     -34.661   4.977   4.904  1.00 20.00     0.038 C 
HETATM   10  C10 UNL     1     -33.395   5.398   4.122  1.00 20.00     0.164 C 
HETATM   11  C11 UNL     1     -31.728   8.243   1.272  1.00 20.00     0.051 C 
HETATM   12  O12 UNL     1     -33.187   8.797   5.447  1.00 20.00    -0.326 OA
HETATM   13  O13 UNL     1     -33.513   5.158   2.696  1.00 20.00    -0.352 OA
ENDROOT
TORSDOF 0
ENDMDL
MODEL 3
REMARK VINA RESULT:      -4.6     12.722     13.365
REMARK  0 active torsions:
REMARK  status: ('A' for Active; 'I' for Inactive)
ROOT
HETATM    1  C1  UNL     1     -34.269  19.253   1.721  1.00 20.00     0.154 A 
HETATM    2  C2  UNL     1     -33.043  18.917   1.199  1.00 20.00     0.005 A 
HETATM    3  C3  UNL     1     -33.260  18.615  -0.139  1.00 20.00     0.013 A 
HETATM    4  C4  UNL     1     -34.559  18.901  -0.422  1.00 20.00     0.062 A 
HETATM    5  C5  UNL     1     -30.720  18.840   0.717  1.00 20.00     0.143 C 
HETATM    6  C6  UNL     1     -31.698  18.929   1.649  1.00 20.00    -0.027 C 
HETATM    7  C7  UNL     1     -35.144  19.007  -1.772  1.00 20.00     0.066 C 
HETATM    8  C8  UNL     1     -34.090  18.539  -2.824  1.00 20.00     0.009 C 
HETATM    9  C9  UNL     1     -32.609  18.875  -2.465  1.00 20.00     0.038 C 
HETATM   10  C10 UNL     1     -32.206  18.269  -1.101  1.00 20.00     0.164 C 
HETATM   11  C11 UNL     1     -31.464  19.106   3.112  1.00 20.00     0.051 C 
HETATM   12  O12 UNL     1     -35.218  19.263   0.714  1.00 20.00    -0.326 OA
HETATM   13  O13 UNL     1     -30.893  18.702  -0.662  1.00 20.00    -0.352 OA
ENDROOT
TORSDOF 0
ENDMDL
MODEL 4
REMARK VINA RESULT:      -4.4     12.090     13.463
REMARK  0 active torsions:
REMARK  status: ('A' for Active; 'I' for Inactive)
ROOT
HETATM    1  C1  UNL     1     -32.955  15.501  -3.803  1.00 20.00     0.154 A 
HETATM    2  C2  UNL     1     -33.717  16.630  -3.615  1.00 20.00     0.005 A 
HETATM    3  C3  UNL     1     -34.637  16.655  -4.654  1.00 20.00     0.013 A 
HETATM    4  C4  UNL     1     -34.502  15.496  -5.354  1.00 20.00     0.062 A 
HETATM    5  C5  UNL     1     -34.959  18.397  -2.632  1.00 20.00     0.143 C 
HETATM    6  C6  UNL     1     -33.848  17.624  -2.613  1.00 20.00    -0.027 C 
HETATM    7  C7  UNL     1     -35.456  14.974  -6.351  1.00 20.00     0.066 C 
HETATM    8  C8  UNL     1     -36.545  16.056  -6.631  1.00 20.00     0.009 C 
HETATM    9  C9  UNL     1     -36.932  16.934  -5.399  1.00 20.00     0.038 C 
HETATM   10  C10 UNL     1     -35.699  17.656  -4.810  1.00 20.00     0.164 C 
HETATM   11  C11 UNL     1     -32.781  17.697  -1.572  1.00 20.00     0.051 C 
HETATM   12  O12 UNL     1     -33.448  14.779  -4.874  1.00 20.00    -0.326 OA
HETATM   13  O13 UNL     1     -35.994  18.345  -3.567  1.00 20.00    -0.352 OA
ENDROOT
TORSDOF 0
ENDMDL
MODEL 5
REMARK VINA RESULT:      -4.3     12.002     13.543
REMARK  0 active torsions:
REMARK  status: ('A' for Active; 'I' for Inactive)
ROOT
HETATM    1  C1  UNL     1     -36.365  17.639  -5.308  1.00 20.00     0.154 A 
HETATM    2  C2  UNL     1     -35.269  16.822  -5.168  1.00 20.00     0.005 A 
HETATM    3  C3  UNL     1     -34.573  17.291  -4.062  1.00 20.00     0.013 A 
HETATM    4  C4  UNL     1     -35.319  18.274  -3.490  1.00 20.00     0.062 A 
HETATM    5  C5  UNL     1     -33.830  14.935  -5.124  1.00 20.00     0.143 C 
HETATM    6  C6  UNL     1     -34.794  15.630  -5.772  1.00 20.00    -0.027 C 
HETATM    7  C7  UNL     1     -35.108  18.847  -2.147  1.00 20.00     0.066 C 
HETATM    8  C8  UNL     1     -33.771  18.295  -1.561  1.00 20.00     0.009 C 
HETATM    9  C9  UNL     1     -33.430  16.828  -1.969  1.00 20.00     0.038 C 
HETATM   10  C10 UNL     1     -33.365  16.669  -3.506  1.00 20.00     0.164 C 
HETATM   11  C11 UNL     1     -35.443  15.198  -7.045  1.00 20.00     0.051 C 
HETATM   12  O12 UNL     1     -36.415  18.537  -4.256  1.00 20.00    -0.326 OA
HETATM   13  O13 UNL     1     -33.216  15.286  -3.920  1.00 20.00    -0.352 OA
ENDROOT
TORSDOF 0
ENDMDL
MODEL 6
REMARK VINA RESULT:      -4.3      1.418      2.462
REMARK  0 active torsions:
REMARK  status: ('A' for Active; 'I' for Inactive)
ROOT
HETATM    1  C1  UNL     1     -34.260   4.493   4.572  1.00 20.00     0.154 A 
HETATM    2  C2  UNL     1     -33.668   5.429   3.758  1.00 20.00     0.005 A 
HETATM    3  C3  UNL     1     -33.761   6.641   4.428  1.00 20.00     0.013 A 
HETATM    4  C4  UNL     1     -34.275   6.393   5.663  1.00 20.00     0.062 A 
HETATM    5  C5  UNL     1     -32.216   6.521   2.230  1.00 20.00     0.143 C 
HETATM    6  C6  UNL     1     -32.931   5.415   2.547  1.00 20.00    -0.027 C 
HETATM    7  C7  UNL     1     -34.278   7.332   6.801  1.00 20.00     0.066 C 
HETATM    8  C8  UNL     1     -33.784   8.729   6.311  1.00 20.00     0.009 C 
HETATM    9  C9  UNL     1     -32.697   8.687   5.192  1.00 20.00     0.038 C 
HETATM   10  C10 UNL     1     -33.193   7.908   3.952  1.00 20.00     0.164 C 
HETATM   11  C11 UNL     1     -32.947   4.156   1.746  1.00 20.00     0.051 C 
HETATM   12  O12 UNL     1     -34.626   5.081   5.770  1.00 20.00    -0.326 OA
HETATM   13  O13 UNL     1     -32.150   7.708   2.962  1.00 20.00    -0.352 OA
ENDROOT
TORSDOF 0
ENDMDL
MODEL 7
REMARK VINA RESULT:      -4.1     11.977     14.259
REMARK  0 active torsions:
REMARK  status: ('A' for Active; 'I' for Inactive)
ROOT
HETATM    1  C1  UNL     1     -35.023  18.513  -4.066  1.00 20.00     0.154 A 
HETATM    2  C2  UNL     1     -34.526  17.232  -4.074  1.00 20.00     0.005 A 
HETATM    3  C3  UNL     1     -34.958  16.655  -5.260  1.00 20.00     0.013 A 
HETATM    4  C4  UNL     1     -35.578  17.622  -5.989  1.00 20.00     0.062 A 
HETATM    5  C5  UNL     1     -33.130  15.332  -3.798  1.00 20.00     0.143 C 
HETATM    6  C6  UNL     1     -33.641  16.470  -3.270  1.00 20.00    -0.027 C 
HETATM    7  C7  UNL     1     -35.932  17.532  -7.418  1.00 20.00     0.066 C 
HETATM    8  C8  UNL     1     -35.671  16.077  -7.918  1.00 20.00     0.009 C 
HETATM    9  C9  UNL     1     -34.453  15.362  -7.254  1.00 20.00     0.038 C 
HETATM   10  C10 UNL     1     -34.600  15.306  -5.716  1.00 20.00     0.164 C 
HETATM   11  C11 UNL     1     -33.286  17.016  -1.928  1.00 20.00     0.051 C 
HETATM   12  O12 UNL     1     -35.665  18.772  -5.263  1.00 20.00    -0.326 OA
HETATM   13  O13 UNL     1     -33.411  14.798  -5.057  1.00 20.00    -0.352 OA
ENDROOT
TORSDOF 0
ENDMDL
MODEL 8
REMARK VINA RESULT:      -4.1     12.490     12.815
REMARK  0 active torsions:
REMARK  status: ('A' for Active; 'I' for Inactive)
ROOT
HETATM    1  C1  UNL     1     -34.595  18.894   0.958  1.00 20.00     0.154 A 
HETATM    2  C2  UNL     1     -33.451  18.745   0.211  1.00 20.00     0.005 A 
HETATM    3  C3  UNL     1     -32.392  19.034   1.062  1.00 20.00     0.013 A 
HETATM    4  C4  UNL     1     -32.901  19.215   2.310  1.00 20.00     0.062 A 
HETATM    5  C5  UNL     1     -31.835  17.965  -1.343  1.00 20.00     0.143 C 
HETATM    6  C6  UNL     1     -33.127  18.279  -1.088  1.00 20.00    -0.027 C 
HETATM    7  C7  UNL     1     -32.122  19.255   3.562  1.00 20.00     0.066 C 
HETATM    8  C8  UNL     1     -30.600  19.263   3.216  1.00 20.00     0.009 C 
HETATM    9  C9  UNL     1     -30.209  18.441   1.948  1.00 20.00     0.038 C 
HETATM   10  C10 UNL     1     -30.973  18.934   0.697  1.00 20.00     0.164 C 
HETATM   11  C11 UNL     1     -34.250  18.104  -2.056  1.00 20.00     0.051 C 
HETATM   12  O12 UNL     1     -34.262  19.169   2.272  1.00 20.00    -0.326 OA
HETATM   13  O13 UNL     1     -30.759  18.086  -0.460  1.00 20.00    -0.352 OA
ENDROOT
TORSDOF 0
ENDMDL
MODEL 9
REMARK VINA RESULT:      -4.1     12.129     13.877
REMARK  0 active torsions:
REMARK  status: ('A' for Active; 'I' for Inactive)
ROOT
HETATM    1  C1  UNL     1     -34.205  14.848  -4.876  1.00 20.00     0.154 A 
HETATM    2  C2  UNL     1     -34.419  16.068  -5.470  1.00 20.00     0.005 A 
HETATM    3  C3  UNL     1     -34.125  17.025  -4.508  1.00 20.00     0.013 A 
HETATM    4  C4  UNL     1     -33.622  16.379  -3.422  1.00 20.00     0.062 A 
HETATM    5  C5  UNL     1     -34.521  17.848  -7.038  1.00 20.00     0.143 C 
HETATM    6  C6  UNL     1     -34.724  16.535  -6.773  1.00 20.00    -0.027 C 
HETATM    7  C7  UNL     1     -32.918  17.013  -2.291  1.00 20.00     0.066 C 
HETATM    8  C8  UNL     1     -33.018  18.564  -2.432  1.00 20.00     0.009 C 
HETATM    9  C9  UNL     1     -33.006  19.094  -3.900  1.00 20.00     0.038 C 
HETATM   10  C10 UNL     1     -34.152  18.476  -4.733  1.00 20.00     0.164 C 
HETATM   11  C11 UNL     1     -35.182  15.529  -7.775  1.00 20.00     0.051 C 
HETATM   12  O12 UNL     1     -33.691  15.031  -3.604  1.00 20.00    -0.326 OA
HETATM   13  O13 UNL     1     -34.068  18.818  -6.141  1.00 20.00    -0.352 OA
ENDROOT
TORSDOF 0
ENDMDL
