MODEL 1
REMARK VINA RESULT:      -5.0      0.000      0.000
REMARK  5 active torsions:
REMARK  status: ('A' for Active; 'I' for Inactive)
REMARK    1  A    between atoms: C1_1  and  C3_3 
REMARK    2  A    between atoms: C2_2  and  C5_5 
REMARK    3  A    between atoms: C3_3  and  C8_8 
REMARK    4  A    between atoms: C5_5  and  C7_7 
REMARK    5  A    between atoms: C6_6  and  C7_7 
ROOT
HETATM    1  C1  UNL     1     -33.124   8.007   4.471  1.00 20.00    -0.023 C 
HETATM    2  C2  UNL     1     -33.604   7.512   5.455  1.00 20.00    -0.098 C 
ENDROOT
BRANCH   1   3
HETATM    3  C3  UNL     1     -32.551   8.594   3.284  1.00 20.00     0.266 C 
HETATM    4  O9  UNL     1     -32.526   9.811   3.159  1.00 20.00    -0.277 OA
BRANCH   3   5
HETATM    5  C8  UNL     1     -31.962   7.641   2.287  1.00 20.00     0.435 C 
HETATM    6  F10 UNL     1     -32.151   8.078   1.015  1.00 20.00    -0.205 F 
HETATM    7  F11 UNL     1     -32.533   6.411   2.359  1.00 20.00    -0.205 F 
ENDBRANCH   3   5
ENDBRANCH   1   3
BRANCH   2   8
HETATM    8  C5  UNL     1     -34.194   6.903   6.654  1.00 20.00     0.094 C 
BRANCH   8   9
HETATM    9  C7  UNL     1     -34.632   5.457   6.415  1.00 20.00     0.012 C 
BRANCH   9  10
HETATM   10  C6  UNL     1     -35.009   5.183   4.957  1.00 20.00    -0.004 C 
HETATM   11  C4  UNL     1     -34.000   4.263   4.287  1.00 20.00     0.005 C 
ENDBRANCH   9  10
ENDBRANCH   8   9
ENDBRANCH   2   8
TORSDOF 5
ENDMDL
MODEL 2
REMARK VINA RESULT:      -4.5      2.707      4.849
REMARK  5 active torsions:
REMARK  status: ('A' for Active; 'I' for Inactive)
REMARK    1  A    between atoms: C1_1  and  C3_3 
REMARK    2  A    between atoms: C2_2  and  C5_5 
REMARK    3  A    between atoms: C3_3  and  C8_8 
REMARK    4  A    between atoms: C5_5  and  C7_7 
REMARK    5  A    between atoms: C6_6  and  C7_7 
ROOT
HETATM    1  C1  UNL     1     -33.595   7.273   4.994  1.00 20.00    -0.023 C 
HETATM    2  C2  UNL     1     -32.965   7.834   4.139  1.00 20.00    -0.098 C 
ENDROOT
BRANCH   1   3
HETATM    3  C3  UNL     1     -34.344   6.594   6.024  1.00 20.00     0.266 C 
HETATM    4  O9  UNL     1     -34.451   7.101   7.132  1.00 20.00    -0.277 OA
BRANCH   3   5
HETATM    5  C8  UNL     1     -34.999   5.304   5.631  1.00 20.00     0.435 C 
HETATM    6  F10 UNL     1     -34.080   4.328   5.415  1.00 20.00    -0.205 F 
HETATM    7  F11 UNL     1     -35.710   5.424   4.480  1.00 20.00    -0.205 F 
ENDBRANCH   3   5
ENDBRANCH   1   3
BRANCH   2   8
HETATM    8  C5  UNL     1     -32.189   8.521   3.098  1.00 20.00     0.094 C 
BRANCH   8   9
HETATM    9  C7  UNL     1     -32.074   7.690   1.818  1.00 20.00     0.012 C 
BRANCH   9  10
HETATM   10  C6  UNL     1     -32.131   8.544   0.548  1.00 20.00    -0.004 C 
HETATM   11  C4  UNL     1     -32.952   9.806   0.765  1.00 20.00     0.005 C 
ENDBRANCH   9  10
ENDBRANCH   8   9
ENDBRANCH   2   8
TORSDOF 5
ENDMDL
MODEL 3
REMARK VINA RESULT:      -4.4     11.589     12.253
REMARK  5 active torsions:
REMARK  status: ('A' for Active; 'I' for Inactive)
REMARK    1  A    between atoms: C1_1  and  C3_3 
REMARK    2  A    between atoms: C2_2  and  C5_5 
REMARK    3  A    between atoms: C3_3  and  C8_8 
REMARK    4  A    between atoms: C5_5  and  C7_7 
REMARK    5  A    between atoms: C6_6  and  C7_7 
ROOT
HETATM    1  C1  UNL     1     -33.548  16.935  -2.912  1.00 20.00    -0.023 C 
HETATM    2  C2  UNL     1     -33.246  17.418  -1.855  1.00 20.00    -0.098 C 
ENDROOT
BRANCH   1   3
HETATM    3  C3  UNL     1     -33.905  16.358  -4.185  1.00 20.00     0.266 C 
HETATM    4  O9  UNL     1     -34.495  17.036  -5.016  1.00 20.00    -0.277 OA
BRANCH   3   5
HETATM    5  C8  UNL     1     -33.467  14.944  -4.423  1.00 20.00     0.435 C 
HETATM    6  F10 UNL     1     -34.181  14.071  -3.667  1.00 20.00    -0.205 F 
HETATM    7  F11 UNL     1     -32.162  14.754  -4.099  1.00 20.00    -0.205 F 
ENDBRANCH   3   5
ENDBRANCH   1   3
BRANCH   2   8
HETATM    8  C5  UNL     1     -32.869  18.010  -0.564  1.00 20.00     0.094 C 
BRANCH   8   9
HETATM    9  C7  UNL     1     -31.423  18.510  -0.555  1.00 20.00     0.012 C 
BRANCH   9  10
HETATM   10  C6  UNL     1     -31.057  19.249   0.735  1.00 20.00    -0.004 C 
HETATM   11  C4  UNL     1     -30.744  18.276   1.861  1.00 20.00     0.005 C 
ENDBRANCH   9  10
ENDBRANCH   8   9
ENDBRANCH   2   8
TORSDOF 5
ENDMDL
MODEL 4
REMARK VINA RESULT:      -4.4     11.790     12.294
REMARK  5 active torsions:
REMARK  status: ('A' for Active; 'I' for Inactive)
REMARK    1  A    between atoms: C1_1  and  C3_3 
REMARK    2  A    between atoms: C2_2  and  C5_5 
REMARK    3  A    between atoms: C3_3  and  C8_8 
REMARK    4  A    between atoms: C5_5  and  C7_7 
REMARK    5  A    between atoms: C6_6  and  C7_7 
ROOT
HETATM    1  C1  UNL     1     -33.703  15.776  -3.566  1.00 20.00    -0.023 C 
HETATM    2  C2  UNL     1     -33.287  16.644  -2.848  1.00 20.00    -0.098 C 
ENDROOT
BRANCH   1   3
HETATM    3  C3  UNL     1     -34.197  14.728  -4.426  1.00 20.00     0.266 C 
HETATM    4  O9  UNL     1     -34.372  13.604  -3.976  1.00 20.00    -0.277 OA
BRANCH   3   5
HETATM    5  C8  UNL     1     -34.518  15.120  -5.837  1.00 20.00     0.435 C 
HETATM    6  F10 UNL     1     -35.539  14.376  -6.337  1.00 20.00    -0.205 F 
HETATM    7  F11 UNL     1     -33.462  14.932  -6.671  1.00 20.00    -0.205 F 
ENDBRANCH   3   5
ENDBRANCH   1   3
BRANCH   2   8
HETATM    8  C5  UNL     1     -32.775  17.700  -1.964  1.00 20.00     0.094 C 
BRANCH   8   9
HETATM    9  C7  UNL     1     -33.568  17.800  -0.659  1.00 20.00     0.012 C 
BRANCH   9  10
HETATM   10  C6  UNL     1     -32.788  18.494   0.460  1.00 20.00    -0.004 C 
HETATM   11  C4  UNL     1     -31.303  18.565   0.138  1.00 20.00     0.005 C 
ENDBRANCH   9  10
ENDBRANCH   8   9
ENDBRANCH   2   8
TORSDOF 5
ENDMDL
MODEL 5
REMARK VINA RESULT:      -4.4      1.665      1.971
REMARK  5 active torsions:
REMARK  status: ('A' for Active; 'I' for Inactive)
REMARK    1  A    between atoms: C1_1  and  C3_3 
REMARK    2  A    between atoms: C2_2  and  C5_5 
REMARK    3  A    between atoms: C3_3  and  C8_8 
REMARK    4  A    between atoms: C5_5  and  C7_7 
REMARK    5  A    between atoms: C6_6  and  C7_7 
ROOT
HETATM    1  C1  UNL     1     -32.976   8.242   3.561  1.00 20.00    -0.023 C 
HETATM    2  C2  UNL     1     -33.330   8.071   4.696  1.00 20.00    -0.098 C 
ENDROOT
BRANCH   1   3
HETATM    3  C3  UNL     1     -32.550   8.440   2.197  1.00 20.00     0.266 C 
HETATM    4  O9  UNL     1     -31.799   7.630   1.671  1.00 20.00    -0.277 OA
BRANCH   3   5
HETATM    5  C8  UNL     1     -33.119   9.632   1.488  1.00 20.00     0.435 C 
HETATM    6  F10 UNL     1     -32.773   9.637   0.174  1.00 20.00    -0.205 F 
HETATM    7  F11 UNL     1     -32.663  10.800   2.009  1.00 20.00    -0.205 F 
ENDBRANCH   3   5
ENDBRANCH   1   3
BRANCH   2   8
HETATM    8  C5  UNL     1     -33.767   7.854   6.082  1.00 20.00     0.094 C 
BRANCH   8   9
HETATM    9  C7  UNL     1     -34.125   6.392   6.356  1.00 20.00     0.012 C 
BRANCH   9  10
HETATM   10  C6  UNL     1     -35.005   5.780   5.264  1.00 20.00    -0.004 C 
HETATM   11  C4  UNL     1     -34.294   4.638   4.553  1.00 20.00     0.005 C 
ENDBRANCH   9  10
ENDBRANCH   8   9
ENDBRANCH   2   8
TORSDOF 5
ENDMDL
MODEL 6
REMARK VINA RESULT:      -4.4     11.643     12.228
REMARK  5 active torsions:
REMARK  status: ('A' for Active; 'I' for Inactive)
REMARK    1  A    between atoms: C1_1  and  C3_3 
REMARK    2  A    between atoms: C2_2  and  C5_5 
REMARK    3  A    between atoms: C3_3  and  C8_8 
REMARK    4  A    between atoms: C5_5  and  C7_7 
REMARK    5  A    between atoms: C6_6  and  C7_7 
ROOT
HETATM    1  C1  UNL     1     -32.479  17.864  -1.404  1.00 20.00    -0.023 C 
HETATM    2  C2  UNL     1     -33.092  17.373  -2.313  1.00 20.00    -0.098 C 
ENDROOT
BRANCH   1   3
HETATM    3  C3  UNL     1     -31.742  18.447  -0.310  1.00 20.00     0.266 C 
HETATM    4  O9  UNL     1     -30.575  18.781  -0.472  1.00 20.00    -0.277 OA
BRANCH   3   5
HETATM    5  C8  UNL     1     -32.498  18.654   0.968  1.00 20.00     0.435 C 
HETATM    6  F10 UNL     1     -31.822  18.145   2.031  1.00 20.00    -0.205 F 
HETATM    7  F11 UNL     1     -33.708  18.037   0.950  1.00 20.00    -0.205 F 
ENDBRANCH   3   5
ENDBRANCH   1   3
BRANCH   2   8
HETATM    8  C5  UNL     1     -33.837  16.766  -3.424  1.00 20.00     0.094 C 
BRANCH   8   9
HETATM    9  C7  UNL     1     -33.179  15.481  -3.930  1.00 20.00     0.012 C 
BRANCH   9  10
HETATM   10  C6  UNL     1     -34.191  14.371  -4.226  1.00 20.00    -0.004 C 
HETATM   11  C4  UNL     1     -35.162  14.783  -5.321  1.00 20.00     0.005 C 
ENDBRANCH   9  10
ENDBRANCH   8   9
ENDBRANCH   2   8
TORSDOF 5
ENDMDL
MODEL 7
REMARK VINA RESULT:      -4.3      3.097      5.108
REMARK  5 active torsions:
REMARK  status: ('A' for Active; 'I' for Inactive)
REMARK    1  A    between atoms: C1_1  and  C3_3 
REMARK    2  A    between atoms: C2_2  and  C5_5 
REMARK    3  A    between atoms: C3_3  and  C8_8 
REMARK    4  A    between atoms: C5_5  and  C7_7 
REMARK    5  A    between atoms: C6_6  and  C7_7 
ROOT
HETATM    1  C1  UNL     1     -33.562   6.200   4.113  1.00 20.00    -0.023 C 
HETATM    2  C2  UNL     1     -32.906   6.945   3.435  1.00 20.00    -0.098 C 
ENDROOT
BRANCH   1   3
HETATM    3  C3  UNL     1     -34.354   5.313   4.929  1.00 20.00     0.266 C 
HETATM    4  O9  UNL     1     -34.763   4.259   4.461  1.00 20.00    -0.277 OA
BRANCH   3   5
HETATM    5  C8  UNL     1     -34.579   5.736   6.350  1.00 20.00     0.435 C 
HETATM    6  F10 UNL     1     -34.408   7.075   6.500  1.00 20.00    -0.205 F 
HETATM    7  F11 UNL     1     -33.708   5.139   7.204  1.00 20.00    -0.205 F 
ENDBRANCH   3   5
ENDBRANCH   1   3
BRANCH   2   8
HETATM    8  C5  UNL     1     -32.112   7.859   2.605  1.00 20.00     0.094 C 
BRANCH   8   9
HETATM    9  C7  UNL     1     -32.679   9.280   2.599  1.00 20.00     0.012 C 
BRANCH   9  10
HETATM   10  C6  UNL     1     -32.939   9.811   1.187  1.00 20.00    -0.004 C 
HETATM   11  C4  UNL     1     -32.512   8.805   0.129  1.00 20.00     0.005 C 
ENDBRANCH   9  10
ENDBRANCH   8   9
ENDBRANCH   2   8
TORSDOF 5
ENDMDL
MODEL 8
REMARK VINA RESULT:      -4.2     11.988     12.432
REMARK  5 active torsions:
REMARK  status: ('A' for Active; 'I' for Inactive)
REMARK    1  A    between atoms: C1_1  and  C3_3 
REMARK    2  A    between atoms: C2_2  and  C5_5 
REMARK    3  A    between atoms: C3_3  and  C8_8 
REMARK    4  A    between atoms: C5_5  and  C7_7 
REMARK    5  A    between atoms: C6_6  and  C7_7 
ROOT
HETATM    1  C1  UNL     1     -32.082  18.403  -1.241  1.00 20.00    -0.023 C 
HETATM    2  C2  UNL     1     -31.476  18.539  -0.213  1.00 20.00    -0.098 C 
ENDROOT
BRANCH   1   3
HETATM    3  C3  UNL     1     -32.811  18.231  -2.474  1.00 20.00     0.266 C 
HETATM    4  O9  UNL     1     -32.801  19.120  -3.316  1.00 20.00    -0.277 OA
BRANCH   3   5
HETATM    5  C8  UNL     1     -33.504  16.915  -2.661  1.00 20.00     0.435 C 
HETATM    6  F10 UNL     1     -33.779  16.327  -1.468  1.00 20.00    -0.205 F 
HETATM    7  F11 UNL     1     -32.742  16.033  -3.358  1.00 20.00    -0.205 F 
ENDBRANCH   3   5
ENDBRANCH   1   3
BRANCH   2   8
HETATM    8  C5  UNL     1     -30.739  18.699   1.047  1.00 20.00     0.094 C 
BRANCH   8   9
HETATM    9  C7  UNL     1     -31.670  18.954   2.235  1.00 20.00     0.012 C 
BRANCH   9  10
HETATM   10  C6  UNL     1     -30.934  18.950   3.578  1.00 20.00    -0.004 C 
HETATM   11  C4  UNL     1     -29.439  18.744   3.391  1.00 20.00     0.005 C 
ENDBRANCH   9  10
ENDBRANCH   8   9
ENDBRANCH   2   8
TORSDOF 5
ENDMDL
MODEL 9
REMARK VINA RESULT:      -4.1     11.625     12.208
REMARK  5 active torsions:
REMARK  status: ('A' for Active; 'I' for Inactive)
REMARK    1  A    between atoms: C1_1  and  C3_3 
REMARK    2  A    between atoms: C2_2  and  C5_5 
REMARK    3  A    between atoms: C3_3  and  C8_8 
REMARK    4  A    between atoms: C5_5  and  C7_7 
REMARK    5  A    between atoms: C6_6  and  C7_7 
ROOT
HETATM    1  C1  UNL     1     -33.270  17.607  -1.290  1.00 20.00    -0.023 C 
HETATM    2  C2  UNL     1     -33.345  17.138  -2.394  1.00 20.00    -0.098 C 
ENDROOT
BRANCH   1   3
HETATM    3  C3  UNL     1     -33.173  18.174   0.033  1.00 20.00     0.266 C 
HETATM    4  O9  UNL     1     -34.172  18.251   0.736  1.00 20.00    -0.277 OA
BRANCH   3   5
HETATM    5  C8  UNL     1     -31.805  18.590   0.481  1.00 20.00     0.435 C 
HETATM    6  F10 UNL     1     -30.849  18.160  -0.383  1.00 20.00    -0.205 F 
HETATM    7  F11 UNL     1     -31.486  18.071   1.695  1.00 20.00    -0.205 F 
ENDBRANCH   3   5
ENDBRANCH   1   3
BRANCH   2   8
HETATM    8  C5  UNL     1     -33.432  16.571  -3.746  1.00 20.00     0.094 C 
BRANCH   8   9
HETATM    9  C7  UNL     1     -33.680  15.061  -3.726  1.00 20.00     0.012 C 
BRANCH   9  10
HETATM   10  C6  UNL     1     -34.604  14.595  -4.855  1.00 20.00    -0.004 C 
HETATM   11  C4  UNL     1     -34.144  15.127  -6.203  1.00 20.00     0.005 C 
ENDBRANCH   9  10
ENDBRANCH   8   9
ENDBRANCH   2   8
TORSDOF 5
ENDMDL
