MODEL 1
REMARK VINA RESULT:      -3.7      0.000      0.000
REMARK  0 active torsions:
REMARK  status: ('A' for Active; 'I' for Inactive)
ROOT
HETATM    1  C1  UNL     1     -43.112   5.175   1.971  1.00 20.00    -0.028 C 
HETATM    2  C2  UNL     1     -42.721   4.606   0.818  1.00 20.00     0.003 C 
HETATM    3  C3  UNL     1     -41.161   6.158  -0.136  1.00 20.00     0.154 C 
HETATM    4  C4  UNL     1     -43.307   6.668   2.091  1.00 20.00     0.032 C 
HETATM    5  C5  UNL     1     -41.390   7.477   0.579  1.00 20.00     0.085 C 
HETATM    6  C6  UNL     1     -43.417   6.679  -0.420  1.00 20.00     0.043 C 
HETATM    7  C7  UNL     1     -42.918   7.450   0.809  1.00 20.00    -0.002 C 
HETATM    8  C8  UNL     1     -42.482   5.461  -0.394  1.00 20.00     0.115 C 
HETATM    9  O9  UNL     1     -40.054   5.721  -0.419  1.00 20.00    -0.295 OA
HETATM   10 CL10 UNL     1     -42.475   4.573  -1.901  1.00 20.00    -0.106 Cl
ENDROOT
TORSDOF 0
ENDMDL
MODEL 2
REMARK VINA RESULT:      -3.7     12.202     13.582
REMARK  0 active torsions:
REMARK  status: ('A' for Active; 'I' for Inactive)
ROOT
HETATM    1  C1  UNL     1     -34.206  16.997  -4.068  1.00 20.00    -0.028 C 
HETATM    2  C2  UNL     1     -34.987  17.088  -5.158  1.00 20.00     0.003 C 
HETATM    3  C3  UNL     1     -36.032  14.937  -5.348  1.00 20.00     0.154 C 
HETATM    4  C4  UNL     1     -33.467  15.724  -3.728  1.00 20.00     0.032 C 
HETATM    5  C5  UNL     1     -35.212  13.994  -4.488  1.00 20.00     0.085 C 
HETATM    6  C6  UNL     1     -33.837  15.075  -6.127  1.00 20.00     0.043 C 
HETATM    7  C7  UNL     1     -33.783  14.547  -4.687  1.00 20.00    -0.002 C 
HETATM    8  C8  UNL     1     -35.126  15.908  -6.078  1.00 20.00     0.115 C 
HETATM    9  O9  UNL     1     -37.254  14.922  -5.399  1.00 20.00    -0.295 OA
HETATM   10 CL10 UNL     1     -35.738  16.313  -7.667  1.00 20.00    -0.106 Cl
ENDROOT
TORSDOF 0
ENDMDL
MODEL 3
REMARK VINA RESULT:      -3.6      9.106      9.967
REMARK  0 active torsions:
REMARK  status: ('A' for Active; 'I' for Inactive)
ROOT
HETATM    1  C1  UNL     1     -32.977   5.264   3.400  1.00 20.00    -0.028 C 
HETATM    2  C2  UNL     1     -32.959   6.569   3.721  1.00 20.00     0.003 C 
HETATM    3  C3  UNL     1     -33.689   6.653   6.003  1.00 20.00     0.154 C 
HETATM    4  C4  UNL     1     -34.046   4.334   3.925  1.00 20.00     0.032 C 
HETATM    5  C5  UNL     1     -34.358   5.318   6.280  1.00 20.00     0.085 C 
HETATM    6  C6  UNL     1     -35.372   6.414   4.405  1.00 20.00     0.043 C 
HETATM    7  C7  UNL     1     -35.024   5.012   4.921  1.00 20.00    -0.002 C 
HETATM    8  C8  UNL     1     -34.031   7.135   4.608  1.00 20.00     0.115 C 
HETATM    9  O9  UNL     1     -32.950   7.221   6.796  1.00 20.00    -0.295 OA
HETATM   10 CL10 UNL     1     -34.174   8.877   4.530  1.00 20.00    -0.106 Cl
ENDROOT
TORSDOF 0
ENDMDL
MODEL 4
REMARK VINA RESULT:      -3.6      9.181      9.842
REMARK  0 active torsions:
REMARK  status: ('A' for Active; 'I' for Inactive)
ROOT
HETATM    1  C1  UNL     1     -43.417  12.897   6.706  1.00 20.00    -0.028 C 
HETATM    2  C2  UNL     1     -42.302  12.147   6.745  1.00 20.00     0.003 C 
HETATM    3  C3  UNL     1     -40.539  13.694   7.248  1.00 20.00     0.154 C 
HETATM    4  C4  UNL     1     -43.409  14.299   6.145  1.00 20.00     0.032 C 
HETATM    5  C5  UNL     1     -41.094  15.075   6.950  1.00 20.00     0.085 C 
HETATM    6  C6  UNL     1     -41.254  13.653   5.027  1.00 20.00     0.043 C 
HETATM    7  C7  UNL     1     -41.999  14.795   5.730  1.00 20.00    -0.002 C 
HETATM    8  C8  UNL     1     -41.012  12.700   6.207  1.00 20.00     0.115 C 
HETATM    9  O9  UNL     1     -39.842  13.436   8.220  1.00 20.00    -0.295 OA
HETATM   10 CL10 UNL     1     -39.805  11.480   5.864  1.00 20.00    -0.106 Cl
ENDROOT
TORSDOF 0
ENDMDL
MODEL 5
REMARK VINA RESULT:      -3.4      9.721     10.664
REMARK  0 active torsions:
REMARK  status: ('A' for Active; 'I' for Inactive)
ROOT
HETATM    1  C1  UNL     1     -40.463  12.916   5.374  1.00 20.00    -0.028 C 
HETATM    2  C2  UNL     1     -40.226  13.016   6.694  1.00 20.00     0.003 C 
HETATM    3  C3  UNL     1     -42.388  13.308   7.688  1.00 20.00     0.154 C 
HETATM    4  C4  UNL     1     -41.542  13.733   4.701  1.00 20.00     0.032 C 
HETATM    5  C5  UNL     1     -43.316  13.726   6.562  1.00 20.00     0.085 C 
HETATM    6  C6  UNL     1     -41.444  15.213   6.728  1.00 20.00     0.043 C 
HETATM    7  C7  UNL     1     -42.380  14.588   5.686  1.00 20.00    -0.002 C 
HETATM    8  C8  UNL     1     -41.034  13.968   7.528  1.00 20.00     0.115 C 
HETATM    9  O9  UNL     1     -42.700  12.517   8.568  1.00 20.00    -0.295 OA
HETATM   10 CL10 UNL     1     -40.305  14.357   9.071  1.00 20.00    -0.106 Cl
ENDROOT
TORSDOF 0
ENDMDL
MODEL 6
REMARK VINA RESULT:      -3.4     13.179     14.090
REMARK  0 active torsions:
REMARK  status: ('A' for Active; 'I' for Inactive)
ROOT
HETATM    1  C1  UNL     1     -33.324  16.496  -3.706  1.00 20.00    -0.028 C 
HETATM    2  C2  UNL     1     -33.921  15.375  -4.147  1.00 20.00     0.003 C 
HETATM    3  C3  UNL     1     -34.403  15.802  -6.457  1.00 20.00     0.154 C 
HETATM    4  C4  UNL     1     -33.753  17.862  -4.186  1.00 20.00     0.032 C 
HETATM    5  C5  UNL     1     -34.307  17.306  -6.635  1.00 20.00     0.085 C 
HETATM    6  C6  UNL     1     -35.881  16.745  -4.918  1.00 20.00     0.043 C 
HETATM    7  C7  UNL     1     -34.849  17.820  -5.283  1.00 20.00    -0.002 C 
HETATM    8  C8  UNL     1     -35.054  15.469  -5.129  1.00 20.00     0.115 C 
HETATM    9  O9  UNL     1     -33.974  14.992  -7.267  1.00 20.00    -0.295 OA
HETATM   10 CL10 UNL     1     -36.037  14.025  -5.222  1.00 20.00    -0.106 Cl
ENDROOT
TORSDOF 0
ENDMDL
MODEL 7
REMARK VINA RESULT:      -3.4     12.736     14.091
REMARK  0 active torsions:
REMARK  status: ('A' for Active; 'I' for Inactive)
ROOT
HETATM    1  C1  UNL     1     -34.119  16.057  -7.653  1.00 20.00    -0.028 C 
HETATM    2  C2  UNL     1     -34.045  15.138  -6.674  1.00 20.00     0.003 C 
HETATM    3  C3  UNL     1     -36.083  15.391  -5.437  1.00 20.00     0.154 C 
HETATM    4  C4  UNL     1     -34.741  17.414  -7.419  1.00 20.00     0.032 C 
HETATM    5  C5  UNL     1     -36.643  16.748  -5.822  1.00 20.00     0.085 C 
HETATM    6  C6  UNL     1     -34.412  16.950  -4.972  1.00 20.00     0.043 C 
HETATM    7  C7  UNL     1     -35.355  17.580  -6.004  1.00 20.00    -0.002 C 
HETATM    8  C8  UNL     1     -34.576  15.460  -5.306  1.00 20.00     0.115 C 
HETATM    9  O9  UNL     1     -36.769  14.387  -5.296  1.00 20.00    -0.295 OA
HETATM   10 CL10 UNL     1     -33.975  14.407  -4.044  1.00 20.00    -0.106 Cl
ENDROOT
TORSDOF 0
ENDMDL
MODEL 8
REMARK VINA RESULT:      -3.4      9.068      9.967
REMARK  0 active torsions:
REMARK  status: ('A' for Active; 'I' for Inactive)
ROOT
HETATM    1  C1  UNL     1     -41.142  14.970   7.677  1.00 20.00    -0.028 C 
HETATM    2  C2  UNL     1     -40.452  14.158   6.857  1.00 20.00     0.003 C 
HETATM    3  C3  UNL     1     -41.921  13.762   5.003  1.00 20.00     0.154 C 
HETATM    4  C4  UNL     1     -42.634  14.823   7.865  1.00 20.00     0.032 C 
HETATM    5  C5  UNL     1     -43.308  14.159   5.474  1.00 20.00     0.085 C 
HETATM    6  C6  UNL     1     -42.348  12.510   6.925  1.00 20.00     0.043 C 
HETATM    7  C7  UNL     1     -43.270  13.736   6.960  1.00 20.00    -0.002 C 
HETATM    8  C8  UNL     1     -41.166  13.064   6.115  1.00 20.00     0.115 C 
HETATM    9  O9  UNL     1     -41.482  14.018   3.890  1.00 20.00    -0.295 OA
HETATM   10 CL10 UNL     1     -40.108  11.810   5.507  1.00 20.00    -0.106 Cl
ENDROOT
TORSDOF 0
ENDMDL
MODEL 9
REMARK VINA RESULT:      -3.3      1.710      2.482
REMARK  0 active torsions:
REMARK  status: ('A' for Active; 'I' for Inactive)
ROOT
HETATM    1  C1  UNL     1     -40.497   6.574   0.714  1.00 20.00    -0.028 C 
HETATM    2  C2  UNL     1     -41.099   5.372   0.708  1.00 20.00     0.003 C 
HETATM    3  C3  UNL     1     -43.183   5.732  -0.421  1.00 20.00     0.154 C 
HETATM    4  C4  UNL     1     -41.284   7.852   0.891  1.00 20.00     0.032 C 
HETATM    5  C5  UNL     1     -43.414   7.232  -0.410  1.00 20.00     0.085 C 
HETATM    6  C6  UNL     1     -43.110   6.393   1.815  1.00 20.00     0.043 C 
HETATM    7  C7  UNL     1     -42.818   7.632   0.958  1.00 20.00    -0.002 C 
HETATM    8  C8  UNL     1     -42.586   5.280   0.895  1.00 20.00     0.115 C 
HETATM    9  O9  UNL     1     -43.417   5.016  -1.385  1.00 20.00    -0.295 OA
HETATM   10 CL10 UNL     1     -43.147   3.689   1.361  1.00 20.00    -0.106 Cl
ENDROOT
TORSDOF 0
ENDMDL
