MODEL 1
REMARK VINA RESULT:      -4.1      0.000      0.000
REMARK  1 active torsions:
REMARK  status: ('A' for Active; 'I' for Inactive)
REMARK    1  A    between atoms: C7_7  and  C10_10 
ROOT
HETATM    1  C1  UNL     1     -32.859   9.006   5.223  1.00 20.00    -0.017 C 
HETATM    2  C2  UNL     1     -32.631   7.764   5.695  1.00 20.00    -0.019 C 
HETATM    3  C3  UNL     1     -32.866   8.501   2.728  1.00 20.00     0.135 C 
HETATM    4  C4  UNL     1     -32.150   7.174   2.624  1.00 20.00     0.080 C 
HETATM    5  C5  UNL     1     -32.924   6.249   3.577  1.00 20.00     0.022 C 
HETATM    6  C6  UNL     1     -33.690   8.514   4.053  1.00 20.00     0.090 C 
HETATM    7  C7  UNL     1     -33.567   7.103   4.690  1.00 20.00    -0.006 C 
HETATM    8  O11 UNL     1     -32.741   9.399   1.903  1.00 20.00    -0.297 OA
ENDROOT
BRANCH   7   9
HETATM    9  C10 UNL     1     -34.819   6.481   5.286  1.00 20.00    -0.009 C 
HETATM   10  C8  UNL     1     -35.649   5.786   4.205  1.00 20.00     0.011 C 
HETATM   11  C9  UNL     1     -34.459   5.493   6.396  1.00 20.00     0.011 C 
ENDBRANCH   7   9
TORSDOF 1
ENDMDL
MODEL 2
REMARK VINA RESULT:      -3.9      8.445      9.628
REMARK  1 active torsions:
REMARK  status: ('A' for Active; 'I' for Inactive)
REMARK    1  A    between atoms: C7_7  and  C10_10 
ROOT
HETATM    1  C1  UNL     1     -40.289   6.036  -0.452  1.00 20.00    -0.017 C 
HETATM    2  C2  UNL     1     -41.424   5.386  -0.778  1.00 20.00    -0.019 C 
HETATM    3  C3  UNL     1     -41.279   8.285   0.209  1.00 20.00     0.135 C 
HETATM    4  C4  UNL     1     -42.646   8.285  -0.438  1.00 20.00     0.080 C 
HETATM    5  C5  UNL     1     -43.308   6.995   0.075  1.00 20.00     0.022 C 
HETATM    6  C6  UNL     1     -40.947   6.830   0.661  1.00 20.00     0.090 C 
HETATM    7  C7  UNL     1     -42.207   5.962   0.396  1.00 20.00    -0.006 C 
HETATM    8  O11 UNL     1     -40.574   9.286   0.290  1.00 20.00    -0.297 OA
ENDROOT
BRANCH   7   9
HETATM    9  C10 UNL     1     -42.612   4.954   1.458  1.00 20.00    -0.009 C 
HETATM   10  C8  UNL     1     -43.417   5.629   2.570  1.00 20.00     0.011 C 
HETATM   11  C9  UNL     1     -43.414   3.807   0.842  1.00 20.00     0.011 C 
ENDBRANCH   7   9
TORSDOF 1
ENDMDL
MODEL 3
REMARK VINA RESULT:      -3.8     11.255     13.360
REMARK  1 active torsions:
REMARK  status: ('A' for Active; 'I' for Inactive)
REMARK    1  A    between atoms: C7_7  and  C10_10 
ROOT
HETATM    1  C1  UNL     1     -35.563  14.952  -7.054  1.00 20.00    -0.017 C 
HETATM    2  C2  UNL     1     -34.569  15.861  -7.022  1.00 20.00    -0.019 C 
HETATM    3  C3  UNL     1     -35.402  14.082  -4.668  1.00 20.00     0.135 C 
HETATM    4  C4  UNL     1     -34.012  14.485  -4.228  1.00 20.00     0.080 C 
HETATM    5  C5  UNL     1     -33.961  16.001  -4.477  1.00 20.00     0.022 C 
HETATM    6  C6  UNL     1     -35.962  15.192  -5.610  1.00 20.00     0.090 C 
HETATM    7  C7  UNL     1     -34.930  16.352  -5.625  1.00 20.00    -0.006 C 
HETATM    8  O11 UNL     1     -35.928  13.022  -4.346  1.00 20.00    -0.297 OA
ENDROOT
BRANCH   7   9
HETATM    9  C10 UNL     1     -35.460  17.775  -5.559  1.00 20.00    -0.009 C 
HETATM   10  C8  UNL     1     -36.502  17.916  -4.447  1.00 20.00     0.011 C 
HETATM   11  C9  UNL     1     -34.319  18.771  -5.347  1.00 20.00     0.011 C 
ENDBRANCH   7   9
TORSDOF 1
ENDMDL
MODEL 4
REMARK VINA RESULT:      -3.7      2.346      3.818
REMARK  1 active torsions:
REMARK  status: ('A' for Active; 'I' for Inactive)
REMARK    1  A    between atoms: C7_7  and  C10_10 
ROOT
HETATM    1  C1  UNL     1     -33.811   8.009   6.468  1.00 20.00    -0.017 C 
HETATM    2  C2  UNL     1     -34.145   8.522   5.268  1.00 20.00    -0.019 C 
HETATM    3  C3  UNL     1     -34.445   5.577   6.066  1.00 20.00     0.135 C 
HETATM    4  C4  UNL     1     -35.390   5.638   4.887  1.00 20.00     0.080 C 
HETATM    5  C5  UNL     1     -34.600   6.395   3.807  1.00 20.00     0.022 C 
HETATM    6  C6  UNL     1     -33.360   6.682   5.886  1.00 20.00     0.090 C 
HETATM    7  C7  UNL     1     -33.586   7.333   4.494  1.00 20.00    -0.006 C 
HETATM    8  O11 UNL     1     -34.590   4.799   7.003  1.00 20.00    -0.297 OA
ENDROOT
BRANCH   7   9
HETATM    9  C10 UNL     1     -32.363   7.634   3.644  1.00 20.00    -0.009 C 
HETATM   10  C8  UNL     1     -32.168   6.560   2.572  1.00 20.00     0.011 C 
HETATM   11  C9  UNL     1     -32.477   9.015   2.997  1.00 20.00     0.011 C 
ENDBRANCH   7   9
TORSDOF 1
ENDMDL
MODEL 5
REMARK VINA RESULT:      -3.5     12.439     13.692
REMARK  1 active torsions:
REMARK  status: ('A' for Active; 'I' for Inactive)
REMARK    1  A    between atoms: C7_7  and  C10_10 
ROOT
HETATM    1  C1  UNL     1     -27.972  -0.247  12.281  1.00 20.00    -0.017 C 
HETATM    2  C2  UNL     1     -26.819  -0.232  11.584  1.00 20.00    -0.019 C 
HETATM    3  C3  UNL     1     -29.146  -2.165  11.091  1.00 20.00     0.135 C 
HETATM    4  C4  UNL     1     -28.413  -2.279   9.773  1.00 20.00     0.080 C 
HETATM    5  C5  UNL     1     -26.938  -2.437  10.173  1.00 20.00     0.022 C 
HETATM    6  C6  UNL     1     -28.121  -1.754  12.192  1.00 20.00     0.090 C 
HETATM    7  C7  UNL     1     -26.713  -1.752  11.538  1.00 20.00    -0.006 C 
HETATM    8  O11 UNL     1     -30.357  -2.331  11.203  1.00 20.00    -0.297 OA
ENDROOT
BRANCH   7   9
HETATM    9  C10 UNL     1     -25.560  -2.343  12.332  1.00 20.00    -0.009 C 
HETATM   10  C8  UNL     1     -25.462  -3.853  12.105  1.00 20.00     0.011 C 
HETATM   11  C9  UNL     1     -24.241  -1.664  11.962  1.00 20.00     0.011 C 
ENDBRANCH   7   9
TORSDOF 1
ENDMDL
MODEL 6
REMARK VINA RESULT:      -3.5      9.833     10.714
REMARK  1 active torsions:
REMARK  status: ('A' for Active; 'I' for Inactive)
REMARK    1  A    between atoms: C7_7  and  C10_10 
ROOT
HETATM    1  C1  UNL     1     -43.286  13.243   6.275  1.00 20.00    -0.017 C 
HETATM    2  C2  UNL     1     -42.479  12.592   7.135  1.00 20.00    -0.019 C 
HETATM    3  C3  UNL     1     -42.092  15.490   6.214  1.00 20.00     0.135 C 
HETATM    4  C4  UNL     1     -41.249  15.488   7.470  1.00 20.00     0.080 C 
HETATM    5  C5  UNL     1     -40.420  14.197   7.367  1.00 20.00     0.022 C 
HETATM    6  C6  UNL     1     -42.149  14.035   5.656  1.00 20.00     0.090 C 
HETATM    7  C7  UNL     1     -41.204  13.166   6.528  1.00 20.00    -0.006 C 
HETATM    8  O11 UNL     1     -42.655  16.492   5.785  1.00 20.00    -0.297 OA
ENDROOT
BRANCH   7   9
HETATM    9  C10 UNL     1     -40.315  12.156   5.821  1.00 20.00    -0.009 C 
HETATM   10  C8  UNL     1     -39.998  12.613   4.396  1.00 20.00     0.011 C 
HETATM   11  C9  UNL     1     -39.021  11.928   6.606  1.00 20.00     0.011 C 
ENDBRANCH   7   9
TORSDOF 1
ENDMDL
MODEL 7
REMARK VINA RESULT:      -3.5     11.989     13.766
REMARK  1 active torsions:
REMARK  status: ('A' for Active; 'I' for Inactive)
REMARK    1  A    between atoms: C7_7  and  C10_10 
ROOT
HETATM    1  C1  UNL     1     -37.207  16.210  -5.328  1.00 20.00    -0.017 C 
HETATM    2  C2  UNL     1     -36.569  17.391  -5.211  1.00 20.00    -0.019 C 
HETATM    3  C3  UNL     1     -35.770  15.147  -7.140  1.00 20.00     0.135 C 
HETATM    4  C4  UNL     1     -35.064  16.321  -7.779  1.00 20.00     0.080 C 
HETATM    5  C5  UNL     1     -34.379  17.037  -6.604  1.00 20.00     0.022 C 
HETATM    6  C6  UNL     1     -35.932  15.439  -5.616  1.00 20.00     0.090 C 
HETATM    7  C7  UNL     1     -35.183  16.765  -5.315  1.00 20.00    -0.006 C 
HETATM    8  O11 UNL     1     -36.170  14.177  -7.775  1.00 20.00    -0.297 OA
ENDROOT
BRANCH   7   9
HETATM    9  C10 UNL     1     -34.346  16.837  -4.049  1.00 20.00    -0.009 C 
HETATM   10  C8  UNL     1     -33.410  15.630  -3.948  1.00 20.00     0.011 C 
HETATM   11  C9  UNL     1     -33.542  18.137  -4.002  1.00 20.00     0.011 C 
ENDBRANCH   7   9
TORSDOF 1
ENDMDL
MODEL 8
REMARK VINA RESULT:      -3.4     10.445     11.412
REMARK  1 active torsions:
REMARK  status: ('A' for Active; 'I' for Inactive)
REMARK    1  A    between atoms: C7_7  and  C10_10 
ROOT
HETATM    1  C1  UNL     1     -40.426  15.854   8.174  1.00 20.00    -0.017 C 
HETATM    2  C2  UNL     1     -41.357  15.811   7.201  1.00 20.00    -0.019 C 
HETATM    3  C3  UNL     1     -41.263  13.939   9.627  1.00 20.00     0.135 C 
HETATM    4  C4  UNL     1     -42.704  13.764   9.202  1.00 20.00     0.080 C 
HETATM    5  C5  UNL     1     -42.629  13.571   7.679  1.00 20.00     0.022 C 
HETATM    6  C6  UNL     1     -40.427  14.350   8.376  1.00 20.00     0.090 C 
HETATM    7  C7  UNL     1     -41.371  14.288   7.145  1.00 20.00    -0.006 C 
HETATM    8  O11 UNL     1     -40.885  13.815  10.787  1.00 20.00    -0.297 OA
ENDROOT
BRANCH   7   9
HETATM    9  C10 UNL     1     -40.826  13.684   5.861  1.00 20.00    -0.009 C 
HETATM   10  C8  UNL     1     -40.579  12.184   6.028  1.00 20.00     0.011 C 
HETATM   11  C9  UNL     1     -41.780  13.939   4.693  1.00 20.00     0.011 C 
ENDBRANCH   7   9
TORSDOF 1
ENDMDL
MODEL 9
REMARK VINA RESULT:      -3.4     11.922     13.579
REMARK  1 active torsions:
REMARK  status: ('A' for Active; 'I' for Inactive)
REMARK    1  A    between atoms: C7_7  and  C10_10 
ROOT
HETATM    1  C1  UNL     1     -33.729  14.742  -4.846  1.00 20.00    -0.017 C 
HETATM    2  C2  UNL     1     -34.047  15.647  -3.900  1.00 20.00    -0.019 C 
HETATM    3  C3  UNL     1     -35.715  15.061  -6.404  1.00 20.00     0.135 C 
HETATM    4  C4  UNL     1     -36.754  15.734  -5.536  1.00 20.00     0.080 C 
HETATM    5  C5  UNL     1     -36.035  16.972  -4.976  1.00 20.00     0.022 C 
HETATM    6  C6  UNL     1     -34.306  15.575  -5.975  1.00 20.00     0.090 C 
HETATM    7  C7  UNL     1     -34.520  16.685  -4.911  1.00 20.00    -0.006 C 
HETATM    8  O11 UNL     1     -35.992  14.221  -7.254  1.00 20.00    -0.297 OA
ENDROOT
BRANCH   7   9
HETATM    9  C10 UNL     1     -33.660  17.934  -5.004  1.00 20.00    -0.009 C 
HETATM   10  C8  UNL     1     -34.254  18.930  -6.003  1.00 20.00     0.011 C 
HETATM   11  C9  UNL     1     -33.503  18.589  -3.631  1.00 20.00     0.011 C 
ENDBRANCH   7   9
TORSDOF 1
ENDMDL
