MODEL 1
REMARK VINA RESULT:      -4.7      0.000      0.000
REMARK  0 active torsions:
REMARK  status: ('A' for Active; 'I' for Inactive)
ROOT
HETATM    1  C1  UNL     1     -34.032   4.212   4.428  1.00 20.00    -0.025 A 
HETATM    2  C2  UNL     1     -33.730   5.116   3.478  1.00 20.00    -0.020 A 
HETATM    3  C3  UNL     1     -34.272   5.719   6.538  1.00 20.00     0.014 C 
HETATM    4  C4  UNL     1     -34.222   7.226   6.314  1.00 20.00     0.070 C 
HETATM    5  C5  UNL     1     -31.860   8.465   4.349  1.00 20.00     0.197 C 
HETATM    6  C6  UNL     1     -33.013   9.054   3.582  1.00 20.00     0.197 C 
HETATM    7  C7  UNL     1     -34.865   5.186   5.234  1.00 20.00     0.021 A 
HETATM    8  C8  UNL     1     -34.517   6.231   4.138  1.00 20.00     0.078 A 
HETATM    9  C9  UNL     1     -33.769   7.357   4.862  1.00 20.00     0.171 C 
HETATM   10  O10 UNL     1     -32.346   7.189   4.761  1.00 20.00    -0.352 OA
HETATM   11  O11 UNL     1     -34.151   8.630   4.330  1.00 20.00    -0.352 OA
ENDROOT
TORSDOF 0
ENDMDL
MODEL 2
REMARK VINA RESULT:      -3.8     12.475     14.075
REMARK  0 active torsions:
REMARK  status: ('A' for Active; 'I' for Inactive)
ROOT
HETATM    1  C1  UNL     1     -33.648  16.646  -2.281  1.00 20.00    -0.025 A 
HETATM    2  C2  UNL     1     -34.112  17.728  -2.932  1.00 20.00    -0.020 A 
HETATM    3  C3  UNL     1     -33.826  14.805  -4.114  1.00 20.00     0.014 C 
HETATM    4  C4  UNL     1     -34.205  15.268  -5.516  1.00 20.00     0.070 C 
HETATM    5  C5  UNL     1     -36.715  17.403  -5.864  1.00 20.00     0.197 C 
HETATM    6  C6  UNL     1     -35.696  18.256  -6.571  1.00 20.00     0.197 C 
HETATM    7  C7  UNL     1     -33.084  16.007  -3.532  1.00 20.00     0.021 A 
HETATM    8  C8  UNL     1     -33.618  17.256  -4.287  1.00 20.00     0.078 A 
HETATM    9  C9  UNL     1     -34.625  16.721  -5.312  1.00 20.00     0.171 C 
HETATM   10  O10 UNL     1     -35.969  16.793  -4.812  1.00 20.00    -0.352 OA
HETATM   11  O11 UNL     1     -34.520  17.451  -6.539  1.00 20.00    -0.352 OA
ENDROOT
TORSDOF 0
ENDMDL
MODEL 3
REMARK VINA RESULT:      -3.8      9.669     10.687
REMARK  0 active torsions:
REMARK  status: ('A' for Active; 'I' for Inactive)
ROOT
HETATM    1  C1  UNL     1     -40.249  11.871   5.890  1.00 20.00    -0.025 A 
HETATM    2  C2  UNL     1     -39.543  12.927   6.335  1.00 20.00    -0.020 A 
HETATM    3  C3  UNL     1     -42.577  12.292   6.977  1.00 20.00     0.014 C 
HETATM    4  C4  UNL     1     -42.767  13.623   7.696  1.00 20.00     0.070 C 
HETATM    5  C5  UNL     1     -40.395  14.675   9.755  1.00 20.00     0.197 C 
HETATM    6  C6  UNL     1     -40.385  15.900   8.881  1.00 20.00     0.197 C 
HETATM    7  C7  UNL     1     -41.562  12.622   5.883  1.00 20.00     0.021 A 
HETATM    8  C8  UNL     1     -40.750  13.843   6.396  1.00 20.00     0.078 A 
HETATM    9  C9  UNL     1     -41.356  14.202   7.758  1.00 20.00     0.171 C 
HETATM   10  O10 UNL     1     -40.614  13.607   8.834  1.00 20.00    -0.352 OA
HETATM   11  O11 UNL     1     -41.404  15.623   7.922  1.00 20.00    -0.352 OA
ENDROOT
TORSDOF 0
ENDMDL
MODEL 4
REMARK VINA RESULT:      -3.7      1.467      3.755
REMARK  0 active torsions:
REMARK  status: ('A' for Active; 'I' for Inactive)
ROOT
HETATM    1  C1  UNL     1     -32.225   9.091   4.803  1.00 20.00    -0.025 A 
HETATM    2  C2  UNL     1     -33.274   8.684   5.541  1.00 20.00    -0.020 A 
HETATM    3  C3  UNL     1     -31.988   7.142   3.093  1.00 20.00     0.014 C 
HETATM    4  C4  UNL     1     -33.084   6.083   3.105  1.00 20.00     0.070 C 
HETATM    5  C5  UNL     1     -34.092   4.866   6.017  1.00 20.00     0.197 C 
HETATM    6  C6  UNL     1     -35.454   5.325   5.571  1.00 20.00     0.197 C 
HETATM    7  C7  UNL     1     -32.714   8.409   3.544  1.00 20.00     0.021 A 
HETATM    8  C8  UNL     1     -33.927   7.937   4.394  1.00 20.00     0.078 A 
HETATM    9  C9  UNL     1     -33.880   6.405   4.368  1.00 20.00     0.171 C 
HETATM   10  O10 UNL     1     -33.217   5.882   5.529  1.00 20.00    -0.352 OA
HETATM   11  O11 UNL     1     -35.204   5.869   4.276  1.00 20.00    -0.352 OA
ENDROOT
TORSDOF 0
ENDMDL
MODEL 5
REMARK VINA RESULT:      -3.6     12.549     13.786
REMARK  0 active torsions:
REMARK  status: ('A' for Active; 'I' for Inactive)
ROOT
HETATM    1  C1  UNL     1     -34.059  15.184  -6.513  1.00 20.00    -0.025 A 
HETATM    2  C2  UNL     1     -34.726  16.350  -6.450  1.00 20.00    -0.020 A 
HETATM    3  C3  UNL     1     -33.019  15.035  -4.130  1.00 20.00     0.014 C 
HETATM    4  C4  UNL     1     -33.459  16.091  -3.124  1.00 20.00     0.070 C 
HETATM    5  C5  UNL     1     -33.551  19.262  -4.079  1.00 20.00     0.197 C 
HETATM    6  C6  UNL     1     -34.991  19.197  -3.646  1.00 20.00     0.197 C 
HETATM    7  C7  UNL     1     -34.238  14.884  -5.041  1.00 20.00     0.021 A 
HETATM    8  C8  UNL     1     -35.009  16.231  -4.964  1.00 20.00     0.078 A 
HETATM    9  C9  UNL     1     -34.225  17.101  -3.975  1.00 20.00     0.171 C 
HETATM   10  O10 UNL     1     -33.315  17.979  -4.656  1.00 20.00    -0.352 OA
HETATM   11  O11 UNL     1     -35.124  17.862  -3.162  1.00 20.00    -0.352 OA
ENDROOT
TORSDOF 0
ENDMDL
MODEL 6
REMARK VINA RESULT:      -3.6     12.366     13.510
REMARK  0 active torsions:
REMARK  status: ('A' for Active; 'I' for Inactive)
ROOT
HETATM    1  C1  UNL     1     -34.248  15.916  -4.229  1.00 20.00    -0.025 A 
HETATM    2  C2  UNL     1     -33.200  15.909  -3.385  1.00 20.00    -0.020 A 
HETATM    3  C3  UNL     1     -35.191  18.319  -3.887  1.00 20.00     0.014 C 
HETATM    4  C4  UNL     1     -34.364  19.263  -3.021  1.00 20.00     0.070 C 
HETATM    5  C5  UNL     1     -33.157  18.143  -0.146  1.00 20.00     0.197 C 
HETATM    6  C6  UNL     1     -31.826  18.557  -0.714  1.00 20.00     0.197 C 
HETATM    7  C7  UNL     1     -34.142  17.400  -4.511  1.00 20.00     0.021 A 
HETATM    8  C8  UNL     1     -32.932  17.394  -3.536  1.00 20.00     0.078 A 
HETATM    9  C9  UNL     1     -33.312  18.349  -2.398  1.00 20.00     0.171 C 
HETATM   10  O10 UNL     1     -33.862  17.637  -1.279  1.00 20.00    -0.352 OA
HETATM   11  O11 UNL     1     -32.171  19.108  -1.983  1.00 20.00    -0.352 OA
ENDROOT
TORSDOF 0
ENDMDL
MODEL 7
REMARK VINA RESULT:      -3.6      9.361     10.592
REMARK  0 active torsions:
REMARK  status: ('A' for Active; 'I' for Inactive)
ROOT
HETATM    1  C1  UNL     1     -41.980  15.747   7.355  1.00 20.00    -0.025 A 
HETATM    2  C2  UNL     1     -40.714  15.447   7.015  1.00 20.00    -0.020 A 
HETATM    3  C3  UNL     1     -43.165  13.445   7.082  1.00 20.00     0.014 C 
HETATM    4  C4  UNL     1     -42.271  12.243   6.799  1.00 20.00     0.070 C 
HETATM    5  C5  UNL     1     -39.897  12.529   4.506  1.00 20.00     0.197 C 
HETATM    6  C6  UNL     1     -38.975  12.119   5.623  1.00 20.00     0.197 C 
HETATM    7  C7  UNL     1     -42.268  14.368   7.907  1.00 20.00     0.021 A 
HETATM    8  C8  UNL     1     -40.806  14.018   7.515  1.00 20.00     0.078 A 
HETATM    9  C9  UNL     1     -40.911  12.870   6.504  1.00 20.00     0.171 C 
HETATM   10  O10 UNL     1     -40.862  13.356   5.154  1.00 20.00    -0.352 OA
HETATM   11  O11 UNL     1     -39.863  11.919   6.721  1.00 20.00    -0.352 OA
ENDROOT
TORSDOF 0
ENDMDL
MODEL 8
REMARK VINA RESULT:      -3.5     12.379     13.648
REMARK  0 active torsions:
REMARK  status: ('A' for Active; 'I' for Inactive)
ROOT
HETATM    1  C1  UNL     1     -28.792  -1.737  10.469  1.00 20.00    -0.025 A 
HETATM    2  C2  UNL     1     -28.077  -2.808  10.082  1.00 20.00    -0.020 A 
HETATM    3  C3  UNL     1     -27.074  -0.453  11.945  1.00 20.00     0.014 C 
HETATM    4  C4  UNL     1     -25.647  -0.987  11.957  1.00 20.00     0.070 C 
HETATM    5  C5  UNL     1     -25.168  -4.247  12.306  1.00 20.00     0.197 C 
HETATM    6  C6  UNL     1     -24.411  -4.125  11.011  1.00 20.00     0.197 C 
HETATM    7  C7  UNL     1     -27.583  -0.831  10.555  1.00 20.00     0.021 A 
HETATM    8  C8  UNL     1     -26.753  -2.067  10.108  1.00 20.00     0.078 A 
HETATM    9  C9  UNL     1     -25.761  -2.334  11.247  1.00 20.00     0.171 C 
HETATM   10  O10 UNL     1     -26.256  -3.337  12.146  1.00 20.00    -0.352 OA
HETATM   11  O11 UNL     1     -24.493  -2.731  10.717  1.00 20.00    -0.352 OA
ENDROOT
TORSDOF 0
ENDMDL
MODEL 9
REMARK VINA RESULT:      -3.4     12.171     13.673
REMARK  0 active torsions:
REMARK  status: ('A' for Active; 'I' for Inactive)
ROOT
HETATM    1  C1  UNL     1     -34.541  18.460  -5.143  1.00 20.00    -0.025 A 
HETATM    2  C2  UNL     1     -34.572  19.259  -4.062  1.00 20.00    -0.020 A 
HETATM    3  C3  UNL     1     -33.586  16.252  -4.145  1.00 20.00     0.014 C 
HETATM    4  C4  UNL     1     -33.426  16.198  -2.631  1.00 20.00     0.070 C 
HETATM    5  C5  UNL     1     -32.049  18.782  -1.081  1.00 20.00     0.197 C 
HETATM    6  C6  UNL     1     -33.326  18.796  -0.284  1.00 20.00     0.197 C 
HETATM    7  C7  UNL     1     -34.772  17.196  -4.342  1.00 20.00     0.021 A 
HETATM    8  C8  UNL     1     -34.808  18.117  -3.092  1.00 20.00     0.078 A 
HETATM    9  C9  UNL     1     -33.661  17.641  -2.193  1.00 20.00     0.171 C 
HETATM   10  O10 UNL     1     -32.477  18.428  -2.395  1.00 20.00    -0.352 OA
HETATM   11  O11 UNL     1     -34.053  17.691  -0.817  1.00 20.00    -0.352 OA
ENDROOT
TORSDOF 0
ENDMDL
