MODEL 1
REMARK VINA RESULT:      -4.1      0.000      0.000
REMARK  1 active torsions:
REMARK  status: ('A' for Active; 'I' for Inactive)
REMARK    1  A    between atoms: C7_7  and  N9_9 
ROOT
HETATM    1  C1  UNL     1     -31.991   8.682   4.018  1.00 20.00     0.004 A 
HETATM    2  C2  UNL     1     -31.974   7.564   3.284  1.00 20.00     0.042 A 
HETATM    3  C3  UNL     1     -33.011   8.905   5.001  1.00 20.00     0.018 A 
HETATM    4  C4  UNL     1     -33.965   7.987   5.192  1.00 20.00     0.097 A 
HETATM    5  C5  UNL     1     -33.031   6.509   3.474  1.00 20.00     0.106 A 
HETATM    6  N9  UNL     1     -34.000   6.806   4.461  1.00 20.00    -0.324 N 
HETATM    7  S10 UNL     1     -32.980   5.103   2.529  1.00 20.00    -0.060 SA
ENDROOT
BRANCH   6   8
HETATM    8  C7  UNL     1     -35.056   5.985   4.797  1.00 20.00     0.093 C 
HETATM    9  C6  UNL     1     -35.022   5.155   5.846  1.00 20.00    -0.013 C 
HETATM   10  C8  UNL     1     -33.849   5.027   6.761  1.00 20.00     0.037 C 
ENDBRANCH   6   8
TORSDOF 1
ENDMDL
MODEL 2
REMARK VINA RESULT:      -3.5      1.754      2.467
REMARK  1 active torsions:
REMARK  status: ('A' for Active; 'I' for Inactive)
REMARK    1  A    between atoms: C7_7  and  N9_9 
ROOT
HETATM    1  C1  UNL     1     -32.042   6.663   2.423  1.00 20.00     0.004 A 
HETATM    2  C2  UNL     1     -32.246   7.635   3.318  1.00 20.00     0.042 A 
HETATM    3  C3  UNL     1     -32.827   5.462   2.443  1.00 20.00     0.018 A 
HETATM    4  C4  UNL     1     -33.778   5.304   3.371  1.00 20.00     0.097 A 
HETATM    5  C5  UNL     1     -33.309   7.489   4.375  1.00 20.00     0.106 A 
HETATM    6  N9  UNL     1     -34.036   6.277   4.327  1.00 20.00    -0.324 N 
HETATM    7  S10 UNL     1     -33.542   8.740   5.495  1.00 20.00    -0.060 SA
ENDROOT
BRANCH   6   8
HETATM    8  C7  UNL     1     -35.050   5.934   5.196  1.00 20.00     0.093 C 
HETATM    9  C6  UNL     1     -34.823   5.367   6.386  1.00 20.00    -0.013 C 
HETATM   10  C8  UNL     1     -33.459   5.045   6.902  1.00 20.00     0.037 C 
ENDBRANCH   6   8
TORSDOF 1
ENDMDL
MODEL 3
REMARK VINA RESULT:      -3.5     12.799     13.644
REMARK  1 active torsions:
REMARK  status: ('A' for Active; 'I' for Inactive)
REMARK    1  A    between atoms: C7_7  and  N9_9 
ROOT
HETATM    1  C1  UNL     1     -34.078  17.703  -2.159  1.00 20.00     0.004 A 
HETATM    2  C2  UNL     1     -34.951  18.275  -2.995  1.00 20.00     0.042 A 
HETATM    3  C3  UNL     1     -33.306  16.564  -2.563  1.00 20.00     0.018 A 
HETATM    4  C4  UNL     1     -33.457  16.058  -3.792  1.00 20.00     0.097 A 
HETATM    5  C5  UNL     1     -35.145  17.732  -4.386  1.00 20.00     0.106 A 
HETATM    6  N9  UNL     1     -34.347  16.608  -4.704  1.00 20.00    -0.324 N 
HETATM    7  S10 UNL     1     -36.258  18.481  -5.421  1.00 20.00    -0.060 SA
ENDROOT
BRANCH   6   8
HETATM    8  C7  UNL     1     -34.363  15.952  -5.917  1.00 20.00     0.093 C 
HETATM    9  C6  UNL     1     -35.154  14.900  -6.160  1.00 20.00    -0.013 C 
HETATM   10  C8  UNL     1     -36.099  14.326  -5.157  1.00 20.00     0.037 C 
ENDBRANCH   6   8
TORSDOF 1
ENDMDL
MODEL 4
REMARK VINA RESULT:      -3.4     12.577     13.534
REMARK  1 active torsions:
REMARK  status: ('A' for Active; 'I' for Inactive)
REMARK    1  A    between atoms: C7_7  and  N9_9 
ROOT
HETATM    1  C1  UNL     1     -34.891  14.782  -5.071  1.00 20.00     0.004 A 
HETATM    2  C2  UNL     1     -35.483  15.959  -5.299  1.00 20.00     0.042 A 
HETATM    3  C3  UNL     1     -33.688  14.697  -4.293  1.00 20.00     0.018 A 
HETATM    4  C4  UNL     1     -33.143  15.808  -3.786  1.00 20.00     0.097 A 
HETATM    5  C5  UNL     1     -34.897  17.229  -4.741  1.00 20.00     0.106 A 
HETATM    6  N9  UNL     1     -33.712  17.059  -3.988  1.00 20.00    -0.324 N 
HETATM    7  S10 UNL     1     -35.672  18.704  -5.046  1.00 20.00    -0.060 SA
ENDROOT
BRANCH   6   8
HETATM    8  C7  UNL     1     -33.008  18.083  -3.388  1.00 20.00     0.093 C 
HETATM    9  C6  UNL     1     -33.007  18.283  -2.066  1.00 20.00    -0.013 C 
HETATM   10  C8  UNL     1     -33.759  17.428  -1.099  1.00 20.00     0.037 C 
ENDBRANCH   6   8
TORSDOF 1
ENDMDL
MODEL 5
REMARK VINA RESULT:      -3.4     12.591     13.336
REMARK  1 active torsions:
REMARK  status: ('A' for Active; 'I' for Inactive)
REMARK    1  A    between atoms: C7_7  and  N9_9 
ROOT
HETATM    1  C1  UNL     1     -32.164  18.815   1.498  1.00 20.00     0.004 A 
HETATM    2  C2  UNL     1     -33.442  18.996   1.148  1.00 20.00     0.042 A 
HETATM    3  C3  UNL     1     -31.141  18.651   0.505  1.00 20.00     0.018 A 
HETATM    4  C4  UNL     1     -31.463  18.676  -0.793  1.00 20.00     0.097 A 
HETATM    5  C5  UNL     1     -33.838  19.031  -0.305  1.00 20.00     0.106 A 
HETATM    6  N9  UNL     1     -32.772  18.861  -1.218  1.00 20.00    -0.324 N 
HETATM    7  S10 UNL     1     -35.466  19.263  -0.715  1.00 20.00    -0.060 SA
ENDROOT
BRANCH   6   8
HETATM    8  C7  UNL     1     -32.907  18.857  -2.591  1.00 20.00     0.093 C 
HETATM    9  C6  UNL     1     -33.184  17.750  -3.288  1.00 20.00    -0.013 C 
HETATM   10  C8  UNL     1     -33.377  16.406  -2.665  1.00 20.00     0.037 C 
ENDBRANCH   6   8
TORSDOF 1
ENDMDL
MODEL 6
REMARK VINA RESULT:      -3.4     10.159     11.153
REMARK  1 active torsions:
REMARK  status: ('A' for Active; 'I' for Inactive)
REMARK    1  A    between atoms: C7_7  and  N9_9 
ROOT
HETATM    1  C1  UNL     1     -41.335  14.890   9.532  1.00 20.00     0.004 A 
HETATM    2  C2  UNL     1     -42.215  13.939   9.202  1.00 20.00     0.042 A 
HETATM    3  C3  UNL     1     -40.411  15.408   8.565  1.00 20.00     0.018 A 
HETATM    4  C4  UNL     1     -40.422  14.936   7.313  1.00 20.00     0.097 A 
HETATM    5  C5  UNL     1     -42.256  13.387   7.802  1.00 20.00     0.106 A 
HETATM    6  N9  UNL     1     -41.312  13.949   6.912  1.00 20.00    -0.324 N 
HETATM    7  S10 UNL     1     -43.385  12.183   7.417  1.00 20.00    -0.060 SA
ENDROOT
BRANCH   6   8
HETATM    8  C7  UNL     1     -41.173  13.593   5.587  1.00 20.00     0.093 C 
HETATM    9  C6  UNL     1     -40.326  12.641   5.178  1.00 20.00    -0.013 C 
HETATM   10  C8  UNL     1     -39.447  11.864   6.103  1.00 20.00     0.037 C 
ENDBRANCH   6   8
TORSDOF 1
ENDMDL
MODEL 7
REMARK VINA RESULT:      -3.4      1.140      3.511
REMARK  1 active torsions:
REMARK  status: ('A' for Active; 'I' for Inactive)
REMARK    1  A    between atoms: C7_7  and  N9_9 
ROOT
HETATM    1  C1  UNL     1     -34.964   5.689   5.931  1.00 20.00     0.004 A 
HETATM    2  C2  UNL     1     -34.567   5.218   4.744  1.00 20.00     0.042 A 
HETATM    3  C3  UNL     1     -34.367   6.864   6.497  1.00 20.00     0.018 A 
HETATM    4  C4  UNL     1     -33.397   7.503   5.835  1.00 20.00     0.097 A 
HETATM    5  C5  UNL     1     -33.479   5.914   3.971  1.00 20.00     0.106 A 
HETATM    6  N9  UNL     1     -32.943   7.063   4.599  1.00 20.00    -0.324 N 
HETATM    7  S10 UNL     1     -33.000   5.292   2.469  1.00 20.00    -0.060 SA
ENDROOT
BRANCH   6   8
HETATM    8  C7  UNL     1     -31.940   7.850   4.072  1.00 20.00     0.093 C 
HETATM    9  C6  UNL     1     -32.179   8.853   3.220  1.00 20.00    -0.013 C 
HETATM   10  C8  UNL     1     -33.545   9.230   2.749  1.00 20.00     0.037 C 
ENDBRANCH   6   8
TORSDOF 1
ENDMDL
MODEL 8
REMARK VINA RESULT:      -3.4     12.638     13.959
REMARK  1 active torsions:
REMARK  status: ('A' for Active; 'I' for Inactive)
REMARK    1  A    between atoms: C7_7  and  N9_9 
ROOT
HETATM    1  C1  UNL     1     -33.278  16.316  -3.058  1.00 20.00     0.004 A 
HETATM    2  C2  UNL     1     -34.081  17.318  -3.431  1.00 20.00     0.042 A 
HETATM    3  C3  UNL     1     -33.320  15.047  -3.727  1.00 20.00     0.018 A 
HETATM    4  C4  UNL     1     -34.173  14.855  -4.739  1.00 20.00     0.097 A 
HETATM    5  C5  UNL     1     -35.052  17.136  -4.568  1.00 20.00     0.106 A 
HETATM    6  N9  UNL     1     -35.031  15.858  -5.171  1.00 20.00    -0.324 N 
HETATM    7  S10 UNL     1     -36.055  18.427  -5.017  1.00 20.00    -0.060 SA
ENDROOT
BRANCH   6   8
HETATM    8  C7  UNL     1     -35.835  15.473  -6.224  1.00 20.00     0.093 C 
HETATM    9  C6  UNL     1     -35.427  15.507  -7.497  1.00 20.00    -0.013 C 
HETATM   10  C8  UNL     1     -34.067  15.961  -7.918  1.00 20.00     0.037 C 
ENDBRANCH   6   8
TORSDOF 1
ENDMDL
MODEL 9
REMARK VINA RESULT:      -3.3     12.810     14.232
REMARK  1 active torsions:
REMARK  status: ('A' for Active; 'I' for Inactive)
REMARK    1  A    between atoms: C7_7  and  N9_9 
ROOT
HETATM    1  C1  UNL     1     -33.312  16.707  -2.358  1.00 20.00     0.004 A 
HETATM    2  C2  UNL     1     -33.351  15.908  -3.429  1.00 20.00     0.042 A 
HETATM    3  C3  UNL     1     -34.117  17.893  -2.291  1.00 20.00     0.018 A 
HETATM    4  C4  UNL     1     -34.919  18.212  -3.312  1.00 20.00     0.097 A 
HETATM    5  C5  UNL     1     -34.245  16.237  -4.596  1.00 20.00     0.106 A 
HETATM    6  N9  UNL     1     -35.003  17.422  -4.451  1.00 20.00    -0.324 N 
HETATM    7  S10 UNL     1     -34.272  15.203  -5.938  1.00 20.00    -0.060 SA
ENDROOT
BRANCH   6   8
HETATM    8  C7  UNL     1     -35.882  17.913  -5.394  1.00 20.00     0.093 C 
HETATM    9  C6  UNL     1     -35.502  18.730  -6.382  1.00 20.00    -0.013 C 
HETATM   10  C8  UNL     1     -34.097  19.196  -6.575  1.00 20.00     0.037 C 
ENDBRANCH   6   8
TORSDOF 1
ENDMDL
