MODEL 1
REMARK VINA RESULT:      -4.3      0.000      0.000
REMARK  0 active torsions:
REMARK  status: ('A' for Active; 'I' for Inactive)
ROOT
HETATM    1  C1  UNL     1     -34.647   5.731   5.904  1.00 20.00     0.013 C 
HETATM    2  C2  UNL     1     -34.214   7.141   6.364  1.00 20.00     0.035 C 
HETATM    3  C3  UNL     1     -34.813   5.526   4.379  1.00 20.00     0.074 C 
HETATM    4  C4  UNL     1     -32.632   7.088   3.230  1.00 20.00     0.108 C 
HETATM    5  C5  UNL     1     -32.977   7.507   5.646  1.00 20.00     0.152 A 
HETATM    6  C6  UNL     1     -33.296   7.928   4.235  1.00 20.00     0.160 A 
HETATM    7  O7  UNL     1     -32.642   8.799   5.154  1.00 20.00    -0.375 OA
HETATM    8  S8  UNL     1     -33.252   5.351   3.387  1.00 20.00    -0.166 SA
ENDROOT
TORSDOF 0
ENDMDL
MODEL 2
REMARK VINA RESULT:      -4.0      2.082      2.710
REMARK  0 active torsions:
REMARK  status: ('A' for Active; 'I' for Inactive)
ROOT
HETATM    1  C1  UNL     1     -34.717   5.819   5.975  1.00 20.00     0.013 C 
HETATM    2  C2  UNL     1     -34.443   4.831   4.819  1.00 20.00     0.035 C 
HETATM    3  C3  UNL     1     -33.609   6.858   6.269  1.00 20.00     0.074 C 
HETATM    4  C4  UNL     1     -32.618   7.580   3.620  1.00 20.00     0.108 C 
HETATM    5  C5  UNL     1     -34.116   5.609   3.607  1.00 20.00     0.152 A 
HETATM    6  C6  UNL     1     -32.699   6.115   3.678  1.00 20.00     0.160 A 
HETATM    7  O7  UNL     1     -33.147   5.265   2.626  1.00 20.00    -0.375 OA
HETATM    8  S8  UNL     1     -33.479   8.293   5.097  1.00 20.00    -0.166 SA
ENDROOT
TORSDOF 0
ENDMDL
MODEL 3
REMARK VINA RESULT:      -3.9      1.114      2.490
REMARK  0 active torsions:
REMARK  status: ('A' for Active; 'I' for Inactive)
ROOT
HETATM    1  C1  UNL     1     -32.988   5.979   2.713  1.00 20.00     0.013 C 
HETATM    2  C2  UNL     1     -32.203   7.256   3.092  1.00 20.00     0.035 C 
HETATM    3  C3  UNL     1     -33.503   5.116   3.890  1.00 20.00     0.074 C 
HETATM    4  C4  UNL     1     -34.322   7.082   5.885  1.00 20.00     0.108 C 
HETATM    5  C5  UNL     1     -33.032   8.059   4.011  1.00 20.00     0.152 A 
HETATM    6  C6  UNL     1     -32.993   7.473   5.398  1.00 20.00     0.160 A 
HETATM    7  O7  UNL     1     -32.566   8.805   5.128  1.00 20.00    -0.375 OA
HETATM    8  S8  UNL     1     -34.998   5.746   4.795  1.00 20.00    -0.166 SA
ENDROOT
TORSDOF 0
ENDMDL
MODEL 4
REMARK VINA RESULT:      -3.9      2.072      2.792
REMARK  0 active torsions:
REMARK  status: ('A' for Active; 'I' for Inactive)
ROOT
HETATM    1  C1  UNL     1     -33.576   8.084   5.286  1.00 20.00     0.013 C 
HETATM    2  C2  UNL     1     -34.349   6.849   5.802  1.00 20.00     0.035 C 
HETATM    3  C3  UNL     1     -32.316   7.800   4.435  1.00 20.00     0.074 C 
HETATM    4  C4  UNL     1     -33.071   5.481   2.831  1.00 20.00     0.108 C 
HETATM    5  C5  UNL     1     -34.676   5.987   4.649  1.00 20.00     0.152 A 
HETATM    6  C6  UNL     1     -33.461   5.205   4.220  1.00 20.00     0.160 A 
HETATM    7  O7  UNL     1     -34.665   4.565   4.634  1.00 20.00    -0.375 OA
HETATM    8  S8  UNL     1     -32.599   7.265   2.679  1.00 20.00    -0.166 SA
ENDROOT
TORSDOF 0
ENDMDL
MODEL 5
REMARK VINA RESULT:      -3.8      2.254      3.535
REMARK  0 active torsions:
REMARK  status: ('A' for Active; 'I' for Inactive)
ROOT
HETATM    1  C1  UNL     1     -32.397   6.724   2.891  1.00 20.00     0.013 C 
HETATM    2  C2  UNL     1     -33.236   5.426   2.860  1.00 20.00     0.035 C 
HETATM    3  C3  UNL     1     -33.031   7.935   3.618  1.00 20.00     0.074 C 
HETATM    4  C4  UNL     1     -34.386   6.736   5.908  1.00 20.00     0.108 C 
HETATM    5  C5  UNL     1     -33.605   5.075   4.246  1.00 20.00     0.152 A 
HETATM    6  C6  UNL     1     -34.739   5.945   4.722  1.00 20.00     0.160 A 
HETATM    7  O7  UNL     1     -34.846   4.526   4.671  1.00 20.00    -0.375 OA
HETATM    8  S8  UNL     1     -33.010   7.897   5.475  1.00 20.00    -0.166 SA
ENDROOT
TORSDOF 0
ENDMDL
MODEL 6
REMARK VINA RESULT:      -3.8      2.126      3.275
REMARK  0 active torsions:
REMARK  status: ('A' for Active; 'I' for Inactive)
ROOT
HETATM    1  C1  UNL     1     -32.531   8.292   4.597  1.00 20.00     0.013 C 
HETATM    2  C2  UNL     1     -32.333   7.517   3.274  1.00 20.00     0.035 C 
HETATM    3  C3  UNL     1     -33.892   8.101   5.308  1.00 20.00     0.074 C 
HETATM    4  C4  UNL     1     -34.502   5.278   4.889  1.00 20.00     0.108 C 
HETATM    5  C5  UNL     1     -32.599   6.087   3.527  1.00 20.00     0.152 A 
HETATM    6  C6  UNL     1     -34.083   5.837   3.597  1.00 20.00     0.160 A 
HETATM    7  O7  UNL     1     -33.252   5.186   2.641  1.00 20.00    -0.375 OA
HETATM    8  S8  UNL     1     -34.137   6.506   6.227  1.00 20.00    -0.166 SA
ENDROOT
TORSDOF 0
ENDMDL
MODEL 7
REMARK VINA RESULT:      -3.5      1.297      1.628
REMARK  0 active torsions:
REMARK  status: ('A' for Active; 'I' for Inactive)
ROOT
HETATM    1  C1  UNL     1     -34.226   4.656   4.730  1.00 20.00     0.013 C 
HETATM    2  C2  UNL     1     -34.675   5.401   6.007  1.00 20.00     0.035 C 
HETATM    3  C3  UNL     1     -34.078   5.513   3.450  1.00 20.00     0.074 C 
HETATM    4  C4  UNL     1     -32.962   8.027   4.427  1.00 20.00     0.108 C 
HETATM    5  C5  UNL     1     -33.755   6.533   6.236  1.00 20.00     0.152 A 
HETATM    6  C6  UNL     1     -34.085   7.670   5.304  1.00 20.00     0.160 A 
HETATM    7  O7  UNL     1     -34.113   7.821   6.721  1.00 20.00    -0.375 OA
HETATM    8  S8  UNL     1     -32.565   6.585   3.335  1.00 20.00    -0.166 SA
ENDROOT
TORSDOF 0
ENDMDL
MODEL 8
REMARK VINA RESULT:      -3.3     15.961     16.336
REMARK  0 active torsions:
REMARK  status: ('A' for Active; 'I' for Inactive)
ROOT
HETATM    1  C1  UNL     1     -25.079  19.201   9.922  1.00 20.00     0.013 C 
HETATM    2  C2  UNL     1     -24.726  19.189   8.417  1.00 20.00     0.035 C 
HETATM    3  C3  UNL     1     -24.398  18.121  10.797  1.00 20.00     0.074 C 
HETATM    4  C4  UNL     1     -21.705  17.931   9.688  1.00 20.00     0.108 C 
HETATM    5  C5  UNL     1     -23.258  19.251   8.281  1.00 20.00     0.152 A 
HETATM    6  C6  UNL     1     -22.650  17.902   8.564  1.00 20.00     0.160 A 
HETATM    7  O7  UNL     1     -22.475  18.563   7.314  1.00 20.00    -0.375 OA
HETATM    8  S8  UNL     1     -22.614  18.403  11.231  1.00 20.00    -0.166 SA
ENDROOT
TORSDOF 0
ENDMDL
MODEL 9
REMARK VINA RESULT:      -3.3      9.321      9.811
REMARK  0 active torsions:
REMARK  status: ('A' for Active; 'I' for Inactive)
ROOT
HETATM    1  C1  UNL     1     -43.191   5.608   1.752  1.00 20.00     0.013 C 
HETATM    2  C2  UNL     1     -41.907   4.934   1.217  1.00 20.00     0.035 C 
HETATM    3  C3  UNL     1     -43.186   7.155   1.800  1.00 20.00     0.074 C 
HETATM    4  C4  UNL     1     -41.754   7.918  -0.626  1.00 20.00     0.108 C 
HETATM    5  C5  UNL     1     -41.600   5.501  -0.111  1.00 20.00     0.152 A 
HETATM    6  C6  UNL     1     -40.974   6.863   0.035  1.00 20.00     0.160 A 
HETATM    7  O7  UNL     1     -40.304   5.790  -0.621  1.00 20.00    -0.375 OA
HETATM    8  S8  UNL     1     -43.415   8.040   0.183  1.00 20.00    -0.166 SA
ENDROOT
TORSDOF 0
ENDMDL
