MODEL 1
REMARK VINA RESULT:      -4.7      0.000      0.000
REMARK  2 active torsions:
REMARK  status: ('A' for Active; 'I' for Inactive)
REMARK    1  A    between atoms: C1_1  and  C3_3 
REMARK    2  A    between atoms: C3_3  and  C5_5 
ROOT
HETATM    1  C1  UNL     1     -32.824   7.750   3.936  1.00 20.00     0.212 C 
HETATM    2  C2  UNL     1     -32.488   7.049   2.850  1.00 20.00     0.228 C 
HETATM    3  F7  UNL     1     -32.559   9.070   4.027  1.00 20.00    -0.198 F 
HETATM    4  F8  UNL     1     -31.872   7.650   1.808  1.00 20.00    -0.189 F 
HETATM    5 CL9  UNL     1     -32.829   5.362   2.738  1.00 20.00    -0.048 Cl
ENDROOT
BRANCH   1   6
HETATM    6  C3  UNL     1     -33.503   7.164   5.124  1.00 20.00     0.191 C 
HETATM    7  O6  UNL     1     -33.068   7.337   6.260  1.00 20.00    -0.290 OA
BRANCH   6   8
HETATM    8  C5  UNL     1     -34.750   6.346   4.841  1.00 20.00     0.082 C 
HETATM    9  C4  UNL     1     -34.885   5.151   5.769  1.00 20.00     0.013 C 
ENDBRANCH   6   8
ENDBRANCH   1   6
TORSDOF 2
ENDMDL
MODEL 2
REMARK VINA RESULT:      -4.7      1.358      1.579
REMARK  2 active torsions:
REMARK  status: ('A' for Active; 'I' for Inactive)
REMARK    1  A    between atoms: C1_1  and  C3_3 
REMARK    2  A    between atoms: C3_3  and  C5_5 
ROOT
HETATM    1  C1  UNL     1     -33.496   8.209   5.056  1.00 20.00     0.212 C 
HETATM    2  C2  UNL     1     -32.763   8.321   3.946  1.00 20.00     0.228 C 
HETATM    3  F7  UNL     1     -33.916   9.300   5.732  1.00 20.00    -0.198 F 
HETATM    4  F8  UNL     1     -32.424   9.539   3.467  1.00 20.00    -0.189 F 
HETATM    5 CL9  UNL     1     -32.229   6.925   3.086  1.00 20.00    -0.048 Cl
ENDROOT
BRANCH   1   6
HETATM    6  C3  UNL     1     -33.910   6.908   5.648  1.00 20.00     0.191 C 
HETATM    7  O6  UNL     1     -33.453   6.517   6.720  1.00 20.00    -0.290 OA
BRANCH   6   8
HETATM    8  C5  UNL     1     -34.921   6.105   4.848  1.00 20.00     0.082 C 
HETATM    9  C4  UNL     1     -34.491   4.661   4.652  1.00 20.00     0.013 C 
ENDBRANCH   6   8
ENDBRANCH   1   6
TORSDOF 2
ENDMDL
MODEL 3
REMARK VINA RESULT:      -4.6      2.614      3.026
REMARK  2 active torsions:
REMARK  status: ('A' for Active; 'I' for Inactive)
REMARK    1  A    between atoms: C1_1  and  C3_3 
REMARK    2  A    between atoms: C3_3  and  C5_5 
ROOT
HETATM    1  C1  UNL     1     -33.943   4.941   3.933  1.00 20.00     0.212 C 
HETATM    2  C2  UNL     1     -33.019   5.518   3.160  1.00 20.00     0.228 C 
HETATM    3  F7  UNL     1     -34.079   3.599   3.980  1.00 20.00    -0.198 F 
HETATM    4  F8  UNL     1     -32.190   4.765   2.403  1.00 20.00    -0.189 F 
HETATM    5 CL9  UNL     1     -32.848   7.233   3.104  1.00 20.00    -0.048 Cl
ENDROOT
BRANCH   1   6
HETATM    6  C3  UNL     1     -34.892   5.698   4.794  1.00 20.00     0.191 C 
HETATM    7  O6  UNL     1     -35.953   6.132   4.350  1.00 20.00    -0.290 OA
BRANCH   6   8
HETATM    8  C5  UNL     1     -34.467   5.897   6.238  1.00 20.00     0.082 C 
HETATM    9  C4  UNL     1     -33.932   7.295   6.499  1.00 20.00     0.013 C 
ENDBRANCH   6   8
ENDBRANCH   1   6
TORSDOF 2
ENDMDL
MODEL 4
REMARK VINA RESULT:      -4.6      2.113      2.545
REMARK  2 active torsions:
REMARK  status: ('A' for Active; 'I' for Inactive)
REMARK    1  A    between atoms: C1_1  and  C3_3 
REMARK    2  A    between atoms: C3_3  and  C5_5 
ROOT
HETATM    1  C1  UNL     1     -33.212   5.718   3.073  1.00 20.00     0.212 C 
HETATM    2  C2  UNL     1     -32.589   6.896   3.155  1.00 20.00     0.228 C 
HETATM    3  F7  UNL     1     -33.161   4.976   1.947  1.00 20.00    -0.198 F 
HETATM    4  F8  UNL     1     -31.887   7.377   2.105  1.00 20.00    -0.189 F 
HETATM    5 CL9  UNL     1     -32.656   7.841   4.597  1.00 20.00    -0.048 Cl
ENDROOT
BRANCH   1   6
HETATM    6  C3  UNL     1     -34.004   5.120   4.182  1.00 20.00     0.191 C 
HETATM    7  O6  UNL     1     -33.893   3.933   4.481  1.00 20.00    -0.290 OA
BRANCH   6   8
HETATM    8  C5  UNL     1     -34.949   6.061   4.907  1.00 20.00     0.082 C 
HETATM    9  C4  UNL     1     -34.851   5.934   6.418  1.00 20.00     0.013 C 
ENDBRANCH   6   8
ENDBRANCH   1   6
TORSDOF 2
ENDMDL
MODEL 5
REMARK VINA RESULT:      -4.5      2.081      2.640
REMARK  2 active torsions:
REMARK  status: ('A' for Active; 'I' for Inactive)
REMARK    1  A    between atoms: C1_1  and  C3_3 
REMARK    2  A    between atoms: C3_3  and  C5_5 
ROOT
HETATM    1  C1  UNL     1     -33.956   7.250   5.482  1.00 20.00     0.212 C 
HETATM    2  C2  UNL     1     -32.957   7.828   4.809  1.00 20.00     0.228 C 
HETATM    3  F7  UNL     1     -34.321   7.688   6.706  1.00 20.00    -0.198 F 
HETATM    4  F8  UNL     1     -32.285   8.873   5.341  1.00 20.00    -0.189 F 
HETATM    5 CL9  UNL     1     -32.495   7.266   3.246  1.00 20.00    -0.048 Cl
ENDROOT
BRANCH   1   6
HETATM    6  C3  UNL     1     -34.744   6.097   4.969  1.00 20.00     0.191 C 
HETATM    7  O6  UNL     1     -35.780   6.264   4.329  1.00 20.00    -0.290 OA
BRANCH   6   8
HETATM    8  C5  UNL     1     -34.190   4.719   5.286  1.00 20.00     0.082 C 
HETATM    9  C4  UNL     1     -33.689   3.995   4.048  1.00 20.00     0.013 C 
ENDBRANCH   6   8
ENDBRANCH   1   6
TORSDOF 2
ENDMDL
MODEL 6
REMARK VINA RESULT:      -4.4      2.649      3.612
REMARK  2 active torsions:
REMARK  status: ('A' for Active; 'I' for Inactive)
REMARK    1  A    between atoms: C1_1  and  C3_3 
REMARK    2  A    between atoms: C3_3  and  C5_5 
ROOT
HETATM    1  C1  UNL     1     -33.659   6.864   5.991  1.00 20.00     0.212 C 
HETATM    2  C2  UNL     1     -34.550   5.906   5.726  1.00 20.00     0.228 C 
HETATM    3  F7  UNL     1     -32.887   6.817   7.098  1.00 20.00    -0.198 F 
HETATM    4  F8  UNL     1     -34.701   4.857   6.565  1.00 20.00    -0.189 F 
HETATM    5 CL9  UNL     1     -35.533   5.970   4.310  1.00 20.00    -0.048 Cl
ENDROOT
BRANCH   1   6
HETATM    6  C3  UNL     1     -33.433   8.050   5.120  1.00 20.00     0.191 C 
HETATM    7  O6  UNL     1     -34.235   8.981   5.085  1.00 20.00    -0.290 OA
BRANCH   6   8
HETATM    8  C5  UNL     1     -32.163   8.032   4.287  1.00 20.00     0.082 C 
HETATM    9  C4  UNL     1     -32.326   7.247   2.996  1.00 20.00     0.013 C 
ENDBRANCH   6   8
ENDBRANCH   1   6
TORSDOF 2
ENDMDL
MODEL 7
REMARK VINA RESULT:      -4.3      1.698      2.086
REMARK  2 active torsions:
REMARK  status: ('A' for Active; 'I' for Inactive)
REMARK    1  A    between atoms: C1_1  and  C3_3 
REMARK    2  A    between atoms: C3_3  and  C5_5 
ROOT
HETATM    1  C1  UNL     1     -32.732   6.578   3.035  1.00 20.00     0.212 C 
HETATM    2  C2  UNL     1     -33.093   5.295   2.951  1.00 20.00     0.228 C 
HETATM    3  F7  UNL     1     -32.130   7.206   2.003  1.00 20.00    -0.198 F 
HETATM    4  F8  UNL     1     -32.864   4.591   1.820  1.00 20.00    -0.189 F 
HETATM    5 CL9  UNL     1     -33.862   4.497   4.272  1.00 20.00    -0.048 Cl
ENDROOT
BRANCH   1   6
HETATM    6  C3  UNL     1     -32.947   7.422   4.242  1.00 20.00     0.191 C 
HETATM    7  O6  UNL     1     -32.088   8.208   4.635  1.00 20.00    -0.290 OA
BRANCH   6   8
HETATM    8  C5  UNL     1     -34.280   7.247   4.948  1.00 20.00     0.082 C 
HETATM    9  C4  UNL     1     -34.124   7.061   6.448  1.00 20.00     0.013 C 
ENDBRANCH   6   8
ENDBRANCH   1   6
TORSDOF 2
ENDMDL
MODEL 8
REMARK VINA RESULT:      -4.3      2.439      3.329
REMARK  2 active torsions:
REMARK  status: ('A' for Active; 'I' for Inactive)
REMARK    1  A    between atoms: C1_1  and  C3_3 
REMARK    2  A    between atoms: C3_3  and  C5_5 
ROOT
HETATM    1  C1  UNL     1     -33.605   7.564   5.299  1.00 20.00     0.212 C 
HETATM    2  C2  UNL     1     -34.155   6.809   6.253  1.00 20.00     0.228 C 
HETATM    3  F7  UNL     1     -33.540   8.907   5.420  1.00 20.00    -0.198 F 
HETATM    4  F8  UNL     1     -34.661   7.375   7.371  1.00 20.00    -0.189 F 
HETATM    5 CL9  UNL     1     -34.235   5.093   6.095  1.00 20.00    -0.048 Cl
ENDROOT
BRANCH   1   6
HETATM    6  C3  UNL     1     -33.027   7.020   4.040  1.00 20.00     0.191 C 
HETATM    7  O6  UNL     1     -32.009   7.498   3.544  1.00 20.00    -0.290 OA
BRANCH   6   8
HETATM    8  C5  UNL     1     -33.770   5.851   3.418  1.00 20.00     0.082 C 
HETATM    9  C4  UNL     1     -32.879   5.006   2.522  1.00 20.00     0.013 C 
ENDBRANCH   6   8
ENDBRANCH   1   6
TORSDOF 2
ENDMDL
MODEL 9
REMARK VINA RESULT:      -4.3      2.254      3.697
REMARK  2 active torsions:
REMARK  status: ('A' for Active; 'I' for Inactive)
REMARK    1  A    between atoms: C1_1  and  C3_3 
REMARK    2  A    between atoms: C3_3  and  C5_5 
ROOT
HETATM    1  C1  UNL     1     -32.991   7.825   4.791  1.00 20.00     0.212 C 
HETATM    2  C2  UNL     1     -33.966   7.163   5.419  1.00 20.00     0.228 C 
HETATM    3  F7  UNL     1     -32.253   8.758   5.430  1.00 20.00    -0.198 F 
HETATM    4  F8  UNL     1     -34.238   7.413   6.720  1.00 20.00    -0.189 F 
HETATM    5 CL9  UNL     1     -34.906   5.972   4.600  1.00 20.00    -0.048 Cl
ENDROOT
BRANCH   1   6
HETATM    6  C3  UNL     1     -32.630   7.610   3.364  1.00 20.00     0.191 C 
HETATM    7  O6  UNL     1     -32.361   6.490   2.933  1.00 20.00    -0.290 OA
BRANCH   6   8
HETATM    8  C5  UNL     1     -32.613   8.849   2.487  1.00 20.00     0.082 C 
HETATM    9  C4  UNL     1     -32.269   8.534   1.041  1.00 20.00     0.013 C 
ENDBRANCH   6   8
ENDBRANCH   1   6
TORSDOF 2
ENDMDL
