MODEL 1
REMARK VINA RESULT:      -4.3      0.000      0.000
REMARK  0 active torsions:
REMARK  status: ('A' for Active; 'I' for Inactive)
ROOT
HETATM    1  C1  UNL     1     -24.950  18.618  10.742  1.00 20.00     0.136 C 
HETATM    2  C2  UNL     1     -24.719  19.261   9.401  1.00 20.00     0.080 C 
HETATM    3  C3  UNL     1     -23.198  19.263   9.304  1.00 20.00     0.017 C 
HETATM    4  C4  UNL     1     -21.533  18.504  12.154  1.00 20.00     0.002 C 
HETATM    5  C5  UNL     1     -23.015  18.800  12.332  1.00 20.00     0.018 C 
HETATM    6  C6  UNL     1     -21.333  18.187  10.671  1.00 20.00     0.010 C 
HETATM    7  C7  UNL     1     -23.704  17.928  11.276  1.00 20.00     0.024 C 
HETATM    8  C8  UNL     1     -22.736  17.997  10.064  1.00 20.00    -0.029 C 
HETATM    9  C9  UNL     1     -24.017  16.529  11.798  1.00 20.00     0.024 C 
HETATM   10  C10 UNL     1     -22.770  16.785   9.124  1.00 20.00     0.016 C 
HETATM   11  O11 UNL     1     -26.027  18.643  11.325  1.00 20.00    -0.297 OA
ENDROOT
TORSDOF 0
ENDMDL
MODEL 2
REMARK VINA RESULT:      -4.2     15.913     17.153
REMARK  0 active torsions:
REMARK  status: ('A' for Active; 'I' for Inactive)
ROOT
HETATM    1  C1  UNL     1     -32.849   6.751   3.394  1.00 20.00     0.136 C 
HETATM    2  C2  UNL     1     -33.086   5.338   2.930  1.00 20.00     0.080 C 
HETATM    3  C3  UNL     1     -33.881   4.750   4.090  1.00 20.00     0.017 C 
HETATM    4  C4  UNL     1     -33.990   6.623   6.910  1.00 20.00     0.002 C 
HETATM    5  C5  UNL     1     -32.957   7.063   5.883  1.00 20.00     0.018 C 
HETATM    6  C6  UNL     1     -34.990   5.739   6.163  1.00 20.00     0.010 C 
HETATM    7  C7  UNL     1     -33.739   7.133   4.567  1.00 20.00     0.024 C 
HETATM    8  C8  UNL     1     -34.711   5.925   4.659  1.00 20.00    -0.029 C 
HETATM    9  C9  UNL     1     -34.391   8.496   4.355  1.00 20.00     0.024 C 
HETATM   10  C10 UNL     1     -36.018   6.070   3.868  1.00 20.00     0.016 C 
HETATM   11  O11 UNL     1     -32.035   7.504   2.872  1.00 20.00    -0.297 OA
ENDROOT
TORSDOF 0
ENDMDL
MODEL 3
REMARK VINA RESULT:      -3.9     18.706     20.314
REMARK  0 active torsions:
REMARK  status: ('A' for Active; 'I' for Inactive)
ROOT
HETATM    1  C1  UNL     1     -35.981  15.202  -6.545  1.00 20.00     0.136 C 
HETATM    2  C2  UNL     1     -36.999  16.250  -6.179  1.00 20.00     0.080 C 
HETATM    3  C3  UNL     1     -36.294  17.003  -5.058  1.00 20.00     0.017 C 
HETATM    4  C4  UNL     1     -33.490  15.550  -3.833  1.00 20.00     0.002 C 
HETATM    5  C5  UNL     1     -34.344  14.657  -4.721  1.00 20.00     0.018 C 
HETATM    6  C6  UNL     1     -33.917  16.988  -4.132  1.00 20.00     0.010 C 
HETATM    7  C7  UNL     1     -34.606  15.505  -5.970  1.00 20.00     0.024 C 
HETATM    8  C8  UNL     1     -34.786  16.939  -5.403  1.00 20.00    -0.029 C 
HETATM    9  C9  UNL     1     -33.511  15.339  -7.019  1.00 20.00     0.024 C 
HETATM   10  C10 UNL     1     -34.424  18.078  -6.364  1.00 20.00     0.016 C 
HETATM   11  O11 UNL     1     -36.239  14.224  -7.237  1.00 20.00    -0.297 OA
ENDROOT
TORSDOF 0
ENDMDL
MODEL 4
REMARK VINA RESULT:      -3.9     18.101     19.837
REMARK  0 active torsions:
REMARK  status: ('A' for Active; 'I' for Inactive)
ROOT
HETATM    1  C1  UNL     1     -34.124  14.947  -4.217  1.00 20.00     0.136 C 
HETATM    2  C2  UNL     1     -33.519  16.056  -3.396  1.00 20.00     0.080 C 
HETATM    3  C3  UNL     1     -33.554  17.228  -4.368  1.00 20.00     0.017 C 
HETATM    4  C4  UNL     1     -34.279  16.462  -7.587  1.00 20.00     0.002 C 
HETATM    5  C5  UNL     1     -33.946  15.272  -6.700  1.00 20.00     0.018 C 
HETATM    6  C6  UNL     1     -34.637  17.613  -6.645  1.00 20.00     0.010 C 
HETATM    7  C7  UNL     1     -34.827  15.465  -5.461  1.00 20.00     0.024 C 
HETATM    8  C8  UNL     1     -34.811  17.002  -5.242  1.00 20.00    -0.029 C 
HETATM    9  C9  UNL     1     -36.205  14.833  -5.630  1.00 20.00     0.024 C 
HETATM   10  C10 UNL     1     -36.045  17.580  -4.537  1.00 20.00     0.016 C 
HETATM   11  O11 UNL     1     -34.059  13.764  -3.903  1.00 20.00    -0.297 OA
ENDROOT
TORSDOF 0
ENDMDL
MODEL 5
REMARK VINA RESULT:      -3.7     18.323     19.910
REMARK  0 active torsions:
REMARK  status: ('A' for Active; 'I' for Inactive)
ROOT
HETATM    1  C1  UNL     1     -34.733  17.302  -6.657  1.00 20.00     0.136 C 
HETATM    2  C2  UNL     1     -34.304  16.185  -7.570  1.00 20.00     0.080 C 
HETATM    3  C3  UNL     1     -33.834  15.125  -6.581  1.00 20.00     0.017 C 
HETATM    4  C4  UNL     1     -33.491  16.147  -3.370  1.00 20.00     0.002 C 
HETATM    5  C5  UNL     1     -33.657  17.265  -4.389  1.00 20.00     0.018 C 
HETATM    6  C6  UNL     1     -33.990  14.870  -4.048  1.00 20.00     0.010 C 
HETATM    7  C7  UNL     1     -34.879  16.847  -5.213  1.00 20.00     0.024 C 
HETATM    8  C8  UNL     1     -34.726  15.305  -5.329  1.00 20.00    -0.029 C 
HETATM    9  C9  UNL     1     -36.185  17.340  -4.599  1.00 20.00     0.024 C 
HETATM   10  C10 UNL     1     -36.035  14.525  -5.506  1.00 20.00     0.016 C 
HETATM   11  O11 UNL     1     -34.948  18.444  -7.045  1.00 20.00    -0.297 OA
ENDROOT
TORSDOF 0
ENDMDL
MODEL 6
REMARK VINA RESULT:      -3.5     18.128     19.881
REMARK  0 active torsions:
REMARK  status: ('A' for Active; 'I' for Inactive)
ROOT
HETATM    1  C1  UNL     1     -33.774  16.932  -4.167  1.00 20.00     0.136 C 
HETATM    2  C2  UNL     1     -33.292  15.555  -3.792  1.00 20.00     0.080 C 
HETATM    3  C3  UNL     1     -34.293  14.659  -4.510  1.00 20.00     0.017 C 
HETATM    4  C4  UNL     1     -37.023  16.210  -5.781  1.00 20.00     0.002 C 
HETATM    5  C5  UNL     1     -36.197  17.046  -4.814  1.00 20.00     0.018 C 
HETATM    6  C6  UNL     1     -36.115  15.070  -6.247  1.00 20.00     0.010 C 
HETATM    7  C7  UNL     1     -34.759  16.905  -5.325  1.00 20.00     0.024 C 
HETATM    8  C8  UNL     1     -34.686  15.426  -5.795  1.00 20.00    -0.029 C 
HETATM    9  C9  UNL     1     -34.416  17.954  -6.378  1.00 20.00     0.024 C 
HETATM   10  C10 UNL     1     -33.668  15.138  -6.905  1.00 20.00     0.016 C 
HETATM   11  O11 UNL     1     -33.401  17.953  -3.602  1.00 20.00    -0.297 OA
ENDROOT
TORSDOF 0
ENDMDL
MODEL 7
REMARK VINA RESULT:      -3.4     17.859     19.454
REMARK  0 active torsions:
REMARK  status: ('A' for Active; 'I' for Inactive)
ROOT
HETATM    1  C1  UNL     1     -40.512  13.827   7.321  1.00 20.00     0.136 C 
HETATM    2  C2  UNL     1     -40.258  15.198   7.890  1.00 20.00     0.080 C 
HETATM    3  C3  UNL     1     -41.252  16.055   7.116  1.00 20.00     0.017 C 
HETATM    4  C4  UNL     1     -42.734  14.568   4.458  1.00 20.00     0.002 C 
HETATM    5  C5  UNL     1     -41.535  13.824   5.028  1.00 20.00     0.018 C 
HETATM    6  C6  UNL     1     -43.196  15.537   5.547  1.00 20.00     0.010 C 
HETATM    7  C7  UNL     1     -41.812  13.758   6.534  1.00 20.00     0.024 C 
HETATM    8  C8  UNL     1     -42.465  15.133   6.842  1.00 20.00    -0.029 C 
HETATM    9  C9  UNL     1     -42.634  12.532   6.916  1.00 20.00     0.024 C 
HETATM   10  C10 UNL     1     -43.417  15.155   8.044  1.00 20.00     0.016 C 
HETATM   11  O11 UNL     1     -39.755  12.878   7.487  1.00 20.00    -0.297 OA
ENDROOT
TORSDOF 0
ENDMDL
MODEL 8
REMARK VINA RESULT:      -3.3     18.287     19.778
REMARK  0 active torsions:
REMARK  status: ('A' for Active; 'I' for Inactive)
ROOT
HETATM    1  C1  UNL     1     -42.090  14.408   5.185  1.00 20.00     0.136 C 
HETATM    2  C2  UNL     1     -42.292  15.827   5.648  1.00 20.00     0.080 C 
HETATM    3  C3  UNL     1     -42.658  15.636   7.114  1.00 20.00     0.017 C 
HETATM    4  C4  UNL     1     -43.341  12.458   8.068  1.00 20.00     0.002 C 
HETATM    5  C5  UNL     1     -43.282  12.682   6.564  1.00 20.00     0.018 C 
HETATM    6  C6  UNL     1     -42.618  13.645   8.708  1.00 20.00     0.010 C 
HETATM    7  C7  UNL     1     -41.964  13.433   6.345  1.00 20.00     0.024 C 
HETATM    8  C8  UNL     1     -41.879  14.380   7.573  1.00 20.00    -0.029 C 
HETATM    9  C9  UNL     1     -40.785  12.485   6.156  1.00 20.00     0.024 C 
HETATM   10  C10 UNL     1     -40.461  14.776   8.003  1.00 20.00     0.016 C 
HETATM   11  O11 UNL     1     -42.024  14.087   4.004  1.00 20.00    -0.297 OA
ENDROOT
TORSDOF 0
ENDMDL
MODEL 9
REMARK VINA RESULT:      -3.2     15.857     17.087
REMARK  0 active torsions:
REMARK  status: ('A' for Active; 'I' for Inactive)
ROOT
HETATM    1  C1  UNL     1     -34.453   6.112   6.081  1.00 20.00     0.136 C 
HETATM    2  C2  UNL     1     -33.512   7.151   6.633  1.00 20.00     0.080 C 
HETATM    3  C3  UNL     1     -32.636   7.461   5.427  1.00 20.00     0.017 C 
HETATM    4  C4  UNL     1     -32.938   5.351   2.794  1.00 20.00     0.002 C 
HETATM    5  C5  UNL     1     -33.574   4.864   4.088  1.00 20.00     0.018 C 
HETATM    6  C6  UNL     1     -32.748   6.861   2.950  1.00 20.00     0.010 C 
HETATM    7  C7  UNL     1     -34.421   6.050   4.562  1.00 20.00     0.024 C 
HETATM    8  C8  UNL     1     -33.553   7.284   4.193  1.00 20.00    -0.029 C 
HETATM    9  C9  UNL     1     -35.827   6.027   3.972  1.00 20.00     0.024 C 
HETATM   10  C10 UNL     1     -34.330   8.581   3.933  1.00 20.00     0.016 C 
HETATM   11  O11 UNL     1     -35.167   5.408   6.786  1.00 20.00    -0.297 OA
ENDROOT
TORSDOF 0
ENDMDL
