MODEL 1
REMARK VINA RESULT:      -4.2      0.000      0.000
REMARK  1 active torsions:
REMARK  status: ('A' for Active; 'I' for Inactive)
REMARK    1  A    between atoms: C4_4  and  C5_5 
ROOT
HETATM    1  C1  UNL     1     -32.932   5.364   2.782  1.00 20.00     0.015 C 
HETATM    2  C2  UNL     1     -33.808   5.326   3.603  1.00 20.00    -0.083 C 
HETATM    3  C3  UNL     1     -34.851   5.281   4.577  1.00 20.00     0.229 A 
HETATM    4  C4  UNL     1     -34.746   6.037   5.880  1.00 20.00     0.177 A 
HETATM    5  O6  UNL     1     -34.453   4.638   5.800  1.00 20.00    -0.361 OA
ENDROOT
BRANCH   4   6
HETATM    6  C5  UNL     1     -33.583   6.893   6.239  1.00 20.00     0.150 C 
HETATM    7 CL7  UNL     1     -33.594   8.422   5.316  1.00 20.00    -0.128 Cl
ENDBRANCH   4   6
TORSDOF 1
ENDMDL
MODEL 2
REMARK VINA RESULT:      -4.0      2.600      3.002
REMARK  1 active torsions:
REMARK  status: ('A' for Active; 'I' for Inactive)
REMARK    1  A    between atoms: C4_4  and  C5_5 
ROOT
HETATM    1  C1  UNL     1     -33.016   5.383   2.608  1.00 20.00     0.015 C 
HETATM    2  C2  UNL     1     -32.532   6.397   3.031  1.00 20.00    -0.083 C 
HETATM    3  C3  UNL     1     -31.955   7.603   3.534  1.00 20.00     0.229 A 
HETATM    4  C4  UNL     1     -32.645   8.424   4.595  1.00 20.00     0.177 A 
HETATM    5  O6  UNL     1     -32.723   8.774   3.210  1.00 20.00    -0.361 OA
ENDROOT
BRANCH   4   6
HETATM    6  C5  UNL     1     -33.946   8.042   5.210  1.00 20.00     0.150 C 
HETATM    7 CL7  UNL     1     -33.725   6.804   6.478  1.00 20.00    -0.128 Cl
ENDBRANCH   4   6
TORSDOF 1
ENDMDL
MODEL 3
REMARK VINA RESULT:      -3.9      2.298      2.929
REMARK  1 active torsions:
REMARK  status: ('A' for Active; 'I' for Inactive)
REMARK    1  A    between atoms: C4_4  and  C5_5 
ROOT
HETATM    1  C1  UNL     1     -32.790   8.483   4.316  1.00 20.00     0.015 C 
HETATM    2  C2  UNL     1     -33.045   7.758   5.239  1.00 20.00    -0.083 C 
HETATM    3  C3  UNL     1     -33.347   6.897   6.338  1.00 20.00     0.229 A 
HETATM    4  C4  UNL     1     -34.309   5.742   6.194  1.00 20.00     0.177 A 
HETATM    5  O6  UNL     1     -34.716   6.989   6.768  1.00 20.00    -0.361 OA
ENDROOT
BRANCH   4   6
HETATM    6  C5  UNL     1     -34.990   5.399   4.916  1.00 20.00     0.150 C 
HETATM    7 CL7  UNL     1     -33.915   4.466   3.838  1.00 20.00    -0.128 Cl
ENDBRANCH   4   6
TORSDOF 1
ENDMDL
MODEL 4
REMARK VINA RESULT:      -3.9      2.666      3.041
REMARK  1 active torsions:
REMARK  status: ('A' for Active; 'I' for Inactive)
REMARK    1  A    between atoms: C4_4  and  C5_5 
ROOT
HETATM    1  C1  UNL     1     -32.166   7.540   2.299  1.00 20.00     0.015 C 
HETATM    2  C2  UNL     1     -32.312   7.805   3.461  1.00 20.00    -0.083 C 
HETATM    3  C3  UNL     1     -32.484   8.120   4.844  1.00 20.00     0.229 A 
HETATM    4  C4  UNL     1     -33.543   7.444   5.680  1.00 20.00     0.177 A 
HETATM    5  O6  UNL     1     -33.745   8.748   5.127  1.00 20.00    -0.361 OA
ENDROOT
BRANCH   4   6
HETATM    6  C5  UNL     1     -34.462   6.399   5.151  1.00 20.00     0.150 C 
HETATM    7 CL7  UNL     1     -34.556   4.999   6.257  1.00 20.00    -0.128 Cl
ENDBRANCH   4   6
TORSDOF 1
ENDMDL
MODEL 5
REMARK VINA RESULT:      -3.9      2.685      3.607
REMARK  1 active torsions:
REMARK  status: ('A' for Active; 'I' for Inactive)
REMARK    1  A    between atoms: C4_4  and  C5_5 
ROOT
HETATM    1  C1  UNL     1     -34.360   5.827   6.279  1.00 20.00     0.015 C 
HETATM    2  C2  UNL     1     -34.053   6.903   5.844  1.00 20.00    -0.083 C 
HETATM    3  C3  UNL     1     -33.688   8.184   5.328  1.00 20.00     0.229 A 
HETATM    4  C4  UNL     1     -32.900   8.322   4.047  1.00 20.00     0.177 A 
HETATM    5  O6  UNL     1     -32.268   8.409   5.328  1.00 20.00    -0.361 OA
ENDROOT
BRANCH   4   6
HETATM    6  C5  UNL     1     -32.468   7.161   3.222  1.00 20.00     0.150 C 
HETATM    7 CL7  UNL     1     -32.044   7.668   1.563  1.00 20.00    -0.128 Cl
ENDBRANCH   4   6
TORSDOF 1
ENDMDL
MODEL 6
REMARK VINA RESULT:      -3.6      1.975      2.427
REMARK  1 active torsions:
REMARK  status: ('A' for Active; 'I' for Inactive)
REMARK    1  A    between atoms: C4_4  and  C5_5 
ROOT
HETATM    1  C1  UNL     1     -34.371   4.634   4.492  1.00 20.00     0.015 C 
HETATM    2  C2  UNL     1     -34.385   5.713   5.019  1.00 20.00    -0.083 C 
HETATM    3  C3  UNL     1     -34.403   6.996   5.647  1.00 20.00     0.229 A 
HETATM    4  C4  UNL     1     -33.410   8.070   5.273  1.00 20.00     0.177 A 
HETATM    5  O6  UNL     1     -33.229   7.255   6.436  1.00 20.00    -0.361 OA
ENDROOT
BRANCH   4   6
HETATM    6  C5  UNL     1     -32.367   7.893   4.226  1.00 20.00     0.150 C 
HETATM    7 CL7  UNL     1     -32.713   8.896   2.790  1.00 20.00    -0.128 Cl
ENDBRANCH   4   6
TORSDOF 1
ENDMDL
MODEL 7
REMARK VINA RESULT:      -3.4      2.087      3.229
REMARK  1 active torsions:
REMARK  status: ('A' for Active; 'I' for Inactive)
REMARK    1  A    between atoms: C4_4  and  C5_5 
ROOT
HETATM    1  C1  UNL     1     -33.745   7.712   6.686  1.00 20.00     0.015 C 
HETATM    2  C2  UNL     1     -34.161   6.666   6.267  1.00 20.00    -0.083 C 
HETATM    3  C3  UNL     1     -34.657   5.422   5.770  1.00 20.00     0.229 A 
HETATM    4  C4  UNL     1     -34.347   4.954   4.369  1.00 20.00     0.177 A 
HETATM    5  O6  UNL     1     -35.594   5.578   4.691  1.00 20.00    -0.361 OA
ENDROOT
BRANCH   4   6
HETATM    6  C5  UNL     1     -33.499   5.723   3.417  1.00 20.00     0.150 C 
HETATM    7 CL7  UNL     1     -32.777   4.652   2.183  1.00 20.00    -0.128 Cl
ENDBRANCH   4   6
TORSDOF 1
ENDMDL
MODEL 8
REMARK VINA RESULT:      -3.3     13.271     13.719
REMARK  1 active torsions:
REMARK  status: ('A' for Active; 'I' for Inactive)
REMARK    1  A    between atoms: C4_4  and  C5_5 
ROOT
HETATM    1  C1  UNL     1     -33.456  16.906  -2.283  1.00 20.00     0.015 C 
HETATM    2  C2  UNL     1     -33.316  16.080  -3.144  1.00 20.00    -0.083 C 
HETATM    3  C3  UNL     1     -33.148  15.097  -4.167  1.00 20.00     0.229 A 
HETATM    4  C4  UNL     1     -34.169  14.919  -5.264  1.00 20.00     0.177 A 
HETATM    5  O6  UNL     1     -34.140  14.059  -4.121  1.00 20.00    -0.361 OA
ENDROOT
BRANCH   4   6
HETATM    6  C5  UNL     1     -35.399  15.750  -5.382  1.00 20.00     0.150 C 
HETATM    7 CL7  UNL     1     -35.060  17.296  -6.209  1.00 20.00    -0.128 Cl
ENDBRANCH   4   6
TORSDOF 1
ENDMDL
MODEL 9
REMARK VINA RESULT:      -3.2      9.266     10.115
REMARK  1 active torsions:
REMARK  status: ('A' for Active; 'I' for Inactive)
REMARK    1  A    between atoms: C4_4  and  C5_5 
ROOT
HETATM    1  C1  UNL     1     -43.314  11.980   7.194  1.00 20.00     0.015 C 
HETATM    2  C2  UNL     1     -42.380  12.715   7.018  1.00 20.00    -0.083 C 
HETATM    3  C3  UNL     1     -41.271  13.591   6.810  1.00 20.00     0.229 A 
HETATM    4  C4  UNL     1     -39.979  13.097   6.206  1.00 20.00     0.177 A 
HETATM    5  O6  UNL     1     -40.131  13.259   7.620  1.00 20.00    -0.361 OA
ENDROOT
BRANCH   4   6
HETATM    6  C5  UNL     1     -39.766  11.691   5.765  1.00 20.00     0.150 C 
HETATM    7 CL7  UNL     1     -39.058  11.626   4.127  1.00 20.00    -0.128 Cl
ENDBRANCH   4   6
TORSDOF 1
ENDMDL
