MODEL 1
REMARK VINA RESULT:      -5.0      0.000      0.000
REMARK  1 active torsions:
REMARK  status: ('A' for Active; 'I' for Inactive)
REMARK    1  A    between atoms: C7_7  and  N8_8 
ROOT
HETATM    1  C1  UNL     1     -33.881   5.104   6.177  1.00 20.00     0.005 C 
HETATM    2  C2  UNL     1     -33.985   6.634   6.250  1.00 20.00     0.007 C 
HETATM    3  C3  UNL     1     -35.626   5.839   4.733  1.00 20.00     0.011 C 
HETATM    4  C4  UNL     1     -33.564   5.221   3.698  1.00 20.00     0.027 C 
HETATM    5  C5  UNL     1     -34.525   4.780   4.819  1.00 20.00    -0.013 C 
HETATM    6  C6  UNL     1     -34.646   7.003   4.906  1.00 20.00     0.006 C 
HETATM    7  C7  UNL     1     -33.689   6.755   3.722  1.00 20.00     0.097 C 
ENDROOT
BRANCH   7   8
HETATM    8  N8  UNL     1     -32.409   7.439   3.790  1.00 20.00    -0.131 NA
HETATM    9 CL9  UNL     1     -31.811   7.896   2.193  1.00 20.00    -0.005 Cl
HETATM   10 CL10 UNL     1     -32.467   8.858   4.840  1.00 20.00    -0.005 Cl
ENDBRANCH   7   8
TORSDOF 1
ENDMDL
MODEL 2
REMARK VINA RESULT:      -4.5      9.416     10.156
REMARK  1 active torsions:
REMARK  status: ('A' for Active; 'I' for Inactive)
REMARK    1  A    between atoms: C7_7  and  N8_8 
ROOT
HETATM    1  C1  UNL     1     -42.027   8.169  -0.786  1.00 20.00     0.005 C 
HETATM    2  C2  UNL     1     -43.078   7.886   0.297  1.00 20.00     0.007 C 
HETATM    3  C3  UNL     1     -40.923   7.653   1.260  1.00 20.00     0.011 C 
HETATM    4  C4  UNL     1     -40.986   5.928  -0.391  1.00 20.00     0.027 C 
HETATM    5  C5  UNL     1     -40.780   7.449  -0.249  1.00 20.00    -0.013 C 
HETATM    6  C6  UNL     1     -42.312   7.008   1.306  1.00 20.00     0.006 C 
HETATM    7  C7  UNL     1     -42.003   5.615   0.720  1.00 20.00     0.097 C 
ENDROOT
BRANCH   7   8
HETATM    8  N8  UNL     1     -43.153   4.857   0.255  1.00 20.00    -0.131 NA
HETATM    9 CL9  UNL     1     -43.031   4.445  -1.458  1.00 20.00    -0.005 Cl
HETATM   10 CL10 UNL     1     -43.417   3.394   1.208  1.00 20.00    -0.005 Cl
ENDBRANCH   7   8
TORSDOF 1
ENDMDL
MODEL 3
REMARK VINA RESULT:      -3.8     10.655     11.638
REMARK  1 active torsions:
REMARK  status: ('A' for Active; 'I' for Inactive)
REMARK    1  A    between atoms: C7_7  and  N8_8 
ROOT
HETATM    1  C1  UNL     1     -42.643  15.354   8.632  1.00 20.00     0.005 C 
HETATM    2  C2  UNL     1     -41.493  14.561   9.269  1.00 20.00     0.007 C 
HETATM    3  C3  UNL     1     -40.568  16.222   7.851  1.00 20.00     0.011 C 
HETATM    4  C4  UNL     1     -41.778  14.816   6.347  1.00 20.00     0.027 C 
HETATM    5  C5  UNL     1     -41.994  15.947   7.371  1.00 20.00    -0.013 C 
HETATM    6  C6  UNL     1     -40.333  14.769   8.275  1.00 20.00     0.006 C 
HETATM    7  C7  UNL     1     -40.594  14.034   6.944  1.00 20.00     0.097 C 
ENDROOT
BRANCH   7   8
HETATM    8  N8  UNL     1     -40.838  12.605   7.050  1.00 20.00    -0.131 NA
HETATM    9 CL9  UNL     1     -42.546  12.204   6.847  1.00 20.00    -0.005 Cl
HETATM   10 CL10 UNL     1     -39.863  11.676   5.909  1.00 20.00    -0.005 Cl
ENDBRANCH   7   8
TORSDOF 1
ENDMDL
MODEL 4
REMARK VINA RESULT:      -3.8      1.466      1.843
REMARK  1 active torsions:
REMARK  status: ('A' for Active; 'I' for Inactive)
REMARK    1  A    between atoms: C7_7  and  N8_8 
ROOT
HETATM    1  C1  UNL     1     -33.460   6.144   6.559  1.00 20.00     0.005 C 
HETATM    2  C2  UNL     1     -33.259   7.272   5.537  1.00 20.00     0.007 C 
HETATM    3  C3  UNL     1     -35.479   6.460   5.336  1.00 20.00     0.011 C 
HETATM    4  C4  UNL     1     -34.139   4.577   4.730  1.00 20.00     0.027 C 
HETATM    5  C5  UNL     1     -34.636   5.351   5.968  1.00 20.00    -0.013 C 
HETATM    6  C6  UNL     1     -34.324   6.965   4.465  1.00 20.00     0.006 C 
HETATM    7  C7  UNL     1     -33.976   5.686   3.676  1.00 20.00     0.097 C 
ENDROOT
BRANCH   7   8
HETATM    8  N8  UNL     1     -32.676   5.680   3.025  1.00 20.00    -0.131 NA
HETATM    9 CL9  UNL     1     -32.560   4.432   1.781  1.00 20.00    -0.005 Cl
HETATM   10 CL10 UNL     1     -32.266   7.254   2.340  1.00 20.00    -0.005 Cl
ENDBRANCH   7   8
TORSDOF 1
ENDMDL
MODEL 5
REMARK VINA RESULT:      -3.8      0.925      2.362
REMARK  1 active torsions:
REMARK  status: ('A' for Active; 'I' for Inactive)
REMARK    1  A    between atoms: C7_7  and  N8_8 
ROOT
HETATM    1  C1  UNL     1     -35.756   5.837   4.685  1.00 20.00     0.005 C 
HETATM    2  C2  UNL     1     -34.643   5.660   3.643  1.00 20.00     0.007 C 
HETATM    3  C3  UNL     1     -33.872   4.811   5.719  1.00 20.00     0.011 C 
HETATM    4  C4  UNL     1     -34.203   7.136   6.155  1.00 20.00     0.027 C 
HETATM    5  C5  UNL     1     -34.987   5.816   6.016  1.00 20.00    -0.013 C 
HETATM    6  C6  UNL     1     -33.366   5.594   4.504  1.00 20.00     0.006 C 
HETATM    7  C7  UNL     1     -33.052   6.959   5.150  1.00 20.00     0.097 C 
ENDROOT
BRANCH   7   8
HETATM    8  N8  UNL     1     -32.910   8.075   4.229  1.00 20.00    -0.131 NA
HETATM    9 CL9  UNL     1     -32.069   9.443   4.965  1.00 20.00    -0.005 Cl
HETATM   10 CL10 UNL     1     -32.102   7.606   2.732  1.00 20.00    -0.005 Cl
ENDBRANCH   7   8
TORSDOF 1
ENDMDL
MODEL 6
REMARK VINA RESULT:      -3.7     12.524     13.633
REMARK  1 active torsions:
REMARK  status: ('A' for Active; 'I' for Inactive)
REMARK    1  A    between atoms: C7_7  and  N8_8 
ROOT
HETATM    1  C1  UNL     1     -36.345  15.141  -5.296  1.00 20.00     0.005 C 
HETATM    2  C2  UNL     1     -36.096  16.624  -5.607  1.00 20.00     0.007 C 
HETATM    3  C3  UNL     1     -34.327  15.350  -6.541  1.00 20.00     0.011 C 
HETATM    4  C4  UNL     1     -34.105  14.973  -4.193  1.00 20.00     0.027 C 
HETATM    5  C5  UNL     1     -34.941  14.526  -5.408  1.00 20.00    -0.013 C 
HETATM    6  C6  UNL     1     -34.571  16.682  -5.827  1.00 20.00     0.006 C 
HETATM    7  C7  UNL     1     -33.804  16.449  -4.509  1.00 20.00     0.097 C 
ENDROOT
BRANCH   7   8
HETATM    8  N8  UNL     1     -34.131  17.353  -3.419  1.00 20.00    -0.131 NA
HETATM    9 CL9  UNL     1     -33.542  16.761  -1.863  1.00 20.00    -0.005 Cl
HETATM   10 CL10 UNL     1     -33.532  18.989  -3.706  1.00 20.00    -0.005 Cl
ENDBRANCH   7   8
TORSDOF 1
ENDMDL
MODEL 7
REMARK VINA RESULT:      -3.6     12.467     13.542
REMARK  1 active torsions:
REMARK  status: ('A' for Active; 'I' for Inactive)
REMARK    1  A    between atoms: C7_7  and  N8_8 
ROOT
HETATM    1  C1  UNL     1     -32.060  18.483  -1.236  1.00 20.00     0.005 C 
HETATM    2  C2  UNL     1     -32.535  19.263  -2.470  1.00 20.00     0.007 C 
HETATM    3  C3  UNL     1     -34.414  18.811  -1.095  1.00 20.00     0.011 C 
HETATM    4  C4  UNL     1     -33.671  16.639  -1.755  1.00 20.00     0.027 C 
HETATM    5  C5  UNL     1     -33.339  17.773  -0.765  1.00 20.00    -0.013 C 
HETATM    6  C6  UNL     1     -34.025  18.877  -2.575  1.00 20.00     0.006 C 
HETATM    7  C7  UNL     1     -34.196  17.400  -2.985  1.00 20.00     0.097 C 
ENDROOT
BRANCH   7   8
HETATM    8  N8  UNL     1     -33.547  17.011  -4.226  1.00 20.00    -0.131 NA
HETATM    9 CL9  UNL     1     -32.910  15.365  -4.157  1.00 20.00    -0.005 Cl
HETATM   10 CL10 UNL     1     -34.617  17.184  -5.620  1.00 20.00    -0.005 Cl
ENDBRANCH   7   8
TORSDOF 1
ENDMDL
MODEL 8
REMARK VINA RESULT:      -3.6     12.951     14.028
REMARK  1 active torsions:
REMARK  status: ('A' for Active; 'I' for Inactive)
REMARK    1  A    between atoms: C7_7  and  N8_8 
ROOT
HETATM    1  C1  UNL     1     -34.761  15.994  -7.461  1.00 20.00     0.005 C 
HETATM    2  C2  UNL     1     -33.750  15.183  -6.638  1.00 20.00     0.007 C 
HETATM    3  C3  UNL     1     -35.938  14.594  -5.937  1.00 20.00     0.011 C 
HETATM    4  C4  UNL     1     -35.773  16.906  -5.363  1.00 20.00     0.027 C 
HETATM    5  C5  UNL     1     -36.015  15.983  -6.573  1.00 20.00    -0.013 C 
HETATM    6  C6  UNL     1     -34.540  14.836  -5.360  1.00 20.00     0.006 C 
HETATM    7  C7  UNL     1     -34.796  16.090  -4.498  1.00 20.00     0.097 C 
ENDROOT
BRANCH   7   8
HETATM    8  N8  UNL     1     -33.613  16.835  -4.101  1.00 20.00    -0.131 NA
HETATM    9 CL9  UNL     1     -33.701  18.532  -4.582  1.00 20.00    -0.005 Cl
HETATM   10 CL10 UNL     1     -33.301  16.716  -2.367  1.00 20.00    -0.005 Cl
ENDBRANCH   7   8
TORSDOF 1
ENDMDL
MODEL 9
REMARK VINA RESULT:      -3.6      9.658     10.549
REMARK  1 active torsions:
REMARK  status: ('A' for Active; 'I' for Inactive)
REMARK    1  A    between atoms: C7_7  and  N8_8 
ROOT
HETATM    1  C1  UNL     1     -43.417  13.318   6.386  1.00 20.00     0.005 C 
HETATM    2  C2  UNL     1     -42.326  12.991   7.415  1.00 20.00     0.007 C 
HETATM    3  C3  UNL     1     -41.988  15.206   6.637  1.00 20.00     0.011 C 
HETATM    4  C4  UNL     1     -41.673  13.873   4.680  1.00 20.00     0.027 C 
HETATM    5  C5  UNL     1     -42.788  14.458   5.569  1.00 20.00    -0.013 C 
HETATM    6  C6  UNL     1     -41.189  13.962   7.038  1.00 20.00     0.006 C 
HETATM    7  C7  UNL     1     -40.548  13.581   5.688  1.00 20.00     0.097 C 
ENDROOT
BRANCH   7   8
HETATM    8  N8  UNL     1     -40.025  12.228   5.596  1.00 20.00    -0.131 NA
HETATM    9 CL9  UNL     1     -39.349  11.882   4.002  1.00 20.00    -0.005 Cl
HETATM   10 CL10 UNL     1     -38.825  11.891   6.846  1.00 20.00    -0.005 Cl
ENDBRANCH   7   8
TORSDOF 1
ENDMDL
