MODEL 1
REMARK VINA RESULT:      -4.3      0.000      0.000
REMARK  1 active torsions:
REMARK  status: ('A' for Active; 'I' for Inactive)
REMARK    1  A    between atoms: C8_8  and  C11_11 
ROOT
HETATM    1  C1  UNL     1     -41.294  13.614   4.508  1.00 20.00     0.071 C 
HETATM    2  C2  UNL     1     -42.387  15.400   7.232  1.00 20.00    -0.004 A 
HETATM    3  C3  UNL     1     -43.415  14.388   7.096  1.00 20.00    -0.004 A 
HETATM    4  C4  UNL     1     -41.087  15.066   7.150  1.00 20.00    -0.020 A 
HETATM    5  C5  UNL     1     -43.084  13.102   6.889  1.00 20.00    -0.020 A 
HETATM    6  C6  UNL     1     -40.607  13.678   6.972  1.00 20.00     0.041 A 
HETATM    7  C7  UNL     1     -41.688  12.615   6.830  1.00 20.00     0.041 A 
HETATM    8  C8  UNL     1     -40.767  12.925   5.663  1.00 20.00     0.067 A 
HETATM    9  N12 UNL     1     -41.717  14.168   3.582  1.00 20.00    -0.196 NA
ENDROOT
BRANCH   8  10
HETATM   10  C11 UNL     1     -39.714  11.900   5.326  1.00 20.00     0.001 C 
HETATM   11  C9  UNL     1     -39.299  11.991   3.852  1.00 20.00     0.011 C 
HETATM   12  C10 UNL     1     -38.480  12.055   6.224  1.00 20.00     0.011 C 
ENDBRANCH   8  10
TORSDOF 1
ENDMDL
MODEL 2
REMARK VINA RESULT:      -4.2      1.633      2.275
REMARK  1 active torsions:
REMARK  status: ('A' for Active; 'I' for Inactive)
REMARK    1  A    between atoms: C8_8  and  C11_11 
ROOT
HETATM    1  C1  UNL     1     -42.247  12.260   6.844  1.00 20.00     0.071 C 
HETATM    2  C2  UNL     1     -43.399  15.255   5.617  1.00 20.00    -0.004 A 
HETATM    3  C3  UNL     1     -42.758  15.657   6.852  1.00 20.00    -0.004 A 
HETATM    4  C4  UNL     1     -42.788  14.399   4.779  1.00 20.00    -0.020 A 
HETATM    5  C5  UNL     1     -41.544  15.180   7.178  1.00 20.00    -0.020 A 
HETATM    6  C6  UNL     1     -41.435  13.850   5.011  1.00 20.00     0.041 A 
HETATM    7  C7  UNL     1     -40.761  14.272   6.310  1.00 20.00     0.041 A 
HETATM    8  C8  UNL     1     -41.150  12.821   6.091  1.00 20.00     0.067 A 
HETATM    9  N12 UNL     1     -43.129  11.811   7.448  1.00 20.00    -0.196 NA
ENDROOT
BRANCH   8  10
HETATM   10  C11 UNL     1     -40.034  11.842   5.830  1.00 20.00     0.001 C 
HETATM   11  C9  UNL     1     -39.562  11.910   4.372  1.00 20.00     0.011 C 
HETATM   12  C10 UNL     1     -38.848  12.086   6.772  1.00 20.00     0.011 C 
ENDBRANCH   8  10
TORSDOF 1
ENDMDL
MODEL 3
REMARK VINA RESULT:      -4.1      9.554     10.529
REMARK  1 active torsions:
REMARK  status: ('A' for Active; 'I' for Inactive)
REMARK    1  A    between atoms: C8_8  and  C11_11 
ROOT
HETATM    1  C1  UNL     1     -32.758   6.048   3.311  1.00 20.00     0.071 C 
HETATM    2  C2  UNL     1     -35.611   5.339   5.088  1.00 20.00    -0.004 A 
HETATM    3  C3  UNL     1     -34.569   4.934   6.008  1.00 20.00    -0.004 A 
HETATM    4  C4  UNL     1     -35.525   6.511   4.433  1.00 20.00    -0.020 A 
HETATM    5  C5  UNL     1     -33.502   5.724   6.222  1.00 20.00    -0.020 A 
HETATM    6  C6  UNL     1     -34.422   7.478   4.625  1.00 20.00     0.041 A 
HETATM    7  C7  UNL     1     -33.327   7.052   5.594  1.00 20.00     0.041 A 
HETATM    8  C8  UNL     1     -33.015   7.218   4.117  1.00 20.00     0.067 A 
HETATM    9  N12 UNL     1     -32.551   5.108   2.665  1.00 20.00    -0.196 NA
ENDROOT
BRANCH   8  10
HETATM   10  C11 UNL     1     -32.196   8.419   3.718  1.00 20.00     0.001 C 
HETATM   11  C9  UNL     1     -32.770   9.094   2.466  1.00 20.00     0.011 C 
HETATM   12  C10 UNL     1     -32.105   9.436   4.862  1.00 20.00     0.011 C 
ENDBRANCH   8  10
TORSDOF 1
ENDMDL
MODEL 4
REMARK VINA RESULT:      -4.1     10.965     12.783
REMARK  1 active torsions:
REMARK  status: ('A' for Active; 'I' for Inactive)
REMARK    1  A    between atoms: C8_8  and  C11_11 
ROOT
HETATM    1  C1  UNL     1     -33.354  16.626  -2.969  1.00 20.00     0.071 C 
HETATM    2  C2  UNL     1     -34.044  19.048  -5.305  1.00 20.00    -0.004 A 
HETATM    3  C3  UNL     1     -35.368  18.669  -4.858  1.00 20.00    -0.004 A 
HETATM    4  C4  UNL     1     -33.059  19.263  -4.415  1.00 20.00    -0.020 A 
HETATM    5  C5  UNL     1     -35.632  18.527  -3.547  1.00 20.00    -0.020 A 
HETATM    6  C6  UNL     1     -33.246  19.182  -2.950  1.00 20.00     0.041 A 
HETATM    7  C7  UNL     1     -34.638  18.783  -2.480  1.00 20.00     0.041 A 
HETATM    8  C8  UNL     1     -33.458  17.862  -2.230  1.00 20.00     0.067 A 
HETATM    9  N12 UNL     1     -33.271  15.634  -3.564  1.00 20.00    -0.196 NA
ENDROOT
BRANCH   8  10
HETATM   10  C11 UNL     1     -32.951  17.763  -0.814  1.00 20.00     0.001 C 
HETATM   11  C9  UNL     1     -31.627  18.518  -0.642  1.00 20.00     0.011 C 
HETATM   12  C10 UNL     1     -33.986  18.293   0.186  1.00 20.00     0.011 C 
ENDBRANCH   8  10
TORSDOF 1
ENDMDL
MODEL 5
REMARK VINA RESULT:      -4.0     11.790     13.377
REMARK  1 active torsions:
REMARK  status: ('A' for Active; 'I' for Inactive)
REMARK    1  A    between atoms: C8_8  and  C11_11 
ROOT
HETATM    1  C1  UNL     1     -34.104  15.191  -4.285  1.00 20.00     0.071 C 
HETATM    2  C2  UNL     1     -35.715  15.882  -7.239  1.00 20.00    -0.004 A 
HETATM    3  C3  UNL     1     -36.794  15.961  -6.277  1.00 20.00    -0.004 A 
HETATM    4  C4  UNL     1     -34.532  16.471  -6.988  1.00 20.00    -0.020 A 
HETATM    5  C5  UNL     1     -36.630  16.626  -5.120  1.00 20.00    -0.020 A 
HETATM    6  C6  UNL     1     -34.255  17.267  -5.773  1.00 20.00     0.041 A 
HETATM    7  C7  UNL     1     -35.390  17.350  -4.761  1.00 20.00     0.041 A 
HETATM    8  C8  UNL     1     -34.102  16.630  -4.402  1.00 20.00     0.067 A 
HETATM    9  N12 UNL     1     -34.106  14.035  -4.192  1.00 20.00    -0.196 NA
ENDROOT
BRANCH   8  10
HETATM   10  C11 UNL     1     -33.181  17.314  -3.425  1.00 20.00     0.001 C 
HETATM   11  C9  UNL     1     -33.223  18.838  -3.594  1.00 20.00     0.011 C 
HETATM   12  C10 UNL     1     -33.528  16.942  -1.978  1.00 20.00     0.011 C 
ENDBRANCH   8  10
TORSDOF 1
ENDMDL
MODEL 6
REMARK VINA RESULT:      -3.9     11.367     12.714
REMARK  1 active torsions:
REMARK  status: ('A' for Active; 'I' for Inactive)
REMARK    1  A    between atoms: C8_8  and  C11_11 
ROOT
HETATM    1  C1  UNL     1     -35.680  18.248  -3.430  1.00 20.00     0.071 C 
HETATM    2  C2  UNL     1     -32.808  19.262  -1.843  1.00 20.00    -0.004 A 
HETATM    3  C3  UNL     1     -33.253  18.170  -1.002  1.00 20.00    -0.004 A 
HETATM    4  C4  UNL     1     -32.802  19.134  -3.182  1.00 20.00    -0.020 A 
HETATM    5  C5  UNL     1     -33.665  17.013  -1.547  1.00 20.00    -0.020 A 
HETATM    6  C6  UNL     1     -33.188  17.893  -3.887  1.00 20.00     0.041 A 
HETATM    7  C7  UNL     1     -33.656  16.744  -3.003  1.00 20.00     0.041 A 
HETATM    8  C8  UNL     1     -34.628  17.413  -3.959  1.00 20.00     0.067 A 
HETATM    9  N12 UNL     1     -36.525  18.919  -3.005  1.00 20.00    -0.196 NA
ENDROOT
BRANCH   8  10
HETATM   10  C11 UNL     1     -35.032  16.634  -5.184  1.00 20.00     0.001 C 
HETATM   11  C9  UNL     1     -34.837  17.463  -6.460  1.00 20.00     0.011 C 
HETATM   12  C10 UNL     1     -34.248  15.320  -5.293  1.00 20.00     0.011 C 
ENDBRANCH   8  10
TORSDOF 1
ENDMDL
MODEL 7
REMARK VINA RESULT:      -3.9     12.486     13.504
REMARK  1 active torsions:
REMARK  status: ('A' for Active; 'I' for Inactive)
REMARK    1  A    between atoms: C8_8  and  C11_11 
ROOT
HETATM    1  C1  UNL     1     -35.428  15.156  -5.912  1.00 20.00     0.071 C 
HETATM    2  C2  UNL     1     -35.795  18.218  -7.426  1.00 20.00    -0.004 A 
HETATM    3  C3  UNL     1     -36.976  18.146  -6.590  1.00 20.00    -0.004 A 
HETATM    4  C4  UNL     1     -34.590  17.873  -6.935  1.00 20.00    -0.020 A 
HETATM    5  C5  UNL     1     -36.885  17.735  -5.313  1.00 20.00    -0.020 A 
HETATM    6  C6  UNL     1     -34.366  17.453  -5.535  1.00 20.00     0.041 A 
HETATM    7  C7  UNL     1     -35.608  17.378  -4.657  1.00 20.00     0.041 A 
HETATM    8  C8  UNL     1     -34.842  16.113  -5.002  1.00 20.00     0.067 A 
HETATM    9  N12 UNL     1     -35.898  14.389  -6.642  1.00 20.00    -0.196 NA
ENDROOT
BRANCH   8  10
HETATM   10  C11 UNL     1     -34.027  15.481  -3.903  1.00 20.00     0.001 C 
HETATM   11  C9  UNL     1     -32.932  14.571  -4.475  1.00 20.00     0.011 C 
HETATM   12  C10 UNL     1     -33.397  16.545  -2.995  1.00 20.00     0.011 C 
ENDBRANCH   8  10
TORSDOF 1
ENDMDL
MODEL 8
REMARK VINA RESULT:      -3.8     12.666     14.026
REMARK  1 active torsions:
REMARK  status: ('A' for Active; 'I' for Inactive)
REMARK    1  A    between atoms: C8_8  and  C11_11 
ROOT
HETATM    1  C1  UNL     1     -34.433  15.585  -7.336  1.00 20.00     0.071 C 
HETATM    2  C2  UNL     1     -34.351  14.221  -4.184  1.00 20.00    -0.004 A 
HETATM    3  C3  UNL     1     -33.638  15.468  -3.997  1.00 20.00    -0.004 A 
HETATM    4  C4  UNL     1     -35.503  14.192  -4.877  1.00 20.00    -0.020 A 
HETATM    5  C5  UNL     1     -34.119  16.613  -4.512  1.00 20.00    -0.020 A 
HETATM    6  C6  UNL     1     -36.148  15.395  -5.447  1.00 20.00     0.041 A 
HETATM    7  C7  UNL     1     -35.398  16.706  -5.250  1.00 20.00     0.041 A 
HETATM    8  C8  UNL     1     -35.576  16.133  -6.645  1.00 20.00     0.067 A 
HETATM    9  N12 UNL     1     -33.515  15.144  -7.890  1.00 20.00    -0.196 NA
ENDROOT
BRANCH   8  10
HETATM   10  C11 UNL     1     -36.555  16.830  -7.555  1.00 20.00     0.001 C 
HETATM   11  C9  UNL     1     -37.949  16.906  -6.919  1.00 20.00     0.011 C 
HETATM   12  C10 UNL     1     -36.072  18.240  -7.917  1.00 20.00     0.011 C 
ENDBRANCH   8  10
TORSDOF 1
ENDMDL
MODEL 9
REMARK VINA RESULT:      -3.7      2.225      3.257
REMARK  1 active torsions:
REMARK  status: ('A' for Active; 'I' for Inactive)
REMARK    1  A    between atoms: C8_8  and  C11_11 
ROOT
HETATM    1  C1  UNL     1     -42.423  13.340   8.244  1.00 20.00     0.071 C 
HETATM    2  C2  UNL     1     -42.120  16.614   9.238  1.00 20.00    -0.004 A 
HETATM    3  C3  UNL     1     -40.920  16.016   9.786  1.00 20.00    -0.004 A 
HETATM    4  C4  UNL     1     -42.500  16.349   7.975  1.00 20.00    -0.020 A 
HETATM    5  C5  UNL     1     -40.168  15.189   9.040  1.00 20.00    -0.020 A 
HETATM    6  C6  UNL     1     -41.726  15.493   7.050  1.00 20.00     0.041 A 
HETATM    7  C7  UNL     1     -40.464  14.864   7.626  1.00 20.00     0.041 A 
HETATM    8  C8  UNL     1     -41.635  13.986   7.221  1.00 20.00     0.067 A 
HETATM    9  N12 UNL     1     -43.056  12.822   9.066  1.00 20.00    -0.196 NA
ENDROOT
BRANCH   8  10
HETATM   10  C11 UNL     1     -41.475  13.161   5.970  1.00 20.00     0.001 C 
HETATM   11  C9  UNL     1     -41.750  13.996   4.713  1.00 20.00     0.011 C 
HETATM   12  C10 UNL     1     -40.074  12.542   5.887  1.00 20.00     0.011 C 
ENDBRANCH   8  10
TORSDOF 1
ENDMDL
