MODEL 1
REMARK VINA RESULT:      -3.8      0.000      0.000
REMARK  1 active torsions:
REMARK  status: ('A' for Active; 'I' for Inactive)
REMARK    1  A    between atoms: C8_8  and  C11_11 
ROOT
HETATM    1  C1  UNL     1     -33.462  17.942  -3.767  1.00 20.00    -0.079 C 
HETATM    2  C2  UNL     1     -34.285  14.741  -4.515  1.00 20.00     0.132 C 
HETATM    3  C3  UNL     1     -32.861  19.128  -3.842  1.00 20.00     0.015 C 
HETATM    4  C4  UNL     1     -33.468  16.784  -2.723  1.00 20.00     0.047 C 
HETATM    5  C5  UNL     1     -34.723  15.107  -5.937  1.00 20.00     0.080 C 
HETATM    6  C6  UNL     1     -34.299  16.615  -6.063  1.00 20.00     0.022 C 
HETATM    7  C7  UNL     1     -33.558  15.978  -4.010  1.00 20.00     0.072 C 
HETATM    8  C8  UNL     1     -34.432  17.164  -4.639  1.00 20.00    -0.004 C 
HETATM    9  O12 UNL     1     -34.498  13.671  -3.968  1.00 20.00    -0.298 OA
ENDROOT
BRANCH   8  10
HETATM   10  C11 UNL     1     -35.899  17.431  -4.275  1.00 20.00    -0.009 C 
HETATM   11  C9  UNL     1     -36.044  18.811  -3.644  1.00 20.00     0.011 C 
HETATM   12  C10 UNL     1     -36.781  17.304  -5.512  1.00 20.00     0.011 C 
ENDBRANCH   8  10
TORSDOF 1
ENDMDL
MODEL 2
REMARK VINA RESULT:      -3.8     24.635     26.068
REMARK  1 active torsions:
REMARK  status: ('A' for Active; 'I' for Inactive)
REMARK    1  A    between atoms: C8_8  and  C11_11 
ROOT
HETATM    1  C1  UNL     1     -25.280  -3.249  10.296  1.00 20.00    -0.079 C 
HETATM    2  C2  UNL     1     -28.490  -3.349  11.374  1.00 20.00     0.132 C 
HETATM    3  C3  UNL     1     -24.243  -3.177   9.463  1.00 20.00     0.015 C 
HETATM    4  C4  UNL     1     -25.836  -4.343  11.258  1.00 20.00     0.047 C 
HETATM    5  C5  UNL     1     -28.824  -1.993  10.743  1.00 20.00     0.080 C 
HETATM    6  C6  UNL     1     -27.528  -1.656   9.920  1.00 20.00     0.022 C 
HETATM    7  C7  UNL     1     -27.141  -3.724  10.781  1.00 20.00     0.072 C 
HETATM    8  C8  UNL     1     -26.394  -2.308  10.718  1.00 20.00    -0.004 C 
HETATM    9  O12 UNL     1     -29.199  -3.947  12.168  1.00 20.00    -0.298 OA
ENDROOT
BRANCH   8  10
HETATM   10  C11 UNL     1     -26.029  -1.477  11.956  1.00 20.00    -0.009 C 
HETATM   11  C9  UNL     1     -24.517  -1.322  12.061  1.00 20.00     0.011 C 
HETATM   12  C10 UNL     1     -26.713  -0.115  11.898  1.00 20.00     0.011 C 
ENDBRANCH   8  10
TORSDOF 1
ENDMDL
MODEL 3
REMARK VINA RESULT:      -3.8     11.885     13.406
REMARK  1 active torsions:
REMARK  status: ('A' for Active; 'I' for Inactive)
REMARK    1  A    between atoms: C8_8  and  C11_11 
ROOT
HETATM    1  C1  UNL     1     -32.853   7.719   2.888  1.00 20.00    -0.079 C 
HETATM    2  C2  UNL     1     -34.143   4.881   4.214  1.00 20.00     0.132 C 
HETATM    3  C3  UNL     1     -32.768   8.835   2.166  1.00 20.00     0.015 C 
HETATM    4  C4  UNL     1     -32.123   6.342   2.860  1.00 20.00     0.047 C 
HETATM    5  C5  UNL     1     -35.330   5.623   4.838  1.00 20.00     0.080 C 
HETATM    6  C6  UNL     1     -35.184   7.076   4.258  1.00 20.00     0.022 C 
HETATM    7  C7  UNL     1     -33.518   5.892   3.265  1.00 20.00     0.072 C 
HETATM    8  C8  UNL     1     -33.674   7.262   4.079  1.00 20.00    -0.004 C 
HETATM    9  O12 UNL     1     -33.826   3.729   4.462  1.00 20.00    -0.298 OA
ENDROOT
BRANCH   8  10
HETATM   10  C11 UNL     1     -32.981   7.545   5.419  1.00 20.00    -0.009 C 
HETATM   11  C9  UNL     1     -32.379   8.945   5.418  1.00 20.00     0.011 C 
HETATM   12  C10 UNL     1     -33.967   7.378   6.570  1.00 20.00     0.011 C 
ENDBRANCH   8  10
TORSDOF 1
ENDMDL
MODEL 4
REMARK VINA RESULT:      -3.7      1.839      3.920
REMARK  1 active torsions:
REMARK  status: ('A' for Active; 'I' for Inactive)
REMARK    1  A    between atoms: C8_8  and  C11_11 
ROOT
HETATM    1  C1  UNL     1     -34.770  16.035  -6.220  1.00 20.00    -0.079 C 
HETATM    2  C2  UNL     1     -36.229  18.184  -4.045  1.00 20.00     0.132 C 
HETATM    3  C3  UNL     1     -34.087  15.598  -7.277  1.00 20.00     0.015 C 
HETATM    4  C4  UNL     1     -36.253  15.920  -5.754  1.00 20.00     0.047 C 
HETATM    5  C5  UNL     1     -34.906  18.900  -3.748  1.00 20.00     0.080 C 
HETATM    6  C6  UNL     1     -33.915  18.258  -4.785  1.00 20.00     0.022 C 
HETATM    7  C7  UNL     1     -35.931  17.323  -5.262  1.00 20.00     0.072 C 
HETATM    8  C8  UNL     1     -34.436  16.829  -4.970  1.00 20.00    -0.004 C 
HETATM    9  O12 UNL     1     -37.261  18.324  -3.408  1.00 20.00    -0.298 OA
ENDROOT
BRANCH   8  10
HETATM   10  C11 UNL     1     -34.047  15.932  -3.787  1.00 20.00    -0.009 C 
HETATM   11  C9  UNL     1     -33.264  14.720  -4.277  1.00 20.00     0.011 C 
HETATM   12  C10 UNL     1     -33.237  16.725  -2.766  1.00 20.00     0.011 C 
ENDBRANCH   8  10
TORSDOF 1
ENDMDL
MODEL 5
REMARK VINA RESULT:      -3.6      1.707      2.385
REMARK  1 active torsions:
REMARK  status: ('A' for Active; 'I' for Inactive)
REMARK    1  A    between atoms: C8_8  and  C11_11 
ROOT
HETATM    1  C1  UNL     1     -34.069  15.922  -4.358  1.00 20.00    -0.079 C 
HETATM    2  C2  UNL     1     -35.501  15.202  -7.343  1.00 20.00     0.132 C 
HETATM    3  C3  UNL     1     -33.148  16.296  -3.472  1.00 20.00     0.015 C 
HETATM    4  C4  UNL     1     -34.817  14.587  -4.659  1.00 20.00     0.047 C 
HETATM    5  C5  UNL     1     -35.248  16.611  -7.889  1.00 20.00     0.080 C 
HETATM    6  C6  UNL     1     -34.364  17.272  -6.771  1.00 20.00     0.022 C 
HETATM    7  C7  UNL     1     -34.669  15.130  -6.072  1.00 20.00     0.072 C 
HETATM    8  C8  UNL     1     -34.837  16.607  -5.474  1.00 20.00    -0.004 C 
HETATM    9  O12 UNL     1     -36.221  14.366  -7.865  1.00 20.00    -0.298 OA
ENDROOT
BRANCH   8  10
HETATM   10  C11 UNL     1     -36.175  17.191  -4.999  1.00 20.00    -0.009 C 
HETATM   11  C9  UNL     1     -35.945  18.186  -3.868  1.00 20.00     0.011 C 
HETATM   12  C10 UNL     1     -36.906  17.850  -6.163  1.00 20.00     0.011 C 
ENDBRANCH   8  10
TORSDOF 1
ENDMDL
MODEL 6
REMARK VINA RESULT:      -3.6      1.874      3.073
REMARK  1 active torsions:
REMARK  status: ('A' for Active; 'I' for Inactive)
REMARK    1  A    between atoms: C8_8  and  C11_11 
ROOT
HETATM    1  C1  UNL     1     -35.040  18.347  -3.826  1.00 20.00    -0.079 C 
HETATM    2  C2  UNL     1     -34.507  17.138  -6.945  1.00 20.00     0.132 C 
HETATM    3  C3  UNL     1     -35.691  18.772  -2.745  1.00 20.00     0.015 C 
HETATM    4  C4  UNL     1     -34.090  19.019  -4.863  1.00 20.00     0.047 C 
HETATM    5  C5  UNL     1     -35.305  15.859  -6.667  1.00 20.00     0.080 C 
HETATM    6  C6  UNL     1     -35.927  16.130  -5.250  1.00 20.00     0.022 C 
HETATM    7  C7  UNL     1     -34.831  18.051  -5.773  1.00 20.00     0.072 C 
HETATM    8  C8  UNL     1     -34.896  17.020  -4.549  1.00 20.00    -0.004 C 
HETATM    9  O12 UNL     1     -33.792  17.321  -7.917  1.00 20.00    -0.298 OA
ENDROOT
BRANCH   8  10
HETATM   10  C11 UNL     1     -33.695  16.204  -4.053  1.00 20.00    -0.009 C 
HETATM   11  C9  UNL     1     -33.346  16.593  -2.621  1.00 20.00     0.011 C 
HETATM   12  C10 UNL     1     -33.992  14.712  -4.153  1.00 20.00     0.011 C 
ENDBRANCH   8  10
TORSDOF 1
ENDMDL
MODEL 7
REMARK VINA RESULT:      -3.5     12.797     13.919
REMARK  1 active torsions:
REMARK  status: ('A' for Active; 'I' for Inactive)
REMARK    1  A    between atoms: C8_8  and  C11_11 
ROOT
HETATM    1  C1  UNL     1     -42.254  14.076   5.283  1.00 20.00    -0.079 C 
HETATM    2  C2  UNL     1     -41.883  13.770   8.636  1.00 20.00     0.132 C 
HETATM    3  C3  UNL     1     -42.319  14.643   4.079  1.00 20.00     0.015 C 
HETATM    4  C4  UNL     1     -43.278  13.346   6.203  1.00 20.00     0.047 C 
HETATM    5  C5  UNL     1     -40.470  14.364   8.610  1.00 20.00     0.080 C 
HETATM    6  C6  UNL     1     -40.314  14.843   7.122  1.00 20.00     0.022 C 
HETATM    7  C7  UNL     1     -42.446  14.064   7.254  1.00 20.00     0.072 C 
HETATM    8  C8  UNL     1     -41.164  13.855   6.316  1.00 20.00    -0.004 C 
HETATM    9  O12 UNL     1     -42.388  13.204   9.592  1.00 20.00    -0.298 OA
ENDROOT
BRANCH   8  10
HETATM   10  C11 UNL     1     -40.444  12.511   6.137  1.00 20.00    -0.009 C 
HETATM   11  C9  UNL     1     -40.033  12.321   4.682  1.00 20.00     0.011 C 
HETATM   12  C10 UNL     1     -39.231  12.435   7.059  1.00 20.00     0.011 C 
ENDBRANCH   8  10
TORSDOF 1
ENDMDL
MODEL 8
REMARK VINA RESULT:      -3.5      1.564      2.697
REMARK  1 active torsions:
REMARK  status: ('A' for Active; 'I' for Inactive)
REMARK    1  A    between atoms: C8_8  and  C11_11 
ROOT
HETATM    1  C1  UNL     1     -34.658  17.713  -6.285  1.00 20.00    -0.079 C 
HETATM    2  C2  UNL     1     -33.605  16.173  -3.458  1.00 20.00     0.132 C 
HETATM    3  C3  UNL     1     -34.653  18.166  -7.538  1.00 20.00     0.015 C 
HETATM    4  C4  UNL     1     -34.664  18.387  -4.880  1.00 20.00     0.047 C 
HETATM    5  C5  UNL     1     -33.435  14.824  -4.165  1.00 20.00     0.080 C 
HETATM    6  C6  UNL     1     -33.679  15.183  -5.676  1.00 20.00     0.022 C 
HETATM    7  C7  UNL     1     -33.794  17.175  -4.586  1.00 20.00     0.072 C 
HETATM    8  C8  UNL     1     -34.679  16.344  -5.631  1.00 20.00    -0.004 C 
HETATM    9  O12 UNL     1     -33.578  16.339  -2.249  1.00 20.00    -0.298 OA
ENDROOT
BRANCH   8  10
HETATM   10  C11 UNL     1     -36.103  15.847  -5.343  1.00 20.00    -0.009 C 
HETATM   11  C9  UNL     1     -37.072  16.389  -6.387  1.00 20.00     0.011 C 
HETATM   12  C10 UNL     1     -36.134  14.323  -5.311  1.00 20.00     0.011 C 
ENDBRANCH   8  10
TORSDOF 1
ENDMDL
MODEL 9
REMARK VINA RESULT:      -3.4     13.350     14.433
REMARK  1 active torsions:
REMARK  status: ('A' for Active; 'I' for Inactive)
REMARK    1  A    between atoms: C8_8  and  C11_11 
ROOT
HETATM    1  C1  UNL     1     -41.014  12.983   6.132  1.00 20.00    -0.079 C 
HETATM    2  C2  UNL     1     -41.867  16.116   7.097  1.00 20.00     0.132 C 
HETATM    3  C3  UNL     1     -40.272  11.896   5.930  1.00 20.00     0.015 C 
HETATM    4  C4  UNL     1     -41.717  14.014   5.198  1.00 20.00     0.047 C 
HETATM    5  C5  UNL     1     -41.487  15.851   8.558  1.00 20.00     0.080 C 
HETATM    6  C6  UNL     1     -40.819  14.429   8.498  1.00 20.00     0.022 C 
HETATM    7  C7  UNL     1     -41.293  14.934   6.333  1.00 20.00     0.072 C 
HETATM    8  C8  UNL     1     -41.543  13.720   7.348  1.00 20.00    -0.004 C 
HETATM    9  O12 UNL     1     -42.491  17.087   6.700  1.00 20.00    -0.298 OA
ENDROOT
BRANCH   8  10
HETATM   10  C11 UNL     1     -42.935  13.235   7.776  1.00 20.00    -0.009 C 
HETATM   11  C9  UNL     1     -43.191  11.829   7.245  1.00 20.00     0.011 C 
HETATM   12  C10 UNL     1     -43.065  13.275   9.295  1.00 20.00     0.011 C 
ENDBRANCH   8  10
TORSDOF 1
ENDMDL
