MODEL 1
REMARK VINA RESULT:      -4.4      0.000      0.000
REMARK  1 active torsions:
REMARK  status: ('A' for Active; 'I' for Inactive)
REMARK    1  A    between atoms: C3_3  and  N9_9 
ROOT
HETATM    1  C1  UNL     1     -33.262   7.597   4.404  1.00 20.00     0.079 C 
HETATM    2  C4  UNL     1     -34.171   7.916   5.594  1.00 20.00     0.070 C 
HETATM    3  C5  UNL     1     -33.949   6.943   6.752  1.00 20.00     0.007 C 
HETATM    4  C6  UNL     1     -34.779   5.667   6.640  1.00 20.00     0.002 C 
HETATM    5  C7  UNL     1     -34.455   4.806   5.423  1.00 20.00     0.020 C 
HETATM    6  C8  UNL     1     -34.653   5.527   4.093  1.00 20.00     0.129 C 
HETATM    7  N9  UNL     1     -33.502   6.381   3.742  1.00 20.00    -0.352 N 
HETATM    8  S10 UNL     1     -32.053   8.725   4.033  1.00 20.00    -0.065 SA
ENDROOT
BRANCH   7   9
HETATM    9  C3  UNL     1     -32.685   5.900   2.735  1.00 20.00     0.081 C 
HETATM   10  C2  UNL     1     -32.858   4.703   2.169  1.00 20.00     0.030 C 
ENDBRANCH   7   9
TORSDOF 1
ENDMDL
MODEL 2
REMARK VINA RESULT:      -4.1      0.991      1.183
REMARK  1 active torsions:
REMARK  status: ('A' for Active; 'I' for Inactive)
REMARK    1  A    between atoms: C3_3  and  N9_9 
ROOT
HETATM    1  C1  UNL     1     -33.198   7.782   4.790  1.00 20.00     0.079 C 
HETATM    2  C4  UNL     1     -34.264   7.609   5.876  1.00 20.00     0.070 C 
HETATM    3  C5  UNL     1     -34.046   6.330   6.683  1.00 20.00     0.007 C 
HETATM    4  C6  UNL     1     -34.690   5.098   6.053  1.00 20.00     0.002 C 
HETATM    5  C7  UNL     1     -34.129   4.719   4.685  1.00 20.00     0.020 C 
HETATM    6  C8  UNL     1     -34.272   5.822   3.640  1.00 20.00     0.129 C 
HETATM    7  N9  UNL     1     -33.208   6.839   3.748  1.00 20.00    -0.352 N 
HETATM    8  S10 UNL     1     -32.111   9.068   4.975  1.00 20.00    -0.065 SA
ENDROOT
BRANCH   7   9
HETATM    9  C3  UNL     1     -32.233   6.791   2.769  1.00 20.00     0.081 C 
HETATM   10  C2  UNL     1     -32.205   7.625   1.728  1.00 20.00     0.030 C 
ENDBRANCH   7   9
TORSDOF 1
ENDMDL
MODEL 3
REMARK VINA RESULT:      -3.7      1.793      3.474
REMARK  1 active torsions:
REMARK  status: ('A' for Active; 'I' for Inactive)
REMARK    1  A    between atoms: C3_3  and  N9_9 
ROOT
HETATM    1  C1  UNL     1     -33.240   6.197   3.319  1.00 20.00     0.079 C 
HETATM    2  C4  UNL     1     -32.508   7.431   2.784  1.00 20.00     0.070 C 
HETATM    3  C5  UNL     1     -31.541   8.007   3.818  1.00 20.00     0.007 C 
HETATM    4  C6  UNL     1     -32.200   8.991   4.781  1.00 20.00     0.002 C 
HETATM    5  C7  UNL     1     -33.291   8.385   5.658  1.00 20.00     0.020 C 
HETATM    6  C8  UNL     1     -34.443   7.773   4.865  1.00 20.00     0.129 C 
HETATM    7  N9  UNL     1     -34.133   6.413   4.383  1.00 20.00    -0.352 N 
HETATM    8  S10 UNL     1     -32.879   4.710   2.593  1.00 20.00    -0.065 SA
ENDROOT
BRANCH   7   9
HETATM    9  C3  UNL     1     -34.767   5.383   5.053  1.00 20.00     0.081 C 
HETATM   10  C2  UNL     1     -34.547   5.108   6.340  1.00 20.00     0.030 C 
ENDBRANCH   7   9
TORSDOF 1
ENDMDL
MODEL 4
REMARK VINA RESULT:      -3.5     12.548     13.709
REMARK  1 active torsions:
REMARK  status: ('A' for Active; 'I' for Inactive)
REMARK    1  A    between atoms: C3_3  and  N9_9 
ROOT
HETATM    1  C1  UNL     1     -34.393  17.512  -4.765  1.00 20.00     0.079 C 
HETATM    2  C4  UNL     1     -35.022  16.803  -5.968  1.00 20.00     0.070 C 
HETATM    3  C5  UNL     1     -36.030  15.740  -5.533  1.00 20.00     0.007 C 
HETATM    4  C6  UNL     1     -35.395  14.383  -5.245  1.00 20.00     0.002 C 
HETATM    5  C7  UNL     1     -34.401  14.382  -4.086  1.00 20.00     0.020 C 
HETATM    6  C8  UNL     1     -33.228  15.336  -4.287  1.00 20.00     0.129 C 
HETATM    7  N9  UNL     1     -33.570  16.729  -3.937  1.00 20.00    -0.352 N 
HETATM    8  S10 UNL     1     -34.775  19.148  -4.548  1.00 20.00    -0.065 SA
ENDROOT
BRANCH   7   9
HETATM    9  C3  UNL     1     -33.038  17.195  -2.749  1.00 20.00     0.081 C 
HETATM   10  C2  UNL     1     -33.667  17.080  -1.577  1.00 20.00     0.030 C 
ENDBRANCH   7   9
TORSDOF 1
ENDMDL
MODEL 5
REMARK VINA RESULT:      -3.4     13.280     14.213
REMARK  1 active torsions:
REMARK  status: ('A' for Active; 'I' for Inactive)
REMARK    1  A    between atoms: C3_3  and  N9_9 
ROOT
HETATM    1  C1  UNL     1     -35.180  17.376  -5.571  1.00 20.00     0.079 C 
HETATM    2  C4  UNL     1     -35.055  17.758  -4.093  1.00 20.00     0.070 C 
HETATM    3  C5  UNL     1     -33.616  17.623  -3.595  1.00 20.00     0.007 C 
HETATM    4  C6  UNL     1     -33.268  16.216  -3.116  1.00 20.00     0.002 C 
HETATM    5  C7  UNL     1     -33.340  15.143  -4.198  1.00 20.00     0.020 C 
HETATM    6  C8  UNL     1     -34.718  15.015  -4.842  1.00 20.00     0.129 C 
HETATM    7  N9  UNL     1     -34.944  16.028  -5.891  1.00 20.00    -0.352 N 
HETATM    8  S10 UNL     1     -35.563  18.618  -6.658  1.00 20.00    -0.065 SA
ENDROOT
BRANCH   7   9
HETATM    9  C3  UNL     1     -34.895  15.562  -7.193  1.00 20.00     0.081 C 
HETATM   10  C2  UNL     1     -33.774  15.548  -7.917  1.00 20.00     0.030 C 
ENDBRANCH   7   9
TORSDOF 1
ENDMDL
MODEL 6
REMARK VINA RESULT:      -3.3     12.722     13.843
REMARK  1 active torsions:
REMARK  status: ('A' for Active; 'I' for Inactive)
REMARK    1  A    between atoms: C3_3  and  N9_9 
ROOT
HETATM    1  C1  UNL     1     -33.873  16.335  -3.944  1.00 20.00     0.079 C 
HETATM    2  C4  UNL     1     -32.959  16.827  -2.818  1.00 20.00     0.070 C 
HETATM    3  C5  UNL     1     -33.742  17.106  -1.536  1.00 20.00     0.007 C 
HETATM    4  C6  UNL     1     -34.332  18.513  -1.479  1.00 20.00     0.002 C 
HETATM    5  C7  UNL     1     -35.364  18.811  -2.563  1.00 20.00     0.020 C 
HETATM    6  C8  UNL     1     -34.821  18.663  -3.982  1.00 20.00     0.129 C 
HETATM    7  N9  UNL     1     -34.811  17.259  -4.436  1.00 20.00    -0.352 N 
HETATM    8  S10 UNL     1     -33.674  14.732  -4.455  1.00 20.00    -0.065 SA
ENDROOT
BRANCH   7   9
HETATM    9  C3  UNL     1     -35.784  16.923  -5.359  1.00 20.00     0.081 C 
HETATM   10  C2  UNL     1     -37.091  17.011  -5.102  1.00 20.00     0.030 C 
ENDBRANCH   7   9
TORSDOF 1
ENDMDL
MODEL 7
REMARK VINA RESULT:      -3.3     12.980     14.221
REMARK  1 active torsions:
REMARK  status: ('A' for Active; 'I' for Inactive)
REMARK    1  A    between atoms: C3_3  and  N9_9 
ROOT
HETATM    1  C1  UNL     1     -35.693  16.917  -5.205  1.00 20.00     0.079 C 
HETATM    2  C4  UNL     1     -34.767  15.904  -5.886  1.00 20.00     0.070 C 
HETATM    3  C5  UNL     1     -34.379  14.768  -4.940  1.00 20.00     0.007 C 
HETATM    4  C6  UNL     1     -33.162  15.088  -4.076  1.00 20.00     0.002 C 
HETATM    5  C7  UNL     1     -33.355  16.259  -3.117  1.00 20.00     0.020 C 
HETATM    6  C8  UNL     1     -33.703  17.570  -3.816  1.00 20.00     0.129 C 
HETATM    7  N9  UNL     1     -35.136  17.664  -4.153  1.00 20.00    -0.352 N 
HETATM    8  S10 UNL     1     -37.287  17.008  -5.772  1.00 20.00    -0.065 SA
ENDROOT
BRANCH   7   9
HETATM    9  C3  UNL     1     -35.881  18.521  -3.363  1.00 20.00     0.081 C 
HETATM   10  C2  UNL     1     -35.414  19.059  -2.235  1.00 20.00     0.030 C 
ENDBRANCH   7   9
TORSDOF 1
ENDMDL
MODEL 8
REMARK VINA RESULT:      -3.3     13.369     14.370
REMARK  1 active torsions:
REMARK  status: ('A' for Active; 'I' for Inactive)
REMARK    1  A    between atoms: C3_3  and  N9_9 
ROOT
HETATM    1  C1  UNL     1     -33.856  17.845  -4.161  1.00 20.00     0.079 C 
HETATM    2  C4  UNL     1     -33.670  16.708  -3.153  1.00 20.00     0.070 C 
HETATM    3  C5  UNL     1     -32.975  15.501  -3.785  1.00 20.00     0.007 C 
HETATM    4  C6  UNL     1     -33.938  14.541  -4.477  1.00 20.00     0.002 C 
HETATM    5  C7  UNL     1     -34.689  15.142  -5.662  1.00 20.00     0.020 C 
HETATM    6  C8  UNL     1     -35.534  16.358  -5.297  1.00 20.00     0.129 C 
HETATM    7  N9  UNL     1     -34.735  17.597  -5.229  1.00 20.00    -0.352 N 
HETATM    8  S10 UNL     1     -32.966  19.263  -3.898  1.00 20.00    -0.065 SA
ENDROOT
BRANCH   7   9
HETATM    9  C3  UNL     1     -34.906  18.477  -6.283  1.00 20.00     0.081 C 
HETATM   10  C2  UNL     1     -34.232  18.376  -7.430  1.00 20.00     0.030 C 
ENDBRANCH   7   9
TORSDOF 1
ENDMDL
MODEL 9
REMARK VINA RESULT:      -3.1     13.241     14.394
REMARK  1 active torsions:
REMARK  status: ('A' for Active; 'I' for Inactive)
REMARK    1  A    between atoms: C3_3  and  N9_9 
ROOT
HETATM    1  C1  UNL     1     -34.883  15.996  -5.882  1.00 20.00     0.079 C 
HETATM    2  C4  UNL     1     -33.667  15.262  -5.309  1.00 20.00     0.070 C 
HETATM    3  C5  UNL     1     -33.795  15.048  -3.801  1.00 20.00     0.007 C 
HETATM    4  C6  UNL     1     -33.292  16.230  -2.976  1.00 20.00     0.002 C 
HETATM    5  C7  UNL     1     -34.069  17.526  -3.188  1.00 20.00     0.020 C 
HETATM    6  C8  UNL     1     -34.057  18.016  -4.633  1.00 20.00     0.129 C 
HETATM    7  N9  UNL     1     -35.061  17.328  -5.468  1.00 20.00    -0.352 N 
HETATM    8  S10 UNL     1     -35.891  15.123  -6.926  1.00 20.00    -0.065 SA
ENDROOT
BRANCH   7   9
HETATM    9  C3  UNL     1     -36.178  18.075  -5.798  1.00 20.00     0.081 C 
HETATM   10  C2  UNL     1     -37.257  18.152  -5.017  1.00 20.00     0.030 C 
ENDBRANCH   7   9
TORSDOF 1
ENDMDL
