MODEL 1
REMARK VINA RESULT:      -4.2      0.000      0.000
REMARK  3 active torsions:
REMARK  status: ('A' for Active; 'I' for Inactive)
REMARK    1  A    between atoms: C4_4  and  C8_8 
REMARK    2  A    between atoms: C7_7  and  C11_11 
REMARK    3  A    between atoms: C8_8  and  O12_12 
ROOT
HETATM    1  C1  UNL     1     -32.982  15.954  -3.422  1.00 20.00    -0.022 C 
HETATM    2  C2  UNL     1     -33.497  15.000  -4.212  1.00 20.00     0.011 C 
HETATM    3  C5  UNL     1     -34.352  17.711  -4.622  1.00 20.00     0.012 C 
HETATM    4  C6  UNL     1     -35.338  16.580  -4.923  1.00 20.00     0.047 C 
HETATM    5  C7  UNL     1     -33.454  17.385  -3.415  1.00 20.00     0.011 C 
HETATM    6  C8  UNL     1     -34.628  15.236  -5.179  1.00 20.00     0.092 C 
ENDROOT
BRANCH   6   7
HETATM    7  C4  UNL     1     -34.127  15.134  -6.592  1.00 20.00     0.004 C 
HETATM    8  C3  UNL     1     -34.784  15.611  -7.655  1.00 20.00     0.010 C 
ENDBRANCH   6   7
BRANCH   6   9
HETATM    9  O12 UNL     1     -35.587  14.193  -4.980  1.00 20.00    -0.382 OA
HETATM   10  H30 UNL     1     -35.565  13.648  -5.780  1.00 20.00     0.211 HD
ENDBRANCH   6   9
BRANCH   5  11
HETATM   11  C11 UNL     1     -34.161  17.688  -2.092  1.00 20.00    -0.015 C 
HETATM   12  C9  UNL     1     -33.143  17.856  -0.968  1.00 20.00     0.010 C 
HETATM   13  C10 UNL     1     -35.029  18.937  -2.224  1.00 20.00     0.010 C 
ENDBRANCH   5  11
TORSDOF 3
ENDMDL
MODEL 2
REMARK VINA RESULT:      -4.1     11.487     12.886
REMARK  3 active torsions:
REMARK  status: ('A' for Active; 'I' for Inactive)
REMARK    1  A    between atoms: C4_4  and  C8_8 
REMARK    2  A    between atoms: C7_7  and  C11_11 
REMARK    3  A    between atoms: C8_8  and  O12_12 
ROOT
HETATM    1  C1  UNL     1     -33.125   8.117   4.172  1.00 20.00    -0.022 C 
HETATM    2  C2  UNL     1     -34.062   7.405   4.816  1.00 20.00     0.011 C 
HETATM    3  C5  UNL     1     -32.465   6.070   2.839  1.00 20.00     0.012 C 
HETATM    4  C6  UNL     1     -33.904   5.598   3.056  1.00 20.00     0.047 C 
HETATM    5  C7  UNL     1     -32.328   7.595   3.005  1.00 20.00     0.011 C 
HETATM    6  C8  UNL     1     -34.449   5.999   4.442  1.00 20.00     0.092 C 
ENDROOT
BRANCH   6   7
HETATM    7  C4  UNL     1     -34.005   5.041   5.511  1.00 20.00     0.004 C 
HETATM    8  C3  UNL     1     -34.342   5.151   6.801  1.00 20.00     0.010 C 
ENDBRANCH   6   7
BRANCH   6   9
HETATM    9  O12 UNL     1     -35.878   5.950   4.378  1.00 20.00    -0.382 OA
HETATM   10  H30 UNL     1     -36.185   5.808   5.284  1.00 20.00     0.211 HD
ENDBRANCH   6   9
BRANCH   5  11
HETATM   11  C11 UNL     1     -32.733   8.336   1.730  1.00 20.00    -0.015 C 
HETATM   12  C9  UNL     1     -32.888   9.829   2.005  1.00 20.00     0.010 C 
HETATM   13  C10 UNL     1     -31.710   8.095   0.623  1.00 20.00     0.010 C 
ENDBRANCH   5  11
TORSDOF 3
ENDMDL
MODEL 3
REMARK VINA RESULT:      -4.0      2.474      5.139
REMARK  3 active torsions:
REMARK  status: ('A' for Active; 'I' for Inactive)
REMARK    1  A    between atoms: C4_4  and  C8_8 
REMARK    2  A    between atoms: C7_7  and  C11_11 
REMARK    3  A    between atoms: C8_8  and  O12_12 
ROOT
HETATM    1  C1  UNL     1     -33.130  18.723  -3.793  1.00 20.00    -0.022 C 
HETATM    2  C2  UNL     1     -32.865  19.242  -2.585  1.00 20.00     0.011 C 
HETATM    3  C5  UNL     1     -33.285  16.409  -2.781  1.00 20.00     0.012 C 
HETATM    4  C6  UNL     1     -33.690  17.119  -1.488  1.00 20.00     0.047 C 
HETATM    5  C7  UNL     1     -33.528  17.288  -4.022  1.00 20.00     0.011 C 
HETATM    6  C8  UNL     1     -32.951  18.460  -1.301  1.00 20.00     0.092 C 
ENDROOT
BRANCH   6   7
HETATM    7  C4  UNL     1     -31.578  18.261  -0.725  1.00 20.00     0.004 C 
HETATM    8  C3  UNL     1     -31.155  18.821   0.414  1.00 20.00     0.010 C 
ENDBRANCH   6   7
BRANCH   6   9
HETATM    9  O12 UNL     1     -33.704  19.245  -0.371  1.00 20.00    -0.382 OA
HETATM   10  H30 UNL     1     -34.633  19.154  -0.629  1.00 20.00     0.211 HD
ENDBRANCH   6   9
BRANCH   5  11
HETATM   11  C11 UNL     1     -34.987  17.224  -4.477  1.00 20.00    -0.015 C 
HETATM   12  C9  UNL     1     -35.348  18.462  -5.294  1.00 20.00     0.010 C 
HETATM   13  C10 UNL     1     -35.240  15.953  -5.284  1.00 20.00     0.010 C 
ENDBRANCH   5  11
TORSDOF 3
ENDMDL
MODEL 4
REMARK VINA RESULT:      -3.7     11.918     13.164
REMARK  3 active torsions:
REMARK  status: ('A' for Active; 'I' for Inactive)
REMARK    1  A    between atoms: C4_4  and  C8_8 
REMARK    2  A    between atoms: C7_7  and  C11_11 
REMARK    3  A    between atoms: C8_8  and  O12_12 
ROOT
HETATM    1  C1  UNL     1     -34.522   7.431   5.032  1.00 20.00    -0.022 C 
HETATM    2  C2  UNL     1     -33.464   8.197   4.723  1.00 20.00     0.011 C 
HETATM    3  C5  UNL     1     -34.056   5.954   3.031  1.00 20.00     0.012 C 
HETATM    4  C6  UNL     1     -32.596   6.384   3.190  1.00 20.00     0.047 C 
HETATM    5  C7  UNL     1     -34.856   6.138   4.334  1.00 20.00     0.011 C 
HETATM    6  C8  UNL     1     -32.465   7.849   3.652  1.00 20.00     0.092 C 
ENDROOT
BRANCH   6   7
HETATM    7  C4  UNL     1     -32.589   8.807   2.500  1.00 20.00     0.004 C 
HETATM    8  C3  UNL     1     -32.229   8.518   1.245  1.00 20.00     0.010 C 
ENDBRANCH   6   7
BRANCH   6   9
HETATM    9  O12 UNL     1     -31.159   8.011   4.214  1.00 20.00    -0.382 OA
HETATM   10  H30 UNL     1     -31.237   8.704   4.886  1.00 20.00     0.211 HD
ENDBRANCH   6   9
BRANCH   5  11
HETATM   11  C11 UNL     1     -34.644   4.965   5.293  1.00 20.00    -0.015 C 
HETATM   12  C9  UNL     1     -33.707   3.932   4.675  1.00 20.00     0.010 C 
HETATM   13  C10 UNL     1     -34.095   5.460   6.628  1.00 20.00     0.010 C 
ENDBRANCH   5  11
TORSDOF 3
ENDMDL
MODEL 5
REMARK VINA RESULT:      -3.6     12.182     13.494
REMARK  3 active torsions:
REMARK  status: ('A' for Active; 'I' for Inactive)
REMARK    1  A    between atoms: C4_4  and  C8_8 
REMARK    2  A    between atoms: C7_7  and  C11_11 
REMARK    3  A    between atoms: C8_8  and  O12_12 
ROOT
HETATM    1  C1  UNL     1     -40.525  15.053   7.760  1.00 20.00    -0.022 C 
HETATM    2  C2  UNL     1     -40.428  13.768   7.387  1.00 20.00     0.011 C 
HETATM    3  C5  UNL     1     -42.151  15.493   5.871  1.00 20.00     0.012 C 
HETATM    4  C6  UNL     1     -42.519  14.013   5.987  1.00 20.00     0.047 C 
HETATM    5  C7  UNL     1     -41.505  16.029   7.163  1.00 20.00     0.011 C 
HETATM    6  C8  UNL     1     -41.302  13.133   6.337  1.00 20.00     0.092 C 
ENDROOT
BRANCH   6   7
HETATM    7  C4  UNL     1     -40.486  12.804   5.118  1.00 20.00     0.004 C 
HETATM    8  C3  UNL     1     -39.520  11.880   5.092  1.00 20.00     0.010 C 
ENDBRANCH   6   7
BRANCH   6   9
HETATM    9  O12 UNL     1     -41.796  11.903   6.877  1.00 20.00    -0.382 OA
HETATM   10  H30 UNL     1     -42.302  12.138   7.667  1.00 20.00     0.211 HD
ENDBRANCH   6   9
BRANCH   5  11
HETATM   11  C11 UNL     1     -42.561  16.402   8.205  1.00 20.00    -0.015 C 
HETATM   12  C9  UNL     1     -41.935  16.492   9.593  1.00 20.00     0.010 C 
HETATM   13  C10 UNL     1     -43.238  17.719   7.832  1.00 20.00     0.010 C 
ENDBRANCH   5  11
TORSDOF 3
ENDMDL
MODEL 6
REMARK VINA RESULT:      -3.6      2.142      4.659
REMARK  3 active torsions:
REMARK  status: ('A' for Active; 'I' for Inactive)
REMARK    1  A    between atoms: C4_4  and  C8_8 
REMARK    2  A    between atoms: C7_7  and  C11_11 
REMARK    3  A    between atoms: C8_8  and  O12_12 
ROOT
HETATM    1  C1  UNL     1     -33.696  16.092  -3.705  1.00 20.00    -0.022 C 
HETATM    2  C2  UNL     1     -33.090  16.908  -2.829  1.00 20.00     0.011 C 
HETATM    3  C5  UNL     1     -35.446  17.861  -4.165  1.00 20.00     0.012 C 
HETATM    4  C6  UNL     1     -34.369  18.874  -3.771  1.00 20.00     0.047 C 
HETATM    5  C7  UNL     1     -34.838  16.512  -4.593  1.00 20.00     0.011 C 
HETATM    6  C8  UNL     1     -33.463  18.354  -2.636  1.00 20.00     0.092 C 
ENDROOT
BRANCH   6   7
HETATM    7  C4  UNL     1     -34.096  18.548  -1.288  1.00 20.00     0.004 C 
HETATM    8  C3  UNL     1     -33.787  17.826  -0.205  1.00 20.00     0.010 C 
ENDBRANCH   6   7
BRANCH   6   9
HETATM    9  O12 UNL     1     -32.252  19.116  -2.664  1.00 20.00    -0.382 OA
HETATM   10  H30 UNL     1     -32.482  19.976  -3.044  1.00 20.00     0.211 HD
ENDBRANCH   6   9
BRANCH   5  11
HETATM   11  C11 UNL     1     -34.374  16.543  -6.050  1.00 20.00    -0.015 C 
HETATM   12  C9  UNL     1     -33.999  15.141  -6.522  1.00 20.00     0.010 C 
HETATM   13  C10 UNL     1     -35.458  17.141  -6.943  1.00 20.00     0.010 C 
ENDBRANCH   5  11
TORSDOF 3
ENDMDL
MODEL 7
REMARK VINA RESULT:      -3.6      1.733      4.405
REMARK  3 active torsions:
REMARK  status: ('A' for Active; 'I' for Inactive)
REMARK    1  A    between atoms: C4_4  and  C8_8 
REMARK    2  A    between atoms: C7_7  and  C11_11 
REMARK    3  A    between atoms: C8_8  and  O12_12 
ROOT
HETATM    1  C1  UNL     1     -36.025  14.915  -5.365  1.00 20.00    -0.022 C 
HETATM    2  C2  UNL     1     -34.849  14.627  -4.786  1.00 20.00     0.011 C 
HETATM    3  C5  UNL     1     -35.608  17.386  -5.016  1.00 20.00     0.012 C 
HETATM    4  C6  UNL     1     -34.121  17.031  -5.062  1.00 20.00     0.047 C 
HETATM    5  C7  UNL     1     -36.478  16.313  -5.697  1.00 20.00     0.011 C 
HETATM    6  C8  UNL     1     -33.824  15.665  -4.413  1.00 20.00     0.092 C 
ENDROOT
BRANCH   6   7
HETATM    7  C4  UNL     1     -33.721  15.772  -2.917  1.00 20.00     0.004 C 
HETATM    8  C3  UNL     1     -33.348  16.882  -2.271  1.00 20.00     0.010 C 
ENDBRANCH   6   7
BRANCH   6   9
HETATM    9  O12 UNL     1     -32.559  15.214  -4.906  1.00 20.00    -0.382 OA
HETATM   10  H30 UNL     1     -31.886  15.638  -4.354  1.00 20.00     0.211 HD
ENDBRANCH   6   9
BRANCH   5  11
HETATM   11  C11 UNL     1     -36.510  16.498  -7.215  1.00 20.00    -0.015 C 
HETATM   12  C9  UNL     1     -35.995  15.244  -7.918  1.00 20.00     0.010 C 
HETATM   13  C10 UNL     1     -37.923  16.836  -7.683  1.00 20.00     0.010 C 
ENDBRANCH   5  11
TORSDOF 3
ENDMDL
MODEL 8
REMARK VINA RESULT:      -3.5      1.691      2.957
REMARK  3 active torsions:
REMARK  status: ('A' for Active; 'I' for Inactive)
REMARK    1  A    between atoms: C4_4  and  C8_8 
REMARK    2  A    between atoms: C7_7  and  C11_11 
REMARK    3  A    between atoms: C8_8  and  O12_12 
ROOT
HETATM    1  C1  UNL     1     -35.035  18.510  -2.335  1.00 20.00    -0.022 C 
HETATM    2  C2  UNL     1     -35.093  18.408  -3.671  1.00 20.00     0.011 C 
HETATM    3  C5  UNL     1     -33.310  16.660  -2.253  1.00 20.00     0.012 C 
HETATM    4  C6  UNL     1     -32.929  17.101  -3.667  1.00 20.00     0.047 C 
HETATM    5  C7  UNL     1     -34.037  17.776  -1.478  1.00 20.00     0.011 C 
HETATM    6  C8  UNL     1     -34.152  17.561  -4.487  1.00 20.00     0.092 C 
ENDROOT
BRANCH   6   7
HETATM    7  C4  UNL     1     -34.892  16.396  -5.082  1.00 20.00     0.004 C 
HETATM    8  C3  UNL     1     -34.295  15.324  -5.614  1.00 20.00     0.010 C 
ENDBRANCH   6   7
BRANCH   6   9
HETATM    9  O12 UNL     1     -33.672  18.371  -5.565  1.00 20.00    -0.382 OA
HETATM   10  H30 UNL     1     -34.371  19.013  -5.754  1.00 20.00     0.211 HD
ENDBRANCH   6   9
BRANCH   5  11
HETATM   11  C11 UNL     1     -33.047  18.772  -0.871  1.00 20.00    -0.015 C 
HETATM   12  C9  UNL     1     -33.546  19.263   0.485  1.00 20.00     0.010 C 
HETATM   13  C10 UNL     1     -31.665  18.139  -0.739  1.00 20.00     0.010 C 
ENDBRANCH   5  11
TORSDOF 3
ENDMDL
MODEL 9
REMARK VINA RESULT:      -3.5      2.194      4.234
REMARK  3 active torsions:
REMARK  status: ('A' for Active; 'I' for Inactive)
REMARK    1  A    between atoms: C4_4  and  C8_8 
REMARK    2  A    between atoms: C7_7  and  C11_11 
REMARK    3  A    between atoms: C8_8  and  O12_12 
ROOT
HETATM    1  C1  UNL     1     -36.743  15.381  -5.586  1.00 20.00    -0.022 C 
HETATM    2  C2  UNL     1     -35.536  14.802  -5.490  1.00 20.00     0.011 C 
HETATM    3  C5  UNL     1     -35.745  17.606  -4.911  1.00 20.00     0.012 C 
HETATM    4  C6  UNL     1     -34.439  17.079  -5.508  1.00 20.00     0.047 C 
HETATM    5  C7  UNL     1     -36.974  16.865  -5.469  1.00 20.00     0.011 C 
HETATM    6  C8  UNL     1     -34.257  15.565  -5.273  1.00 20.00     0.092 C 
ENDROOT
BRANCH   6   7
HETATM    7  C4  UNL     1     -33.711  15.278  -3.903  1.00 20.00     0.004 C 
HETATM    8  C3  UNL     1     -33.259  16.218  -3.065  1.00 20.00     0.010 C 
ENDBRANCH   6   7
BRANCH   6   9
HETATM    9  O12 UNL     1     -33.305  15.089  -6.231  1.00 20.00    -0.382 OA
HETATM   10  H30 UNL     1     -32.595  14.672  -5.722  1.00 20.00     0.211 HD
ENDBRANCH   6   9
BRANCH   5  11
HETATM   11  C11 UNL     1     -37.399  17.429  -6.826  1.00 20.00    -0.015 C 
HETATM   12  C9  UNL     1     -38.810  16.968  -7.179  1.00 20.00     0.010 C 
HETATM   13  C10 UNL     1     -37.316  18.953  -6.821  1.00 20.00     0.010 C 
ENDBRANCH   5  11
TORSDOF 3
ENDMDL
