MODEL 1
REMARK VINA RESULT:      -4.7      0.000      0.000
REMARK  1 active torsions:
REMARK  status: ('A' for Active; 'I' for Inactive)
REMARK    1  A    between atoms: C5_5  and  C10_10 
ROOT
HETATM    1  C1  UNL     1     -32.745   6.186   2.366  1.00 20.00     0.046 C 
HETATM    2  C2  UNL     1     -33.233   5.730   3.525  1.00 20.00    -0.018 C 
HETATM    3  C3  UNL     1     -32.296   7.592   2.255  1.00 20.00     0.149 C 
HETATM    4  C4  UNL     1     -32.286   8.440   3.506  1.00 20.00     0.088 C 
HETATM    5  C5  UNL     1     -33.439   6.567   4.765  1.00 20.00     0.015 C 
HETATM    6  C6  UNL     1     -33.453   8.079   4.431  1.00 20.00    -0.003 C 
HETATM    7  C7  UNL     1     -33.403   8.954   5.687  1.00 20.00     0.011 C 
HETATM    8  O11 UNL     1     -31.879   8.019   1.180  1.00 20.00    -0.293 OA
ENDROOT
BRANCH   5   9
HETATM    9  C10 UNL     1     -34.731   6.134   5.464  1.00 20.00    -0.015 C 
HETATM   10  C8  UNL     1     -35.761   5.670   4.440  1.00 20.00     0.010 C 
HETATM   11  C9  UNL     1     -34.444   5.033   6.480  1.00 20.00     0.010 C 
ENDBRANCH   5   9
TORSDOF 1
ENDMDL
MODEL 2
REMARK VINA RESULT:      -4.4      0.559      1.206
REMARK  1 active torsions:
REMARK  status: ('A' for Active; 'I' for Inactive)
REMARK    1  A    between atoms: C5_5  and  C10_10 
ROOT
HETATM    1  C1  UNL     1     -32.615   6.097   2.006  1.00 20.00     0.046 C 
HETATM    2  C2  UNL     1     -33.074   5.393   3.046  1.00 20.00    -0.018 C 
HETATM    3  C3  UNL     1     -32.304   7.536   2.166  1.00 20.00     0.149 C 
HETATM    4  C4  UNL     1     -32.397   8.137   3.550  1.00 20.00     0.088 C 
HETATM    5  C5  UNL     1     -33.380   5.966   4.410  1.00 20.00     0.015 C 
HETATM    6  C6  UNL     1     -33.537   7.505   4.355  1.00 20.00    -0.003 C 
HETATM    7  C7  UNL     1     -33.592   8.136   5.749  1.00 20.00     0.011 C 
HETATM    8  O11 UNL     1     -31.915   8.189   1.200  1.00 20.00    -0.293 OA
ENDROOT
BRANCH   5   9
HETATM    9  C10 UNL     1     -34.634   5.293   4.976  1.00 20.00    -0.015 C 
HETATM   10  C8  UNL     1     -34.657   5.403   6.497  1.00 20.00     0.010 C 
HETATM   11  C9  UNL     1     -35.890   5.911   4.370  1.00 20.00     0.010 C 
ENDBRANCH   5   9
TORSDOF 1
ENDMDL
MODEL 3
REMARK VINA RESULT:      -4.2      1.579      2.754
REMARK  1 active torsions:
REMARK  status: ('A' for Active; 'I' for Inactive)
REMARK    1  A    between atoms: C5_5  and  C10_10 
ROOT
HETATM    1  C1  UNL     1     -33.533   8.469   5.664  1.00 20.00     0.046 C 
HETATM    2  C2  UNL     1     -34.389   7.452   5.508  1.00 20.00    -0.018 C 
HETATM    3  C3  UNL     1     -32.463   8.694   4.666  1.00 20.00     0.149 C 
HETATM    4  C4  UNL     1     -32.452   7.833   3.424  1.00 20.00     0.088 C 
HETATM    5  C5  UNL     1     -34.323   6.430   4.398  1.00 20.00     0.015 C 
HETATM    6  C6  UNL     1     -32.926   6.409   3.730  1.00 20.00    -0.003 C 
HETATM    7  C7  UNL     1     -32.906   5.574   2.446  1.00 20.00     0.011 C 
HETATM    8  O11 UNL     1     -31.657   9.607   4.829  1.00 20.00    -0.293 OA
ENDROOT
BRANCH   5   9
HETATM    9  C10 UNL     1     -34.702   5.052   4.950  1.00 20.00    -0.015 C 
HETATM   10  C8  UNL     1     -33.723   3.992   4.456  1.00 20.00     0.010 C 
HETATM   11  C9  UNL     1     -34.744   5.082   6.474  1.00 20.00     0.010 C 
ENDBRANCH   5   9
TORSDOF 1
ENDMDL
MODEL 4
REMARK VINA RESULT:      -3.9      2.407      3.971
REMARK  1 active torsions:
REMARK  status: ('A' for Active; 'I' for Inactive)
REMARK    1  A    between atoms: C5_5  and  C10_10 
ROOT
HETATM    1  C1  UNL     1     -34.634   5.117   4.814  1.00 20.00     0.046 C 
HETATM    2  C2  UNL     1     -34.144   5.784   3.763  1.00 20.00    -0.018 C 
HETATM    3  C3  UNL     1     -34.621   5.741   6.156  1.00 20.00     0.149 C 
HETATM    4  C4  UNL     1     -34.166   7.178   6.272  1.00 20.00     0.088 C 
HETATM    5  C5  UNL     1     -33.492   7.145   3.831  1.00 20.00     0.015 C 
HETATM    6  C6  UNL     1     -33.046   7.489   5.273  1.00 20.00    -0.003 C 
HETATM    7  C7  UNL     1     -32.620   8.952   5.418  1.00 20.00     0.011 C 
HETATM    8  O11 UNL     1     -35.041   5.114   7.127  1.00 20.00    -0.293 OA
ENDROOT
BRANCH   5   9
HETATM    9  C10 UNL     1     -32.314   7.195   2.852  1.00 20.00    -0.015 C 
HETATM   10  C8  UNL     1     -32.218   5.891   2.066  1.00 20.00     0.010 C 
HETATM   11  C9  UNL     1     -32.454   8.386   1.910  1.00 20.00     0.010 C 
ENDBRANCH   5   9
TORSDOF 1
ENDMDL
MODEL 5
REMARK VINA RESULT:      -3.9      2.436      4.525
REMARK  1 active torsions:
REMARK  status: ('A' for Active; 'I' for Inactive)
REMARK    1  A    between atoms: C5_5  and  C10_10 
ROOT
HETATM    1  C1  UNL     1     -34.084   7.010   6.372  1.00 20.00     0.046 C 
HETATM    2  C2  UNL     1     -33.306   7.630   5.478  1.00 20.00    -0.018 C 
HETATM    3  C3  UNL     1     -34.533   5.621   6.124  1.00 20.00     0.149 C 
HETATM    4  C4  UNL     1     -33.986   4.899   4.915  1.00 20.00     0.088 C 
HETATM    5  C5  UNL     1     -32.878   7.046   4.153  1.00 20.00     0.015 C 
HETATM    6  C6  UNL     1     -33.782   5.859   3.738  1.00 20.00    -0.003 C 
HETATM    7  C7  UNL     1     -33.222   5.091   2.539  1.00 20.00     0.011 C 
HETATM    8  O11 UNL     1     -35.276   5.065   6.930  1.00 20.00    -0.293 OA
ENDROOT
BRANCH   5   9
HETATM    9  C10 UNL     1     -32.873   8.147   3.088  1.00 20.00    -0.015 C 
HETATM   10  C8  UNL     1     -32.492   9.487   3.709  1.00 20.00     0.010 C 
HETATM   11  C9  UNL     1     -31.919   7.787   1.953  1.00 20.00     0.010 C 
ENDBRANCH   5   9
TORSDOF 1
ENDMDL
MODEL 6
REMARK VINA RESULT:      -3.9     11.706     13.255
REMARK  1 active torsions:
REMARK  status: ('A' for Active; 'I' for Inactive)
REMARK    1  A    between atoms: C5_5  and  C10_10 
ROOT
HETATM    1  C1  UNL     1     -33.835  15.017  -4.339  1.00 20.00     0.046 C 
HETATM    2  C2  UNL     1     -33.317  15.986  -3.576  1.00 20.00    -0.018 C 
HETATM    3  C3  UNL     1     -34.619  15.366  -5.545  1.00 20.00     0.149 C 
HETATM    4  C4  UNL     1     -34.701  16.820  -5.948  1.00 20.00     0.088 C 
HETATM    5  C5  UNL     1     -33.520  17.465  -3.801  1.00 20.00     0.015 C 
HETATM    6  C6  UNL     1     -34.737  17.736  -4.720  1.00 20.00    -0.003 C 
HETATM    7  C7  UNL     1     -34.813  19.197  -5.171  1.00 20.00     0.011 C 
HETATM    8  O11 UNL     1     -35.124  14.475  -6.226  1.00 20.00    -0.293 OA
ENDROOT
BRANCH   5   9
HETATM    9  C10 UNL     1     -33.669  18.171  -2.450  1.00 20.00    -0.015 C 
HETATM   10  C8  UNL     1     -33.682  17.152  -1.315  1.00 20.00     0.010 C 
HETATM   11  C9  UNL     1     -32.546  19.185  -2.253  1.00 20.00     0.010 C 
ENDBRANCH   5   9
TORSDOF 1
ENDMDL
MODEL 7
REMARK VINA RESULT:      -3.8     11.856     13.368
REMARK  1 active torsions:
REMARK  status: ('A' for Active; 'I' for Inactive)
REMARK    1  A    between atoms: C5_5  and  C10_10 
ROOT
HETATM    1  C1  UNL     1     -32.889  17.221  -1.925  1.00 20.00     0.046 C 
HETATM    2  C2  UNL     1     -33.693  16.515  -2.728  1.00 20.00    -0.018 C 
HETATM    3  C3  UNL     1     -32.561  18.626  -2.258  1.00 20.00     0.149 C 
HETATM    4  C4  UNL     1     -33.255  19.261  -3.441  1.00 20.00     0.088 C 
HETATM    5  C5  UNL     1     -34.269  17.016  -4.031  1.00 20.00     0.015 C 
HETATM    6  C6  UNL     1     -33.487  18.242  -4.562  1.00 20.00    -0.003 C 
HETATM    7  C7  UNL     1     -34.197  18.923  -5.735  1.00 20.00     0.011 C 
HETATM    8  O11 UNL     1     -31.795  19.263  -1.538  1.00 20.00    -0.293 OA
ENDROOT
BRANCH   5   9
HETATM    9  C10 UNL     1     -34.284  15.874  -5.054  1.00 20.00    -0.015 C 
HETATM   10  C8  UNL     1     -33.606  14.635  -4.479  1.00 20.00     0.010 C 
HETATM   11  C9  UNL     1     -35.714  15.560  -5.480  1.00 20.00     0.010 C 
ENDBRANCH   5   9
TORSDOF 1
ENDMDL
MODEL 8
REMARK VINA RESULT:      -3.7     11.873     13.330
REMARK  1 active torsions:
REMARK  status: ('A' for Active; 'I' for Inactive)
REMARK    1  A    between atoms: C5_5  and  C10_10 
ROOT
HETATM    1  C1  UNL     1     -34.763  14.592  -4.792  1.00 20.00     0.046 C 
HETATM    2  C2  UNL     1     -34.058  15.440  -4.035  1.00 20.00    -0.018 C 
HETATM    3  C3  UNL     1     -35.232  15.013  -6.132  1.00 20.00     0.149 C 
HETATM    4  C4  UNL     1     -34.783  16.357  -6.656  1.00 20.00     0.088 C 
HETATM    5  C5  UNL     1     -33.737  16.868  -4.406  1.00 20.00     0.015 C 
HETATM    6  C6  UNL     1     -34.673  17.386  -5.525  1.00 20.00    -0.003 C 
HETATM    7  C7  UNL     1     -34.210  18.729  -6.096  1.00 20.00     0.011 C 
HETATM    8  O11 UNL     1     -35.909  14.245  -6.813  1.00 20.00    -0.293 OA
ENDROOT
BRANCH   5   9
HETATM    9  C10 UNL     1     -33.816  17.750  -3.155  1.00 20.00    -0.015 C 
HETATM   10  C8  UNL     1     -35.230  18.291  -2.974  1.00 20.00     0.010 C 
HETATM   11  C9  UNL     1     -33.374  16.967  -1.923  1.00 20.00     0.010 C 
ENDBRANCH   5   9
TORSDOF 1
ENDMDL
MODEL 9
REMARK VINA RESULT:      -3.7     11.352     13.183
REMARK  1 active torsions:
REMARK  status: ('A' for Active; 'I' for Inactive)
REMARK    1  A    between atoms: C5_5  and  C10_10 
ROOT
HETATM    1  C1  UNL     1     -34.044  14.454  -3.874  1.00 20.00     0.046 C 
HETATM    2  C2  UNL     1     -33.522  15.684  -3.936  1.00 20.00    -0.018 C 
HETATM    3  C3  UNL     1     -35.296  14.145  -4.600  1.00 20.00     0.149 C 
HETATM    4  C4  UNL     1     -35.881  15.208  -5.500  1.00 20.00     0.088 C 
HETATM    5  C5  UNL     1     -34.151  16.854  -4.654  1.00 20.00     0.015 C 
HETATM    6  C6  UNL     1     -35.656  16.610  -4.924  1.00 20.00    -0.003 C 
HETATM    7  C7  UNL     1     -36.256  17.656  -5.868  1.00 20.00     0.011 C 
HETATM    8  O11 UNL     1     -35.793  13.023  -4.514  1.00 20.00    -0.293 OA
ENDROOT
BRANCH   5   9
HETATM    9  C10 UNL     1     -33.927  18.133  -3.840  1.00 20.00    -0.015 C 
HETATM   10  C8  UNL     1     -33.213  17.812  -2.531  1.00 20.00     0.010 C 
HETATM   11  C9  UNL     1     -33.134  19.150  -4.654  1.00 20.00     0.010 C 
ENDBRANCH   5   9
TORSDOF 1
ENDMDL
