MODEL 1
REMARK VINA RESULT:      -4.3      0.000      0.000
REMARK  1 active torsions:
REMARK  status: ('A' for Active; 'I' for Inactive)
REMARK    1  A    between atoms: C6_6  and  C8_8 
ROOT
HETATM    1  C1  UNL     1     -31.984   7.236   2.883  1.00 20.00     0.061 C 
HETATM    2  C2  UNL     1     -34.364   7.486   5.238  1.00 20.00     0.066 C 
HETATM    3  C3  UNL     1     -32.762   5.900   2.977  1.00 20.00     0.170 C 
HETATM    4  C4  UNL     1     -32.703   8.262   3.661  1.00 20.00     0.153 A 
HETATM    5  C5  UNL     1     -32.921   7.754   5.071  1.00 20.00     0.153 A 
HETATM    6  C6  UNL     1     -34.726   6.178   4.472  1.00 20.00     0.123 C 
HETATM    7  O9  UNL     1     -34.184   6.077   3.132  1.00 20.00    -0.386 OA
HETATM    8  O10 UNL     1     -32.274   8.986   4.799  1.00 20.00    -0.375 OA
ENDROOT
BRANCH   6   9
HETATM    9  C8  UNL     1     -34.453   4.918   5.295  1.00 20.00     0.027 C 
HETATM   10  C7  UNL     1     -34.546   5.183   6.763  1.00 20.00     0.007 C 
ENDBRANCH   6   9
TORSDOF 1
ENDMDL
MODEL 2
REMARK VINA RESULT:      -4.1      1.500      3.875
REMARK  1 active torsions:
REMARK  status: ('A' for Active; 'I' for Inactive)
REMARK    1  A    between atoms: C6_6  and  C8_8 
ROOT
HETATM    1  C1  UNL     1     -34.591   5.484   6.323  1.00 20.00     0.061 C 
HETATM    2  C2  UNL     1     -33.502   6.219   3.233  1.00 20.00     0.066 C 
HETATM    3  C3  UNL     1     -33.967   6.903   6.317  1.00 20.00     0.170 C 
HETATM    4  C4  UNL     1     -34.744   5.025   4.931  1.00 20.00     0.153 A 
HETATM    5  C5  UNL     1     -33.409   5.127   4.225  1.00 20.00     0.153 A 
HETATM    6  C6  UNL     1     -33.461   7.585   3.983  1.00 20.00     0.123 C 
HETATM    7  O9  UNL     1     -34.315   7.674   5.150  1.00 20.00    -0.386 OA
HETATM    8  O10 UNL     1     -34.147   3.918   4.283  1.00 20.00    -0.375 OA
ENDROOT
BRANCH   6   9
HETATM    9  C8  UNL     1     -32.035   8.051   4.281  1.00 20.00     0.027 C 
HETATM   10  C7  UNL     1     -32.014   9.413   4.896  1.00 20.00     0.007 C 
ENDBRANCH   6   9
TORSDOF 1
ENDMDL
MODEL 3
REMARK VINA RESULT:      -4.0      1.558      3.503
REMARK  1 active torsions:
REMARK  status: ('A' for Active; 'I' for Inactive)
REMARK    1  A    between atoms: C6_6  and  C8_8 
ROOT
HETATM    1  C1  UNL     1     -34.463   5.534   4.727  1.00 20.00     0.061 C 
HETATM    2  C2  UNL     1     -32.555   8.285   4.979  1.00 20.00     0.066 C 
HETATM    3  C3  UNL     1     -33.885   5.893   3.335  1.00 20.00     0.170 C 
HETATM    4  C4  UNL     1     -33.783   6.350   5.750  1.00 20.00     0.153 A 
HETATM    5  C5  UNL     1     -33.898   7.812   5.375  1.00 20.00     0.153 A 
HETATM    6  C6  UNL     1     -32.219   7.720   3.565  1.00 20.00     0.123 C 
HETATM    7  O9  UNL     1     -32.507   6.313   3.379  1.00 20.00    -0.386 OA
HETATM    8  O10 UNL     1     -34.326   7.314   6.631  1.00 20.00    -0.375 OA
ENDROOT
BRANCH   6   9
HETATM    9  C8  UNL     1     -32.794   8.576   2.435  1.00 20.00     0.027 C 
HETATM   10  C7  UNL     1     -32.087   8.333   1.141  1.00 20.00     0.007 C 
ENDBRANCH   6   9
TORSDOF 1
ENDMDL
MODEL 4
REMARK VINA RESULT:      -3.8     12.300     13.536
REMARK  1 active torsions:
REMARK  status: ('A' for Active; 'I' for Inactive)
REMARK    1  A    between atoms: C6_6  and  C8_8 
ROOT
HETATM    1  C1  UNL     1     -36.356  16.761  -5.988  1.00 20.00     0.061 C 
HETATM    2  C2  UNL     1     -33.805  14.791  -5.050  1.00 20.00     0.066 C 
HETATM    3  C3  UNL     1     -35.589  17.429  -4.819  1.00 20.00     0.170 C 
HETATM    4  C4  UNL     1     -35.570  15.616  -6.482  1.00 20.00     0.153 A 
HETATM    5  C5  UNL     1     -35.254  14.695  -5.323  1.00 20.00     0.153 A 
HETATM    6  C6  UNL     1     -33.516  16.147  -4.338  1.00 20.00     0.123 C 
HETATM    7  O9  UNL     1     -34.157  17.304  -4.931  1.00 20.00    -0.386 OA
HETATM    8  O10 UNL     1     -35.904  14.241  -6.498  1.00 20.00    -0.375 OA
ENDROOT
BRANCH   6   9
HETATM    9  C8  UNL     1     -33.742  16.081  -2.827  1.00 20.00     0.027 C 
HETATM   10  C7  UNL     1     -33.125  17.246  -2.122  1.00 20.00     0.007 C 
ENDBRANCH   6   9
TORSDOF 1
ENDMDL
MODEL 5
REMARK VINA RESULT:      -3.6     11.830     13.126
REMARK  1 active torsions:
REMARK  status: ('A' for Active; 'I' for Inactive)
REMARK    1  A    between atoms: C6_6  and  C8_8 
ROOT
HETATM    1  C1  UNL     1     -35.320  15.710  -5.655  1.00 20.00     0.061 C 
HETATM    2  C2  UNL     1     -32.923  16.174  -3.351  1.00 20.00     0.066 C 
HETATM    3  C3  UNL     1     -35.492  17.105  -5.003  1.00 20.00     0.170 C 
HETATM    4  C4  UNL     1     -34.018  15.151  -5.249  1.00 20.00     0.153 A 
HETATM    5  C5  UNL     1     -33.925  15.159  -3.737  1.00 20.00     0.153 A 
HETATM    6  C6  UNL     1     -33.544  17.591  -3.542  1.00 20.00     0.123 C 
HETATM    7  O9  UNL     1     -34.244  17.794  -4.794  1.00 20.00    -0.386 OA
HETATM    8  O10 UNL     1     -33.740  13.980  -4.503  1.00 20.00    -0.375 OA
ENDROOT
BRANCH   6   9
HETATM    9  C8  UNL     1     -34.379  18.037  -2.340  1.00 20.00     0.027 C 
HETATM   10  C7  UNL     1     -33.738  17.652  -1.046  1.00 20.00     0.007 C 
ENDBRANCH   6   9
TORSDOF 1
ENDMDL
MODEL 6
REMARK VINA RESULT:      -3.3     12.295     13.966
REMARK  1 active torsions:
REMARK  status: ('A' for Active; 'I' for Inactive)
REMARK    1  A    between atoms: C6_6  and  C8_8 
ROOT
HETATM    1  C1  UNL     1     -33.305  16.302  -3.272  1.00 20.00     0.061 C 
HETATM    2  C2  UNL     1     -35.071  15.144  -5.882  1.00 20.00     0.066 C 
HETATM    3  C3  UNL     1     -33.875  17.494  -4.082  1.00 20.00     0.170 C 
HETATM    4  C4  UNL     1     -33.935  15.058  -3.749  1.00 20.00     0.153 A 
HETATM    5  C5  UNL     1     -33.750  14.951  -5.248  1.00 20.00     0.153 A 
HETATM    6  C6  UNL     1     -35.446  16.655  -5.813  1.00 20.00     0.123 C 
HETATM    7  O9  UNL     1     -35.230  17.286  -4.526  1.00 20.00    -0.386 OA
HETATM    8  O10 UNL     1     -33.337  13.928  -4.358  1.00 20.00    -0.375 OA
ENDROOT
BRANCH   6   9
HETATM    9  C8  UNL     1     -34.838  17.468  -6.957  1.00 20.00     0.027 C 
HETATM   10  C7  UNL     1     -35.627  18.705  -7.239  1.00 20.00     0.007 C 
ENDBRANCH   6   9
TORSDOF 1
ENDMDL
MODEL 7
REMARK VINA RESULT:      -3.2     12.158     13.409
REMARK  1 active torsions:
REMARK  status: ('A' for Active; 'I' for Inactive)
REMARK    1  A    between atoms: C6_6  and  C8_8 
ROOT
HETATM    1  C1  UNL     1     -33.755  15.111  -5.008  1.00 20.00     0.061 C 
HETATM    2  C2  UNL     1     -35.039  17.984  -3.838  1.00 20.00     0.066 C 
HETATM    3  C3  UNL     1     -32.930  15.588  -3.786  1.00 20.00     0.170 C 
HETATM    4  C4  UNL     1     -34.984  15.921  -5.099  1.00 20.00     0.153 A 
HETATM    5  C5  UNL     1     -34.610  17.388  -5.120  1.00 20.00     0.153 A 
HETATM    6  C6  UNL     1     -34.060  17.523  -2.716  1.00 20.00     0.123 C 
HETATM    7  O9  UNL     1     -33.743  16.109  -2.717  1.00 20.00    -0.386 OA
HETATM    8  O10 UNL     1     -35.407  16.793  -6.130  1.00 20.00    -0.375 OA
ENDROOT
BRANCH   6   9
HETATM    9  C8  UNL     1     -32.803  18.391  -2.636  1.00 20.00     0.027 C 
HETATM   10  C7  UNL     1     -32.224  18.403  -1.259  1.00 20.00     0.007 C 
ENDBRANCH   6   9
TORSDOF 1
ENDMDL
MODEL 8
REMARK VINA RESULT:      -3.2     10.006     11.120
REMARK  1 active torsions:
REMARK  status: ('A' for Active; 'I' for Inactive)
REMARK    1  A    between atoms: C6_6  and  C8_8 
ROOT
HETATM    1  C1  UNL     1     -42.466  15.970   6.144  1.00 20.00     0.061 C 
HETATM    2  C2  UNL     1     -40.446  13.696   7.565  1.00 20.00     0.066 C 
HETATM    3  C3  UNL     1     -42.390  14.711   5.244  1.00 20.00     0.170 C 
HETATM    4  C4  UNL     1     -41.848  15.663   7.447  1.00 20.00     0.153 A 
HETATM    5  C5  UNL     1     -40.448  15.132   7.218  1.00 20.00     0.153 A 
HETATM    6  C6  UNL     1     -41.170  12.904   6.434  1.00 20.00     0.123 C 
HETATM    7  O9  UNL     1     -42.424  13.476   5.986  1.00 20.00    -0.386 OA
HETATM    8  O10 UNL     1     -40.711  16.245   8.057  1.00 20.00    -0.375 OA
ENDROOT
BRANCH   6   9
HETATM    9  C8  UNL     1     -40.245  12.567   5.264  1.00 20.00     0.027 C 
HETATM   10  C7  UNL     1     -38.943  12.001   5.731  1.00 20.00     0.007 C 
ENDBRANCH   6   9
TORSDOF 1
ENDMDL
MODEL 9
REMARK VINA RESULT:      -3.2     12.110     13.779
REMARK  1 active torsions:
REMARK  status: ('A' for Active; 'I' for Inactive)
REMARK    1  A    between atoms: C6_6  and  C8_8 
ROOT
HETATM    1  C1  UNL     1     -33.580  14.398  -4.544  1.00 20.00     0.061 C 
HETATM    2  C2  UNL     1     -35.278  17.116  -5.546  1.00 20.00     0.066 C 
HETATM    3  C3  UNL     1     -33.072  15.640  -3.770  1.00 20.00     0.170 C 
HETATM    4  C4  UNL     1     -34.812  14.759  -5.269  1.00 20.00     0.153 A 
HETATM    5  C5  UNL     1     -34.543  15.975  -6.130  1.00 20.00     0.153 A 
HETATM    6  C6  UNL     1     -34.535  17.587  -4.260  1.00 20.00     0.123 C 
HETATM    7  O9  UNL     1     -34.131  16.528  -3.358  1.00 20.00    -0.386 OA
HETATM    8  O10 UNL     1     -35.061  14.767  -6.662  1.00 20.00    -0.375 OA
ENDROOT
BRANCH   6   9
HETATM    9  C8  UNL     1     -33.386  18.551  -4.561  1.00 20.00     0.027 C 
HETATM   10  C7  UNL     1     -32.923  19.263  -3.331  1.00 20.00     0.007 C 
ENDBRANCH   6   9
TORSDOF 1
ENDMDL
