MODEL 1
REMARK VINA RESULT:      -5.1      0.000      0.000
REMARK  1 active torsions:
REMARK  status: ('A' for Active; 'I' for Inactive)
REMARK    1  A    between atoms: C3_3  and  C8_8 
ROOT
HETATM    1  C1  UNL     1     -34.159   4.814   4.662  1.00 20.00     0.145 C 
HETATM    2  C4  UNL     1     -34.831   5.484   5.843  1.00 20.00     0.080 C 
HETATM    3  C5  UNL     1     -34.061   6.728   6.270  1.00 20.00     0.016 C 
HETATM    4  C6  UNL     1     -33.069   6.956   3.964  1.00 20.00     0.036 C 
HETATM    5  C7  UNL     1     -33.833   5.723   3.490  1.00 20.00     0.152 C 
HETATM    6  C8  UNL     1     -33.823   7.680   5.091  1.00 20.00     0.009 C 
HETATM    7  O9  UNL     1     -33.993   3.596   4.645  1.00 20.00    -0.296 OA
HETATM    8 CL10 UNL     1     -32.871   4.837   2.284  1.00 20.00    -0.117 Cl
ENDROOT
BRANCH   6   9
HETATM    9  C3  UNL     1     -33.071   8.894   5.545  1.00 20.00    -0.032 C 
HETATM   10  C2  UNL     1     -32.002   9.391   4.915  1.00 20.00     0.007 C 
ENDBRANCH   6   9
TORSDOF 1
ENDMDL
MODEL 2
REMARK VINA RESULT:      -4.6      2.196      2.978
REMARK  1 active torsions:
REMARK  status: ('A' for Active; 'I' for Inactive)
REMARK    1  A    between atoms: C3_3  and  C8_8 
ROOT
HETATM    1  C1  UNL     1     -33.771   6.911   5.587  1.00 20.00     0.145 C 
HETATM    2  C4  UNL     1     -33.451   8.372   5.351  1.00 20.00     0.080 C 
HETATM    3  C5  UNL     1     -32.454   8.531   4.209  1.00 20.00     0.016 C 
HETATM    4  C6  UNL     1     -33.151   6.313   3.237  1.00 20.00     0.036 C 
HETATM    5  C7  UNL     1     -34.174   6.120   4.354  1.00 20.00     0.152 C 
HETATM    6  C8  UNL     1     -32.922   7.804   2.942  1.00 20.00     0.009 C 
HETATM    7  O9  UNL     1     -33.792   6.451   6.727  1.00 20.00    -0.296 OA
HETATM    8 CL10 UNL     1     -34.314   4.395   4.759  1.00 20.00    -0.117 Cl
ENDROOT
BRANCH   6   9
HETATM    9  C3  UNL     1     -31.925   7.985   1.839  1.00 20.00    -0.032 C 
HETATM   10  C2  UNL     1     -32.187   8.613   0.688  1.00 20.00     0.007 C 
ENDBRANCH   6   9
TORSDOF 1
ENDMDL
MODEL 3
REMARK VINA RESULT:      -4.3      2.316      3.059
REMARK  1 active torsions:
REMARK  status: ('A' for Active; 'I' for Inactive)
REMARK    1  A    between atoms: C3_3  and  C8_8 
ROOT
HETATM    1  C1  UNL     1     -34.008   5.359   4.552  1.00 20.00     0.145 C 
HETATM    2  C4  UNL     1     -33.277   4.983   3.280  1.00 20.00     0.080 C 
HETATM    3  C5  UNL     1     -33.058   6.209   2.400  1.00 20.00     0.016 C 
HETATM    4  C6  UNL     1     -33.214   7.728   4.404  1.00 20.00     0.036 C 
HETATM    5  C7  UNL     1     -33.422   6.528   5.325  1.00 20.00     0.152 C 
HETATM    6  C8  UNL     1     -32.379   7.348   3.172  1.00 20.00     0.009 C 
HETATM    7  O9  UNL     1     -34.949   4.679   4.957  1.00 20.00    -0.296 OA
HETATM    8 CL10 UNL     1     -34.501   6.970   6.667  1.00 20.00    -0.117 Cl
ENDROOT
BRANCH   6   9
HETATM    9  C3  UNL     1     -32.172   8.532   2.278  1.00 20.00    -0.032 C 
HETATM   10  C2  UNL     1     -32.176   8.472   0.942  1.00 20.00     0.007 C 
ENDBRANCH   6   9
TORSDOF 1
ENDMDL
MODEL 4
REMARK VINA RESULT:      -4.3      2.018      3.319
REMARK  1 active torsions:
REMARK  status: ('A' for Active; 'I' for Inactive)
REMARK    1  A    between atoms: C3_3  and  C8_8 
ROOT
HETATM    1  C1  UNL     1     -32.364   7.577   2.776  1.00 20.00     0.145 C 
HETATM    2  C4  UNL     1     -32.178   8.534   3.935  1.00 20.00     0.080 C 
HETATM    3  C5  UNL     1     -33.264   8.331   4.985  1.00 20.00     0.016 C 
HETATM    4  C6  UNL     1     -33.628   5.961   4.210  1.00 20.00     0.036 C 
HETATM    5  C7  UNL     1     -32.537   6.115   3.154  1.00 20.00     0.152 C 
HETATM    6  C8  UNL     1     -33.361   6.864   5.424  1.00 20.00     0.009 C 
HETATM    7  O9  UNL     1     -32.275   7.973   1.616  1.00 20.00    -0.296 OA
HETATM    8 CL10 UNL     1     -32.947   5.161   1.711  1.00 20.00    -0.117 Cl
ENDROOT
BRANCH   6   9
HETATM    9  C3  UNL     1     -34.431   6.700   6.460  1.00 20.00    -0.032 C 
HETATM   10  C2  UNL     1     -35.014   5.533   6.755  1.00 20.00     0.007 C 
ENDBRANCH   6   9
TORSDOF 1
ENDMDL
MODEL 5
REMARK VINA RESULT:      -4.2      2.642      3.961
REMARK  1 active torsions:
REMARK  status: ('A' for Active; 'I' for Inactive)
REMARK    1  A    between atoms: C3_3  and  C8_8 
ROOT
HETATM    1  C1  UNL     1     -32.192   7.475   3.294  1.00 20.00     0.145 C 
HETATM    2  C4  UNL     1     -32.827   6.289   2.598  1.00 20.00     0.080 C 
HETATM    3  C5  UNL     1     -33.505   5.369   3.606  1.00 20.00     0.016 C 
HETATM    4  C6  UNL     1     -33.756   7.272   5.238  1.00 20.00     0.036 C 
HETATM    5  C7  UNL     1     -33.095   8.232   4.253  1.00 20.00     0.152 C 
HETATM    6  C8  UNL     1     -34.484   6.135   4.505  1.00 20.00     0.009 C 
HETATM    7  O9  UNL     1     -31.053   7.834   3.005  1.00 20.00    -0.296 OA
HETATM    8 CL10 UNL     1     -32.152   9.456   5.135  1.00 20.00    -0.117 Cl
ENDROOT
BRANCH   6   9
HETATM    9  C3  UNL     1     -35.138   5.202   5.478  1.00 20.00    -0.032 C 
HETATM   10  C2  UNL     1     -34.784   5.091   6.762  1.00 20.00     0.007 C 
ENDBRANCH   6   9
TORSDOF 1
ENDMDL
MODEL 6
REMARK VINA RESULT:      -4.1     13.048     13.638
REMARK  1 active torsions:
REMARK  status: ('A' for Active; 'I' for Inactive)
REMARK    1  A    between atoms: C3_3  and  C8_8 
ROOT
HETATM    1  C1  UNL     1     -34.437  15.293  -5.806  1.00 20.00     0.145 C 
HETATM    2  C4  UNL     1     -33.701  14.490  -4.754  1.00 20.00     0.080 C 
HETATM    3  C5  UNL     1     -32.950  15.410  -3.798  1.00 20.00     0.016 C 
HETATM    4  C6  UNL     1     -34.521  17.309  -4.324  1.00 20.00     0.036 C 
HETATM    5  C7  UNL     1     -35.311  16.418  -5.279  1.00 20.00     0.152 C 
HETATM    6  C8  UNL     1     -33.870  16.484  -3.203  1.00 20.00     0.009 C 
HETATM    7  O9  UNL     1     -34.389  14.966  -6.990  1.00 20.00    -0.296 OA
HETATM    8 CL10 UNL     1     -35.937  17.384  -6.635  1.00 20.00    -0.117 Cl
ENDROOT
BRANCH   6   9
HETATM    9  C3  UNL     1     -33.103  17.365  -2.265  1.00 20.00    -0.032 C 
HETATM   10  C2  UNL     1     -33.509  17.675  -1.029  1.00 20.00     0.007 C 
ENDBRANCH   6   9
TORSDOF 1
ENDMDL
MODEL 7
REMARK VINA RESULT:      -4.0     12.646     13.565
REMARK  1 active torsions:
REMARK  status: ('A' for Active; 'I' for Inactive)
REMARK    1  A    between atoms: C3_3  and  C8_8 
ROOT
HETATM    1  C1  UNL     1     -34.623  17.040  -4.562  1.00 20.00     0.145 C 
HETATM    2  C4  UNL     1     -34.325  18.510  -4.357  1.00 20.00     0.080 C 
HETATM    3  C5  UNL     1     -34.024  18.803  -2.891  1.00 20.00     0.016 C 
HETATM    4  C6  UNL     1     -33.330  16.410  -2.513  1.00 20.00     0.036 C 
HETATM    5  C7  UNL     1     -33.604  16.076  -3.977  1.00 20.00     0.152 C 
HETATM    6  C8  UNL     1     -32.926  17.883  -2.343  1.00 20.00     0.009 C 
HETATM    7  O9  UNL     1     -35.580  16.684  -5.247  1.00 20.00    -0.296 OA
HETATM    8 CL10 UNL     1     -34.197  14.406  -4.120  1.00 20.00    -0.117 Cl
ENDROOT
BRANCH   6   9
HETATM    9  C3  UNL     1     -32.650  18.200  -0.905  1.00 20.00    -0.032 C 
HETATM   10  C2  UNL     1     -31.448  18.544  -0.431  1.00 20.00     0.007 C 
ENDBRANCH   6   9
TORSDOF 1
ENDMDL
MODEL 8
REMARK VINA RESULT:      -3.9     10.440     11.231
REMARK  1 active torsions:
REMARK  status: ('A' for Active; 'I' for Inactive)
REMARK    1  A    between atoms: C3_3  and  C8_8 
ROOT
HETATM    1  C1  UNL     1     -41.668  15.177   6.700  1.00 20.00     0.145 C 
HETATM    2  C4  UNL     1     -42.267  14.424   5.530  1.00 20.00     0.080 C 
HETATM    3  C5  UNL     1     -41.260  13.437   4.950  1.00 20.00     0.016 C 
HETATM    4  C6  UNL     1     -40.023  13.343   7.144  1.00 20.00     0.036 C 
HETATM    5  C7  UNL     1     -41.018  14.317   7.770  1.00 20.00     0.152 C 
HETATM    6  C8  UNL     1     -40.682  12.514   6.030  1.00 20.00     0.009 C 
HETATM    7  O9  UNL     1     -41.806  16.395   6.796  1.00 20.00    -0.296 OA
HETATM    8 CL10 UNL     1     -40.190  15.351   8.958  1.00 20.00    -0.117 Cl
ENDROOT
BRANCH   6   9
HETATM    9  C3  UNL     1     -39.703  11.554   5.426  1.00 20.00    -0.032 C 
HETATM   10  C2  UNL     1     -39.065  11.764   4.270  1.00 20.00     0.007 C 
ENDBRANCH   6   9
TORSDOF 1
ENDMDL
MODEL 9
REMARK VINA RESULT:      -3.8     12.788     13.562
REMARK  1 active torsions:
REMARK  status: ('A' for Active; 'I' for Inactive)
REMARK    1  A    between atoms: C3_3  and  C8_8 
ROOT
HETATM    1  C1  UNL     1     -32.455  19.173   1.351  1.00 20.00     0.145 C 
HETATM    2  C4  UNL     1     -31.262  19.257   0.421  1.00 20.00     0.080 C 
HETATM    3  C5  UNL     1     -31.407  18.274  -0.735  1.00 20.00     0.016 C 
HETATM    4  C6  UNL     1     -33.913  18.266  -0.470  1.00 20.00     0.036 C 
HETATM    5  C7  UNL     1     -33.816  19.263   0.682  1.00 20.00     0.152 C 
HETATM    6  C8  UNL     1     -32.750  18.442  -1.459  1.00 20.00     0.009 C 
HETATM    7  O9  UNL     1     -32.296  19.137   2.569  1.00 20.00    -0.296 OA
HETATM    8 CL10 UNL     1     -35.098  18.944   1.873  1.00 20.00    -0.117 Cl
ENDROOT
BRANCH   6   9
HETATM    9  C3  UNL     1     -32.857  17.467  -2.591  1.00 20.00    -0.032 C 
HETATM   10  C2  UNL     1     -33.551  16.326  -2.533  1.00 20.00     0.007 C 
ENDBRANCH   6   9
TORSDOF 1
ENDMDL
