MODEL 1
REMARK VINA RESULT:      -5.1      0.000      0.000
REMARK  1 active torsions:
REMARK  status: ('A' for Active; 'I' for Inactive)
REMARK    1  A    between atoms: C4_4  and  C9_9 
ROOT
HETATM    1  C1  UNL     1     -34.519   6.593   6.498  1.00 20.00     0.007 A 
HETATM    2  C2  UNL     1     -34.731   5.386   5.966  1.00 20.00     0.074 A 
HETATM    3  C3  UNL     1     -33.714   7.568   5.819  1.00 20.00     0.026 A 
HETATM    4  C4  UNL     1     -33.153   7.292   4.629  1.00 20.00     0.018 A 
HETATM    5  C5  UNL     1     -34.127   5.039   4.648  1.00 20.00     0.247 A 
HETATM    6  C8  UNL     1     -32.732   5.763   2.740  1.00 20.00     0.159 C 
HETATM    7  N10 UNL     1     -33.351   6.039   4.036  1.00 20.00    -0.322 N 
HETATM    8  O11 UNL     1     -34.341   3.920   4.186  1.00 20.00    -0.268 OA
ENDROOT
BRANCH   4   9
HETATM    9  C9  UNL     1     -32.312   8.323   3.929  1.00 20.00     0.028 C 
HETATM   10  C6  UNL     1     -33.070   8.898   2.739  1.00 20.00     0.016 C 
HETATM   11  C7  UNL     1     -31.895   9.424   4.898  1.00 20.00     0.016 C 
ENDBRANCH   4   9
TORSDOF 1
ENDMDL
MODEL 2
REMARK VINA RESULT:      -5.0      1.817      3.714
REMARK  1 active torsions:
REMARK  status: ('A' for Active; 'I' for Inactive)
REMARK    1  A    between atoms: C4_4  and  C9_9 
ROOT
HETATM    1  C1  UNL     1     -32.764   8.862   4.990  1.00 20.00     0.007 A 
HETATM    2  C2  UNL     1     -32.160   8.883   3.799  1.00 20.00     0.074 A 
HETATM    3  C3  UNL     1     -33.504   7.711   5.423  1.00 20.00     0.026 A 
HETATM    4  C4  UNL     1     -33.606   6.622   4.642  1.00 20.00     0.018 A 
HETATM    5  C5  UNL     1     -32.248   7.697   2.901  1.00 20.00     0.247 A 
HETATM    6  C8  UNL     1     -33.109   5.405   2.554  1.00 20.00     0.159 C 
HETATM    7  N10 UNL     1     -32.986   6.602   3.385  1.00 20.00    -0.322 N 
HETATM    8  O11 UNL     1     -31.681   7.747   1.811  1.00 20.00    -0.268 OA
ENDROOT
BRANCH   4   9
HETATM    9  C9  UNL     1     -34.382   5.422   5.108  1.00 20.00     0.028 C 
HETATM   10  C6  UNL     1     -34.370   5.347   6.630  1.00 20.00     0.016 C 
HETATM   11  C7  UNL     1     -35.810   5.466   4.572  1.00 20.00     0.016 C 
ENDBRANCH   4   9
TORSDOF 1
ENDMDL
MODEL 3
REMARK VINA RESULT:      -4.6     15.649     16.750
REMARK  1 active torsions:
REMARK  status: ('A' for Active; 'I' for Inactive)
REMARK    1  A    between atoms: C4_4  and  C9_9 
ROOT
HETATM    1  C1  UNL     1     -24.739  19.250   8.409  1.00 20.00     0.007 A 
HETATM    2  C2  UNL     1     -23.416  19.262   8.227  1.00 20.00     0.074 A 
HETATM    3  C3  UNL     1     -25.305  18.952   9.694  1.00 20.00     0.026 A 
HETATM    4  C4  UNL     1     -24.518  18.679  10.748  1.00 20.00     0.018 A 
HETATM    5  C5  UNL     1     -22.507  18.964   9.369  1.00 20.00     0.247 A 
HETATM    6  C8  UNL     1     -22.288  18.384  11.762  1.00 20.00     0.159 C 
HETATM    7  N10 UNL     1     -23.124  18.682  10.600  1.00 20.00    -0.322 N 
HETATM    8  O11 UNL     1     -21.293  18.983   9.168  1.00 20.00    -0.268 OA
ENDROOT
BRANCH   4   9
HETATM    9  C9  UNL     1     -25.123  18.369  12.089  1.00 20.00     0.028 C 
HETATM   10  C6  UNL     1     -26.345  19.247  12.328  1.00 20.00     0.016 C 
HETATM   11  C7  UNL     1     -25.483  16.890  12.186  1.00 20.00     0.016 C 
ENDBRANCH   4   9
TORSDOF 1
ENDMDL
MODEL 4
REMARK VINA RESULT:      -4.3     12.580     13.560
REMARK  1 active torsions:
REMARK  status: ('A' for Active; 'I' for Inactive)
REMARK    1  A    between atoms: C4_4  and  C9_9 
ROOT
HETATM    1  C1  UNL     1     -33.310  14.900  -4.451  1.00 20.00     0.007 A 
HETATM    2  C2  UNL     1     -34.214  14.970  -5.430  1.00 20.00     0.074 A 
HETATM    3  C3  UNL     1     -33.202  15.942  -3.469  1.00 20.00     0.026 A 
HETATM    4  C4  UNL     1     -34.010  17.015  -3.511  1.00 20.00     0.018 A 
HETATM    5  C5  UNL     1     -35.130  16.142  -5.513  1.00 20.00     0.247 A 
HETATM    6  C8  UNL     1     -35.843  18.302  -4.544  1.00 20.00     0.159 C 
HETATM    7  N10 UNL     1     -34.974  17.127  -4.522  1.00 20.00    -0.322 N 
HETATM    8  O11 UNL     1     -35.952  16.177  -6.428  1.00 20.00    -0.268 OA
ENDROOT
BRANCH   4   9
HETATM    9  C9  UNL     1     -33.887  18.099  -2.476  1.00 20.00     0.028 C 
HETATM   10  C6  UNL     1     -33.716  17.486  -1.091  1.00 20.00     0.016 C 
HETATM   11  C7  UNL     1     -32.728  19.031  -2.811  1.00 20.00     0.016 C 
ENDBRANCH   4   9
TORSDOF 1
ENDMDL
MODEL 5
REMARK VINA RESULT:      -4.1     12.405     13.658
REMARK  1 active torsions:
REMARK  status: ('A' for Active; 'I' for Inactive)
REMARK    1  A    between atoms: C4_4  and  C9_9 
ROOT
HETATM    1  C1  UNL     1     -36.773  17.474  -5.212  1.00 20.00     0.007 A 
HETATM    2  C2  UNL     1     -36.889  16.317  -5.868  1.00 20.00     0.074 A 
HETATM    3  C3  UNL     1     -35.595  17.776  -4.448  1.00 20.00     0.026 A 
HETATM    4  C4  UNL     1     -34.578  16.900  -4.374  1.00 20.00     0.018 A 
HETATM    5  C5  UNL     1     -35.785  15.318  -5.812  1.00 20.00     0.247 A 
HETATM    6  C8  UNL     1     -33.540  14.738  -4.954  1.00 20.00     0.159 C 
HETATM    7  N10 UNL     1     -34.660  15.674  -5.048  1.00 20.00    -0.322 N 
HETATM    8  O11 UNL     1     -35.923  14.261  -6.427  1.00 20.00    -0.268 OA
ENDROOT
BRANCH   4   9
HETATM    9  C9  UNL     1     -33.351  17.227  -3.571  1.00 20.00     0.028 C 
HETATM   10  C6  UNL     1     -33.013  18.707  -3.708  1.00 20.00     0.016 C 
HETATM   11  C7  UNL     1     -33.547  16.843  -2.108  1.00 20.00     0.016 C 
ENDBRANCH   4   9
TORSDOF 1
ENDMDL
MODEL 6
REMARK VINA RESULT:      -4.1      0.937      2.535
REMARK  1 active torsions:
REMARK  status: ('A' for Active; 'I' for Inactive)
REMARK    1  A    between atoms: C4_4  and  C9_9 
ROOT
HETATM    1  C1  UNL     1     -33.073   5.052   2.781  1.00 20.00     0.007 A 
HETATM    2  C2  UNL     1     -33.741   4.424   3.751  1.00 20.00     0.074 A 
HETATM    3  C3  UNL     1     -32.800   6.460   2.862  1.00 20.00     0.026 A 
HETATM    4  C4  UNL     1     -33.210   7.181   3.920  1.00 20.00     0.018 A 
HETATM    5  C5  UNL     1     -34.213   5.187   4.941  1.00 20.00     0.247 A 
HETATM    6  C8  UNL     1     -34.347   7.366   6.101  1.00 20.00     0.159 C 
HETATM    7  N10 UNL     1     -33.914   6.561   4.961  1.00 20.00    -0.322 N 
HETATM    8  O11 UNL     1     -34.826   4.579   5.818  1.00 20.00    -0.268 OA
ENDROOT
BRANCH   4   9
HETATM    9  C9  UNL     1     -32.918   8.654   3.994  1.00 20.00     0.028 C 
HETATM   10  C6  UNL     1     -31.745   8.910   4.932  1.00 20.00     0.016 C 
HETATM   11  C7  UNL     1     -32.641   9.217   2.603  1.00 20.00     0.016 C 
ENDBRANCH   4   9
TORSDOF 1
ENDMDL
MODEL 7
REMARK VINA RESULT:      -4.1     12.750     13.901
REMARK  1 active torsions:
REMARK  status: ('A' for Active; 'I' for Inactive)
REMARK    1  A    between atoms: C4_4  and  C9_9 
ROOT
HETATM    1  C1  UNL     1     -33.223  16.383  -2.724  1.00 20.00     0.007 A 
HETATM    2  C2  UNL     1     -33.749  17.538  -2.311  1.00 20.00     0.074 A 
HETATM    3  C3  UNL     1     -33.673  15.756  -3.935  1.00 20.00     0.026 A 
HETATM    4  C4  UNL     1     -34.637  16.318  -4.685  1.00 20.00     0.018 A 
HETATM    5  C5  UNL     1     -34.820  18.195  -3.113  1.00 20.00     0.247 A 
HETATM    6  C8  UNL     1     -36.260  18.123  -5.121  1.00 20.00     0.159 C 
HETATM    7  N10 UNL     1     -35.215  17.531  -4.287  1.00 20.00    -0.322 N 
HETATM    8  O11 UNL     1     -35.285  19.258  -2.704  1.00 20.00    -0.268 OA
ENDROOT
BRANCH   4   9
HETATM    9  C9  UNL     1     -35.099  15.652  -5.951  1.00 20.00     0.028 C 
HETATM   10  C6  UNL     1     -33.901  15.282  -6.817  1.00 20.00     0.016 C 
HETATM   11  C7  UNL     1     -35.947  14.425  -5.633  1.00 20.00     0.016 C 
ENDBRANCH   4   9
TORSDOF 1
ENDMDL
MODEL 8
REMARK VINA RESULT:      -4.0      2.184      4.291
REMARK  1 active torsions:
REMARK  status: ('A' for Active; 'I' for Inactive)
REMARK    1  A    between atoms: C4_4  and  C9_9 
ROOT
HETATM    1  C1  UNL     1     -32.133   7.266   2.536  1.00 20.00     0.007 A 
HETATM    2  C2  UNL     1     -31.804   8.355   3.235  1.00 20.00     0.074 A 
HETATM    3  C3  UNL     1     -33.023   6.280   3.081  1.00 20.00     0.026 A 
HETATM    4  C4  UNL     1     -33.548   6.428   4.310  1.00 20.00     0.018 A 
HETATM    5  C5  UNL     1     -32.364   8.559   4.601  1.00 20.00     0.247 A 
HETATM    6  C8  UNL     1     -33.814   7.697   6.408  1.00 20.00     0.159 C 
HETATM    7  N10 UNL     1     -33.229   7.557   5.076  1.00 20.00    -0.322 N 
HETATM    8  O11 UNL     1     -32.040   9.572   5.219  1.00 20.00    -0.268 OA
ENDROOT
BRANCH   4   9
HETATM    9  C9  UNL     1     -34.478   5.388   4.869  1.00 20.00     0.028 C 
HETATM   10  C6  UNL     1     -35.897   5.628   4.366  1.00 20.00     0.016 C 
HETATM   11  C7  UNL     1     -33.997   3.987   4.506  1.00 20.00     0.016 C 
ENDBRANCH   4   9
TORSDOF 1
ENDMDL
MODEL 9
REMARK VINA RESULT:      -3.9     12.231     14.028
REMARK  1 active torsions:
REMARK  status: ('A' for Active; 'I' for Inactive)
REMARK    1  A    between atoms: C4_4  and  C9_9 
ROOT
HETATM    1  C1  UNL     1     -33.507  17.371  -3.055  1.00 20.00     0.007 A 
HETATM    2  C2  UNL     1     -33.293  16.053  -3.037  1.00 20.00     0.074 A 
HETATM    3  C3  UNL     1     -34.096  18.008  -4.198  1.00 20.00     0.026 A 
HETATM    4  C4  UNL     1     -34.447  17.294  -5.282  1.00 20.00     0.018 A 
HETATM    5  C5  UNL     1     -33.667  15.224  -4.218  1.00 20.00     0.247 A 
HETATM    6  C8  UNL     1     -34.632  15.153  -6.493  1.00 20.00     0.159 C 
HETATM    7  N10 UNL     1     -34.240  15.908  -5.304  1.00 20.00    -0.322 N 
HETATM    8  O11 UNL     1     -33.456  14.013  -4.170  1.00 20.00    -0.268 OA
ENDROOT
BRANCH   4   9
HETATM    9  C9  UNL     1     -35.063  17.974  -6.473  1.00 20.00     0.028 C 
HETATM   10  C6  UNL     1     -36.348  18.685  -6.065  1.00 20.00     0.016 C 
HETATM   11  C7  UNL     1     -34.075  18.947  -7.106  1.00 20.00     0.016 C 
ENDBRANCH   4   9
TORSDOF 1
ENDMDL
