MODEL 1
REMARK VINA RESULT:      -4.6      0.000      0.000
REMARK  2 active torsions:
REMARK  status: ('A' for Active; 'I' for Inactive)
REMARK    1  A    between atoms: C1_1  and  C5_5 
REMARK    2  A    between atoms: C5_5  and  C6_6 
ROOT
HETATM    1  C2  UNL     1     -34.190   7.180   6.529  1.00 20.00     0.019 C 
HETATM    2  C5  UNL     1     -33.572   6.656   5.230  1.00 20.00     0.071 C 
ENDROOT
BRANCH   2   3
HETATM    3  C1  UNL     1     -34.594   5.712   4.593  1.00 20.00     0.223 C 
HETATM    4  O7  UNL     1     -35.756   6.054   4.391  1.00 20.00    -0.279 OA
HETATM    5 CL8  UNL     1     -33.925   4.146   4.229  1.00 20.00    -0.043 Cl
ENDBRANCH   2   3
BRANCH   2   6
HETATM    6  C6  UNL     1     -33.180   7.781   4.239  1.00 20.00    -0.011 C 
HETATM    7  C3  UNL     1     -32.406   8.914   4.921  1.00 20.00     0.010 C 
HETATM    8  C4  UNL     1     -32.334   7.226   3.085  1.00 20.00     0.010 C 
ENDBRANCH   2   6
TORSDOF 2
ENDMDL
MODEL 2
REMARK VINA RESULT:      -4.6      1.342      1.342
REMARK  2 active torsions:
REMARK  status: ('A' for Active; 'I' for Inactive)
REMARK    1  A    between atoms: C1_1  and  C5_5 
REMARK    2  A    between atoms: C5_5  and  C6_6 
ROOT
HETATM    1  C2  UNL     1     -34.278   6.918   6.539  1.00 20.00     0.019 C 
HETATM    2  C5  UNL     1     -33.586   6.428   5.265  1.00 20.00     0.071 C 
ENDROOT
BRANCH   2   3
HETATM    3  C1  UNL     1     -34.513   5.400   4.614  1.00 20.00     0.223 C 
HETATM    4  O7  UNL     1     -34.186   4.224   4.479  1.00 20.00    -0.279 OA
HETATM    5 CL8  UNL     1     -36.022   6.093   4.091  1.00 20.00    -0.043 Cl
ENDBRANCH   2   3
BRANCH   2   6
HETATM    6  C6  UNL     1     -33.255   7.568   4.268  1.00 20.00    -0.011 C 
HETATM    7  C3  UNL     1     -32.498   8.722   4.935  1.00 20.00     0.010 C 
HETATM    8  C4  UNL     1     -32.423   7.044   3.091  1.00 20.00     0.010 C 
ENDBRANCH   2   6
TORSDOF 2
ENDMDL
MODEL 3
REMARK VINA RESULT:      -4.6      1.927      2.990
REMARK  2 active torsions:
REMARK  status: ('A' for Active; 'I' for Inactive)
REMARK    1  A    between atoms: C1_1  and  C5_5 
REMARK    2  A    between atoms: C5_5  and  C6_6 
ROOT
HETATM    1  C2  UNL     1     -32.987   8.421   5.178  1.00 20.00     0.019 C 
HETATM    2  C5  UNL     1     -33.648   7.373   4.279  1.00 20.00     0.071 C 
ENDROOT
BRANCH   2   3
HETATM    3  C1  UNL     1     -32.608   6.946   3.243  1.00 20.00     0.223 C 
HETATM    4  O7  UNL     1     -31.712   7.701   2.871  1.00 20.00    -0.279 OA
HETATM    5 CL8  UNL     1     -32.863   5.323   2.665  1.00 20.00    -0.043 Cl
ENDBRANCH   2   3
BRANCH   2   6
HETATM    6  C6  UNL     1     -34.177   6.141   5.057  1.00 20.00    -0.011 C 
HETATM    7  C3  UNL     1     -34.242   6.392   6.568  1.00 20.00     0.010 C 
HETATM    8  C4  UNL     1     -35.570   5.735   4.561  1.00 20.00     0.010 C 
ENDBRANCH   2   6
TORSDOF 2
ENDMDL
MODEL 4
REMARK VINA RESULT:      -4.5      2.613      3.734
REMARK  2 active torsions:
REMARK  status: ('A' for Active; 'I' for Inactive)
REMARK    1  A    between atoms: C1_1  and  C5_5 
REMARK    2  A    between atoms: C5_5  and  C6_6 
ROOT
HETATM    1  C2  UNL     1     -33.194   5.395   2.933  1.00 20.00     0.019 C 
HETATM    2  C5  UNL     1     -32.989   6.410   4.060  1.00 20.00     0.071 C 
ENDROOT
BRANCH   2   3
HETATM    3  C1  UNL     1     -32.441   7.688   3.422  1.00 20.00     0.223 C 
HETATM    4  O7  UNL     1     -32.160   7.749   2.228  1.00 20.00    -0.279 OA
HETATM    5 CL8  UNL     1     -32.255   8.984   4.569  1.00 20.00    -0.043 Cl
ENDBRANCH   2   3
BRANCH   2   6
HETATM    6  C6  UNL     1     -34.283   6.713   4.857  1.00 20.00    -0.011 C 
HETATM    7  C3  UNL     1     -35.406   5.719   4.541  1.00 20.00     0.010 C 
HETATM    8  C4  UNL     1     -34.014   6.694   6.368  1.00 20.00     0.010 C 
ENDBRANCH   2   6
TORSDOF 2
ENDMDL
MODEL 5
REMARK VINA RESULT:      -4.3      1.727      2.413
REMARK  2 active torsions:
REMARK  status: ('A' for Active; 'I' for Inactive)
REMARK    1  A    between atoms: C1_1  and  C5_5 
REMARK    2  A    between atoms: C5_5  and  C6_6 
ROOT
HETATM    1  C2  UNL     1     -33.063   5.645   2.790  1.00 20.00     0.019 C 
HETATM    2  C5  UNL     1     -33.843   6.250   3.960  1.00 20.00     0.071 C 
ENDROOT
BRANCH   2   3
HETATM    3  C1  UNL     1     -34.225   5.097   4.891  1.00 20.00     0.223 C 
HETATM    4  O7  UNL     1     -34.172   3.924   4.529  1.00 20.00    -0.279 OA
HETATM    5 CL8  UNL     1     -34.746   5.646   6.460  1.00 20.00    -0.043 Cl
ENDBRANCH   2   3
BRANCH   2   6
HETATM    6  C6  UNL     1     -33.049   7.332   4.735  1.00 20.00    -0.011 C 
HETATM    7  C3  UNL     1     -31.970   7.992   3.869  1.00 20.00     0.010 C 
HETATM    8  C4  UNL     1     -33.986   8.420   5.275  1.00 20.00     0.010 C 
ENDBRANCH   2   6
TORSDOF 2
ENDMDL
MODEL 6
REMARK VINA RESULT:      -4.3      1.380      1.767
REMARK  2 active torsions:
REMARK  status: ('A' for Active; 'I' for Inactive)
REMARK    1  A    between atoms: C1_1  and  C5_5 
REMARK    2  A    between atoms: C5_5  and  C6_6 
ROOT
HETATM    1  C2  UNL     1     -33.576   8.174   5.201  1.00 20.00     0.019 C 
HETATM    2  C5  UNL     1     -33.441   6.736   4.696  1.00 20.00     0.071 C 
ENDROOT
BRANCH   2   3
HETATM    3  C1  UNL     1     -34.722   5.998   5.089  1.00 20.00     0.223 C 
HETATM    4  O7  UNL     1     -35.717   5.994   4.368  1.00 20.00    -0.279 OA
HETATM    5 CL8  UNL     1     -34.598   5.216   6.640  1.00 20.00    -0.043 Cl
ENDBRANCH   2   3
BRANCH   2   6
HETATM    6  C6  UNL     1     -33.207   6.640   3.167  1.00 20.00    -0.011 C 
HETATM    7  C3  UNL     1     -32.094   7.579   2.689  1.00 20.00     0.010 C 
HETATM    8  C4  UNL     1     -32.856   5.204   2.755  1.00 20.00     0.010 C 
ENDBRANCH   2   6
TORSDOF 2
ENDMDL
MODEL 7
REMARK VINA RESULT:      -4.2      2.451      3.402
REMARK  2 active torsions:
REMARK  status: ('A' for Active; 'I' for Inactive)
REMARK    1  A    between atoms: C1_1  and  C5_5 
REMARK    2  A    between atoms: C5_5  and  C6_6 
ROOT
HETATM    1  C2  UNL     1     -33.682   7.592   6.536  1.00 20.00     0.019 C 
HETATM    2  C5  UNL     1     -34.047   7.337   5.072  1.00 20.00     0.071 C 
ENDROOT
BRANCH   2   3
HETATM    3  C1  UNL     1     -32.826   7.714   4.230  1.00 20.00     0.223 C 
HETATM    4  O7  UNL     1     -32.448   7.023   3.287  1.00 20.00    -0.279 OA
HETATM    5 CL8  UNL     1     -32.061   9.180   4.777  1.00 20.00    -0.043 Cl
ENDBRANCH   2   3
BRANCH   2   6
HETATM    6  C6  UNL     1     -34.469   5.873   4.789  1.00 20.00    -0.011 C 
HETATM    7  C3  UNL     1     -34.455   5.009   6.055  1.00 20.00     0.010 C 
HETATM    8  C4  UNL     1     -35.869   5.816   4.165  1.00 20.00     0.010 C 
ENDBRANCH   2   6
TORSDOF 2
ENDMDL
MODEL 8
REMARK VINA RESULT:      -4.1      2.229      2.923
REMARK  2 active torsions:
REMARK  status: ('A' for Active; 'I' for Inactive)
REMARK    1  A    between atoms: C1_1  and  C5_5 
REMARK    2  A    between atoms: C5_5  and  C6_6 
ROOT
HETATM    1  C2  UNL     1     -34.865   5.700   4.497  1.00 20.00     0.019 C 
HETATM    2  C5  UNL     1     -33.946   6.853   4.087  1.00 20.00     0.071 C 
ENDROOT
BRANCH   2   3
HETATM    3  C1  UNL     1     -33.530   7.577   5.369  1.00 20.00     0.223 C 
HETATM    4  O7  UNL     1     -32.731   8.509   5.359  1.00 20.00    -0.279 OA
HETATM    5 CL8  UNL     1     -34.290   6.916   6.790  1.00 20.00    -0.043 Cl
ENDBRANCH   2   3
BRANCH   2   6
HETATM    6  C6  UNL     1     -32.696   6.391   3.295  1.00 20.00    -0.011 C 
HETATM    7  C3  UNL     1     -32.934   5.072   2.552  1.00 20.00     0.010 C 
HETATM    8  C4  UNL     1     -32.262   7.459   2.283  1.00 20.00     0.010 C 
ENDBRANCH   2   6
TORSDOF 2
ENDMDL
MODEL 9
REMARK VINA RESULT:      -4.0      1.359      2.085
REMARK  2 active torsions:
REMARK  status: ('A' for Active; 'I' for Inactive)
REMARK    1  A    between atoms: C1_1  and  C5_5 
REMARK    2  A    between atoms: C5_5  and  C6_6 
ROOT
HETATM    1  C2  UNL     1     -33.066   5.326   3.100  1.00 20.00     0.019 C 
HETATM    2  C5  UNL     1     -33.844   6.452   3.786  1.00 20.00     0.071 C 
ENDROOT
BRANCH   2   3
HETATM    3  C1  UNL     1     -34.947   5.796   4.618  1.00 20.00     0.223 C 
HETATM    4  O7  UNL     1     -36.129   5.850   4.289  1.00 20.00    -0.279 OA
HETATM    5 CL8  UNL     1     -34.334   5.016   6.049  1.00 20.00    -0.043 Cl
ENDBRANCH   2   3
BRANCH   2   6
HETATM    6  C6  UNL     1     -32.957   7.357   4.677  1.00 20.00    -0.011 C 
HETATM    7  C3  UNL     1     -31.930   8.151   3.860  1.00 20.00     0.010 C 
HETATM    8  C4  UNL     1     -33.813   8.340   5.486  1.00 20.00     0.010 C 
ENDBRANCH   2   6
TORSDOF 2
ENDMDL
