MODEL 1
REMARK VINA RESULT:      -4.0      0.000      0.000
REMARK  4 active torsions:
REMARK  status: ('A' for Active; 'I' for Inactive)
REMARK    1  A    between atoms: C1_1  and  C5_5 
REMARK       I    between atoms: C1_1  and  N9_9 
REMARK    2  A    between atoms: C6_6  and  C8_8 
REMARK    3  A    between atoms: C7_7  and  N9_9 
REMARK    4  A    between atoms: C8_8  and  N9_9 
ROOT
HETATM    1  C1  UNL     1     -33.747   5.862   3.795  1.00 20.00     0.219 C 
HETATM    2  N9  UNL     1     -33.117   7.109   3.879  1.00 20.00    -0.353 N 
HETATM    3  O10 UNL     1     -33.368   4.960   3.042  1.00 20.00    -0.273 OA
ENDROOT
BRANCH   2   4
HETATM    4  C7  UNL     1     -33.583   8.160   4.775  1.00 20.00     0.121 C 
HETATM    5  C4  UNL     1     -32.461   9.048   5.194  1.00 20.00     0.026 C 
ENDBRANCH   2   4
BRANCH   2   6
HETATM    6  C8  UNL     1     -31.947   7.451   3.074  1.00 20.00     0.125 C 
BRANCH   6   7
HETATM    7  C6  UNL     1     -32.311   7.785   1.633  1.00 20.00     0.015 C 
HETATM    8  C3  UNL     1     -32.712   9.242   1.449  1.00 20.00     0.006 C 
ENDBRANCH   6   7
ENDBRANCH   2   6
BRANCH   1   9
HETATM    9  C5  UNL     1     -34.955   5.658   4.696  1.00 20.00     0.098 C 
HETATM   10  C2  UNL     1     -34.582   5.108   6.063  1.00 20.00     0.014 C 
ENDBRANCH   1   9
TORSDOF 4
ENDMDL
MODEL 2
REMARK VINA RESULT:      -3.6      1.724      2.499
REMARK  4 active torsions:
REMARK  status: ('A' for Active; 'I' for Inactive)
REMARK    1  A    between atoms: C1_1  and  C5_5 
REMARK       I    between atoms: C1_1  and  N9_9 
REMARK    2  A    between atoms: C6_6  and  C8_8 
REMARK    3  A    between atoms: C7_7  and  N9_9 
REMARK    4  A    between atoms: C8_8  and  N9_9 
ROOT
HETATM    1  C1  UNL     1     -33.400   7.576   5.138  1.00 20.00     0.219 C 
HETATM    2  N9  UNL     1     -33.094   6.985   3.907  1.00 20.00    -0.353 N 
HETATM    3  O10 UNL     1     -32.851   8.601   5.553  1.00 20.00    -0.273 OA
ENDROOT
BRANCH   2   4
HETATM    4  C7  UNL     1     -33.756   5.774   3.436  1.00 20.00     0.121 C 
HETATM    5  C4  UNL     1     -32.890   5.022   2.484  1.00 20.00     0.026 C 
ENDBRANCH   2   4
BRANCH   2   6
HETATM    6  C8  UNL     1     -32.089   7.536   3.001  1.00 20.00     0.125 C 
BRANCH   6   7
HETATM    7  C6  UNL     1     -32.587   8.773   2.264  1.00 20.00     0.015 C 
HETATM    8  C3  UNL     1     -32.379   8.685   0.759  1.00 20.00     0.006 C 
ENDBRANCH   6   7
ENDBRANCH   2   6
BRANCH   1   9
HETATM    9  C5  UNL     1     -34.469   6.883   5.969  1.00 20.00     0.098 C 
HETATM   10  C2  UNL     1     -33.998   5.556   6.543  1.00 20.00     0.014 C 
ENDBRANCH   1   9
TORSDOF 4
ENDMDL
MODEL 3
REMARK VINA RESULT:      -3.5      9.705     10.766
REMARK  4 active torsions:
REMARK  status: ('A' for Active; 'I' for Inactive)
REMARK    1  A    between atoms: C1_1  and  C5_5 
REMARK       I    between atoms: C1_1  and  N9_9 
REMARK    2  A    between atoms: C6_6  and  C8_8 
REMARK    3  A    between atoms: C7_7  and  N9_9 
REMARK    4  A    between atoms: C8_8  and  N9_9 
ROOT
HETATM    1  C1  UNL     1     -39.840  12.566   6.327  1.00 20.00     0.219 C 
HETATM    2  N9  UNL     1     -40.635  13.620   6.790  1.00 20.00    -0.353 N 
HETATM    3  O10 UNL     1     -39.008  11.984   7.028  1.00 20.00    -0.273 OA
ENDROOT
BRANCH   2   4
HETATM    4  C7  UNL     1     -41.612  14.292   5.942  1.00 20.00     0.121 C 
HETATM    5  C4  UNL     1     -43.001  13.872   6.283  1.00 20.00     0.026 C 
ENDBRANCH   2   4
BRANCH   2   6
HETATM    6  C8  UNL     1     -40.544  14.128   8.157  1.00 20.00     0.125 C 
BRANCH   6   7
HETATM    7  C6  UNL     1     -40.288  15.629   8.202  1.00 20.00     0.015 C 
HETATM    8  C3  UNL     1     -41.147  16.342   9.238  1.00 20.00     0.006 C 
ENDBRANCH   6   7
ENDBRANCH   2   6
BRANCH   1   9
HETATM    9  C5  UNL     1     -40.051  12.152   4.878  1.00 20.00     0.098 C 
HETATM   10  C2  UNL     1     -38.771  11.673   4.212  1.00 20.00     0.014 C 
ENDBRANCH   1   9
TORSDOF 4
ENDMDL
MODEL 4
REMARK VINA RESULT:      -3.4     11.426     12.520
REMARK  4 active torsions:
REMARK  status: ('A' for Active; 'I' for Inactive)
REMARK    1  A    between atoms: C1_1  and  C5_5 
REMARK       I    between atoms: C1_1  and  N9_9 
REMARK    2  A    between atoms: C6_6  and  C8_8 
REMARK    3  A    between atoms: C7_7  and  N9_9 
REMARK    4  A    between atoms: C8_8  and  N9_9 
ROOT
HETATM    1  C1  UNL     1     -33.849  15.135  -4.697  1.00 20.00     0.219 C 
HETATM    2  N9  UNL     1     -33.873  16.315  -3.946  1.00 20.00    -0.353 N 
HETATM    3  O10 UNL     1     -33.579  14.030  -4.217  1.00 20.00    -0.273 OA
ENDROOT
BRANCH   2   4
HETATM    4  C7  UNL     1     -34.194  17.609  -4.535  1.00 20.00     0.121 C 
HETATM    5  C4  UNL     1     -35.615  17.980  -4.278  1.00 20.00     0.026 C 
ENDBRANCH   2   4
BRANCH   2   6
HETATM    6  C8  UNL     1     -33.576  16.339  -2.516  1.00 20.00     0.125 C 
BRANCH   6   7
HETATM    7  C6  UNL     1     -32.829  17.601  -2.100  1.00 20.00     0.015 C 
HETATM    8  C3  UNL     1     -33.236  18.098  -0.720  1.00 20.00     0.006 C 
ENDBRANCH   6   7
ENDBRANCH   2   6
BRANCH   1   9
HETATM    9  C5  UNL     1     -34.180  15.273  -6.176  1.00 20.00     0.098 C 
HETATM   10  C2  UNL     1     -35.605  14.854  -6.500  1.00 20.00     0.014 C 
ENDBRANCH   1   9
TORSDOF 4
ENDMDL
MODEL 5
REMARK VINA RESULT:      -3.4     10.078     11.040
REMARK  4 active torsions:
REMARK  status: ('A' for Active; 'I' for Inactive)
REMARK    1  A    between atoms: C1_1  and  C5_5 
REMARK       I    between atoms: C1_1  and  N9_9 
REMARK    2  A    between atoms: C6_6  and  C8_8 
REMARK    3  A    between atoms: C7_7  and  N9_9 
REMARK    4  A    between atoms: C8_8  and  N9_9 
ROOT
HETATM    1  C1  UNL     1     -40.538  14.279   7.662  1.00 20.00     0.219 C 
HETATM    2  N9  UNL     1     -41.035  13.697   6.491  1.00 20.00    -0.353 N 
HETATM    3  O10 UNL     1     -40.006  13.632   8.569  1.00 20.00    -0.273 OA
ENDROOT
BRANCH   2   4
HETATM    4  C7  UNL     1     -41.660  14.483   5.434  1.00 20.00     0.121 C 
HETATM    5  C4  UNL     1     -43.122  14.205   5.348  1.00 20.00     0.026 C 
ENDBRANCH   2   4
BRANCH   2   6
HETATM    6  C8  UNL     1     -40.966  12.260   6.239  1.00 20.00     0.125 C 
BRANCH   6   7
HETATM    7  C6  UNL     1     -39.552  11.796   5.909  1.00 20.00     0.015 C 
HETATM    8  C3  UNL     1     -39.279  11.760   4.412  1.00 20.00     0.006 C 
ENDBRANCH   6   7
ENDBRANCH   2   6
BRANCH   1   9
HETATM    9  C5  UNL     1     -40.686  15.789   7.777  1.00 20.00     0.098 C 
HETATM   10  C2  UNL     1     -40.885  16.252   9.212  1.00 20.00     0.014 C 
ENDBRANCH   1   9
TORSDOF 4
ENDMDL
MODEL 6
REMARK VINA RESULT:      -3.3      1.732      4.502
REMARK  4 active torsions:
REMARK  status: ('A' for Active; 'I' for Inactive)
REMARK    1  A    between atoms: C1_1  and  C5_5 
REMARK       I    between atoms: C1_1  and  N9_9 
REMARK    2  A    between atoms: C6_6  and  C8_8 
REMARK    3  A    between atoms: C7_7  and  N9_9 
REMARK    4  A    between atoms: C8_8  and  N9_9 
ROOT
HETATM    1  C1  UNL     1     -32.520   8.281   3.565  1.00 20.00     0.219 C 
HETATM    2  N9  UNL     1     -33.268   7.216   4.079  1.00 20.00    -0.353 N 
HETATM    3  O10 UNL     1     -32.066   9.191   4.265  1.00 20.00    -0.273 OA
ENDROOT
BRANCH   2   4
HETATM    4  C7  UNL     1     -33.795   6.152   3.232  1.00 20.00     0.121 C 
HETATM    5  C4  UNL     1     -32.744   5.141   2.921  1.00 20.00     0.026 C 
ENDBRANCH   2   4
BRANCH   2   6
HETATM    6  C8  UNL     1     -33.578   7.090   5.501  1.00 20.00     0.125 C 
BRANCH   6   7
HETATM    7  C6  UNL     1     -34.799   6.213   5.752  1.00 20.00     0.015 C 
HETATM    8  C3  UNL     1     -34.472   4.970   6.569  1.00 20.00     0.006 C 
ENDBRANCH   6   7
ENDBRANCH   2   6
BRANCH   1   9
HETATM    9  C5  UNL     1     -32.282   8.272   2.062  1.00 20.00     0.098 C 
HETATM   10  C2  UNL     1     -32.849   9.502   1.371  1.00 20.00     0.014 C 
ENDBRANCH   1   9
TORSDOF 4
ENDMDL
MODEL 7
REMARK VINA RESULT:      -3.2     11.664     13.031
REMARK  4 active torsions:
REMARK  status: ('A' for Active; 'I' for Inactive)
REMARK    1  A    between atoms: C1_1  and  C5_5 
REMARK       I    between atoms: C1_1  and  N9_9 
REMARK    2  A    between atoms: C6_6  and  C8_8 
REMARK    3  A    between atoms: C7_7  and  N9_9 
REMARK    4  A    between atoms: C8_8  and  N9_9 
ROOT
HETATM    1  C1  UNL     1     -33.788  15.881  -4.242  1.00 20.00     0.219 C 
HETATM    2  N9  UNL     1     -34.828  16.201  -5.121  1.00 20.00    -0.353 N 
HETATM    3  O10 UNL     1     -33.326  14.743  -4.124  1.00 20.00    -0.273 OA
ENDROOT
BRANCH   2   4
HETATM    4  C7  UNL     1     -35.359  17.554  -5.243  1.00 20.00     0.121 C 
HETATM    5  C4  UNL     1     -36.761  17.630  -4.742  1.00 20.00     0.026 C 
ENDBRANCH   2   4
BRANCH   2   6
HETATM    6  C8  UNL     1     -35.461  15.206  -5.982  1.00 20.00     0.125 C 
BRANCH   6   7
HETATM    7  C6  UNL     1     -35.314  15.540  -7.461  1.00 20.00     0.015 C 
HETATM    8  C3  UNL     1     -33.861  15.559  -7.918  1.00 20.00     0.006 C 
ENDBRANCH   6   7
ENDBRANCH   2   6
BRANCH   1   9
HETATM    9  C5  UNL     1     -33.234  17.029  -3.410  1.00 20.00     0.098 C 
HETATM   10  C2  UNL     1     -33.531  16.876  -1.927  1.00 20.00     0.014 C 
ENDBRANCH   1   9
TORSDOF 4
ENDMDL
MODEL 8
REMARK VINA RESULT:      -3.2     11.632     12.812
REMARK  4 active torsions:
REMARK  status: ('A' for Active; 'I' for Inactive)
REMARK    1  A    between atoms: C1_1  and  C5_5 
REMARK       I    between atoms: C1_1  and  N9_9 
REMARK    2  A    between atoms: C6_6  and  C8_8 
REMARK    3  A    between atoms: C7_7  and  N9_9 
REMARK    4  A    between atoms: C8_8  and  N9_9 
ROOT
HETATM    1  C1  UNL     1     -33.888  16.966  -3.985  1.00 20.00     0.219 C 
HETATM    2  N9  UNL     1     -34.032  17.769  -2.849  1.00 20.00    -0.353 N 
HETATM    3  O10 UNL     1     -34.270  17.304  -5.108  1.00 20.00    -0.273 OA
ENDROOT
BRANCH   2   4
HETATM    4  C7  UNL     1     -33.572  17.348  -1.530  1.00 20.00     0.121 C 
HETATM    5  C4  UNL     1     -32.393  18.146  -1.090  1.00 20.00     0.026 C 
ENDBRANCH   2   4
BRANCH   2   6
HETATM    6  C8  UNL     1     -34.654  19.090  -2.896  1.00 20.00     0.125 C 
BRANCH   6   7
HETATM    7  C6  UNL     1     -36.032  19.106  -2.245  1.00 20.00     0.015 C 
HETATM    8  C3  UNL     1     -37.135  18.645  -3.188  1.00 20.00     0.006 C 
ENDBRANCH   6   7
ENDBRANCH   2   6
BRANCH   1   9
HETATM    9  C5  UNL     1     -33.220  15.615  -3.772  1.00 20.00     0.098 C 
HETATM   10  C2  UNL     1     -34.096  14.452  -4.208  1.00 20.00     0.014 C 
ENDBRANCH   1   9
TORSDOF 4
ENDMDL
MODEL 9
REMARK VINA RESULT:      -3.2      0.834      3.814
REMARK  4 active torsions:
REMARK  status: ('A' for Active; 'I' for Inactive)
REMARK    1  A    between atoms: C1_1  and  C5_5 
REMARK       I    between atoms: C1_1  and  N9_9 
REMARK    2  A    between atoms: C6_6  and  C8_8 
REMARK    3  A    between atoms: C7_7  and  N9_9 
REMARK    4  A    between atoms: C8_8  and  N9_9 
ROOT
HETATM    1  C1  UNL     1     -32.908   6.336   3.011  1.00 20.00     0.219 C 
HETATM    2  N9  UNL     1     -33.890   6.771   3.908  1.00 20.00    -0.353 N 
HETATM    3  O10 UNL     1     -32.883   5.199   2.532  1.00 20.00    -0.273 OA
ENDROOT
BRANCH   2   4
HETATM    4  C7  UNL     1     -33.898   8.120   4.462  1.00 20.00     0.121 C 
HETATM    5  C4  UNL     1     -32.976   8.230   5.628  1.00 20.00     0.026 C 
ENDBRANCH   2   4
BRANCH   2   6
HETATM    6  C8  UNL     1     -34.979   5.908   4.357  1.00 20.00     0.125 C 
BRANCH   6   7
HETATM    7  C6  UNL     1     -34.505   4.830   5.324  1.00 20.00     0.015 C 
HETATM    8  C3  UNL     1     -34.495   5.302   6.772  1.00 20.00     0.006 C 
ENDBRANCH   6   7
ENDBRANCH   2   6
BRANCH   1   9
HETATM    9  C5  UNL     1     -31.838   7.352   2.641  1.00 20.00     0.098 C 
HETATM   10  C2  UNL     1     -32.143   8.079   1.341  1.00 20.00     0.014 C 
ENDBRANCH   1   9
TORSDOF 4
ENDMDL
