MODEL 1
REMARK VINA RESULT:      -4.6      0.000      0.000
REMARK  1 active torsions:
REMARK  status: ('A' for Active; 'I' for Inactive)
REMARK    1  A    between atoms: C5_5  and  C10_10 
ROOT
HETATM    1  C6  UNL     1     -32.546  18.596  -1.891  1.00 20.00     0.005 C 
HETATM    2  C7  UNL     1     -32.828  19.219  -3.266  1.00 20.00     0.005 C 
HETATM    3  C8  UNL     1     -33.342  16.352  -2.691  1.00 20.00     0.014 C 
HETATM    4  C9  UNL     1     -34.816  18.199  -2.486  1.00 20.00     0.010 C 
HETATM    5  C10 UNL     1     -33.509  16.962  -4.104  1.00 20.00     0.023 C 
HETATM    6  C11 UNL     1     -33.652  17.535  -1.758  1.00 20.00    -0.013 C 
HETATM    7  C12 UNL     1     -34.022  18.390  -3.784  1.00 20.00    -0.006 C 
ENDROOT
BRANCH   5   8
HETATM    8  C5  UNL     1     -34.379  16.101  -5.003  1.00 20.00    -0.051 A 
HETATM    9  C1  UNL     1     -34.725  16.545  -6.275  1.00 20.00     0.026 A 
HETATM   10  C3  UNL     1     -35.520  15.721  -7.055  1.00 20.00     0.116 A 
HETATM   11  N13 UNL     1     -35.980  14.514  -6.657  1.00 20.00    -0.273 NA
HETATM   12  C4  UNL     1     -35.623  14.116  -5.415  1.00 20.00     0.116 A 
HETATM   13  C2  UNL     1     -34.833  14.864  -4.558  1.00 20.00     0.026 A 
ENDBRANCH   5   8
TORSDOF 1
ENDMDL
MODEL 2
REMARK VINA RESULT:      -4.4      3.373      5.800
REMARK  1 active torsions:
REMARK  status: ('A' for Active; 'I' for Inactive)
REMARK    1  A    between atoms: C5_5  and  C10_10 
ROOT
HETATM    1  C6  UNL     1     -34.897  17.095  -4.385  1.00 20.00     0.005 C 
HETATM    2  C7  UNL     1     -35.485  18.322  -3.673  1.00 20.00     0.005 C 
HETATM    3  C8  UNL     1     -33.326  16.677  -2.470  1.00 20.00     0.014 C 
HETATM    4  C9  UNL     1     -33.141  18.606  -3.837  1.00 20.00     0.010 C 
HETATM    5  C10 UNL     1     -34.010  17.840  -1.711  1.00 20.00     0.023 C 
HETATM    6  C11 UNL     1     -33.424  17.111  -3.943  1.00 20.00    -0.013 C 
HETATM    7  C12 UNL     1     -34.291  18.852  -2.852  1.00 20.00    -0.006 C 
ENDROOT
BRANCH   5   8
HETATM    8  C5  UNL     1     -33.174  18.333  -0.542  1.00 20.00    -0.051 A 
HETATM    9  C1  UNL     1     -33.794  18.824   0.602  1.00 20.00     0.026 A 
HETATM   10  C3  UNL     1     -32.986  19.260   1.640  1.00 20.00     0.116 A 
HETATM   11  N13 UNL     1     -31.635  19.237   1.610  1.00 20.00    -0.273 NA
HETATM   12  C4  UNL     1     -31.068  18.753   0.482  1.00 20.00     0.116 A 
HETATM   13  C2  UNL     1     -31.785  18.294  -0.611  1.00 20.00     0.026 A 
ENDBRANCH   5   8
TORSDOF 1
ENDMDL
MODEL 3
REMARK VINA RESULT:      -4.2     11.419     12.762
REMARK  1 active torsions:
REMARK  status: ('A' for Active; 'I' for Inactive)
REMARK    1  A    between atoms: C5_5  and  C10_10 
ROOT
HETATM    1  C6  UNL     1     -34.205   5.023   6.083  1.00 20.00     0.005 C 
HETATM    2  C7  UNL     1     -34.086   6.515   6.426  1.00 20.00     0.005 C 
HETATM    3  C8  UNL     1     -33.269   5.426   3.787  1.00 20.00     0.014 C 
HETATM    4  C9  UNL     1     -35.372   6.302   4.450  1.00 20.00     0.010 C 
HETATM    5  C10 UNL     1     -33.043   6.905   4.186  1.00 20.00     0.023 C 
HETATM    6  C11 UNL     1     -34.529   5.037   4.580  1.00 20.00    -0.013 C 
HETATM    7  C12 UNL     1     -34.290   7.202   5.059  1.00 20.00    -0.006 C 
ENDROOT
BRANCH   5   8
HETATM    8  C5  UNL     1     -32.818   7.797   2.977  1.00 20.00    -0.051 A 
HETATM    9  C1  UNL     1     -32.243   7.278   1.823  1.00 20.00     0.026 A 
HETATM   10  C3  UNL     1     -32.059   8.133   0.748  1.00 20.00     0.116 A 
HETATM   11  N13 UNL     1     -32.404   9.440   0.754  1.00 20.00    -0.273 NA
HETATM   12  C4  UNL     1     -32.960   9.910   1.893  1.00 20.00     0.116 A 
HETATM   13  C2  UNL     1     -33.185   9.138   3.021  1.00 20.00     0.026 A 
ENDBRANCH   5   8
TORSDOF 1
ENDMDL
MODEL 4
REMARK VINA RESULT:      -4.2      3.527      6.058
REMARK  1 active torsions:
REMARK  status: ('A' for Active; 'I' for Inactive)
REMARK    1  A    between atoms: C5_5  and  C10_10 
ROOT
HETATM    1  C6  UNL     1     -33.741  17.656  -4.506  1.00 20.00     0.005 C 
HETATM    2  C7  UNL     1     -33.559  16.479  -3.536  1.00 20.00     0.005 C 
HETATM    3  C8  UNL     1     -32.836  19.263  -2.800  1.00 20.00     0.014 C 
HETATM    4  C9  UNL     1     -34.891  18.123  -2.474  1.00 20.00     0.010 C 
HETATM    5  C10 UNL     1     -32.546  18.054  -1.878  1.00 20.00     0.023 C 
HETATM    6  C11 UNL     1     -34.094  18.824  -3.570  1.00 20.00    -0.013 C 
HETATM    7  C12 UNL     1     -33.763  17.134  -2.154  1.00 20.00    -0.006 C 
ENDROOT
BRANCH   5   8
HETATM    8  C5  UNL     1     -32.310  18.475  -0.437  1.00 20.00    -0.051 A 
HETATM    9  C1  UNL     1     -31.020  18.506   0.079  1.00 20.00     0.026 A 
HETATM   10  C3  UNL     1     -30.859  18.897   1.399  1.00 20.00     0.116 A 
HETATM   11  N13 UNL     1     -31.878  19.250   2.213  1.00 20.00    -0.273 NA
HETATM   12  C4  UNL     1     -33.118  19.207   1.677  1.00 20.00     0.116 A 
HETATM   13  C2  UNL     1     -33.385  18.831   0.371  1.00 20.00     0.026 A 
ENDBRANCH   5   8
TORSDOF 1
ENDMDL
MODEL 5
REMARK VINA RESULT:      -4.2      2.258      4.813
REMARK  1 active torsions:
REMARK  status: ('A' for Active; 'I' for Inactive)
REMARK    1  A    between atoms: C5_5  and  C10_10 
ROOT
HETATM    1  C6  UNL     1     -35.444  15.222  -7.265  1.00 20.00     0.005 C 
HETATM    2  C7  UNL     1     -33.979  15.234  -6.806  1.00 20.00     0.005 C 
HETATM    3  C8  UNL     1     -36.102  16.728  -5.364  1.00 20.00     0.014 C 
HETATM    4  C9  UNL     1     -35.323  14.518  -4.994  1.00 20.00     0.010 C 
HETATM    5  C10 UNL     1     -34.605  16.829  -4.983  1.00 20.00     0.023 C 
HETATM    6  C11 UNL     1     -36.223  15.306  -5.941  1.00 20.00    -0.013 C 
HETATM    7  C12 UNL     1     -34.096  15.394  -5.275  1.00 20.00    -0.006 C 
ENDROOT
BRANCH   5   8
HETATM    8  C5  UNL     1     -34.406  17.359  -3.573  1.00 20.00    -0.051 A 
HETATM    9  C1  UNL     1     -35.159  18.436  -3.119  1.00 20.00     0.026 A 
HETATM   10  C3  UNL     1     -34.940  18.881  -1.825  1.00 20.00     0.116 A 
HETATM   11  N13 UNL     1     -34.041  18.332  -0.978  1.00 20.00    -0.273 NA
HETATM   12  C4  UNL     1     -33.328  17.287  -1.454  1.00 20.00     0.116 A 
HETATM   13  C2  UNL     1     -33.471  16.768  -2.730  1.00 20.00     0.026 A 
ENDBRANCH   5   8
TORSDOF 1
ENDMDL
MODEL 6
REMARK VINA RESULT:      -4.2      1.190      2.115
REMARK  1 active torsions:
REMARK  status: ('A' for Active; 'I' for Inactive)
REMARK    1  A    between atoms: C5_5  and  C10_10 
ROOT
HETATM    1  C6  UNL     1     -33.448  19.263  -0.545  1.00 20.00     0.005 C 
HETATM    2  C7  UNL     1     -34.039  17.862  -0.332  1.00 20.00     0.005 C 
HETATM    3  C8  UNL     1     -33.519  18.967  -3.038  1.00 20.00     0.014 C 
HETATM    4  C9  UNL     1     -32.094  17.658  -1.666  1.00 20.00     0.010 C 
HETATM    5  C10 UNL     1     -34.225  17.607  -2.814  1.00 20.00     0.023 C 
HETATM    6  C11 UNL     1     -32.596  19.091  -1.814  1.00 20.00    -0.013 C 
HETATM    7  C12 UNL     1     -33.507  17.073  -1.548  1.00 20.00    -0.006 C 
ENDROOT
BRANCH   5   8
HETATM    8  C5  UNL     1     -34.185  16.729  -4.053  1.00 20.00    -0.051 A 
HETATM    9  C1  UNL     1     -34.636  17.221  -5.273  1.00 20.00     0.026 A 
HETATM   10  C3  UNL     1     -34.578  16.380  -6.373  1.00 20.00     0.116 A 
HETATM   11  N13 UNL     1     -34.111  15.112  -6.332  1.00 20.00    -0.273 NA
HETATM   12  C4  UNL     1     -33.683  14.668  -5.129  1.00 20.00     0.116 A 
HETATM   13  C2  UNL     1     -33.699  15.429  -3.972  1.00 20.00     0.026 A 
ENDBRANCH   5   8
TORSDOF 1
ENDMDL
MODEL 7
REMARK VINA RESULT:      -3.9      1.256      1.852
REMARK  1 active torsions:
REMARK  status: ('A' for Active; 'I' for Inactive)
REMARK    1  A    between atoms: C5_5  and  C10_10 
ROOT
HETATM    1  C6  UNL     1     -32.554  18.830   0.092  1.00 20.00     0.005 C 
HETATM    2  C7  UNL     1     -31.847  19.263  -1.201  1.00 20.00     0.005 C 
HETATM    3  C8  UNL     1     -33.743  16.980  -1.121  1.00 20.00     0.014 C 
HETATM    4  C9  UNL     1     -34.182  19.263  -1.590  1.00 20.00     0.010 C 
HETATM    5  C10 UNL     1     -32.935  17.348  -2.389  1.00 20.00     0.023 C 
HETATM    6  C11 UNL     1     -33.920  18.333  -0.410  1.00 20.00    -0.013 C 
HETATM    7  C12 UNL     1     -32.871  18.895  -2.296  1.00 20.00    -0.006 C 
ENDROOT
BRANCH   5   8
HETATM    8  C5  UNL     1     -33.541  16.757  -3.649  1.00 20.00    -0.051 A 
HETATM    9  C1  UNL     1     -34.066  17.591  -4.630  1.00 20.00     0.026 A 
HETATM   10  C3  UNL     1     -34.608  17.001  -5.761  1.00 20.00     0.116 A 
HETATM   11  N13 UNL     1     -34.657  15.667  -5.969  1.00 20.00    -0.273 NA
HETATM   12  C4  UNL     1     -34.138  14.887  -4.994  1.00 20.00     0.116 A 
HETATM   13  C2  UNL     1     -33.575  15.378  -3.827  1.00 20.00     0.026 A 
ENDBRANCH   5   8
TORSDOF 1
ENDMDL
MODEL 8
REMARK VINA RESULT:      -3.9     24.823     26.233
REMARK  1 active torsions:
REMARK  status: ('A' for Active; 'I' for Inactive)
REMARK    1  A    between atoms: C5_5  and  C10_10 
ROOT
HETATM    1  C6  UNL     1     -22.552  -4.737  10.257  1.00 20.00     0.005 C 
HETATM    2  C7  UNL     1     -23.501  -4.610   9.056  1.00 20.00     0.005 C 
HETATM    3  C8  UNL     1     -24.174  -3.506  11.729  1.00 20.00     0.014 C 
HETATM    4  C9  UNL     1     -23.084  -2.442   9.911  1.00 20.00     0.010 C 
HETATM    5  C10 UNL     1     -25.171  -3.491  10.545  1.00 20.00     0.023 C 
HETATM    6  C11 UNL     1     -22.802  -3.434  11.035  1.00 20.00    -0.013 C 
HETATM    7  C12 UNL     1     -24.231  -3.278   9.331  1.00 20.00    -0.006 C 
ENDROOT
BRANCH   5   8
HETATM    8  C5  UNL     1     -26.283  -2.475  10.745  1.00 20.00    -0.051 A 
HETATM    9  C1  UNL     1     -27.494  -2.624  10.078  1.00 20.00     0.026 A 
HETATM   10  C3  UNL     1     -28.476  -1.671  10.294  1.00 20.00     0.116 A 
HETATM   11  N13 UNL     1     -28.328  -0.606  11.114  1.00 20.00    -0.273 NA
HETATM   12  C4  UNL     1     -27.138  -0.493  11.744  1.00 20.00     0.116 A 
HETATM   13  C2  UNL     1     -26.094  -1.391  11.595  1.00 20.00     0.026 A 
ENDBRANCH   5   8
TORSDOF 1
ENDMDL
MODEL 9
REMARK VINA RESULT:      -3.6     13.130     14.845
REMARK  1 active torsions:
REMARK  status: ('A' for Active; 'I' for Inactive)
REMARK    1  A    between atoms: C5_5  and  C10_10 
ROOT
HETATM    1  C6  UNL     1     -41.075  13.332   4.853  1.00 20.00     0.005 C 
HETATM    2  C7  UNL     1     -39.973  12.921   5.840  1.00 20.00     0.005 C 
HETATM    3  C8  UNL     1     -41.775  15.225   6.348  1.00 20.00     0.014 C 
HETATM    4  C9  UNL     1     -42.037  12.959   6.998  1.00 20.00     0.010 C 
HETATM    5  C10 UNL     1     -40.586  14.876   7.275  1.00 20.00     0.023 C 
HETATM    6  C11 UNL     1     -42.188  13.858   5.775  1.00 20.00    -0.013 C 
HETATM    7  C12 UNL     1     -40.563  13.327   7.207  1.00 20.00    -0.006 C 
ENDROOT
BRANCH   5   8
HETATM    8  C5  UNL     1     -40.727  15.504   8.651  1.00 20.00    -0.051 A 
HETATM    9  C1  UNL     1     -41.322  16.753   8.791  1.00 20.00     0.026 A 
HETATM   10  C3  UNL     1     -41.426  17.283  10.068  1.00 20.00     0.116 A 
HETATM   11  N13 UNL     1     -40.986  16.660  11.184  1.00 20.00    -0.273 NA
HETATM   12  C4  UNL     1     -40.413  15.448  11.008  1.00 20.00     0.116 A 
HETATM   13  C2  UNL     1     -40.261  14.833   9.777  1.00 20.00     0.026 A 
ENDBRANCH   5   8
TORSDOF 1
ENDMDL
