MODEL 1
REMARK VINA RESULT:      -4.2      0.000      0.000
REMARK  3 active torsions:
REMARK  status: ('A' for Active; 'I' for Inactive)
REMARK    1  A    between atoms: C1_1  and  C5_5 
REMARK    2  A    between atoms: C2_2  and  C6_6 
REMARK    3  A    between atoms: C6_6  and  O7_7 
ROOT
HETATM    1  C3  UNL     1     -34.692   5.518   6.493  1.00 20.00     0.060 C 
HETATM    2  C4  UNL     1     -34.034   4.382   4.352  1.00 20.00     0.060 C 
HETATM    3  C6  UNL     1     -34.622   5.648   4.972  1.00 20.00     0.114 C 
ENDROOT
BRANCH   3   4
HETATM    4  C2  UNL     1     -33.822   6.824   4.588  1.00 20.00    -0.068 C 
HETATM    5  C1  UNL     1     -33.170   7.783   4.277  1.00 20.00    -0.088 C 
BRANCH   5   6
HETATM    6  C5  UNL     1     -32.379   8.950   3.896  1.00 20.00     0.208 C 
HETATM    7 CL8  UNL     1     -32.701   9.334   2.195  1.00 20.00    -0.117 Cl
ENDBRANCH   5   6
ENDBRANCH   3   4
BRANCH   3   8
HETATM    8  O7  UNL     1     -35.951   5.791   4.468  1.00 20.00    -0.378 OA
HETATM    9  H17 UNL     1     -36.093   6.740   4.338  1.00 20.00     0.211 HD
ENDBRANCH   3   8
TORSDOF 3
ENDMDL
MODEL 2
REMARK VINA RESULT:      -3.8     11.708     12.355
REMARK  3 active torsions:
REMARK  status: ('A' for Active; 'I' for Inactive)
REMARK    1  A    between atoms: C1_1  and  C5_5 
REMARK    2  A    between atoms: C2_2  and  C6_6 
REMARK    3  A    between atoms: C6_6  and  O7_7 
ROOT
HETATM    1  C3  UNL     1     -33.958  15.134  -6.152  1.00 20.00     0.060 C 
HETATM    2  C4  UNL     1     -35.265  14.022  -4.320  1.00 20.00     0.060 C 
HETATM    3  C6  UNL     1     -33.922  14.636  -4.709  1.00 20.00     0.114 C 
ENDROOT
BRANCH   3   4
HETATM    4  C2  UNL     1     -33.578  15.734  -3.789  1.00 20.00    -0.068 C 
HETATM    5  C1  UNL     1     -33.300  16.630  -3.040  1.00 20.00    -0.088 C 
BRANCH   5   6
HETATM    6  C5  UNL     1     -32.958  17.721  -2.130  1.00 20.00     0.208 C 
HETATM    7 CL8  UNL     1     -33.850  17.505  -0.612  1.00 20.00    -0.117 Cl
ENDBRANCH   5   6
ENDBRANCH   3   4
BRANCH   3   8
HETATM    8  O7  UNL     1     -32.938  13.605  -4.608  1.00 20.00    -0.378 OA
HETATM    9  H17 UNL     1     -33.387  12.776  -4.830  1.00 20.00     0.211 HD
ENDBRANCH   3   8
TORSDOF 3
ENDMDL
MODEL 3
REMARK VINA RESULT:      -3.3     12.590     13.255
REMARK  3 active torsions:
REMARK  status: ('A' for Active; 'I' for Inactive)
REMARK    1  A    between atoms: C1_1  and  C5_5 
REMARK    2  A    between atoms: C2_2  and  C6_6 
REMARK    3  A    between atoms: C6_6  and  O7_7 
ROOT
HETATM    1  C3  UNL     1     -34.685  16.570  -6.597  1.00 20.00     0.060 C 
HETATM    2  C4  UNL     1     -35.547  14.530  -5.415  1.00 20.00     0.060 C 
HETATM    3  C6  UNL     1     -34.350  15.459  -5.604  1.00 20.00     0.114 C 
ENDROOT
BRANCH   3   4
HETATM    4  C2  UNL     1     -33.936  16.027  -4.309  1.00 20.00    -0.068 C 
HETATM    5  C1  UNL     1     -33.599  16.493  -3.255  1.00 20.00    -0.088 C 
BRANCH   5   6
HETATM    6  C5  UNL     1     -33.187  17.057  -1.972  1.00 20.00     0.208 C 
HETATM    7 CL8  UNL     1     -32.546  18.689  -2.240  1.00 20.00    -0.117 Cl
ENDBRANCH   5   6
ENDBRANCH   3   4
BRANCH   3   8
HETATM    8  O7  UNL     1     -33.284  14.675  -6.141  1.00 20.00    -0.378 OA
HETATM    9  H17 UNL     1     -32.465  15.036  -5.771  1.00 20.00     0.211 HD
ENDBRANCH   3   8
TORSDOF 3
ENDMDL
MODEL 4
REMARK VINA RESULT:      -3.3      9.482      9.800
REMARK  3 active torsions:
REMARK  status: ('A' for Active; 'I' for Inactive)
REMARK    1  A    between atoms: C1_1  and  C5_5 
REMARK    2  A    between atoms: C2_2  and  C6_6 
REMARK    3  A    between atoms: C6_6  and  O7_7 
ROOT
HETATM    1  C3  UNL     1     -43.232  13.569   6.022  1.00 20.00     0.060 C 
HETATM    2  C4  UNL     1     -42.125  13.759   8.268  1.00 20.00     0.060 C 
HETATM    3  C6  UNL     1     -42.311  12.884   7.030  1.00 20.00     0.114 C 
ENDROOT
BRANCH   3   4
HETATM    4  C2  UNL     1     -41.006  12.580   6.419  1.00 20.00    -0.068 C 
HETATM    5  C1  UNL     1     -39.942  12.331   5.920  1.00 20.00    -0.088 C 
BRANCH   5   6
HETATM    6  C5  UNL     1     -38.647  12.029   5.316  1.00 20.00     0.208 C 
HETATM    7 CL8  UNL     1     -38.884  11.668   3.596  1.00 20.00    -0.117 Cl
ENDBRANCH   5   6
ENDBRANCH   3   4
BRANCH   3   8
HETATM    8  O7  UNL     1     -42.930  11.669   7.458  1.00 20.00    -0.378 OA
HETATM    9  H17 UNL     1     -43.798  11.640   7.031  1.00 20.00     0.211 HD
ENDBRANCH   3   8
TORSDOF 3
ENDMDL
MODEL 5
REMARK VINA RESULT:      -3.3     12.420     13.140
REMARK  3 active torsions:
REMARK  status: ('A' for Active; 'I' for Inactive)
REMARK    1  A    between atoms: C1_1  and  C5_5 
REMARK    2  A    between atoms: C2_2  and  C6_6 
REMARK    3  A    between atoms: C6_6  and  O7_7 
ROOT
HETATM    1  C3  UNL     1     -33.302  16.246  -3.051  1.00 20.00     0.060 C 
HETATM    2  C4  UNL     1     -33.285  18.603  -3.917  1.00 20.00     0.060 C 
HETATM    3  C6  UNL     1     -33.498  17.718  -2.691  1.00 20.00     0.114 C 
ENDROOT
BRANCH   3   4
HETATM    4  C2  UNL     1     -32.579  18.114  -1.610  1.00 20.00    -0.068 C 
HETATM    5  C1  UNL     1     -31.829  18.435  -0.729  1.00 20.00    -0.088 C 
BRANCH   5   6
HETATM    6  C5  UNL     1     -30.919  18.825   0.345  1.00 20.00     0.208 C 
HETATM    7 CL8  UNL     1     -31.641  18.379   1.903  1.00 20.00    -0.117 Cl
ENDBRANCH   5   6
ENDBRANCH   3   4
BRANCH   3   8
HETATM    8  O7  UNL     1     -34.847  17.904  -2.261  1.00 20.00    -0.378 OA
HETATM    9  H17 UNL     1     -34.835  18.644  -1.636  1.00 20.00     0.211 HD
ENDBRANCH   3   8
TORSDOF 3
ENDMDL
MODEL 6
REMARK VINA RESULT:      -3.3      1.081      1.525
REMARK  3 active torsions:
REMARK  status: ('A' for Active; 'I' for Inactive)
REMARK    1  A    between atoms: C1_1  and  C5_5 
REMARK    2  A    between atoms: C2_2  and  C6_6 
REMARK    3  A    between atoms: C6_6  and  O7_7 
ROOT
HETATM    1  C3  UNL     1     -34.006   4.337   4.499  1.00 20.00     0.060 C 
HETATM    2  C4  UNL     1     -36.030   5.800   4.234  1.00 20.00     0.060 C 
HETATM    3  C6  UNL     1     -34.738   5.575   5.016  1.00 20.00     0.114 C 
ENDROOT
BRANCH   3   4
HETATM    4  C2  UNL     1     -33.873   6.765   4.924  1.00 20.00    -0.068 C 
HETATM    5  C1  UNL     1     -33.170   7.735   4.847  1.00 20.00    -0.088 C 
BRANCH   5   6
HETATM    6  C5  UNL     1     -32.312   8.913   4.753  1.00 20.00     0.208 C 
HETATM    7 CL8  UNL     1     -32.439   9.591   3.119  1.00 20.00    -0.117 Cl
ENDBRANCH   5   6
ENDBRANCH   3   4
BRANCH   3   8
HETATM    8  O7  UNL     1     -35.098   5.354   6.380  1.00 20.00    -0.378 OA
HETATM    9  H17 UNL     1     -34.354   5.667   6.914  1.00 20.00     0.211 HD
ENDBRANCH   3   8
TORSDOF 3
ENDMDL
MODEL 7
REMARK VINA RESULT:      -3.2     12.467     13.146
REMARK  3 active torsions:
REMARK  status: ('A' for Active; 'I' for Inactive)
REMARK    1  A    between atoms: C1_1  and  C5_5 
REMARK    2  A    between atoms: C2_2  and  C6_6 
REMARK    3  A    between atoms: C6_6  and  O7_7 
ROOT
HETATM    1  C3  UNL     1     -33.658  17.802  -0.478  1.00 20.00     0.060 C 
HETATM    2  C4  UNL     1     -34.443  19.136  -2.455  1.00 20.00     0.060 C 
HETATM    3  C6  UNL     1     -33.387  18.162  -1.937  1.00 20.00     0.114 C 
ENDROOT
BRANCH   3   4
HETATM    4  C2  UNL     1     -33.357  16.950  -2.774  1.00 20.00    -0.068 C 
HETATM    5  C1  UNL     1     -33.333  15.960  -3.454  1.00 20.00    -0.088 C 
BRANCH   5   6
HETATM    6  C5  UNL     1     -33.302  14.758  -4.283  1.00 20.00     0.208 C 
HETATM    7 CL8  UNL     1     -34.014  15.129  -5.864  1.00 20.00    -0.117 Cl
ENDBRANCH   5   6
ENDBRANCH   3   4
BRANCH   3   8
HETATM    8  O7  UNL     1     -32.123  18.824  -2.014  1.00 20.00    -0.378 OA
HETATM    9  H17 UNL     1     -32.136  19.517  -1.337  1.00 20.00     0.211 HD
ENDBRANCH   3   8
TORSDOF 3
ENDMDL
MODEL 8
REMARK VINA RESULT:      -3.2     10.287     10.579
REMARK  3 active torsions:
REMARK  status: ('A' for Active; 'I' for Inactive)
REMARK    1  A    between atoms: C1_1  and  C5_5 
REMARK    2  A    between atoms: C2_2  and  C6_6 
REMARK    3  A    between atoms: C6_6  and  O7_7 
ROOT
HETATM    1  C3  UNL     1     -39.548  12.193   5.915  1.00 20.00     0.060 C 
HETATM    2  C4  UNL     1     -41.444  13.683   5.215  1.00 20.00     0.060 C 
HETATM    3  C6  UNL     1     -40.835  12.884   6.365  1.00 20.00     0.114 C 
ENDROOT
BRANCH   3   4
HETATM    4  C2  UNL     1     -40.575  13.765   7.517  1.00 20.00    -0.068 C 
HETATM    5  C1  UNL     1     -40.362  14.484   8.455  1.00 20.00    -0.088 C 
BRANCH   5   6
HETATM    6  C5  UNL     1     -40.103  15.356   9.597  1.00 20.00     0.208 C 
HETATM    7 CL8  UNL     1     -40.471  14.472  11.091  1.00 20.00    -0.117 Cl
ENDBRANCH   5   6
ENDBRANCH   3   4
BRANCH   3   8
HETATM    8  O7  UNL     1     -41.782  11.882   6.736  1.00 20.00    -0.378 OA
HETATM    9  H17 UNL     1     -42.633  12.159   6.365  1.00 20.00     0.211 HD
ENDBRANCH   3   8
TORSDOF 3
ENDMDL
MODEL 9
REMARK VINA RESULT:      -3.0     10.365     10.601
REMARK  3 active torsions:
REMARK  status: ('A' for Active; 'I' for Inactive)
REMARK    1  A    between atoms: C1_1  and  C5_5 
REMARK    2  A    between atoms: C2_2  and  C6_6 
REMARK    3  A    between atoms: C6_6  and  O7_7 
ROOT
HETATM    1  C3  UNL     1     -40.459  13.837   7.445  1.00 20.00     0.060 C 
HETATM    2  C4  UNL     1     -39.664  12.169   5.745  1.00 20.00     0.060 C 
HETATM    3  C6  UNL     1     -40.875  12.919   6.297  1.00 20.00     0.114 C 
ENDROOT
BRANCH   3   4
HETATM    4  C2  UNL     1     -41.528  13.691   5.226  1.00 20.00    -0.068 C 
HETATM    5  C1  UNL     1     -42.059  14.321   4.352  1.00 20.00    -0.088 C 
BRANCH   5   6
HETATM    6  C5  UNL     1     -42.706  15.089   3.291  1.00 20.00     0.208 C 
HETATM    7 CL8  UNL     1     -42.632  16.813   3.700  1.00 20.00    -0.117 Cl
ENDBRANCH   5   6
ENDBRANCH   3   4
BRANCH   3   8
HETATM    8  O7  UNL     1     -41.786  11.943   6.803  1.00 20.00    -0.378 OA
HETATM    9  H17 UNL     1     -42.653  12.372   6.844  1.00 20.00     0.211 HD
ENDBRANCH   3   8
TORSDOF 3
ENDMDL
