MODEL 1
REMARK VINA RESULT:      -5.4      0.000      0.000
REMARK  0 active torsions:
REMARK  status: ('A' for Active; 'I' for Inactive)
ROOT
HETATM    1  C1  UNL     1     -32.976   8.421   4.849  1.00 20.00     0.017 A 
HETATM    2  C2  UNL     1     -32.396   8.665   3.605  1.00 20.00     0.025 A 
HETATM    3  C3  UNL     1     -33.110   6.479   2.797  1.00 20.00     0.032 A 
HETATM    4  C4  UNL     1     -33.608   7.204   5.029  1.00 20.00     0.016 A 
HETATM    5  C5  UNL     1     -33.682   6.234   4.037  1.00 20.00    -0.038 A 
HETATM    6  C6  UNL     1     -32.463   7.702   2.585  1.00 20.00     0.034 A 
HETATM    7  C7  UNL     1     -34.292   6.707   6.210  1.00 20.00     0.160 A 
HETATM    8  C8  UNL     1     -34.861   5.338   5.925  1.00 20.00     0.093 A 
HETATM    9  C9  UNL     1     -34.419   5.001   4.481  1.00 20.00     0.023 A 
HETATM   10  C10 UNL     1     -33.549   3.750   4.431  1.00 20.00     0.015 C 
HETATM   11  O11 UNL     1     -34.389   7.323   7.256  1.00 20.00    -0.292 OA
HETATM   12 CL12 UNL     1     -31.743   8.031   1.055  1.00 20.00    -0.084 Cl
ENDROOT
TORSDOF 0
ENDMDL
MODEL 2
REMARK VINA RESULT:      -4.5      1.836      2.524
REMARK  0 active torsions:
REMARK  status: ('A' for Active; 'I' for Inactive)
ROOT
HETATM    1  C1  UNL     1     -32.160   7.390   3.124  1.00 20.00     0.017 A 
HETATM    2  C2  UNL     1     -32.175   6.309   2.244  1.00 20.00     0.025 A 
HETATM    3  C3  UNL     1     -33.815   5.152   3.627  1.00 20.00     0.032 A 
HETATM    4  C4  UNL     1     -32.979   7.316   4.236  1.00 20.00     0.016 A 
HETATM    5  C5  UNL     1     -33.797   6.225   4.506  1.00 20.00    -0.038 A 
HETATM    6  C6  UNL     1     -32.997   5.197   2.492  1.00 20.00     0.034 A 
HETATM    7  C7  UNL     1     -33.158   8.297   5.293  1.00 20.00     0.160 A 
HETATM    8  C8  UNL     1     -34.185   7.795   6.279  1.00 20.00     0.093 A 
HETATM    9  C9  UNL     1     -34.585   6.388   5.775  1.00 20.00     0.023 A 
HETATM   10  C10 UNL     1     -34.270   5.306   6.802  1.00 20.00     0.015 C 
HETATM   11  O11 UNL     1     -32.568   9.360   5.348  1.00 20.00    -0.292 OA
HETATM   12 CL12 UNL     1     -33.000   3.877   1.387  1.00 20.00    -0.084 Cl
ENDROOT
TORSDOF 0
ENDMDL
MODEL 3
REMARK VINA RESULT:      -4.4     12.464     14.265
REMARK  0 active torsions:
REMARK  status: ('A' for Active; 'I' for Inactive)
ROOT
HETATM    1  C1  UNL     1     -34.258  14.728  -4.837  1.00 20.00     0.017 A 
HETATM    2  C2  UNL     1     -33.571  15.258  -3.747  1.00 20.00     0.025 A 
HETATM    3  C3  UNL     1     -34.546  17.456  -4.147  1.00 20.00     0.032 A 
HETATM    4  C4  UNL     1     -35.072  15.586  -5.554  1.00 20.00     0.016 A 
HETATM    5  C5  UNL     1     -35.225  16.930  -5.236  1.00 20.00    -0.038 A 
HETATM    6  C6  UNL     1     -33.713  16.613  -3.402  1.00 20.00     0.034 A 
HETATM    7  C7  UNL     1     -35.897  15.292  -6.714  1.00 20.00     0.160 A 
HETATM    8  C8  UNL     1     -36.641  16.536  -7.133  1.00 20.00     0.093 A 
HETATM    9  C9  UNL     1     -36.162  17.647  -6.168  1.00 20.00     0.023 A 
HETATM   10  C10 UNL     1     -35.484  18.792  -6.912  1.00 20.00     0.015 C 
HETATM   11  O11 UNL     1     -35.968  14.198  -7.243  1.00 20.00    -0.292 OA
HETATM   12 CL12 UNL     1     -32.856  17.241  -2.046  1.00 20.00    -0.084 Cl
ENDROOT
TORSDOF 0
ENDMDL
MODEL 4
REMARK VINA RESULT:      -4.3      1.523      3.277
REMARK  0 active torsions:
REMARK  status: ('A' for Active; 'I' for Inactive)
ROOT
HETATM    1  C1  UNL     1     -34.256   5.309   4.869  1.00 20.00     0.017 A 
HETATM    2  C2  UNL     1     -33.992   4.467   3.790  1.00 20.00     0.025 A 
HETATM    3  C3  UNL     1     -32.579   6.165   2.758  1.00 20.00     0.032 A 
HETATM    4  C4  UNL     1     -33.670   6.561   4.857  1.00 20.00     0.016 A 
HETATM    5  C5  UNL     1     -32.846   7.005   3.829  1.00 20.00    -0.038 A 
HETATM    6  C6  UNL     1     -33.158   4.891   2.741  1.00 20.00     0.034 A 
HETATM    7  C7  UNL     1     -33.772   7.617   5.851  1.00 20.00     0.160 A 
HETATM    8  C8  UNL     1     -32.928   8.793   5.426  1.00 20.00     0.093 A 
HETATM    9  C9  UNL     1     -32.337   8.402   4.051  1.00 20.00     0.023 A 
HETATM   10  C10 UNL     1     -32.772   9.364   2.952  1.00 20.00     0.015 C 
HETATM   11  O11 UNL     1     -34.435   7.537   6.869  1.00 20.00    -0.292 OA
HETATM   12 CL12 UNL     1     -32.844   3.829   1.422  1.00 20.00    -0.084 Cl
ENDROOT
TORSDOF 0
ENDMDL
MODEL 5
REMARK VINA RESULT:      -4.3     12.598     13.377
REMARK  0 active torsions:
REMARK  status: ('A' for Active; 'I' for Inactive)
ROOT
HETATM    1  C1  UNL     1     -34.626  19.223  -0.275  1.00 20.00     0.017 A 
HETATM    2  C2  UNL     1     -33.529  19.140   0.580  1.00 20.00     0.025 A 
HETATM    3  C3  UNL     1     -32.232  17.982  -1.129  1.00 20.00     0.032 A 
HETATM    4  C4  UNL     1     -34.491  18.677  -1.539  1.00 20.00     0.016 A 
HETATM    5  C5  UNL     1     -33.326  18.059  -1.978  1.00 20.00    -0.038 A 
HETATM    6  C6  UNL     1     -32.338  18.524   0.157  1.00 20.00     0.034 A 
HETATM    7  C7  UNL     1     -35.466  18.638  -2.615  1.00 20.00     0.160 A 
HETATM    8  C8  UNL     1     -34.856  17.973  -3.825  1.00 20.00     0.093 A 
HETATM    9  C9  UNL     1     -33.434  17.547  -3.387  1.00 20.00     0.023 A 
HETATM   10  C10 UNL     1     -33.240  16.038  -3.478  1.00 20.00     0.015 C 
HETATM   11  O11 UNL     1     -36.594  19.089  -2.534  1.00 20.00    -0.292 OA
HETATM   12 CL12 UNL     1     -30.995  18.439   1.231  1.00 20.00    -0.084 Cl
ENDROOT
TORSDOF 0
ENDMDL
MODEL 6
REMARK VINA RESULT:      -4.2     12.056     13.649
REMARK  0 active torsions:
REMARK  status: ('A' for Active; 'I' for Inactive)
ROOT
HETATM    1  C1  UNL     1     -34.548  18.741  -3.962  1.00 20.00     0.017 A 
HETATM    2  C2  UNL     1     -34.152  18.901  -2.635  1.00 20.00     0.025 A 
HETATM    3  C3  UNL     1     -33.393  16.586  -2.539  1.00 20.00     0.032 A 
HETATM    4  C4  UNL     1     -34.353  17.500  -4.538  1.00 20.00     0.016 A 
HETATM    5  C5  UNL     1     -33.792  16.426  -3.858  1.00 20.00    -0.038 A 
HETATM    6  C6  UNL     1     -33.577  17.832  -1.927  1.00 20.00     0.034 A 
HETATM    7  C7  UNL     1     -34.664  17.073  -5.893  1.00 20.00     0.160 A 
HETATM    8  C8  UNL     1     -34.239  15.637  -6.079  1.00 20.00     0.093 A 
HETATM    9  C9  UNL     1     -33.691  15.188  -4.704  1.00 20.00     0.023 A 
HETATM   10  C10 UNL     1     -34.485  14.020  -4.130  1.00 20.00     0.015 C 
HETATM   11  O11 UNL     1     -35.179  17.787  -6.734  1.00 20.00    -0.292 OA
HETATM   12 CL12 UNL     1     -33.092  18.057  -0.290  1.00 20.00    -0.084 Cl
ENDROOT
TORSDOF 0
ENDMDL
MODEL 7
REMARK VINA RESULT:      -4.2      1.352      2.693
REMARK  0 active torsions:
REMARK  status: ('A' for Active; 'I' for Inactive)
ROOT
HETATM    1  C1  UNL     1     -33.508   5.366   3.002  1.00 20.00     0.017 A 
HETATM    2  C2  UNL     1     -32.871   6.034   1.958  1.00 20.00     0.025 A 
HETATM    3  C3  UNL     1     -32.472   7.970   3.385  1.00 20.00     0.032 A 
HETATM    4  C4  UNL     1     -33.609   6.027   4.213  1.00 20.00     0.016 A 
HETATM    5  C5  UNL     1     -33.112   7.307   4.423  1.00 20.00    -0.038 A 
HETATM    6  C6  UNL     1     -32.355   7.327   2.147  1.00 20.00     0.034 A 
HETATM    7  C7  UNL     1     -34.210   5.559   5.450  1.00 20.00     0.160 A 
HETATM    8  C8  UNL     1     -34.050   6.613   6.519  1.00 20.00     0.093 A 
HETATM    9  C9  UNL     1     -33.350   7.803   5.822  1.00 20.00     0.023 A 
HETATM   10  C10 UNL     1     -34.204   9.065   5.858  1.00 20.00     0.015 C 
HETATM   11  O11 UNL     1     -34.746   4.474   5.584  1.00 20.00    -0.292 OA
HETATM   12 CL12 UNL     1     -31.567   8.129   0.842  1.00 20.00    -0.084 Cl
ENDROOT
TORSDOF 0
ENDMDL
MODEL 8
REMARK VINA RESULT:      -4.2     12.189     13.299
REMARK  0 active torsions:
REMARK  status: ('A' for Active; 'I' for Inactive)
ROOT
HETATM    1  C1  UNL     1     -25.779  -0.930  12.164  1.00 20.00     0.017 A 
HETATM    2  C2  UNL     1     -24.525  -1.474  11.892  1.00 20.00     0.025 A 
HETATM    3  C3  UNL     1     -25.515  -3.106  10.375  1.00 20.00     0.032 A 
HETATM    4  C4  UNL     1     -26.869  -1.497  11.529  1.00 20.00     0.016 A 
HETATM    5  C5  UNL     1     -26.764  -2.569  10.650  1.00 20.00    -0.038 A 
HETATM    6  C6  UNL     1     -24.392  -2.554  11.003  1.00 20.00     0.034 A 
HETATM    7  C7  UNL     1     -28.269  -1.120  11.628  1.00 20.00     0.160 A 
HETATM    8  C8  UNL     1     -29.094  -2.002  10.722  1.00 20.00     0.093 A 
HETATM    9  C9  UNL     1     -28.092  -3.001  10.095  1.00 20.00     0.023 A 
HETATM   10  C10 UNL     1     -28.433  -4.444  10.449  1.00 20.00     0.015 C 
HETATM   11  O11 UNL     1     -28.688  -0.220  12.332  1.00 20.00    -0.292 OA
HETATM   12 CL12 UNL     1     -22.830  -3.204  10.680  1.00 20.00    -0.084 Cl
ENDROOT
TORSDOF 0
ENDMDL
MODEL 9
REMARK VINA RESULT:      -4.1     12.509     14.252
REMARK  0 active torsions:
REMARK  status: ('A' for Active; 'I' for Inactive)
ROOT
HETATM    1  C1  UNL     1     -33.428  15.849  -3.686  1.00 20.00     0.017 A 
HETATM    2  C2  UNL     1     -33.361  16.549  -2.482  1.00 20.00     0.025 A 
HETATM    3  C3  UNL     1     -34.892  18.244  -3.334  1.00 20.00     0.032 A 
HETATM    4  C4  UNL     1     -34.230  16.374  -4.683  1.00 20.00     0.016 A 
HETATM    5  C5  UNL     1     -34.955  17.551  -4.533  1.00 20.00    -0.038 A 
HETATM    6  C6  UNL     1     -34.089  17.738  -2.305  1.00 20.00     0.034 A 
HETATM    7  C7  UNL     1     -34.482  15.845  -6.013  1.00 20.00     0.160 A 
HETATM    8  C8  UNL     1     -35.457  16.742  -6.736  1.00 20.00     0.093 A 
HETATM    9  C9  UNL     1     -35.746  17.908  -5.761  1.00 20.00     0.023 A 
HETATM   10  C10 UNL     1     -35.336  19.254  -6.349  1.00 20.00     0.015 C 
HETATM   11  O11 UNL     1     -33.979  14.827  -6.451  1.00 20.00    -0.292 OA
HETATM   12 CL12 UNL     1     -33.992  18.580  -0.806  1.00 20.00    -0.084 Cl
ENDROOT
TORSDOF 0
ENDMDL
