MODEL 1
REMARK VINA RESULT:      -4.3      0.000      0.000
REMARK  2 active torsions:
REMARK  status: ('A' for Active; 'I' for Inactive)
REMARK    1  A    between atoms: C2_2  and  C5_5 
REMARK    2  A    between atoms: C3_3  and  C6_6 
ROOT
HETATM    1  C1  UNL     1     -32.086   8.360   4.560  1.00 20.00     0.204 C 
HETATM    2  C2  UNL     1     -32.912   7.719   3.471  1.00 20.00     0.162 C 
HETATM    3  C3  UNL     1     -34.116   7.773   5.380  1.00 20.00     0.260 C 
HETATM    4  O7  UNL     1     -33.062   8.735   5.533  1.00 20.00    -0.359 OA
HETATM    5  O8  UNL     1     -33.886   6.979   4.209  1.00 20.00    -0.353 OA
ENDROOT
BRANCH   2   6
HETATM    6  C5  UNL     1     -32.124   6.803   2.559  1.00 20.00     0.148 C 
HETATM    7 CL9  UNL     1     -32.814   5.166   2.572  1.00 20.00    -0.128 Cl
ENDBRANCH   2   6
BRANCH   3   8
HETATM    8  C6  UNL     1     -34.172   6.870   6.598  1.00 20.00     0.056 C 
HETATM    9  C4  UNL     1     -34.558   5.468   6.240  1.00 20.00     0.010 C 
ENDBRANCH   3   8
TORSDOF 2
ENDMDL
MODEL 2
REMARK VINA RESULT:      -4.2      1.776      2.490
REMARK  2 active torsions:
REMARK  status: ('A' for Active; 'I' for Inactive)
REMARK    1  A    between atoms: C2_2  and  C5_5 
REMARK    2  A    between atoms: C3_3  and  C6_6 
ROOT
HETATM    1  C1  UNL     1     -33.407   7.223   6.494  1.00 20.00     0.204 C 
HETATM    2  C2  UNL     1     -33.678   8.017   5.239  1.00 20.00     0.162 C 
HETATM    3  C3  UNL     1     -34.903   6.121   5.197  1.00 20.00     0.260 C 
HETATM    4  O7  UNL     1     -34.520   6.331   6.564  1.00 20.00    -0.359 OA
HETATM    5  O8  UNL     1     -34.189   7.027   4.345  1.00 20.00    -0.353 OA
ENDROOT
BRANCH   2   6
HETATM    6  C5  UNL     1     -32.450   8.681   4.654  1.00 20.00     0.148 C 
HETATM    7 CL9  UNL     1     -31.855   7.767   3.250  1.00 20.00    -0.128 Cl
ENDBRANCH   2   6
BRANCH   3   8
HETATM    8  C6  UNL     1     -34.593   4.694   4.786  1.00 20.00     0.056 C 
HETATM    9  C4  UNL     1     -33.664   4.636   3.613  1.00 20.00     0.010 C 
ENDBRANCH   3   8
TORSDOF 2
ENDMDL
MODEL 3
REMARK VINA RESULT:      -3.7      2.128      3.463
REMARK  2 active torsions:
REMARK  status: ('A' for Active; 'I' for Inactive)
REMARK    1  A    between atoms: C2_2  and  C5_5 
REMARK    2  A    between atoms: C3_3  and  C6_6 
ROOT
HETATM    1  C1  UNL     1     -32.977   5.229   3.169  1.00 20.00     0.204 C 
HETATM    2  C2  UNL     1     -34.225   5.651   3.907  1.00 20.00     0.162 C 
HETATM    3  C3  UNL     1     -33.049   7.489   3.328  1.00 20.00     0.260 C 
HETATM    4  O7  UNL     1     -32.579   6.422   2.492  1.00 20.00    -0.359 OA
HETATM    5  O8  UNL     1     -33.893   6.965   4.361  1.00 20.00    -0.353 OA
ENDROOT
BRANCH   2   6
HETATM    6  C5  UNL     1     -34.581   4.757   5.076  1.00 20.00     0.148 C 
HETATM    7 CL9  UNL     1     -34.487   5.660   6.603  1.00 20.00    -0.128 Cl
ENDBRANCH   2   6
BRANCH   3   8
HETATM    8  C6  UNL     1     -31.871   8.209   3.957  1.00 20.00     0.056 C 
HETATM    9  C4  UNL     1     -32.281   9.021   5.147  1.00 20.00     0.010 C 
ENDBRANCH   3   8
TORSDOF 2
ENDMDL
MODEL 4
REMARK VINA RESULT:      -3.7     11.914     12.433
REMARK  2 active torsions:
REMARK  status: ('A' for Active; 'I' for Inactive)
REMARK    1  A    between atoms: C2_2  and  C5_5 
REMARK    2  A    between atoms: C3_3  and  C6_6 
ROOT
HETATM    1  C1  UNL     1     -31.508  18.449  -0.789  1.00 20.00     0.204 C 
HETATM    2  C2  UNL     1     -32.800  18.829  -0.107  1.00 20.00     0.162 C 
HETATM    3  C3  UNL     1     -31.083  19.162   1.320  1.00 20.00     0.260 C 
HETATM    4  O7  UNL     1     -30.516  19.102   0.004  1.00 20.00    -0.359 OA
HETATM    5  O8  UNL     1     -32.459  18.758   1.278  1.00 20.00    -0.353 OA
ENDROOT
BRANCH   2   6
HETATM    6  C5  UNL     1     -33.957  17.903  -0.420  1.00 20.00     0.148 C 
HETATM    7 CL9  UNL     1     -33.553  16.841  -1.786  1.00 20.00    -0.128 Cl
ENDBRANCH   2   6
BRANCH   3   8
HETATM    8  C6  UNL     1     -30.318  18.245   2.255  1.00 20.00     0.056 C 
HETATM    9  C4  UNL     1     -29.290  18.986   3.052  1.00 20.00     0.010 C 
ENDBRANCH   3   8
TORSDOF 2
ENDMDL
MODEL 5
REMARK VINA RESULT:      -3.5      9.254     10.127
REMARK  2 active torsions:
REMARK  status: ('A' for Active; 'I' for Inactive)
REMARK    1  A    between atoms: C2_2  and  C5_5 
REMARK    2  A    between atoms: C3_3  and  C6_6 
ROOT
HETATM    1  C1  UNL     1     -40.646  14.140   7.172  1.00 20.00     0.204 C 
HETATM    2  C2  UNL     1     -41.730  13.807   6.175  1.00 20.00     0.162 C 
HETATM    3  C3  UNL     1     -40.133  12.213   6.095  1.00 20.00     0.260 C 
HETATM    4  O7  UNL     1     -39.969  12.895   7.346  1.00 20.00    -0.359 OA
HETATM    5  O8  UNL     1     -41.064  12.925   5.269  1.00 20.00    -0.353 OA
ENDROOT
BRANCH   2   6
HETATM    6  C5  UNL     1     -42.281  15.010   5.439  1.00 20.00     0.148 C 
HETATM    7 CL9  UNL     1     -42.296  14.717   3.687  1.00 20.00    -0.128 Cl
ENDBRANCH   2   6
BRANCH   3   8
HETATM    8  C6  UNL     1     -38.799  12.115   5.380  1.00 20.00     0.056 C 
HETATM    9  C4  UNL     1     -38.955  11.679   3.956  1.00 20.00     0.010 C 
ENDBRANCH   3   8
TORSDOF 2
ENDMDL
MODEL 6
REMARK VINA RESULT:      -3.5      2.052      3.634
REMARK  2 active torsions:
REMARK  status: ('A' for Active; 'I' for Inactive)
REMARK    1  A    between atoms: C2_2  and  C5_5 
REMARK    2  A    between atoms: C3_3  and  C6_6 
ROOT
HETATM    1  C1  UNL     1     -33.396   8.206   5.184  1.00 20.00     0.204 C 
HETATM    2  C2  UNL     1     -33.363   6.799   4.639  1.00 20.00     0.162 C 
HETATM    3  C3  UNL     1     -32.228   8.162   3.243  1.00 20.00     0.260 C 
HETATM    4  O7  UNL     1     -32.320   8.848   4.500  1.00 20.00    -0.359 OA
HETATM    5  O8  UNL     1     -33.073   7.004   3.255  1.00 20.00    -0.353 OA
ENDROOT
BRANCH   2   6
HETATM    6  C5  UNL     1     -34.664   6.043   4.806  1.00 20.00     0.148 C 
HETATM    7 CL9  UNL     1     -34.764   5.322   6.427  1.00 20.00    -0.128 Cl
ENDBRANCH   2   6
BRANCH   3   8
HETATM    8  C6  UNL     1     -32.657   9.086   2.118  1.00 20.00     0.056 C 
HETATM    9  C4  UNL     1     -32.241   8.567   0.776  1.00 20.00     0.010 C 
ENDBRANCH   3   8
TORSDOF 2
ENDMDL
MODEL 7
REMARK VINA RESULT:      -3.4     11.832     12.455
REMARK  2 active torsions:
REMARK  status: ('A' for Active; 'I' for Inactive)
REMARK    1  A    between atoms: C2_2  and  C5_5 
REMARK    2  A    between atoms: C3_3  and  C6_6 
ROOT
HETATM    1  C1  UNL     1     -33.492  14.620  -4.490  1.00 20.00     0.204 C 
HETATM    2  C2  UNL     1     -34.378  15.601  -5.218  1.00 20.00     0.162 C 
HETATM    3  C3  UNL     1     -33.276  16.679  -3.569  1.00 20.00     0.260 C 
HETATM    4  O7  UNL     1     -32.558  15.462  -3.814  1.00 20.00    -0.359 OA
HETATM    5  O8  UNL     1     -34.529  16.657  -4.266  1.00 20.00    -0.353 OA
ENDROOT
BRANCH   2   6
HETATM    6  C5  UNL     1     -35.728  15.039  -5.609  1.00 20.00     0.148 C 
HETATM    7 CL9  UNL     1     -36.110  13.600  -4.640  1.00 20.00    -0.128 Cl
ENDBRANCH   2   6
BRANCH   3   8
HETATM    8  C6  UNL     1     -33.531  16.839  -2.082  1.00 20.00     0.056 C 
HETATM    9  C4  UNL     1     -32.674  17.907  -1.477  1.00 20.00     0.010 C 
ENDBRANCH   3   8
TORSDOF 2
ENDMDL
MODEL 8
REMARK VINA RESULT:      -3.4     15.578     16.229
REMARK  2 active torsions:
REMARK  status: ('A' for Active; 'I' for Inactive)
REMARK    1  A    between atoms: C2_2  and  C5_5 
REMARK    2  A    between atoms: C3_3  and  C6_6 
ROOT
HETATM    1  C1  UNL     1     -24.458  18.889   9.955  1.00 20.00     0.204 C 
HETATM    2  C2  UNL     1     -24.013  18.474  11.337  1.00 20.00     0.162 C 
HETATM    3  C3  UNL     1     -22.239  18.428   9.941  1.00 20.00     0.260 C 
HETATM    4  O7  UNL     1     -23.235  19.246   9.311  1.00 20.00    -0.359 OA
HETATM    5  O8  UNL     1     -22.803  17.759  11.077  1.00 20.00    -0.353 OA
ENDROOT
BRANCH   2   6
HETATM    6  C5  UNL     1     -25.006  17.595  12.066  1.00 20.00     0.148 C 
HETATM    7 CL9  UNL     1     -24.525  15.888  11.958  1.00 20.00    -0.128 Cl
ENDBRANCH   2   6
BRANCH   3   8
HETATM    8  C6  UNL     1     -21.720  17.397   8.957  1.00 20.00     0.056 C 
HETATM    9  C4  UNL     1     -21.405  18.002   7.623  1.00 20.00     0.010 C 
ENDBRANCH   3   8
TORSDOF 2
ENDMDL
MODEL 9
REMARK VINA RESULT:      -3.4     15.222     16.373
REMARK  2 active torsions:
REMARK  status: ('A' for Active; 'I' for Inactive)
REMARK    1  A    between atoms: C2_2  and  C5_5 
REMARK    2  A    between atoms: C3_3  and  C6_6 
ROOT
HETATM    1  C1  UNL     1     -21.367  18.487  10.107  1.00 20.00     0.204 C 
HETATM    2  C2  UNL     1     -22.580  19.147   9.497  1.00 20.00     0.162 C 
HETATM    3  C3  UNL     1     -23.066  18.505  11.606  1.00 20.00     0.260 C 
HETATM    4  O7  UNL     1     -21.635  18.540  11.508  1.00 20.00    -0.359 OA
HETATM    5  O8  UNL     1     -23.649  18.649  10.304  1.00 20.00    -0.353 OA
ENDROOT
BRANCH   2   6
HETATM    6  C5  UNL     1     -22.804  18.799   8.041  1.00 20.00     0.148 C 
HETATM    7 CL9  UNL     1     -21.445  17.842   7.413  1.00 20.00    -0.128 Cl
ENDBRANCH   2   6
BRANCH   3   8
HETATM    8  C6  UNL     1     -23.511  17.189  12.214  1.00 20.00     0.056 C 
HETATM    9  C4  UNL     1     -24.465  16.453  11.324  1.00 20.00     0.010 C 
ENDBRANCH   3   8
TORSDOF 2
ENDMDL
