MODEL 1
REMARK VINA RESULT:      -4.7      0.000      0.000
REMARK  5 active torsions:
REMARK  status: ('A' for Active; 'I' for Inactive)
REMARK    1  A    between atoms: C2_2  and  C5_5 
REMARK    2  A    between atoms: C5_5  and  C8_8 
REMARK    3  A    between atoms: C6_6  and  C7_7 
REMARK    4  A    between atoms: C7_7  and  C8_8 
REMARK    5  A    between atoms: C8_8  and  O9_9 
ROOT
HETATM    1  C1  UNL     1     -32.968   8.357   4.214  1.00 20.00    -0.111 C 
HETATM    2  C2  UNL     1     -33.449   7.861   5.197  1.00 20.00    -0.104 C 
HETATM    3  C3  UNL     1     -32.387   8.956   3.013  1.00 20.00     0.112 C 
ENDROOT
BRANCH   2   4
HETATM    4  C5  UNL     1     -34.034   7.253   6.402  1.00 20.00     0.125 C 
BRANCH   4   5
HETATM    5  C8  UNL     1     -34.742   5.922   6.118  1.00 20.00     0.129 C 
BRANCH   5   6
HETATM    6  C7  UNL     1     -34.969   5.586   4.639  1.00 20.00     0.032 C 
BRANCH   6   7
HETATM    7  C6  UNL     1     -34.010   4.529   4.096  1.00 20.00    -0.002 C 
HETATM    8  C4  UNL     1     -33.220   5.053   2.907  1.00 20.00     0.005 C 
ENDBRANCH   6   7
ENDBRANCH   5   6
BRANCH   5   9
HETATM    9  O9  UNL     1     -33.989   4.849   6.689  1.00 20.00    -0.395 OA
HETATM   10  H23 UNL     1     -33.525   4.421   5.955  1.00 20.00     0.210 HD
ENDBRANCH   5   9
ENDBRANCH   4   5
ENDBRANCH   2   4
TORSDOF 5
ENDMDL
MODEL 2
REMARK VINA RESULT:      -4.4      1.376      2.875
REMARK  5 active torsions:
REMARK  status: ('A' for Active; 'I' for Inactive)
REMARK    1  A    between atoms: C2_2  and  C5_5 
REMARK    2  A    between atoms: C5_5  and  C8_8 
REMARK    3  A    between atoms: C6_6  and  C7_7 
REMARK    4  A    between atoms: C7_7  and  C8_8 
REMARK    5  A    between atoms: C8_8  and  O9_9 
ROOT
HETATM    1  C1  UNL     1     -32.702   6.487   2.694  1.00 20.00    -0.111 C 
HETATM    2  C2  UNL     1     -33.216   5.559   3.259  1.00 20.00    -0.104 C 
HETATM    3  C3  UNL     1     -32.074   7.618   2.012  1.00 20.00     0.112 C 
ENDROOT
BRANCH   2   4
HETATM    4  C5  UNL     1     -33.848   4.425   3.950  1.00 20.00     0.125 C 
BRANCH   4   5
HETATM    5  C8  UNL     1     -34.792   4.861   5.077  1.00 20.00     0.129 C 
BRANCH   5   6
HETATM    6  C7  UNL     1     -34.122   5.474   6.313  1.00 20.00     0.032 C 
BRANCH   6   7
HETATM    7  C6  UNL     1     -34.405   6.965   6.486  1.00 20.00    -0.002 C 
HETATM    8  C4  UNL     1     -33.295   7.813   5.883  1.00 20.00     0.005 C 
ENDBRANCH   6   7
ENDBRANCH   5   6
BRANCH   5   9
HETATM    9  O9  UNL     1     -35.725   5.821   4.575  1.00 20.00    -0.395 OA
HETATM   10  H23 UNL     1     -35.933   5.551   3.669  1.00 20.00     0.210 HD
ENDBRANCH   5   9
ENDBRANCH   4   5
ENDBRANCH   2   4
TORSDOF 5
ENDMDL
MODEL 3
REMARK VINA RESULT:      -4.2      1.808      3.570
REMARK  5 active torsions:
REMARK  status: ('A' for Active; 'I' for Inactive)
REMARK    1  A    between atoms: C2_2  and  C5_5 
REMARK    2  A    between atoms: C5_5  and  C8_8 
REMARK    3  A    between atoms: C6_6  and  C7_7 
REMARK    4  A    between atoms: C7_7  and  C8_8 
REMARK    5  A    between atoms: C8_8  and  O9_9 
ROOT
HETATM    1  C1  UNL     1     -32.715   5.786   2.695  1.00 20.00    -0.111 C 
HETATM    2  C2  UNL     1     -32.566   6.949   2.960  1.00 20.00    -0.104 C 
HETATM    3  C3  UNL     1     -32.894   4.373   2.367  1.00 20.00     0.112 C 
ENDROOT
BRANCH   2   4
HETATM    4  C5  UNL     1     -32.387   8.373   3.284  1.00 20.00     0.125 C 
BRANCH   4   5
HETATM    5  C8  UNL     1     -33.004   8.763   4.633  1.00 20.00     0.129 C 
BRANCH   5   6
HETATM    6  C7  UNL     1     -34.171   7.890   5.113  1.00 20.00     0.032 C 
BRANCH   6   7
HETATM    7  C6  UNL     1     -33.817   6.993   6.298  1.00 20.00    -0.002 C 
HETATM    8  C4  UNL     1     -34.559   5.666   6.230  1.00 20.00     0.005 C 
ENDBRANCH   6   7
ENDBRANCH   5   6
BRANCH   5   9
HETATM    9  O9  UNL     1     -31.998   8.728   5.648  1.00 20.00    -0.395 OA
HETATM   10  H23 UNL     1     -32.264   9.375   6.317  1.00 20.00     0.210 HD
ENDBRANCH   5   9
ENDBRANCH   4   5
ENDBRANCH   2   4
TORSDOF 5
ENDMDL
MODEL 4
REMARK VINA RESULT:      -4.2      2.171      3.330
REMARK  5 active torsions:
REMARK  status: ('A' for Active; 'I' for Inactive)
REMARK    1  A    between atoms: C2_2  and  C5_5 
REMARK    2  A    between atoms: C5_5  and  C8_8 
REMARK    3  A    between atoms: C6_6  and  C7_7 
REMARK    4  A    between atoms: C7_7  and  C8_8 
REMARK    5  A    between atoms: C8_8  and  O9_9 
ROOT
HETATM    1  C1  UNL     1     -32.499   8.618   1.222  1.00 20.00    -0.111 C 
HETATM    2  C2  UNL     1     -32.325   8.156   2.317  1.00 20.00    -0.104 C 
HETATM    3  C3  UNL     1     -32.716   9.177  -0.111  1.00 20.00     0.112 C 
ENDROOT
BRANCH   2   4
HETATM    4  C5  UNL     1     -32.108   7.588   3.657  1.00 20.00     0.125 C 
BRANCH   4   5
HETATM    5  C8  UNL     1     -32.811   8.383   4.765  1.00 20.00     0.129 C 
BRANCH   5   6
HETATM    6  C7  UNL     1     -33.654   7.561   5.748  1.00 20.00     0.032 C 
BRANCH   6   7
HETATM    7  C6  UNL     1     -34.377   6.383   5.098  1.00 20.00    -0.002 C 
HETATM    8  C4  UNL     1     -34.703   5.300   6.116  1.00 20.00     0.005 C 
ENDBRANCH   6   7
ENDBRANCH   5   6
BRANCH   5   9
HETATM    9  O9  UNL     1     -31.838   9.098   5.531  1.00 20.00    -0.395 OA
HETATM   10  H23 UNL     1     -31.533   9.826   4.971  1.00 20.00     0.210 HD
ENDBRANCH   5   9
ENDBRANCH   4   5
ENDBRANCH   2   4
TORSDOF 5
ENDMDL
MODEL 5
REMARK VINA RESULT:      -4.1     12.278     13.244
REMARK  5 active torsions:
REMARK  status: ('A' for Active; 'I' for Inactive)
REMARK    1  A    between atoms: C2_2  and  C5_5 
REMARK    2  A    between atoms: C5_5  and  C8_8 
REMARK    3  A    between atoms: C6_6  and  C7_7 
REMARK    4  A    between atoms: C7_7  and  C8_8 
REMARK    5  A    between atoms: C8_8  and  O9_9 
ROOT
HETATM    1  C1  UNL     1     -33.354  16.511  -2.660  1.00 20.00    -0.111 C 
HETATM    2  C2  UNL     1     -33.545  15.614  -3.436  1.00 20.00    -0.104 C 
HETATM    3  C3  UNL     1     -33.121  17.599  -1.711  1.00 20.00     0.112 C 
ENDROOT
BRANCH   2   4
HETATM    4  C5  UNL     1     -33.784  14.517  -4.388  1.00 20.00     0.125 C 
BRANCH   4   5
HETATM    5  C8  UNL     1     -35.268  14.331  -4.728  1.00 20.00     0.129 C 
BRANCH   5   6
HETATM    6  C7  UNL     1     -35.672  14.669  -6.168  1.00 20.00     0.032 C 
BRANCH   6   7
HETATM    7  C6  UNL     1     -34.584  15.395  -6.955  1.00 20.00    -0.002 C 
HETATM    8  C4  UNL     1     -34.830  16.896  -6.988  1.00 20.00     0.005 C 
ENDBRANCH   6   7
ENDBRANCH   5   6
BRANCH   5   9
HETATM    9  O9  UNL     1     -35.648  12.974  -4.484  1.00 20.00    -0.395 OA
HETATM   10  H23 UNL     1     -35.205  12.442  -5.161  1.00 20.00     0.210 HD
ENDBRANCH   5   9
ENDBRANCH   4   5
ENDBRANCH   2   4
TORSDOF 5
ENDMDL
MODEL 6
REMARK VINA RESULT:      -4.1      2.253      3.685
REMARK  5 active torsions:
REMARK  status: ('A' for Active; 'I' for Inactive)
REMARK    1  A    between atoms: C2_2  and  C5_5 
REMARK    2  A    between atoms: C5_5  and  C8_8 
REMARK    3  A    between atoms: C6_6  and  C7_7 
REMARK    4  A    between atoms: C7_7  and  C8_8 
REMARK    5  A    between atoms: C8_8  and  O9_9 
ROOT
HETATM    1  C1  UNL     1     -34.178   6.524   5.946  1.00 20.00    -0.111 C 
HETATM    2  C2  UNL     1     -33.696   7.569   5.600  1.00 20.00    -0.104 C 
HETATM    3  C3  UNL     1     -34.770   5.255   6.365  1.00 20.00     0.112 C 
ENDROOT
BRANCH   2   4
HETATM    4  C5  UNL     1     -33.106   8.850   5.181  1.00 20.00     0.125 C 
BRANCH   4   5
HETATM    5  C8  UNL     1     -32.243   8.726   3.918  1.00 20.00     0.129 C 
BRANCH   5   6
HETATM    6  C7  UNL     1     -31.784   7.308   3.557  1.00 20.00     0.032 C 
BRANCH   6   7
HETATM    7  C6  UNL     1     -32.562   6.690   2.397  1.00 20.00    -0.002 C 
HETATM    8  C4  UNL     1     -32.937   5.244   2.689  1.00 20.00     0.005 C 
ENDBRANCH   6   7
ENDBRANCH   5   6
BRANCH   5   9
HETATM    9  O9  UNL     1     -32.962   9.242   2.795  1.00 20.00    -0.395 OA
HETATM   10  H23 UNL     1     -33.892   9.015   2.940  1.00 20.00     0.210 HD
ENDBRANCH   5   9
ENDBRANCH   4   5
ENDBRANCH   2   4
TORSDOF 5
ENDMDL
MODEL 7
REMARK VINA RESULT:      -4.0     12.241     13.128
REMARK  5 active torsions:
REMARK  status: ('A' for Active; 'I' for Inactive)
REMARK    1  A    between atoms: C2_2  and  C5_5 
REMARK    2  A    between atoms: C5_5  and  C8_8 
REMARK    3  A    between atoms: C6_6  and  C7_7 
REMARK    4  A    between atoms: C7_7  and  C8_8 
REMARK    5  A    between atoms: C8_8  and  O9_9 
ROOT
HETATM    1  C1  UNL     1     -33.589  17.176  -1.591  1.00 20.00    -0.111 C 
HETATM    2  C2  UNL     1     -33.363  16.644  -2.644  1.00 20.00    -0.104 C 
HETATM    3  C3  UNL     1     -33.860  17.820  -0.306  1.00 20.00     0.112 C 
ENDROOT
BRANCH   2   4
HETATM    4  C5  UNL     1     -33.089  15.991  -3.934  1.00 20.00     0.125 C 
BRANCH   4   5
HETATM    5  C8  UNL     1     -33.918  14.719  -4.150  1.00 20.00     0.129 C 
BRANCH   5   6
HETATM    6  C7  UNL     1     -35.018  14.810  -5.215  1.00 20.00     0.032 C 
BRANCH   6   7
HETATM    7  C6  UNL     1     -34.837  15.976  -6.184  1.00 20.00    -0.002 C 
HETATM    8  C4  UNL     1     -34.110  15.539  -7.447  1.00 20.00     0.005 C 
ENDBRANCH   6   7
ENDBRANCH   5   6
BRANCH   5   9
HETATM    9  O9  UNL     1     -33.054  13.641  -4.518  1.00 20.00    -0.395 OA
HETATM   10  H23 UNL     1     -33.628  12.883  -4.700  1.00 20.00     0.210 HD
ENDBRANCH   5   9
ENDBRANCH   4   5
ENDBRANCH   2   4
TORSDOF 5
ENDMDL
MODEL 8
REMARK VINA RESULT:      -3.8      1.073      3.195
REMARK  5 active torsions:
REMARK  status: ('A' for Active; 'I' for Inactive)
REMARK    1  A    between atoms: C2_2  and  C5_5 
REMARK    2  A    between atoms: C5_5  and  C8_8 
REMARK    3  A    between atoms: C6_6  and  C7_7 
REMARK    4  A    between atoms: C7_7  and  C8_8 
REMARK    5  A    between atoms: C8_8  and  O9_9 
ROOT
HETATM    1  C1  UNL     1     -33.523   4.989   3.160  1.00 20.00    -0.111 C 
HETATM    2  C2  UNL     1     -34.015   5.290   4.214  1.00 20.00    -0.104 C 
HETATM    3  C3  UNL     1     -32.924   4.629   1.876  1.00 20.00     0.112 C 
ENDROOT
BRANCH   2   4
HETATM    4  C5  UNL     1     -34.621   5.656   5.503  1.00 20.00     0.125 C 
BRANCH   4   5
HETATM    5  C8  UNL     1     -33.944   6.865   6.162  1.00 20.00     0.129 C 
BRANCH   5   6
HETATM    6  C7  UNL     1     -33.839   8.127   5.296  1.00 20.00     0.032 C 
BRANCH   6   7
HETATM    7  C6  UNL     1     -32.425   8.406   4.790  1.00 20.00    -0.002 C 
HETATM    8  C4  UNL     1     -32.395   8.542   3.275  1.00 20.00     0.005 C 
ENDBRANCH   6   7
ENDBRANCH   5   6
BRANCH   5   9
HETATM    9  O9  UNL     1     -34.652   7.220   7.352  1.00 20.00    -0.395 OA
HETATM   10  H23 UNL     1     -34.010   7.660   7.929  1.00 20.00     0.210 HD
ENDBRANCH   5   9
ENDBRANCH   4   5
ENDBRANCH   2   4
TORSDOF 5
ENDMDL
MODEL 9
REMARK VINA RESULT:      -3.7      1.369      2.689
REMARK  5 active torsions:
REMARK  status: ('A' for Active; 'I' for Inactive)
REMARK    1  A    between atoms: C2_2  and  C5_5 
REMARK    2  A    between atoms: C5_5  and  C8_8 
REMARK    3  A    between atoms: C6_6  and  C7_7 
REMARK    4  A    between atoms: C7_7  and  C8_8 
REMARK    5  A    between atoms: C8_8  and  O9_9 
ROOT
HETATM    1  C1  UNL     1     -32.519   7.984   3.527  1.00 20.00    -0.111 C 
HETATM    2  C2  UNL     1     -32.743   6.832   3.272  1.00 20.00    -0.104 C 
HETATM    3  C3  UNL     1     -32.245   9.385   3.843  1.00 20.00     0.112 C 
ENDROOT
BRANCH   2   4
HETATM    4  C5  UNL     1     -33.022   5.422   2.958  1.00 20.00     0.125 C 
BRANCH   4   5
HETATM    5  C8  UNL     1     -33.622   4.652   4.142  1.00 20.00     0.129 C 
BRANCH   5   6
HETATM    6  C7  UNL     1     -34.881   5.263   4.769  1.00 20.00     0.032 C 
BRANCH   6   7
HETATM    7  C6  UNL     1     -34.752   5.530   6.267  1.00 20.00    -0.002 C 
HETATM    8  C4  UNL     1     -34.201   6.922   6.537  1.00 20.00     0.005 C 
ENDBRANCH   6   7
ENDBRANCH   5   6
BRANCH   5   9
HETATM    9  O9  UNL     1     -33.951   3.323   3.731  1.00 20.00    -0.395 OA
HETATM   10  H23 UNL     1     -34.918   3.270   3.729  1.00 20.00     0.210 HD
ENDBRANCH   5   9
ENDBRANCH   4   5
ENDBRANCH   2   4
TORSDOF 5
ENDMDL
