MODEL 1
REMARK VINA RESULT:      -3.3      0.000      0.000
REMARK  0 active torsions:
REMARK  status: ('A' for Active; 'I' for Inactive)
ROOT
HETATM    1  C1  UNL     1     -34.691   5.451   6.218  1.00 20.00     0.148 A 
HETATM    2  C2  UNL     1     -34.034   5.247   3.958  1.00 20.00     0.148 A 
HETATM    3  C3  UNL     1     -34.219   6.692   6.388  1.00 20.00     0.074 A 
HETATM    4  C4  UNL     1     -33.486   6.463   3.862  1.00 20.00     0.074 A 
HETATM    5  O5  UNL     1     -34.630   4.706   5.068  1.00 20.00    -0.334 OA
HETATM    6  S6  UNL     1     -33.424   7.606   5.156  1.00 20.00    -0.110 SA
ENDROOT
TORSDOF 0
ENDMDL
MODEL 2
REMARK VINA RESULT:      -3.3      0.020      2.045
REMARK  0 active torsions:
REMARK  status: ('A' for Active; 'I' for Inactive)
ROOT
HETATM    1  C1  UNL     1     -34.058   5.247   3.969  1.00 20.00     0.148 A 
HETATM    2  C2  UNL     1     -34.689   5.461   6.236  1.00 20.00     0.148 A 
HETATM    3  C3  UNL     1     -33.501   6.459   3.865  1.00 20.00     0.074 A 
HETATM    4  C4  UNL     1     -34.207   6.697   6.398  1.00 20.00     0.074 A 
HETATM    5  O5  UNL     1     -34.645   4.712   5.088  1.00 20.00    -0.334 OA
HETATM    6  S6  UNL     1     -33.420   7.604   5.156  1.00 20.00    -0.110 SA
ENDROOT
TORSDOF 0
ENDMDL
MODEL 3
REMARK VINA RESULT:      -3.2      1.845      2.684
REMARK  0 active torsions:
REMARK  status: ('A' for Active; 'I' for Inactive)
ROOT
HETATM    1  C1  UNL     1     -33.653   5.799   3.626  1.00 20.00     0.148 A 
HETATM    2  C2  UNL     1     -33.229   7.611   5.080  1.00 20.00     0.148 A 
HETATM    3  C3  UNL     1     -34.349   5.073   4.509  1.00 20.00     0.074 A 
HETATM    4  C4  UNL     1     -33.874   7.099   6.133  1.00 20.00     0.074 A 
HETATM    5  O5  UNL     1     -33.090   7.030   3.846  1.00 20.00    -0.334 OA
HETATM    6  S6  UNL     1     -34.672   5.567   6.132  1.00 20.00    -0.110 SA
ENDROOT
TORSDOF 0
ENDMDL
MODEL 4
REMARK VINA RESULT:      -3.2      1.833      2.155
REMARK  0 active torsions:
REMARK  status: ('A' for Active; 'I' for Inactive)
ROOT
HETATM    1  C1  UNL     1     -33.227   7.597   5.097  1.00 20.00     0.148 A 
HETATM    2  C2  UNL     1     -33.652   5.758   3.677  1.00 20.00     0.148 A 
HETATM    3  C3  UNL     1     -33.868   7.102   6.161  1.00 20.00     0.074 A 
HETATM    4  C4  UNL     1     -34.343   5.046   4.573  1.00 20.00     0.074 A 
HETATM    5  O5  UNL     1     -33.089   6.993   3.873  1.00 20.00    -0.334 OA
HETATM    6  S6  UNL     1     -34.665   5.569   6.188  1.00 20.00    -0.110 SA
ENDROOT
TORSDOF 0
ENDMDL
MODEL 5
REMARK VINA RESULT:      -3.1      1.270      2.104
REMARK  0 active torsions:
REMARK  status: ('A' for Active; 'I' for Inactive)
ROOT
HETATM    1  C1  UNL     1     -33.147   6.822   3.823  1.00 20.00     0.148 A 
HETATM    2  C2  UNL     1     -34.388   4.947   4.545  1.00 20.00     0.148 A 
HETATM    3  C3  UNL     1     -33.258   7.510   4.965  1.00 20.00     0.074 A 
HETATM    4  C4  UNL     1     -34.645   5.413   5.771  1.00 20.00     0.074 A 
HETATM    5  O5  UNL     1     -33.670   5.581   3.563  1.00 20.00    -0.334 OA
HETATM    6  S6  UNL     1     -34.107   6.946   6.360  1.00 20.00    -0.110 SA
ENDROOT
TORSDOF 0
ENDMDL
MODEL 6
REMARK VINA RESULT:      -3.1      1.264      1.688
REMARK  0 active torsions:
REMARK  status: ('A' for Active; 'I' for Inactive)
ROOT
HETATM    1  C1  UNL     1     -34.407   4.949   4.555  1.00 20.00     0.148 A 
HETATM    2  C2  UNL     1     -33.168   6.820   3.817  1.00 20.00     0.148 A 
HETATM    3  C3  UNL     1     -34.651   5.421   5.783  1.00 20.00     0.074 A 
HETATM    4  C4  UNL     1     -33.266   7.511   4.956  1.00 20.00     0.074 A 
HETATM    5  O5  UNL     1     -33.698   5.580   3.564  1.00 20.00    -0.334 OA
HETATM    6  S6  UNL     1     -34.101   6.953   6.362  1.00 20.00    -0.110 SA
ENDROOT
TORSDOF 0
ENDMDL
MODEL 7
REMARK VINA RESULT:      -3.1      1.669      2.383
REMARK  0 active torsions:
REMARK  status: ('A' for Active; 'I' for Inactive)
ROOT
HETATM    1  C1  UNL     1     -33.606   7.562   5.626  1.00 20.00     0.148 A 
HETATM    2  C2  UNL     1     -34.705   5.549   6.194  1.00 20.00     0.148 A 
HETATM    3  C3  UNL     1     -33.304   7.205   4.372  1.00 20.00     0.074 A 
HETATM    4  C4  UNL     1     -34.531   4.956   5.009  1.00 20.00     0.074 A 
HETATM    5  O5  UNL     1     -34.281   6.804   6.549  1.00 20.00    -0.334 OA
HETATM    6  S6  UNL     1     -33.717   5.682   3.669  1.00 20.00    -0.110 SA
ENDROOT
TORSDOF 0
ENDMDL
MODEL 8
REMARK VINA RESULT:      -3.1      1.689      2.122
REMARK  0 active torsions:
REMARK  status: ('A' for Active; 'I' for Inactive)
ROOT
HETATM    1  C1  UNL     1     -34.718   5.610   6.202  1.00 20.00     0.148 A 
HETATM    2  C2  UNL     1     -33.582   7.589   5.593  1.00 20.00     0.148 A 
HETATM    3  C3  UNL     1     -34.550   4.987   5.030  1.00 20.00     0.074 A 
HETATM    4  C4  UNL     1     -33.281   7.200   4.350  1.00 20.00     0.074 A 
HETATM    5  O5  UNL     1     -34.273   6.865   6.531  1.00 20.00    -0.334 OA
HETATM    6  S6  UNL     1     -33.720   5.671   3.678  1.00 20.00    -0.110 SA
ENDROOT
TORSDOF 0
ENDMDL
MODEL 9
REMARK VINA RESULT:      -2.6     17.310     17.847
REMARK  0 active torsions:
REMARK  status: ('A' for Active; 'I' for Inactive)
ROOT
HETATM    1  C1  UNL     1     -22.368  18.675   9.905  1.00 20.00     0.148 A 
HETATM    2  C2  UNL     1     -22.483  18.409  12.249  1.00 20.00     0.148 A 
HETATM    3  C3  UNL     1     -23.690  18.707   9.704  1.00 20.00     0.074 A 
HETATM    4  C4  UNL     1     -23.817  18.410  12.324  1.00 20.00     0.074 A 
HETATM    5  O5  UNL     1     -21.728  18.534  11.111  1.00 20.00    -0.334 OA
HETATM    6  S6  UNL     1     -24.867  18.571  10.962  1.00 20.00    -0.110 SA
ENDROOT
TORSDOF 0
ENDMDL
