MODEL 1
REMARK VINA RESULT:      -4.3      0.000      0.000
REMARK  2 active torsions:
REMARK  status: ('A' for Active; 'I' for Inactive)
REMARK    1  A    between atoms: C5_5  and  C6_6 
REMARK    2  A    between atoms: C6_6  and  C7_7 
ROOT
HETATM    1  C1  UNL     1     -33.573   5.404   3.646  1.00 20.00     0.068 C 
HETATM    2  C3  UNL     1     -34.385   4.896   5.915  1.00 20.00     0.031 C 
HETATM    3  C4  UNL     1     -35.846   6.082   4.269  1.00 20.00     0.031 C 
HETATM    4  C7  UNL     1     -34.396   5.916   4.766  1.00 20.00     0.042 C 
HETATM    5  N8  UNL     1     -32.930   5.002   2.768  1.00 20.00    -0.196 NA
ENDROOT
BRANCH   4   6
HETATM    6  C6  UNL     1     -33.873   7.302   5.226  1.00 20.00     0.023 C 
BRANCH   6   7
HETATM    7  C5  UNL     1     -33.023   8.058   4.196  1.00 20.00    -0.003 C 
HETATM    8  C2  UNL     1     -32.156   9.114   4.865  1.00 20.00     0.005 C 
ENDBRANCH   6   7
ENDBRANCH   4   6
TORSDOF 2
ENDMDL
MODEL 2
REMARK VINA RESULT:      -3.9      9.166      9.944
REMARK  2 active torsions:
REMARK  status: ('A' for Active; 'I' for Inactive)
REMARK    1  A    between atoms: C5_5  and  C6_6 
REMARK    2  A    between atoms: C6_6  and  C7_7 
ROOT
HETATM    1  C1  UNL     1     -41.593  13.720   4.930  1.00 20.00     0.068 C 
HETATM    2  C3  UNL     1     -42.535  12.638   6.932  1.00 20.00     0.031 C 
HETATM    3  C4  UNL     1     -40.498  14.080   7.094  1.00 20.00     0.031 C 
HETATM    4  C7  UNL     1     -41.245  13.062   6.211  1.00 20.00     0.042 C 
HETATM    5  N8  UNL     1     -41.865  14.237   3.928  1.00 20.00    -0.196 NA
ENDROOT
BRANCH   4   6
HETATM    6  C6  UNL     1     -40.308  11.853   5.955  1.00 20.00     0.023 C 
BRANCH   6   7
HETATM    7  C5  UNL     1     -38.959  12.193   5.309  1.00 20.00    -0.003 C 
HETATM    8  C2  UNL     1     -38.862  11.621   3.902  1.00 20.00     0.005 C 
ENDBRANCH   6   7
ENDBRANCH   4   6
TORSDOF 2
ENDMDL
MODEL 3
REMARK VINA RESULT:      -3.8      1.142      1.142
REMARK  2 active torsions:
REMARK  status: ('A' for Active; 'I' for Inactive)
REMARK    1  A    between atoms: C5_5  and  C6_6 
REMARK    2  A    between atoms: C6_6  and  C7_7 
ROOT
HETATM    1  C1  UNL     1     -34.062   4.587   4.522  1.00 20.00     0.068 C 
HETATM    2  C3  UNL     1     -34.653   6.037   6.422  1.00 20.00     0.031 C 
HETATM    3  C4  UNL     1     -35.918   6.169   4.269  1.00 20.00     0.031 C 
HETATM    4  C7  UNL     1     -34.527   5.943   4.893  1.00 20.00     0.042 C 
HETATM    5  N8  UNL     1     -33.700   3.524   4.230  1.00 20.00    -0.196 NA
ENDROOT
BRANCH   4   6
HETATM    6  C6  UNL     1     -33.557   7.015   4.332  1.00 20.00     0.023 C 
BRANCH   6   7
HETATM    7  C5  UNL     1     -33.384   8.266   5.203  1.00 20.00    -0.003 C 
HETATM    8  C2  UNL     1     -32.163   9.069   4.779  1.00 20.00     0.005 C 
ENDBRANCH   6   7
ENDBRANCH   4   6
TORSDOF 2
ENDMDL
MODEL 4
REMARK VINA RESULT:      -3.8     12.369     13.471
REMARK  2 active torsions:
REMARK  status: ('A' for Active; 'I' for Inactive)
REMARK    1  A    between atoms: C5_5  and  C6_6 
REMARK    2  A    between atoms: C6_6  and  C7_7 
ROOT
HETATM    1  C1  UNL     1     -31.736  18.455  -0.906  1.00 20.00     0.068 C 
HETATM    2  C3  UNL     1     -33.048  19.263  -2.826  1.00 20.00     0.031 C 
HETATM    3  C4  UNL     1     -34.149  18.790  -0.632  1.00 20.00     0.031 C 
HETATM    4  C7  UNL     1     -33.039  18.337  -1.600  1.00 20.00     0.042 C 
HETATM    5  N8  UNL     1     -30.716  18.549  -0.361  1.00 20.00    -0.196 NA
ENDROOT
BRANCH   4   6
HETATM    6  C6  UNL     1     -33.304  16.860  -1.994  1.00 20.00     0.023 C 
BRANCH   6   7
HETATM    7  C5  UNL     1     -33.291  16.571  -3.501  1.00 20.00    -0.003 C 
HETATM    8  C2  UNL     1     -33.727  15.142  -3.791  1.00 20.00     0.005 C 
ENDBRANCH   6   7
ENDBRANCH   4   6
TORSDOF 2
ENDMDL
MODEL 5
REMARK VINA RESULT:      -3.7      9.192     10.001
REMARK  2 active torsions:
REMARK  status: ('A' for Active; 'I' for Inactive)
REMARK    1  A    between atoms: C5_5  and  C6_6 
REMARK    2  A    between atoms: C6_6  and  C7_7 
ROOT
HETATM    1  C1  UNL     1     -40.696  13.624   7.589  1.00 20.00     0.068 C 
HETATM    2  C3  UNL     1     -41.598  13.923   5.317  1.00 20.00     0.031 C 
HETATM    3  C4  UNL     1     -42.652  12.310   6.911  1.00 20.00     0.031 C 
HETATM    4  C7  UNL     1     -41.314  12.917   6.444  1.00 20.00     0.042 C 
HETATM    5  N8  UNL     1     -40.213  14.178   8.487  1.00 20.00    -0.196 NA
ENDROOT
BRANCH   4   6
HETATM    6  C6  UNL     1     -40.393  11.764   5.965  1.00 20.00     0.023 C 
BRANCH   6   7
HETATM    7  C5  UNL     1     -39.055  12.203   5.355  1.00 20.00    -0.003 C 
HETATM    8  C2  UNL     1     -38.896  11.674   3.937  1.00 20.00     0.005 C 
ENDBRANCH   6   7
ENDBRANCH   4   6
TORSDOF 2
ENDMDL
MODEL 6
REMARK VINA RESULT:      -3.7     15.689     16.630
REMARK  2 active torsions:
REMARK  status: ('A' for Active; 'I' for Inactive)
REMARK    1  A    between atoms: C5_5  and  C6_6 
REMARK    2  A    between atoms: C6_6  and  C7_7 
ROOT
HETATM    1  C1  UNL     1     -22.269  17.443   8.655  1.00 20.00     0.068 C 
HETATM    2  C3  UNL     1     -23.872  19.170   9.371  1.00 20.00     0.031 C 
HETATM    3  C4  UNL     1     -22.033  18.421  10.891  1.00 20.00     0.031 C 
HETATM    4  C7  UNL     1     -23.034  17.960   9.813  1.00 20.00     0.042 C 
HETATM    5  N8  UNL     1     -21.668  17.038   7.749  1.00 20.00    -0.196 NA
ENDROOT
BRANCH   4   6
HETATM    6  C6  UNL     1     -23.920  16.838  10.415  1.00 20.00     0.023 C 
BRANCH   6   7
HETATM    7  C5  UNL     1     -24.088  16.880  11.940  1.00 20.00    -0.003 C 
HETATM    8  C2  UNL     1     -25.435  17.471  12.329  1.00 20.00     0.005 C 
ENDBRANCH   6   7
ENDBRANCH   4   6
TORSDOF 2
ENDMDL
MODEL 7
REMARK VINA RESULT:      -3.7      9.220      9.992
REMARK  2 active torsions:
REMARK  status: ('A' for Active; 'I' for Inactive)
REMARK    1  A    between atoms: C5_5  and  C6_6 
REMARK    2  A    between atoms: C6_6  and  C7_7 
ROOT
HETATM    1  C1  UNL     1     -42.427  12.466   6.973  1.00 20.00     0.068 C 
HETATM    2  C3  UNL     1     -40.461  13.893   7.379  1.00 20.00     0.031 C 
HETATM    3  C4  UNL     1     -41.523  13.790   5.118  1.00 20.00     0.031 C 
HETATM    4  C7  UNL     1     -41.169  12.970   6.375  1.00 20.00     0.042 C 
HETATM    5  N8  UNL     1     -43.413  12.073   7.441  1.00 20.00    -0.196 NA
ENDROOT
BRANCH   4   6
HETATM    6  C6  UNL     1     -40.265  11.784   5.949  1.00 20.00     0.023 C 
BRANCH   6   7
HETATM    7  C5  UNL     1     -38.940  12.175   5.280  1.00 20.00    -0.003 C 
HETATM    8  C2  UNL     1     -38.867  11.649   3.854  1.00 20.00     0.005 C 
ENDBRANCH   6   7
ENDBRANCH   4   6
TORSDOF 2
ENDMDL
MODEL 8
REMARK VINA RESULT:      -3.7     12.527     13.218
REMARK  2 active torsions:
REMARK  status: ('A' for Active; 'I' for Inactive)
REMARK    1  A    between atoms: C5_5  and  C6_6 
REMARK    2  A    between atoms: C6_6  and  C7_7 
ROOT
HETATM    1  C1  UNL     1     -34.130  15.164  -6.540  1.00 20.00     0.068 C 
HETATM    2  C3  UNL     1     -35.887  14.172  -5.128  1.00 20.00     0.031 C 
HETATM    3  C4  UNL     1     -35.532  16.647  -5.181  1.00 20.00     0.031 C 
HETATM    4  C7  UNL     1     -34.825  15.278  -5.237  1.00 20.00     0.042 C 
HETATM    5  N8  UNL     1     -33.586  15.076  -7.561  1.00 20.00    -0.196 NA
ENDROOT
BRANCH   4   6
HETATM    6  C6  UNL     1     -33.801  15.207  -4.075  1.00 20.00     0.023 C 
BRANCH   6   7
HETATM    7  C5  UNL     1     -33.256  16.559  -3.595  1.00 20.00    -0.003 C 
HETATM    8  C2  UNL     1     -33.483  16.746  -2.102  1.00 20.00     0.005 C 
ENDBRANCH   6   7
ENDBRANCH   4   6
TORSDOF 2
ENDMDL
MODEL 9
REMARK VINA RESULT:      -3.6      1.281      3.211
REMARK  2 active torsions:
REMARK  status: ('A' for Active; 'I' for Inactive)
REMARK    1  A    between atoms: C5_5  and  C6_6 
REMARK    2  A    between atoms: C6_6  and  C7_7 
ROOT
HETATM    1  C1  UNL     1     -32.816   6.912   3.639  1.00 20.00     0.068 C 
HETATM    2  C3  UNL     1     -34.547   8.471   4.437  1.00 20.00     0.031 C 
HETATM    3  C4  UNL     1     -32.124   8.929   4.850  1.00 20.00     0.031 C 
HETATM    4  C7  UNL     1     -33.191   7.820   4.748  1.00 20.00     0.042 C 
HETATM    5  N8  UNL     1     -32.522   6.202   2.771  1.00 20.00    -0.196 NA
ENDROOT
BRANCH   4   6
HETATM    6  C6  UNL     1     -33.222   7.044   6.090  1.00 20.00     0.023 C 
BRANCH   6   7
HETATM    7  C5  UNL     1     -34.557   6.365   6.426  1.00 20.00    -0.003 C 
HETATM    8  C2  UNL     1     -34.631   4.970   5.824  1.00 20.00     0.005 C 
ENDBRANCH   6   7
ENDBRANCH   4   6
TORSDOF 2
ENDMDL
