MODEL 1
REMARK VINA RESULT:      -4.3      0.000      0.000
REMARK  1 active torsions:
REMARK  status: ('A' for Active; 'I' for Inactive)
REMARK    1  A    between atoms: C2_2  and  C7_7 
ROOT
HETATM    1  C3  UNL     1     -33.534   8.346   4.638  1.00 20.00     0.034 C 
HETATM    2  C4  UNL     1     -34.297   6.105   3.741  1.00 20.00     0.034 C 
HETATM    3  C5  UNL     1     -32.149   7.993   4.107  1.00 20.00     0.168 C 
HETATM    4  C6  UNL     1     -32.860   5.899   3.273  1.00 20.00     0.168 C 
HETATM    5  C7  UNL     1     -34.400   7.115   4.879  1.00 20.00     0.011 C 
HETATM    6  O8  UNL     1     -32.244   7.147   2.963  1.00 20.00    -0.391 OA
ENDROOT
BRANCH   5   7
HETATM    7  C2  UNL     1     -33.974   6.446   6.176  1.00 20.00    -0.032 C 
HETATM    8  C1  UNL     1     -34.419   5.253   6.583  1.00 20.00     0.007 C 
ENDBRANCH   5   7
TORSDOF 1
ENDMDL
MODEL 2
REMARK VINA RESULT:      -4.3      1.849      3.373
REMARK  1 active torsions:
REMARK  status: ('A' for Active; 'I' for Inactive)
REMARK    1  A    between atoms: C2_2  and  C7_7 
ROOT
HETATM    1  C3  UNL     1     -35.105   5.739   4.551  1.00 20.00     0.034 C 
HETATM    2  C4  UNL     1     -33.815   7.869   4.998  1.00 20.00     0.034 C 
HETATM    3  C5  UNL     1     -34.646   5.270   5.928  1.00 20.00     0.168 C 
HETATM    4  C6  UNL     1     -33.438   7.259   6.345  1.00 20.00     0.168 C 
HETATM    5  C7  UNL     1     -34.198   6.816   3.967  1.00 20.00     0.011 C 
HETATM    6  O8  UNL     1     -34.461   6.379   6.805  1.00 20.00    -0.391 OA
ENDROOT
BRANCH   5   7
HETATM    7  C2  UNL     1     -32.933   6.168   3.425  1.00 20.00    -0.032 C 
HETATM    8  C1  UNL     1     -32.926   5.132   2.581  1.00 20.00     0.007 C 
ENDBRANCH   5   7
TORSDOF 1
ENDMDL
MODEL 3
REMARK VINA RESULT:      -4.3      1.790      3.258
REMARK  1 active torsions:
REMARK  status: ('A' for Active; 'I' for Inactive)
REMARK    1  A    between atoms: C2_2  and  C7_7 
ROOT
HETATM    1  C3  UNL     1     -34.769   6.449   4.049  1.00 20.00     0.034 C 
HETATM    2  C4  UNL     1     -34.318   6.849   6.507  1.00 20.00     0.034 C 
HETATM    3  C5  UNL     1     -34.317   5.012   4.285  1.00 20.00     0.168 C 
HETATM    4  C6  UNL     1     -33.892   5.386   6.580  1.00 20.00     0.168 C 
HETATM    5  C7  UNL     1     -34.223   7.414   5.095  1.00 20.00     0.011 C 
HETATM    6  O8  UNL     1     -34.601   4.604   5.622  1.00 20.00    -0.391 OA
ENDROOT
BRANCH   5   7
HETATM    7  C2  UNL     1     -32.768   7.725   4.781  1.00 20.00    -0.032 C 
HETATM    8  C1  UNL     1     -32.305   7.976   3.553  1.00 20.00     0.007 C 
ENDBRANCH   5   7
TORSDOF 1
ENDMDL
MODEL 4
REMARK VINA RESULT:      -3.6     15.583     16.432
REMARK  1 active torsions:
REMARK  status: ('A' for Active; 'I' for Inactive)
REMARK    1  A    between atoms: C2_2  and  C7_7 
ROOT
HETATM    1  C3  UNL     1     -24.334  18.129   9.672  1.00 20.00     0.034 C 
HETATM    2  C4  UNL     1     -22.111  17.223   8.870  1.00 20.00     0.034 C 
HETATM    3  C5  UNL     1     -24.142  19.258   8.665  1.00 20.00     0.168 C 
HETATM    4  C6  UNL     1     -22.064  18.415   7.919  1.00 20.00     0.168 C 
HETATM    5  C7  UNL     1     -23.018  17.469  10.069  1.00 20.00     0.011 C 
HETATM    6  O8  UNL     1     -23.380  18.815   7.544  1.00 20.00    -0.391 OA
ENDROOT
BRANCH   5   7
HETATM    7  C2  UNL     1     -22.292  18.357  11.067  1.00 20.00    -0.032 C 
HETATM    8  C1  UNL     1     -22.730  18.604  12.306  1.00 20.00     0.007 C 
ENDBRANCH   5   7
TORSDOF 1
ENDMDL
MODEL 5
REMARK VINA RESULT:      -3.5      9.025      9.708
REMARK  1 active torsions:
REMARK  status: ('A' for Active; 'I' for Inactive)
REMARK    1  A    between atoms: C2_2  and  C7_7 
ROOT
HETATM    1  C3  UNL     1     -42.565   8.121  -0.268  1.00 20.00     0.034 C 
HETATM    2  C4  UNL     1     -42.423   5.605  -0.501  1.00 20.00     0.034 C 
HETATM    3  C5  UNL     1     -41.043   8.114  -0.162  1.00 20.00     0.168 C 
HETATM    4  C6  UNL     1     -40.911   5.764  -0.377  1.00 20.00     0.168 C 
HETATM    5  C7  UNL     1     -43.184   6.779   0.104  1.00 20.00     0.011 C 
HETATM    6  O8  UNL     1     -40.490   7.023  -0.895  1.00 20.00    -0.391 OA
ENDROOT
BRANCH   5   7
HETATM    7  C2  UNL     1     -43.199   6.633   1.618  1.00 20.00    -0.032 C 
HETATM    8  C1  UNL     1     -43.415   5.479   2.256  1.00 20.00     0.007 C 
ENDBRANCH   5   7
TORSDOF 1
ENDMDL
MODEL 6
REMARK VINA RESULT:      -3.4      1.771      3.473
REMARK  1 active torsions:
REMARK  status: ('A' for Active; 'I' for Inactive)
REMARK    1  A    between atoms: C2_2  and  C7_7 
ROOT
HETATM    1  C3  UNL     1     -32.238   8.370   4.609  1.00 20.00     0.034 C 
HETATM    2  C4  UNL     1     -32.610   6.338   3.147  1.00 20.00     0.034 C 
HETATM    3  C5  UNL     1     -33.612   8.087   5.208  1.00 20.00     0.168 C 
HETATM    4  C6  UNL     1     -33.961   6.191   3.840  1.00 20.00     0.168 C 
HETATM    5  C7  UNL     1     -32.067   7.760   3.223  1.00 20.00     0.011 C 
HETATM    6  O8  UNL     1     -33.903   6.692   5.174  1.00 20.00    -0.391 OA
ENDROOT
BRANCH   5   7
HETATM    7  C2  UNL     1     -32.790   8.622   2.200  1.00 20.00    -0.032 C 
HETATM    8  C1  UNL     1     -32.418   8.735   0.921  1.00 20.00     0.007 C 
ENDBRANCH   5   7
TORSDOF 1
ENDMDL
MODEL 7
REMARK VINA RESULT:      -3.4     11.990     13.090
REMARK  1 active torsions:
REMARK  status: ('A' for Active; 'I' for Inactive)
REMARK    1  A    between atoms: C2_2  and  C7_7 
ROOT
HETATM    1  C3  UNL     1     -34.915  13.945  -4.442  1.00 20.00     0.034 C 
HETATM    2  C4  UNL     1     -33.717  15.088  -6.356  1.00 20.00     0.034 C 
HETATM    3  C5  UNL     1     -36.215  14.282  -5.164  1.00 20.00     0.168 C 
HETATM    4  C6  UNL     1     -35.097  15.353  -6.950  1.00 20.00     0.168 C 
HETATM    5  C7  UNL     1     -33.764  14.858  -4.850  1.00 20.00     0.011 C 
HETATM    6  O8  UNL     1     -36.015  14.328  -6.575  1.00 20.00    -0.391 OA
ENDROOT
BRANCH   5   7
HETATM    7  C2  UNL     1     -33.912  16.199  -4.148  1.00 20.00    -0.032 C 
HETATM    8  C1  UNL     1     -33.400  16.473  -2.944  1.00 20.00     0.007 C 
ENDBRANCH   5   7
TORSDOF 1
ENDMDL
MODEL 8
REMARK VINA RESULT:      -3.4     15.944     16.662
REMARK  1 active torsions:
REMARK  status: ('A' for Active; 'I' for Inactive)
REMARK    1  A    between atoms: C2_2  and  C7_7 
ROOT
HETATM    1  C3  UNL     1     -23.662  17.902   9.755  1.00 20.00     0.034 C 
HETATM    2  C4  UNL     1     -23.494  17.458  12.241  1.00 20.00     0.034 C 
HETATM    3  C5  UNL     1     -22.505  18.879   9.935  1.00 20.00     0.168 C 
HETATM    4  C6  UNL     1     -22.350  18.467  12.258  1.00 20.00     0.168 C 
HETATM    5  C7  UNL     1     -24.426  17.653  11.051  1.00 20.00     0.011 C 
HETATM    6  O8  UNL     1     -21.660  18.471  11.010  1.00 20.00    -0.391 OA
ENDROOT
BRANCH   5   7
HETATM    7  C2  UNL     1     -25.345  18.832  11.328  1.00 20.00    -0.032 C 
HETATM    8  C1  UNL     1     -26.229  18.872  12.331  1.00 20.00     0.007 C 
ENDBRANCH   5   7
TORSDOF 1
ENDMDL
MODEL 9
REMARK VINA RESULT:      -3.3     12.114     12.889
REMARK  1 active torsions:
REMARK  status: ('A' for Active; 'I' for Inactive)
REMARK    1  A    between atoms: C2_2  and  C7_7 
ROOT
HETATM    1  C3  UNL     1     -33.037  15.160  -4.082  1.00 20.00     0.034 C 
HETATM    2  C4  UNL     1     -34.018  17.465  -4.446  1.00 20.00     0.034 C 
HETATM    3  C5  UNL     1     -34.396  14.607  -4.499  1.00 20.00     0.168 C 
HETATM    4  C6  UNL     1     -35.313  16.759  -4.837  1.00 20.00     0.168 C 
HETATM    5  C7  UNL     1     -33.120  16.596  -3.574  1.00 20.00     0.011 C 
HETATM    6  O8  UNL     1     -35.041  15.487  -5.418  1.00 20.00    -0.391 OA
ENDROOT
BRANCH   5   7
HETATM    7  C2  UNL     1     -33.659  16.596  -2.152  1.00 20.00    -0.032 C 
HETATM    8  C1  UNL     1     -33.438  17.576  -1.270  1.00 20.00     0.007 C 
ENDBRANCH   5   7
TORSDOF 1
ENDMDL
