MODEL 1
REMARK VINA RESULT:      -3.6      0.000      0.000
REMARK  3 active torsions:
REMARK  status: ('A' for Active; 'I' for Inactive)
REMARK    1  A    between atoms: C1_1  and  C3_3 
REMARK    2  A    between atoms: C2_2  and  C3_3 
REMARK    3  A    between atoms: C2_2  and  S6_6 
ROOT
HETATM    1  C3  UNL     1     -34.139   6.491   4.547  1.00 20.00     0.192 C 
HETATM    2 CL7  UNL     1     -33.019   6.056   3.212  1.00 20.00    -0.113 Cl
ENDROOT
BRANCH   1   3
HETATM    3  C1  UNL     1     -34.467   5.159   5.242  1.00 20.00     0.192 C 
HETATM    4  O4  UNL     1     -34.891   5.276   6.428  1.00 20.00    -0.647 OA
HETATM    5  O5  UNL     1     -34.276   4.114   4.559  1.00 20.00    -0.647 OA
ENDBRANCH   1   3
BRANCH   1   6
HETATM    6  C2  UNL     1     -33.478   7.568   5.400  1.00 20.00     0.102 C 
BRANCH   6   7
HETATM    7  S6  UNL     1     -32.315   8.567   4.418  1.00 20.00    -0.180 SA
HETATM    8  H11 UNL     1     -31.455   7.571   4.169  1.00 20.00     0.101 HD
ENDBRANCH   6   7
ENDBRANCH   1   6
TORSDOF 3
ENDMDL
MODEL 2
REMARK VINA RESULT:      -3.6      0.022      1.221
REMARK  3 active torsions:
REMARK  status: ('A' for Active; 'I' for Inactive)
REMARK    1  A    between atoms: C1_1  and  C3_3 
REMARK    2  A    between atoms: C2_2  and  C3_3 
REMARK    3  A    between atoms: C2_2  and  S6_6 
ROOT
HETATM    1  C3  UNL     1     -34.143   6.493   4.553  1.00 20.00     0.192 C 
HETATM    2 CL7  UNL     1     -33.027   6.038   3.220  1.00 20.00    -0.113 Cl
ENDROOT
BRANCH   1   3
HETATM    3  C1  UNL     1     -34.474   5.171   5.264  1.00 20.00     0.192 C 
HETATM    4  O4  UNL     1     -34.290   4.136   4.561  1.00 20.00    -0.647 OA
HETATM    5  O5  UNL     1     -34.889   5.267   6.453  1.00 20.00    -0.647 OA
ENDBRANCH   1   3
BRANCH   1   6
HETATM    6  C2  UNL     1     -33.475   7.578   5.391  1.00 20.00     0.102 C 
BRANCH   6   7
HETATM    7  S6  UNL     1     -32.310   8.560   4.394  1.00 20.00    -0.180 SA
HETATM    8  H11 UNL     1     -31.628   9.058   5.433  1.00 20.00     0.101 HD
ENDBRANCH   6   7
ENDBRANCH   1   6
TORSDOF 3
ENDMDL
MODEL 3
REMARK VINA RESULT:      -3.4      1.936      1.938
REMARK  3 active torsions:
REMARK  status: ('A' for Active; 'I' for Inactive)
REMARK    1  A    between atoms: C1_1  and  C3_3 
REMARK    2  A    between atoms: C2_2  and  C3_3 
REMARK    3  A    between atoms: C2_2  and  S6_6 
ROOT
HETATM    1  C3  UNL     1     -33.732   6.490   5.251  1.00 20.00     0.192 C 
HETATM    2 CL7  UNL     1     -34.440   6.888   6.854  1.00 20.00    -0.113 Cl
ENDROOT
BRANCH   1   3
HETATM    3  C1  UNL     1     -34.697   5.466   4.633  1.00 20.00     0.192 C 
HETATM    4  O4  UNL     1     -35.823   5.938   4.301  1.00 20.00    -0.647 OA
HETATM    5  O5  UNL     1     -34.263   4.284   4.530  1.00 20.00    -0.647 OA
ENDBRANCH   1   3
BRANCH   1   6
HETATM    6  C2  UNL     1     -33.521   7.789   4.482  1.00 20.00     0.102 C 
BRANCH   6   7
HETATM    7  S6  UNL     1     -32.222   7.606   3.219  1.00 20.00    -0.180 SA
HETATM    8  H11 UNL     1     -32.024   8.918   3.036  1.00 20.00     0.101 HD
ENDBRANCH   6   7
ENDBRANCH   1   6
TORSDOF 3
ENDMDL
MODEL 4
REMARK VINA RESULT:      -3.2      3.364      3.847
REMARK  3 active torsions:
REMARK  status: ('A' for Active; 'I' for Inactive)
REMARK    1  A    between atoms: C1_1  and  C3_3 
REMARK    2  A    between atoms: C2_2  and  C3_3 
REMARK    3  A    between atoms: C2_2  and  S6_6 
ROOT
HETATM    1  C3  UNL     1     -33.901   7.418   4.627  1.00 20.00     0.192 C 
HETATM    2 CL7  UNL     1     -33.884   7.590   6.416  1.00 20.00    -0.113 Cl
ENDROOT
BRANCH   1   3
HETATM    3  C1  UNL     1     -32.571   8.029   4.156  1.00 20.00     0.192 C 
HETATM    4  O4  UNL     1     -32.035   7.428   3.180  1.00 20.00    -0.647 OA
HETATM    5  O5  UNL     1     -32.169   9.044   4.790  1.00 20.00    -0.647 OA
ENDBRANCH   1   3
BRANCH   1   6
HETATM    6  C2  UNL     1     -34.147   5.953   4.286  1.00 20.00     0.102 C 
BRANCH   6   7
HETATM    7  S6  UNL     1     -34.635   5.004   5.761  1.00 20.00    -0.180 SA
HETATM    8  H11 UNL     1     -35.420   4.135   5.110  1.00 20.00     0.101 HD
ENDBRANCH   6   7
ENDBRANCH   1   6
TORSDOF 3
ENDMDL
MODEL 5
REMARK VINA RESULT:      -3.2      3.346      3.634
REMARK  3 active torsions:
REMARK  status: ('A' for Active; 'I' for Inactive)
REMARK    1  A    between atoms: C1_1  and  C3_3 
REMARK    2  A    between atoms: C2_2  and  C3_3 
REMARK    3  A    between atoms: C2_2  and  S6_6 
ROOT
HETATM    1  C3  UNL     1     -33.918   7.388   4.599  1.00 20.00     0.192 C 
HETATM    2 CL7  UNL     1     -33.921   7.642   6.378  1.00 20.00    -0.113 Cl
ENDROOT
BRANCH   1   3
HETATM    3  C1  UNL     1     -32.572   7.953   4.118  1.00 20.00     0.192 C 
HETATM    4  O4  UNL     1     -32.140   8.931   4.795  1.00 20.00    -0.647 OA
HETATM    5  O5  UNL     1     -32.058   7.388   3.113  1.00 20.00    -0.647 OA
ENDBRANCH   1   3
BRANCH   1   6
HETATM    6  C2  UNL     1     -34.185   5.913   4.322  1.00 20.00     0.102 C 
BRANCH   6   7
HETATM    7  S6  UNL     1     -34.594   5.016   5.853  1.00 20.00    -0.180 SA
HETATM    8  H11 UNL     1     -33.670   4.058   5.700  1.00 20.00     0.101 HD
ENDBRANCH   6   7
ENDBRANCH   1   6
TORSDOF 3
ENDMDL
MODEL 6
REMARK VINA RESULT:      -3.1      1.283      1.786
REMARK  3 active torsions:
REMARK  status: ('A' for Active; 'I' for Inactive)
REMARK    1  A    between atoms: C1_1  and  C3_3 
REMARK    2  A    between atoms: C2_2  and  C3_3 
REMARK    3  A    between atoms: C2_2  and  S6_6 
ROOT
HETATM    1  C3  UNL     1     -34.179   6.719   4.631  1.00 20.00     0.192 C 
HETATM    2 CL7  UNL     1     -33.760   5.275   3.647  1.00 20.00    -0.113 Cl
ENDROOT
BRANCH   1   3
HETATM    3  C1  UNL     1     -34.422   6.177   6.049  1.00 20.00     0.192 C 
HETATM    4  O4  UNL     1     -34.557   4.921   6.116  1.00 20.00    -0.647 OA
HETATM    5  O5  UNL     1     -34.462   7.037   6.974  1.00 20.00    -0.647 OA
ENDBRANCH   1   3
BRANCH   1   6
HETATM    6  C2  UNL     1     -33.069   7.751   4.468  1.00 20.00     0.102 C 
BRANCH   6   7
HETATM    7  S6  UNL     1     -32.129   7.474   2.934  1.00 20.00    -0.180 SA
HETATM    8  H11 UNL     1     -32.982   8.123   2.132  1.00 20.00     0.101 HD
ENDBRANCH   6   7
ENDBRANCH   1   6
TORSDOF 3
ENDMDL
MODEL 7
REMARK VINA RESULT:      -3.1      3.099      3.566
REMARK  3 active torsions:
REMARK  status: ('A' for Active; 'I' for Inactive)
REMARK    1  A    between atoms: C1_1  and  C3_3 
REMARK    2  A    between atoms: C2_2  and  C3_3 
REMARK    3  A    between atoms: C2_2  and  S6_6 
ROOT
HETATM    1  C3  UNL     1     -33.058   6.325   4.063  1.00 20.00     0.192 C 
HETATM    2 CL7  UNL     1     -33.005   5.291   2.595  1.00 20.00    -0.113 Cl
ENDROOT
BRANCH   1   3
HETATM    3  C1  UNL     1     -32.462   7.672   3.624  1.00 20.00     0.192 C 
HETATM    4  O4  UNL     1     -32.181   7.746   2.392  1.00 20.00    -0.647 OA
HETATM    5  O5  UNL     1     -32.319   8.540   4.530  1.00 20.00    -0.647 OA
ENDBRANCH   1   3
BRANCH   1   6
HETATM    6  C2  UNL     1     -34.488   6.343   4.588  1.00 20.00     0.102 C 
BRANCH   6   7
HETATM    7  S6  UNL     1     -34.594   5.600   6.247  1.00 20.00    -0.180 SA
HETATM    8  H11 UNL     1     -34.261   6.711   6.916  1.00 20.00     0.101 HD
ENDBRANCH   6   7
ENDBRANCH   1   6
TORSDOF 3
ENDMDL
MODEL 8
REMARK VINA RESULT:      -3.0      2.947      3.405
REMARK  3 active torsions:
REMARK  status: ('A' for Active; 'I' for Inactive)
REMARK    1  A    between atoms: C1_1  and  C3_3 
REMARK    2  A    between atoms: C2_2  and  C3_3 
REMARK    3  A    between atoms: C2_2  and  S6_6 
ROOT
HETATM    1  C3  UNL     1     -34.057   7.058   4.180  1.00 20.00     0.192 C 
HETATM    2 CL7  UNL     1     -33.553   7.981   5.637  1.00 20.00    -0.113 Cl
ENDROOT
BRANCH   1   3
HETATM    3  C1  UNL     1     -32.755   6.791   3.408  1.00 20.00     0.192 C 
HETATM    4  O4  UNL     1     -32.759   5.726   2.725  1.00 20.00    -0.647 OA
HETATM    5  O5  UNL     1     -31.841   7.652   3.542  1.00 20.00    -0.647 OA
ENDBRANCH   1   3
BRANCH   1   6
HETATM    6  C2  UNL     1     -34.852   5.839   4.634  1.00 20.00     0.102 C 
BRANCH   6   7
HETATM    7  S6  UNL     1     -34.506   5.435   6.375  1.00 20.00    -0.180 SA
HETATM    8  H11 UNL     1     -35.127   4.248   6.365  1.00 20.00     0.101 HD
ENDBRANCH   6   7
ENDBRANCH   1   6
TORSDOF 3
ENDMDL
MODEL 9
REMARK VINA RESULT:      -3.0     13.149     13.462
REMARK  3 active torsions:
REMARK  status: ('A' for Active; 'I' for Inactive)
REMARK    1  A    between atoms: C1_1  and  C3_3 
REMARK    2  A    between atoms: C2_2  and  C3_3 
REMARK    3  A    between atoms: C2_2  and  S6_6 
ROOT
HETATM    1  C3  UNL     1     -34.640  15.227  -5.385  1.00 20.00     0.192 C 
HETATM    2 CL7  UNL     1     -33.701  15.273  -6.916  1.00 20.00    -0.113 Cl
ENDROOT
BRANCH   1   3
HETATM    3  C1  UNL     1     -35.791  14.243  -5.653  1.00 20.00     0.192 C 
HETATM    4  O4  UNL     1     -36.178  14.203  -6.857  1.00 20.00    -0.647 OA
HETATM    5  O5  UNL     1     -36.216  13.598  -4.654  1.00 20.00    -0.647 OA
ENDBRANCH   1   3
BRANCH   1   6
HETATM    6  C2  UNL     1     -33.688  14.880  -4.247  1.00 20.00     0.102 C 
BRANCH   6   7
HETATM    7  S6  UNL     1     -33.353  16.331  -3.199  1.00 20.00    -0.180 SA
HETATM    8  H11 UNL     1     -33.313  17.217  -4.203  1.00 20.00     0.101 HD
ENDBRANCH   6   7
ENDBRANCH   1   6
TORSDOF 3
ENDMDL
