MODEL 1
REMARK VINA RESULT:      -3.5      0.000      0.000
REMARK  2 active torsions:
REMARK  status: ('A' for Active; 'I' for Inactive)
REMARK    1  A    between atoms: C5_5  and  O8_8 
REMARK    2  A    between atoms: C6_6  and  O8_8 
ROOT
HETATM    1  C1  UNL     1     -33.657   5.520   3.624  1.00 20.00     0.097 C 
HETATM    2  C3  UNL     1     -36.021   5.921   4.183  1.00 20.00     0.062 C 
HETATM    3  C4  UNL     1     -34.351   5.368   5.982  1.00 20.00     0.062 C 
HETATM    4  C6  UNL     1     -34.571   6.067   4.641  1.00 20.00     0.141 C 
HETATM    5  N7  UNL     1     -32.938   5.087   2.823  1.00 20.00    -0.194 NA
ENDROOT
BRANCH   4   6
HETATM    6  O8  UNL     1     -34.287   7.456   4.805  1.00 20.00    -0.367 OA
BRANCH   6   7
HETATM    7  C5  UNL     1     -33.014   7.656   5.397  1.00 20.00     0.165 C 
HETATM    8  C2  UNL     1     -32.293   8.763   4.657  1.00 20.00     0.033 C 
ENDBRANCH   6   7
ENDBRANCH   4   6
TORSDOF 2
ENDMDL
MODEL 2
REMARK VINA RESULT:      -3.4     12.507     13.204
REMARK  2 active torsions:
REMARK  status: ('A' for Active; 'I' for Inactive)
REMARK    1  A    between atoms: C5_5  and  O8_8 
REMARK    2  A    between atoms: C6_6  and  O8_8 
ROOT
HETATM    1  C1  UNL     1     -31.798  18.374  -0.668  1.00 20.00     0.097 C 
HETATM    2  C3  UNL     1     -34.031  18.074   0.325  1.00 20.00     0.062 C 
HETATM    3  C4  UNL     1     -33.755  19.236  -1.889  1.00 20.00     0.062 C 
HETATM    4  C6  UNL     1     -33.221  18.140  -0.969  1.00 20.00     0.141 C 
HETATM    5  N7  UNL     1     -30.678  18.560  -0.432  1.00 20.00    -0.194 NA
ENDROOT
BRANCH   4   6
HETATM    6  O8  UNL     1     -33.342  16.887  -1.642  1.00 20.00    -0.367 OA
BRANCH   6   7
HETATM    7  C5  UNL     1     -33.319  17.054  -3.050  1.00 20.00     0.165 C 
HETATM    8  C2  UNL     1     -33.299  15.691  -3.709  1.00 20.00     0.033 C 
ENDBRANCH   6   7
ENDBRANCH   4   6
TORSDOF 2
ENDMDL
MODEL 3
REMARK VINA RESULT:      -3.3      9.261      9.899
REMARK  2 active torsions:
REMARK  status: ('A' for Active; 'I' for Inactive)
REMARK    1  A    between atoms: C5_5  and  O8_8 
REMARK    2  A    between atoms: C6_6  and  O8_8 
ROOT
HETATM    1  C1  UNL     1     -41.636  13.679   5.099  1.00 20.00     0.097 C 
HETATM    2  C3  UNL     1     -40.539  13.975   7.283  1.00 20.00     0.062 C 
HETATM    3  C4  UNL     1     -42.633  12.596   7.073  1.00 20.00     0.062 C 
HETATM    4  C6  UNL     1     -41.338  13.030   6.387  1.00 20.00     0.141 C 
HETATM    5  N7  UNL     1     -41.872  14.189   4.084  1.00 20.00    -0.194 NA
ENDROOT
BRANCH   4   6
HETATM    6  O8  UNL     1     -40.548  11.868   6.138  1.00 20.00    -0.367 OA
BRANCH   6   7
HETATM    7  C5  UNL     1     -39.236  12.215   5.727  1.00 20.00     0.165 C 
HETATM    8  C2  UNL     1     -38.978  11.632   4.354  1.00 20.00     0.033 C 
ENDBRANCH   6   7
ENDBRANCH   4   6
TORSDOF 2
ENDMDL
MODEL 4
REMARK VINA RESULT:      -3.2     12.263     13.096
REMARK  2 active torsions:
REMARK  status: ('A' for Active; 'I' for Inactive)
REMARK    1  A    between atoms: C5_5  and  O8_8 
REMARK    2  A    between atoms: C6_6  and  O8_8 
ROOT
HETATM    1  C1  UNL     1     -35.543  14.118  -4.912  1.00 20.00     0.097 C 
HETATM    2  C3  UNL     1     -34.009  15.144  -6.542  1.00 20.00     0.062 C 
HETATM    3  C4  UNL     1     -36.358  16.003  -6.270  1.00 20.00     0.062 C 
HETATM    4  C6  UNL     1     -35.155  15.382  -5.560  1.00 20.00     0.141 C 
HETATM    5  N7  UNL     1     -35.849  13.122  -4.402  1.00 20.00    -0.194 NA
ENDROOT
BRANCH   4   6
HETATM    6  O8  UNL     1     -34.707  16.290  -4.554  1.00 20.00    -0.367 OA
BRANCH   6   7
HETATM    7  C5  UNL     1     -33.535  15.813  -3.915  1.00 20.00     0.165 C 
HETATM    8  C2  UNL     1     -33.348  16.554  -2.608  1.00 20.00     0.033 C 
ENDBRANCH   6   7
ENDBRANCH   4   6
TORSDOF 2
ENDMDL
MODEL 5
REMARK VINA RESULT:      -3.2      9.379     10.046
REMARK  2 active torsions:
REMARK  status: ('A' for Active; 'I' for Inactive)
REMARK    1  A    between atoms: C5_5  and  O8_8 
REMARK    2  A    between atoms: C6_6  and  O8_8 
ROOT
HETATM    1  C1  UNL     1     -40.861  13.593   7.765  1.00 20.00     0.097 C 
HETATM    2  C3  UNL     1     -42.843  12.328   7.032  1.00 20.00     0.062 C 
HETATM    3  C4  UNL     1     -41.687  13.926   5.469  1.00 20.00     0.062 C 
HETATM    4  C6  UNL     1     -41.502  12.932   6.615  1.00 20.00     0.141 C 
HETATM    5  N7  UNL     1     -40.357  14.114   8.670  1.00 20.00    -0.194 NA
ENDROOT
BRANCH   4   6
HETATM    6  O8  UNL     1     -40.652  11.878   6.166  1.00 20.00    -0.367 OA
BRANCH   6   7
HETATM    7  C5  UNL     1     -39.453  12.386   5.605  1.00 20.00     0.165 C 
HETATM    8  C2  UNL     1     -39.116  11.595   4.359  1.00 20.00     0.033 C 
ENDBRANCH   6   7
ENDBRANCH   4   6
TORSDOF 2
ENDMDL
MODEL 6
REMARK VINA RESULT:      -3.2     12.487     13.230
REMARK  2 active torsions:
REMARK  status: ('A' for Active; 'I' for Inactive)
REMARK    1  A    between atoms: C5_5  and  O8_8 
REMARK    2  A    between atoms: C6_6  and  O8_8 
ROOT
HETATM    1  C1  UNL     1     -34.225  15.240  -6.519  1.00 20.00     0.097 C 
HETATM    2  C3  UNL     1     -36.429  15.770  -5.558  1.00 20.00     0.062 C 
HETATM    3  C4  UNL     1     -34.908  14.104  -4.444  1.00 20.00     0.062 C 
HETATM    4  C6  UNL     1     -34.978  15.392  -5.262  1.00 20.00     0.141 C 
HETATM    5  N7  UNL     1     -33.632  15.119  -7.508  1.00 20.00    -0.194 NA
ENDROOT
BRANCH   4   6
HETATM    6  O8  UNL     1     -34.384  16.443  -4.501  1.00 20.00    -0.367 OA
BRANCH   6   7
HETATM    7  C5  UNL     1     -33.396  15.943  -3.616  1.00 20.00     0.165 C 
HETATM    8  C2  UNL     1     -33.390  16.783  -2.356  1.00 20.00     0.033 C 
ENDBRANCH   6   7
ENDBRANCH   4   6
TORSDOF 2
ENDMDL
MODEL 7
REMARK VINA RESULT:      -3.2      1.510      2.996
REMARK  2 active torsions:
REMARK  status: ('A' for Active; 'I' for Inactive)
REMARK    1  A    between atoms: C5_5  and  O8_8 
REMARK    2  A    between atoms: C6_6  and  O8_8 
ROOT
HETATM    1  C1  UNL     1     -32.800   6.887   3.619  1.00 20.00     0.097 C 
HETATM    2  C3  UNL     1     -32.081   8.924   4.801  1.00 20.00     0.062 C 
HETATM    3  C4  UNL     1     -34.523   8.354   4.591  1.00 20.00     0.062 C 
HETATM    4  C6  UNL     1     -33.108   7.794   4.737  1.00 20.00     0.141 C 
HETATM    5  N7  UNL     1     -32.559   6.173   2.737  1.00 20.00    -0.194 NA
ENDROOT
BRANCH   4   6
HETATM    6  O8  UNL     1     -33.040   7.053   5.955  1.00 20.00    -0.367 OA
BRANCH   6   7
HETATM    7  C5  UNL     1     -34.334   6.703   6.419  1.00 20.00     0.165 C 
HETATM    8  C2  UNL     1     -34.521   5.207   6.277  1.00 20.00     0.033 C 
ENDBRANCH   6   7
ENDBRANCH   4   6
TORSDOF 2
ENDMDL
MODEL 8
REMARK VINA RESULT:      -3.1      9.606     10.247
REMARK  2 active torsions:
REMARK  status: ('A' for Active; 'I' for Inactive)
REMARK    1  A    between atoms: C5_5  and  O8_8 
REMARK    2  A    between atoms: C6_6  and  O8_8 
ROOT
HETATM    1  C1  UNL     1     -42.291  12.640   6.782  1.00 20.00     0.097 C 
HETATM    2  C3  UNL     1     -42.361  14.796   5.595  1.00 20.00     0.062 C 
HETATM    3  C4  UNL     1     -40.420  14.212   7.086  1.00 20.00     0.062 C 
HETATM    4  C6  UNL     1     -41.472  13.669   6.120  1.00 20.00     0.141 C 
HETATM    5  N7  UNL     1     -42.935  11.829   7.305  1.00 20.00    -0.194 NA
ENDROOT
BRANCH   4   6
HETATM    6  O8  UNL     1     -40.800  13.071   5.012  1.00 20.00    -0.367 OA
BRANCH   6   7
HETATM    7  C5  UNL     1     -39.840  12.120   5.442  1.00 20.00     0.165 C 
HETATM    8  C2  UNL     1     -39.037  11.652   4.247  1.00 20.00     0.033 C 
ENDBRANCH   6   7
ENDBRANCH   4   6
TORSDOF 2
ENDMDL
MODEL 9
REMARK VINA RESULT:      -3.1     12.390     13.249
REMARK  2 active torsions:
REMARK  status: ('A' for Active; 'I' for Inactive)
REMARK    1  A    between atoms: C5_5  and  O8_8 
REMARK    2  A    between atoms: C6_6  and  O8_8 
ROOT
HETATM    1  C1  UNL     1     -36.194  15.533  -5.498  1.00 20.00     0.097 C 
HETATM    2  C3  UNL     1     -34.599  14.089  -4.300  1.00 20.00     0.062 C 
HETATM    3  C4  UNL     1     -33.964  15.176  -6.478  1.00 20.00     0.062 C 
HETATM    4  C6  UNL     1     -34.770  15.321  -5.188  1.00 20.00     0.141 C 
HETATM    5  N7  UNL     1     -37.316  15.700  -5.743  1.00 20.00    -0.194 NA
ENDROOT
BRANCH   4   6
HETATM    6  O8  UNL     1     -34.285  16.460  -4.479  1.00 20.00    -0.367 OA
BRANCH   6   7
HETATM    7  C5  UNL     1     -33.264  16.101  -3.562  1.00 20.00     0.165 C 
HETATM    8  C2  UNL     1     -33.440  16.900  -2.289  1.00 20.00     0.033 C 
ENDBRANCH   6   7
ENDBRANCH   4   6
TORSDOF 2
ENDMDL
