MODEL 1
REMARK VINA RESULT:      -4.9      0.000      0.000
REMARK  1 active torsions:
REMARK  status: ('A' for Active; 'I' for Inactive)
REMARK    1  A    between atoms: C1_1  and  C6_6 
ROOT
HETATM    1  C2  UNL     1     -33.716   4.477   4.935  1.00 20.00     0.005 C 
HETATM    2  C3  UNL     1     -33.554   5.333   3.672  1.00 20.00     0.006 C 
HETATM    3  C4  UNL     1     -34.119   6.532   6.307  1.00 20.00     0.016 C 
HETATM    4  C5  UNL     1     -35.664   5.815   4.639  1.00 20.00     0.010 C 
HETATM    5  C6  UNL     1     -33.974   7.421   5.065  1.00 20.00     0.051 C 
HETATM    6  C7  UNL     1     -34.768   5.254   5.744  1.00 20.00    -0.013 C 
HETATM    7  C8  UNL     1     -34.502   6.520   3.931  1.00 20.00    -0.003 C 
ENDROOT
BRANCH   5   8
HETATM    8  C1  UNL     1     -32.579   7.913   4.845  1.00 20.00     0.236 C 
HETATM    9  O9  UNL     1     -32.263   9.097   4.900  1.00 20.00    -0.306 OA
ENDBRANCH   5   8
TORSDOF 1
ENDMDL
MODEL 2
REMARK VINA RESULT:      -3.7      8.814     10.031
REMARK  1 active torsions:
REMARK  status: ('A' for Active; 'I' for Inactive)
REMARK    1  A    between atoms: C1_1  and  C6_6 
ROOT
HETATM    1  C2  UNL     1     -43.194   7.946   0.519  1.00 20.00     0.005 C 
HETATM    2  C3  UNL     1     -42.289   8.030  -0.718  1.00 20.00     0.006 C 
HETATM    3  C4  UNL     1     -42.338   5.649   1.023  1.00 20.00     0.016 C 
HETATM    4  C5  UNL     1     -40.935   7.572   1.173  1.00 20.00     0.010 C 
HETATM    5  C6  UNL     1     -41.411   5.699  -0.199  1.00 20.00     0.051 C 
HETATM    6  C7  UNL     1     -42.356   7.112   1.502  1.00 20.00    -0.013 C 
HETATM    7  C8  UNL     1     -41.060   7.196  -0.307  1.00 20.00    -0.003 C 
ENDROOT
BRANCH   5   8
HETATM    8  C1  UNL     1     -42.029   5.133  -1.438  1.00 20.00     0.236 C 
HETATM    9  O9  UNL     1     -43.197   4.765  -1.503  1.00 20.00    -0.306 OA
ENDBRANCH   5   8
TORSDOF 1
ENDMDL
MODEL 3
REMARK VINA RESULT:      -3.6      8.653     10.040
REMARK  1 active torsions:
REMARK  status: ('A' for Active; 'I' for Inactive)
REMARK    1  A    between atoms: C1_1  and  C6_6 
ROOT
HETATM    1  C2  UNL     1     -41.124   7.423   1.354  1.00 20.00     0.005 C 
HETATM    2  C3  UNL     1     -42.658   7.459   1.391  1.00 20.00     0.006 C 
HETATM    3  C4  UNL     1     -41.181   5.755  -0.511  1.00 20.00     0.016 C 
HETATM    4  C5  UNL     1     -41.947   7.994  -0.806  1.00 20.00     0.010 C 
HETATM    5  C6  UNL     1     -42.716   5.771  -0.513  1.00 20.00     0.051 C 
HETATM    6  C7  UNL     1     -40.821   7.205  -0.137  1.00 20.00    -0.013 C 
HETATM    7  C8  UNL     1     -43.047   7.213  -0.080  1.00 20.00    -0.003 C 
ENDROOT
BRANCH   5   8
HETATM    8  C1  UNL     1     -43.323   4.723   0.365  1.00 20.00     0.236 C 
HETATM    9  O9  UNL     1     -42.709   4.155   1.263  1.00 20.00    -0.306 OA
ENDBRANCH   5   8
TORSDOF 1
ENDMDL
MODEL 4
REMARK VINA RESULT:      -3.5      1.991      2.951
REMARK  1 active torsions:
REMARK  status: ('A' for Active; 'I' for Inactive)
REMARK    1  A    between atoms: C1_1  and  C6_6 
ROOT
HETATM    1  C2  UNL     1     -33.373   6.850   6.449  1.00 20.00     0.005 C 
HETATM    2  C3  UNL     1     -34.372   5.905   5.768  1.00 20.00     0.006 C 
HETATM    3  C4  UNL     1     -32.453   7.524   4.221  1.00 20.00     0.016 C 
HETATM    4  C5  UNL     1     -34.675   8.082   4.881  1.00 20.00     0.010 C 
HETATM    5  C6  UNL     1     -33.444   6.598   3.503  1.00 20.00     0.051 C 
HETATM    6  C7  UNL     1     -33.255   8.008   5.443  1.00 20.00    -0.013 C 
HETATM    7  C8  UNL     1     -34.671   6.616   4.434  1.00 20.00    -0.003 C 
ENDROOT
BRANCH   5   8
HETATM    8  C1  UNL     1     -32.900   5.228   3.247  1.00 20.00     0.236 C 
HETATM    9  O9  UNL     1     -32.844   4.720   2.132  1.00 20.00    -0.306 OA
ENDBRANCH   5   8
TORSDOF 1
ENDMDL
MODEL 5
REMARK VINA RESULT:      -3.4      8.411      9.330
REMARK  1 active torsions:
REMARK  status: ('A' for Active; 'I' for Inactive)
REMARK    1  A    between atoms: C1_1  and  C6_6 
ROOT
HETATM    1  C2  UNL     1     -43.174   5.709  -0.781  1.00 20.00     0.005 C 
HETATM    2  C3  UNL     1     -43.417   6.949   0.090  1.00 20.00     0.006 C 
HETATM    3  C4  UNL     1     -40.715   5.848  -0.338  1.00 20.00     0.016 C 
HETATM    4  C5  UNL     1     -42.274   5.331   1.391  1.00 20.00     0.010 C 
HETATM    5  C6  UNL     1     -40.918   7.084   0.549  1.00 20.00     0.051 C 
HETATM    6  C7  UNL     1     -41.989   5.024  -0.080  1.00 20.00    -0.013 C 
HETATM    7  C8  UNL     1     -42.313   6.845   1.160  1.00 20.00    -0.003 C 
ENDROOT
BRANCH   5   8
HETATM    8  C1  UNL     1     -40.798   8.376  -0.194  1.00 20.00     0.236 C 
HETATM    9  O9  UNL     1     -40.427   9.423   0.326  1.00 20.00    -0.306 OA
ENDBRANCH   5   8
TORSDOF 1
ENDMDL
MODEL 6
REMARK VINA RESULT:      -3.3     12.482     13.799
REMARK  1 active torsions:
REMARK  status: ('A' for Active; 'I' for Inactive)
REMARK    1  A    between atoms: C1_1  and  C6_6 
ROOT
HETATM    1  C2  UNL     1     -35.256  18.426  -2.674  1.00 20.00     0.005 C 
HETATM    2  C3  UNL     1     -34.895  18.188  -4.146  1.00 20.00     0.006 C 
HETATM    3  C4  UNL     1     -33.560  16.731  -1.957  1.00 20.00     0.016 C 
HETATM    4  C5  UNL     1     -32.922  18.789  -2.979  1.00 20.00     0.010 C 
HETATM    5  C6  UNL     1     -33.164  16.472  -3.417  1.00 20.00     0.051 C 
HETATM    6  C7  UNL     1     -33.910  18.230  -1.955  1.00 20.00    -0.013 C 
HETATM    7  C8  UNL     1     -33.395  17.841  -4.086  1.00 20.00    -0.003 C 
ENDROOT
BRANCH   5   8
HETATM    8  C1  UNL     1     -33.928  15.353  -4.051  1.00 20.00     0.236 C 
HETATM    9  O9  UNL     1     -33.462  14.234  -4.232  1.00 20.00    -0.306 OA
ENDBRANCH   5   8
TORSDOF 1
ENDMDL
MODEL 7
REMARK VINA RESULT:      -3.3      1.962      3.397
REMARK  1 active torsions:
REMARK  status: ('A' for Active; 'I' for Inactive)
REMARK    1  A    between atoms: C1_1  and  C6_6 
ROOT
HETATM    1  C2  UNL     1     -31.417   7.923   4.068  1.00 20.00     0.005 C 
HETATM    2  C3  UNL     1     -32.312   8.674   5.063  1.00 20.00     0.006 C 
HETATM    3  C4  UNL     1     -33.204   6.208   3.712  1.00 20.00     0.016 C 
HETATM    4  C5  UNL     1     -33.478   8.470   3.009  1.00 20.00     0.010 C 
HETATM    5  C6  UNL     1     -34.134   6.936   4.693  1.00 20.00     0.051 C 
HETATM    6  C7  UNL     1     -32.426   7.361   3.053  1.00 20.00    -0.013 C 
HETATM    7  C8  UNL     1     -33.731   8.413   4.520  1.00 20.00    -0.003 C 
ENDROOT
BRANCH   5   8
HETATM    8  C1  UNL     1     -34.020   6.440   6.099  1.00 20.00     0.236 C 
HETATM    9  O9  UNL     1     -34.444   5.349   6.468  1.00 20.00    -0.306 OA
ENDBRANCH   5   8
TORSDOF 1
ENDMDL
MODEL 8
REMARK VINA RESULT:      -3.3      8.429      9.476
REMARK  1 active torsions:
REMARK  status: ('A' for Active; 'I' for Inactive)
REMARK    1  A    between atoms: C1_1  and  C6_6 
ROOT
HETATM    1  C2  UNL     1     -41.185   5.288   1.082  1.00 20.00     0.005 C 
HETATM    2  C3  UNL     1     -41.159   5.510  -0.436  1.00 20.00     0.006 C 
HETATM    3  C4  UNL     1     -42.773   7.202   1.362  1.00 20.00     0.016 C 
HETATM    4  C5  UNL     1     -43.410   5.198   0.238  1.00 20.00     0.010 C 
HETATM    5  C6  UNL     1     -42.782   7.449  -0.153  1.00 20.00     0.051 C 
HETATM    6  C7  UNL     1     -42.625   5.673   1.461  1.00 20.00    -0.013 C 
HETATM    7  C8  UNL     1     -42.576   6.038  -0.735  1.00 20.00    -0.003 C 
ENDROOT
BRANCH   5   8
HETATM    8  C1  UNL     1     -41.756   8.442  -0.599  1.00 20.00     0.236 C 
HETATM    9  O9  UNL     1     -40.815   8.803   0.101  1.00 20.00    -0.306 OA
ENDBRANCH   5   8
TORSDOF 1
ENDMDL
MODEL 9
REMARK VINA RESULT:      -3.3     11.215     12.505
REMARK  1 active torsions:
REMARK  status: ('A' for Active; 'I' for Inactive)
REMARK    1  A    between atoms: C1_1  and  C6_6 
ROOT
HETATM    1  C2  UNL     1     -26.777  -0.556  11.500  1.00 20.00     0.005 C 
HETATM    2  C3  UNL     1     -27.914  -0.602  10.470  1.00 20.00     0.006 C 
HETATM    3  C4  UNL     1     -27.402  -2.832  12.332  1.00 20.00     0.016 C 
HETATM    4  C5  UNL     1     -26.525  -2.495  10.140  1.00 20.00     0.010 C 
HETATM    5  C6  UNL     1     -28.542  -2.921  11.309  1.00 20.00     0.051 C 
HETATM    6  C7  UNL     1     -26.327  -2.024  11.582  1.00 20.00    -0.013 C 
HETATM    7  C8  UNL     1     -28.005  -2.100  10.120  1.00 20.00    -0.003 C 
ENDROOT
BRANCH   5   8
HETATM    8  C1  UNL     1     -29.854  -2.432  11.836  1.00 20.00     0.236 C 
HETATM    9  O9  UNL     1     -30.884  -2.410  11.172  1.00 20.00    -0.306 OA
ENDBRANCH   5   8
TORSDOF 1
ENDMDL
