MODEL 1
REMARK VINA RESULT:      -4.0      0.000      0.000
REMARK  2 active torsions:
REMARK  status: ('A' for Active; 'I' for Inactive)
REMARK    1  A    between atoms: C6_6  and  C9_9 
REMARK    2  A    between atoms: C6_6  and  C10_10 
ROOT
HETATM    1  C1  UNL     1     -33.605  18.359   0.810  1.00 20.00     0.047 C 
HETATM    2  C2  UNL     1     -34.233  18.129  -0.350  1.00 20.00    -0.014 C 
HETATM    3  C3  UNL     1     -32.137  18.571   0.839  1.00 20.00     0.149 C 
HETATM    4  C4  UNL     1     -31.362  18.439  -0.452  1.00 20.00     0.084 C 
HETATM    5  C5  UNL     1     -32.209  18.858  -1.647  1.00 20.00     0.021 C 
HETATM    6  C6  UNL     1     -33.566  18.121  -1.709  1.00 20.00    -0.023 C 
HETATM    7  O11 UNL     1     -31.575  18.786   1.911  1.00 20.00    -0.293 OA
ENDROOT
BRANCH   6   8
HETATM    8  C9  UNL     1     -33.378  16.663  -2.163  1.00 20.00     0.009 C 
HETATM    9  C7  UNL     1     -33.433  16.547  -3.646  1.00 20.00     0.006 C 
ENDBRANCH   6   8
BRANCH   6  10
HETATM   10  C10 UNL     1     -34.468  18.842  -2.726  1.00 20.00     0.009 C 
HETATM   11  C8  UNL     1     -35.819  19.109  -2.158  1.00 20.00     0.006 C 
ENDBRANCH   6  10
TORSDOF 2
ENDMDL
MODEL 2
REMARK VINA RESULT:      -4.0     11.413     12.479
REMARK  2 active torsions:
REMARK  status: ('A' for Active; 'I' for Inactive)
REMARK    1  A    between atoms: C6_6  and  C9_9 
REMARK    2  A    between atoms: C6_6  and  C10_10 
ROOT
HETATM    1  C1  UNL     1     -33.079   5.368   3.068  1.00 20.00     0.047 C 
HETATM    2  C2  UNL     1     -32.506   6.520   2.701  1.00 20.00    -0.014 C 
HETATM    3  C3  UNL     1     -34.023   5.329   4.211  1.00 20.00     0.149 C 
HETATM    4  C4  UNL     1     -34.255   6.598   4.999  1.00 20.00     0.084 C 
HETATM    5  C5  UNL     1     -34.122   7.828   4.111  1.00 20.00     0.021 C 
HETATM    6  C6  UNL     1     -32.786   7.866   3.336  1.00 20.00    -0.023 C 
HETATM    7  O11 UNL     1     -34.546   4.264   4.533  1.00 20.00    -0.293 OA
ENDROOT
BRANCH   6   8
HETATM    8  C9  UNL     1     -31.619   8.229   4.270  1.00 20.00     0.009 C 
HETATM    9  C7  UNL     1     -31.962   9.385   5.142  1.00 20.00     0.006 C 
ENDBRANCH   6   8
BRANCH   6  10
HETATM   10  C10 UNL     1     -32.889   8.939   2.236  1.00 20.00     0.009 C 
HETATM   11  C8  UNL     1     -32.249   8.481   0.972  1.00 20.00     0.006 C 
ENDBRANCH   6  10
TORSDOF 2
ENDMDL
MODEL 3
REMARK VINA RESULT:      -3.9      0.602      2.501
REMARK  2 active torsions:
REMARK  status: ('A' for Active; 'I' for Inactive)
REMARK    1  A    between atoms: C6_6  and  C9_9 
REMARK    2  A    between atoms: C6_6  and  C10_10 
ROOT
HETATM    1  C1  UNL     1     -31.122  18.556  -0.244  1.00 20.00     0.047 C 
HETATM    2  C2  UNL     1     -31.843  18.156  -1.299  1.00 20.00    -0.014 C 
HETATM    3  C3  UNL     1     -31.791  18.902   1.033  1.00 20.00     0.149 C 
HETATM    4  C4  UNL     1     -33.301  18.873   1.090  1.00 20.00     0.084 C 
HETATM    5  C5  UNL     1     -33.866  17.816   0.151  1.00 20.00     0.021 C 
HETATM    6  C6  UNL     1     -33.344  17.958  -1.297  1.00 20.00    -0.023 C 
HETATM    7  O11 UNL     1     -31.115  19.263   1.995  1.00 20.00    -0.293 OA
ENDROOT
BRANCH   6   8
HETATM    8  C9  UNL     1     -34.005  19.153  -2.004  1.00 20.00     0.009 C 
HETATM    9  C7  UNL     1     -35.488  19.101  -1.883  1.00 20.00     0.006 C 
ENDBRANCH   6   8
BRANCH   6  10
HETATM   10  C10 UNL     1     -33.693  16.673  -2.070  1.00 20.00     0.009 C 
HETATM   11  C8  UNL     1     -33.186  16.730  -3.469  1.00 20.00     0.006 C 
ENDBRANCH   6  10
TORSDOF 2
ENDMDL
MODEL 4
REMARK VINA RESULT:      -3.8     11.326     12.410
REMARK  2 active torsions:
REMARK  status: ('A' for Active; 'I' for Inactive)
REMARK    1  A    between atoms: C6_6  and  C9_9 
REMARK    2  A    between atoms: C6_6  and  C10_10 
ROOT
HETATM    1  C1  UNL     1     -42.823  13.029   8.002  1.00 20.00     0.047 C 
HETATM    2  C2  UNL     1     -42.393  12.730   6.770  1.00 20.00    -0.014 C 
HETATM    3  C3  UNL     1     -41.996  13.868   8.902  1.00 20.00     0.149 C 
HETATM    4  C4  UNL     1     -40.629  14.306   8.429  1.00 20.00     0.084 C 
HETATM    5  C5  UNL     1     -40.603  14.486   6.917  1.00 20.00     0.021 C 
HETATM    6  C6  UNL     1     -41.107  13.240   6.155  1.00 20.00    -0.023 C 
HETATM    7  O11 UNL     1     -42.407  14.138  10.029  1.00 20.00    -0.293 OA
ENDROOT
BRANCH   6   8
HETATM    8  C9  UNL     1     -40.059  12.114   6.189  1.00 20.00     0.009 C 
HETATM    9  C7  UNL     1     -39.474  11.878   4.841  1.00 20.00     0.006 C 
ENDBRANCH   6   8
BRANCH   6  10
HETATM   10  C10 UNL     1     -41.361  13.633   4.688  1.00 20.00     0.009 C 
HETATM   11  C8  UNL     1     -42.524  14.556   4.570  1.00 20.00     0.006 C 
ENDBRANCH   6  10
TORSDOF 2
ENDMDL
MODEL 5
REMARK VINA RESULT:      -3.7      3.326      5.025
REMARK  2 active torsions:
REMARK  status: ('A' for Active; 'I' for Inactive)
REMARK    1  A    between atoms: C6_6  and  C9_9 
REMARK    2  A    between atoms: C6_6  and  C10_10 
ROOT
HETATM    1  C1  UNL     1     -33.293  15.928  -3.375  1.00 20.00     0.047 C 
HETATM    2  C2  UNL     1     -33.839  15.075  -4.249  1.00 20.00    -0.014 C 
HETATM    3  C3  UNL     1     -33.431  17.392  -3.569  1.00 20.00     0.149 C 
HETATM    4  C4  UNL     1     -34.128  17.893  -4.814  1.00 20.00     0.084 C 
HETATM    5  C5  UNL     1     -35.205  16.918  -5.271  1.00 20.00     0.021 C 
HETATM    6  C6  UNL     1     -34.676  15.477  -5.445  1.00 20.00    -0.023 C 
HETATM    7  O11 UNL     1     -32.929  18.164  -2.756  1.00 20.00    -0.293 OA
ENDROOT
BRANCH   6   8
HETATM    8  C9  UNL     1     -33.818  15.357  -6.716  1.00 20.00     0.009 C 
HETATM    9  C7  UNL     1     -34.560  15.828  -7.917  1.00 20.00     0.006 C 
ENDBRANCH   6   8
BRANCH   6  10
HETATM   10  C10 UNL     1     -35.880  14.526  -5.571  1.00 20.00     0.009 C 
HETATM   11  C8  UNL     1     -35.888  13.516  -4.477  1.00 20.00     0.006 C 
ENDBRANCH   6  10
TORSDOF 2
ENDMDL
MODEL 6
REMARK VINA RESULT:      -3.7      2.613      4.322
REMARK  2 active torsions:
REMARK  status: ('A' for Active; 'I' for Inactive)
REMARK    1  A    between atoms: C6_6  and  C9_9 
REMARK    2  A    between atoms: C6_6  and  C10_10 
ROOT
HETATM    1  C1  UNL     1     -33.507  16.292  -2.813  1.00 20.00     0.047 C 
HETATM    2  C2  UNL     1     -33.307  17.141  -1.798  1.00 20.00    -0.014 C 
HETATM    3  C3  UNL     1     -33.857  16.803  -4.160  1.00 20.00     0.149 C 
HETATM    4  C4  UNL     1     -34.062  18.289  -4.338  1.00 20.00     0.084 C 
HETATM    5  C5  UNL     1     -33.181  19.084  -3.383  1.00 20.00     0.021 C 
HETATM    6  C6  UNL     1     -33.349  18.650  -1.910  1.00 20.00    -0.023 C 
HETATM    7  O11 UNL     1     -34.032  16.011  -5.085  1.00 20.00    -0.293 OA
ENDROOT
BRANCH   6   8
HETATM    8  C9  UNL     1     -34.684  19.155  -1.337  1.00 20.00     0.009 C 
HETATM    9  C7  UNL     1     -34.630  19.262   0.147  1.00 20.00     0.006 C 
ENDBRANCH   6   8
BRANCH   6  10
HETATM   10  C10 UNL     1     -32.198  19.257  -1.088  1.00 20.00     0.009 C 
HETATM   11  C8  UNL     1     -31.305  18.196  -0.544  1.00 20.00     0.006 C 
ENDBRANCH   6  10
TORSDOF 2
ENDMDL
MODEL 7
REMARK VINA RESULT:      -3.6     11.441     12.717
REMARK  2 active torsions:
REMARK  status: ('A' for Active; 'I' for Inactive)
REMARK    1  A    between atoms: C6_6  and  C9_9 
REMARK    2  A    between atoms: C6_6  and  C10_10 
ROOT
HETATM    1  C1  UNL     1     -40.670  14.402   8.571  1.00 20.00     0.047 C 
HETATM    2  C2  UNL     1     -40.466  14.329   7.250  1.00 20.00    -0.014 C 
HETATM    3  C3  UNL     1     -41.923  13.878   9.166  1.00 20.00     0.149 C 
HETATM    4  C4  UNL     1     -42.992  13.340   8.243  1.00 20.00     0.084 C 
HETATM    5  C5  UNL     1     -42.378  12.721   6.994  1.00 20.00     0.021 C 
HETATM    6  C6  UNL     1     -41.412  13.680   6.262  1.00 20.00    -0.023 C 
HETATM    7  O11 UNL     1     -42.094  13.947  10.382  1.00 20.00    -0.293 OA
ENDROOT
BRANCH   6   8
HETATM    8  C9  UNL     1     -42.188  14.780   5.518  1.00 20.00     0.009 C 
HETATM    9  C7  UNL     1     -42.271  14.492   4.060  1.00 20.00     0.006 C 
ENDBRANCH   6   8
BRANCH   6  10
HETATM   10  C10 UNL     1     -40.602  12.867   5.236  1.00 20.00     0.009 C 
HETATM   11  C8  UNL     1     -39.743  11.852   5.906  1.00 20.00     0.006 C 
ENDBRANCH   6  10
TORSDOF 2
ENDMDL
MODEL 8
REMARK VINA RESULT:      -3.5      3.492      5.244
REMARK  2 active torsions:
REMARK  status: ('A' for Active; 'I' for Inactive)
REMARK    1  A    between atoms: C6_6  and  C9_9 
REMARK    2  A    between atoms: C6_6  and  C10_10 
ROOT
HETATM    1  C1  UNL     1     -34.074  17.400  -4.228  1.00 20.00     0.047 C 
HETATM    2  C2  UNL     1     -34.658  17.089  -5.391  1.00 20.00    -0.014 C 
HETATM    3  C3  UNL     1     -33.502  16.337  -3.367  1.00 20.00     0.149 C 
HETATM    4  C4  UNL     1     -33.668  14.896  -3.793  1.00 20.00     0.084 C 
HETATM    5  C5  UNL     1     -33.695  14.770  -5.311  1.00 20.00     0.021 C 
HETATM    6  C6  UNL     1     -34.745  15.692  -5.970  1.00 20.00    -0.023 C 
HETATM    7  O11 UNL     1     -32.964  16.638  -2.304  1.00 20.00    -0.293 OA
ENDROOT
BRANCH   6   8
HETATM    8  C9  UNL     1     -36.168  15.150  -5.750  1.00 20.00     0.009 C 
HETATM    9  C7  UNL     1     -37.172  16.249  -5.746  1.00 20.00     0.006 C 
ENDBRANCH   6   8
BRANCH   6  10
HETATM   10  C10 UNL     1     -34.466  15.747  -7.483  1.00 20.00     0.009 C 
HETATM   11  C8  UNL     1     -34.110  17.126  -7.918  1.00 20.00     0.006 C 
ENDBRANCH   6  10
TORSDOF 2
ENDMDL
MODEL 9
REMARK VINA RESULT:      -3.5     11.246     12.300
REMARK  2 active torsions:
REMARK  status: ('A' for Active; 'I' for Inactive)
REMARK    1  A    between atoms: C6_6  and  C9_9 
REMARK    2  A    between atoms: C6_6  and  C10_10 
ROOT
HETATM    1  C1  UNL     1     -40.355  15.095   8.112  1.00 20.00     0.047 C 
HETATM    2  C2  UNL     1     -40.662  13.879   7.646  1.00 20.00    -0.014 C 
HETATM    3  C3  UNL     1     -40.985  16.304   7.529  1.00 20.00     0.149 C 
HETATM    4  C4  UNL     1     -41.914  16.136   6.348  1.00 20.00     0.084 C 
HETATM    5  C5  UNL     1     -42.644  14.800   6.409  1.00 20.00     0.021 C 
HETATM    6  C6  UNL     1     -41.686  13.599   6.566  1.00 20.00    -0.023 C 
HETATM    7  O11 UNL     1     -40.697  17.414   7.971  1.00 20.00    -0.293 OA
ENDROOT
BRANCH   6   8
HETATM    8  C9  UNL     1     -40.950  13.307   5.247  1.00 20.00     0.009 C 
HETATM    9  C7  UNL     1     -40.021  12.152   5.389  1.00 20.00     0.006 C 
ENDBRANCH   6   8
BRANCH   6  10
HETATM   10  C10 UNL     1     -42.514  12.360   6.954  1.00 20.00     0.009 C 
HETATM   11  C8  UNL     1     -43.355  12.627   8.153  1.00 20.00     0.006 C 
ENDBRANCH   6  10
TORSDOF 2
ENDMDL
