MODEL 1
REMARK VINA RESULT:      -3.8      0.000      0.000
REMARK  3 active torsions:
REMARK  status: ('A' for Active; 'I' for Inactive)
REMARK    1  A    between atoms: C1_1  and  C4_4 
REMARK    2  A    between atoms: C4_4  and  C5_5 
REMARK    3  A    between atoms: C5_5  and  C6_6 
ROOT
HETATM    1  C5  UNL     1     -33.668   7.129   5.450  1.00 20.00     0.035 C 
ENDROOT
BRANCH   1   2
HETATM    2  C4  UNL     1     -33.703   8.364   4.548  1.00 20.00     0.115 C 
BRANCH   2   3
HETATM    3  C1  UNL     1     -32.516   8.495   3.584  1.00 20.00     0.172 C 
HETATM    4  O7  UNL     1     -32.721   9.128   2.513  1.00 20.00    -0.648 OA
HETATM    5  O8  UNL     1     -31.457   7.936   3.994  1.00 20.00    -0.648 OA
ENDBRANCH   2   3
ENDBRANCH   1   2
BRANCH   1   6
HETATM    6  C6  UNL     1     -34.383   5.872   4.900  1.00 20.00     0.030 C 
HETATM    7  C2  UNL     1     -34.513   4.833   6.023  1.00 20.00     0.032 C 
HETATM    8  C3  UNL     1     -35.770   6.191   4.338  1.00 20.00     0.032 C 
HETATM    9 CL9  UNL     1     -33.396   5.131   3.588  1.00 20.00    -0.120 Cl
ENDBRANCH   1   6
TORSDOF 3
ENDMDL
MODEL 2
REMARK VINA RESULT:      -3.7      2.838      3.946
REMARK  3 active torsions:
REMARK  status: ('A' for Active; 'I' for Inactive)
REMARK    1  A    between atoms: C1_1  and  C4_4 
REMARK    2  A    between atoms: C4_4  and  C5_5 
REMARK    3  A    between atoms: C5_5  and  C6_6 
ROOT
HETATM    1  C5  UNL     1     -34.114   8.022   4.438  1.00 20.00     0.035 C 
ENDROOT
BRANCH   1   2
HETATM    2  C4  UNL     1     -34.048   7.229   5.744  1.00 20.00     0.115 C 
BRANCH   2   3
HETATM    3  C1  UNL     1     -34.593   5.796   5.659  1.00 20.00     0.172 C 
HETATM    4  O7  UNL     1     -35.322   5.524   4.667  1.00 20.00    -0.648 OA
HETATM    5  O8  UNL     1     -34.236   5.052   6.619  1.00 20.00    -0.648 OA
ENDBRANCH   2   3
ENDBRANCH   1   2
BRANCH   1   6
HETATM    6  C6  UNL     1     -32.756   8.327   3.764  1.00 20.00     0.030 C 
HETATM    7  C2  UNL     1     -31.787   8.889   4.813  1.00 20.00     0.032 C 
HETATM    8  C3  UNL     1     -32.138   7.086   3.113  1.00 20.00     0.032 C 
HETATM    9 CL9  UNL     1     -32.970   9.586   2.493  1.00 20.00    -0.120 Cl
ENDBRANCH   1   6
TORSDOF 3
ENDMDL
MODEL 3
REMARK VINA RESULT:      -3.6      1.349      1.660
REMARK  3 active torsions:
REMARK  status: ('A' for Active; 'I' for Inactive)
REMARK    1  A    between atoms: C1_1  and  C4_4 
REMARK    2  A    between atoms: C4_4  and  C5_5 
REMARK    3  A    between atoms: C5_5  and  C6_6 
ROOT
HETATM    1  C5  UNL     1     -33.626   7.011   5.009  1.00 20.00     0.035 C 
ENDROOT
BRANCH   1   2
HETATM    2  C4  UNL     1     -32.794   7.298   3.757  1.00 20.00     0.115 C 
BRANCH   2   3
HETATM    3  C1  UNL     1     -32.500   8.783   3.502  1.00 20.00     0.172 C 
HETATM    4  O7  UNL     1     -32.646   9.195   2.319  1.00 20.00    -0.648 OA
HETATM    5  O8  UNL     1     -32.137   9.420   4.534  1.00 20.00    -0.648 OA
ENDBRANCH   2   3
ENDBRANCH   1   2
BRANCH   1   6
HETATM    6  C6  UNL     1     -34.495   5.733   4.962  1.00 20.00     0.030 C 
HETATM    7  C2  UNL     1     -33.790   4.674   4.104  1.00 20.00     0.032 C 
HETATM    8  C3  UNL     1     -34.765   5.161   6.357  1.00 20.00     0.032 C 
HETATM    9 CL9  UNL     1     -36.079   6.096   4.183  1.00 20.00    -0.120 Cl
ENDBRANCH   1   6
TORSDOF 3
ENDMDL
MODEL 4
REMARK VINA RESULT:      -3.5      1.477      1.844
REMARK  3 active torsions:
REMARK  status: ('A' for Active; 'I' for Inactive)
REMARK    1  A    between atoms: C1_1  and  C4_4 
REMARK    2  A    between atoms: C4_4  and  C5_5 
REMARK    3  A    between atoms: C5_5  and  C6_6 
ROOT
HETATM    1  C5  UNL     1     -33.749   7.502   4.809  1.00 20.00     0.035 C 
ENDROOT
BRANCH   1   2
HETATM    2  C4  UNL     1     -32.390   7.708   4.136  1.00 20.00     0.115 C 
BRANCH   2   3
HETATM    3  C1  UNL     1     -32.447   8.382   2.758  1.00 20.00     0.172 C 
HETATM    4  O7  UNL     1     -32.839   9.580   2.727  1.00 20.00    -0.648 OA
HETATM    5  O8  UNL     1     -32.088   7.632   1.803  1.00 20.00    -0.648 OA
ENDBRANCH   2   3
ENDBRANCH   1   2
BRANCH   1   6
HETATM    6  C6  UNL     1     -34.313   6.063   4.760  1.00 20.00     0.030 C 
HETATM    7  C2  UNL     1     -35.777   6.110   4.300  1.00 20.00     0.032 C 
HETATM    8  C3  UNL     1     -33.513   5.155   3.822  1.00 20.00     0.032 C 
HETATM    9 CL9  UNL     1     -34.286   5.337   6.409  1.00 20.00    -0.120 Cl
ENDBRANCH   1   6
TORSDOF 3
ENDMDL
MODEL 5
REMARK VINA RESULT:      -3.5     12.351     12.830
REMARK  3 active torsions:
REMARK  status: ('A' for Active; 'I' for Inactive)
REMARK    1  A    between atoms: C1_1  and  C4_4 
REMARK    2  A    between atoms: C4_4  and  C5_5 
REMARK    3  A    between atoms: C5_5  and  C6_6 
ROOT
HETATM    1  C5  UNL     1     -33.542  17.711  -0.917  1.00 20.00     0.035 C 
ENDROOT
BRANCH   1   2
HETATM    2  C4  UNL     1     -32.886  18.865  -0.157  1.00 20.00     0.115 C 
BRANCH   2   3
HETATM    3  C1  UNL     1     -31.487  18.563   0.399  1.00 20.00     0.172 C 
HETATM    4  O7  UNL     1     -30.528  18.620  -0.417  1.00 20.00    -0.648 OA
HETATM    5  O8  UNL     1     -31.474  18.284   1.633  1.00 20.00    -0.648 OA
ENDBRANCH   2   3
ENDBRANCH   1   2
BRANCH   1   6
HETATM    6  C6  UNL     1     -33.757  17.938  -2.432  1.00 20.00     0.030 C 
HETATM    7  C2  UNL     1     -33.409  16.649  -3.190  1.00 20.00     0.032 C 
HETATM    8  C3  UNL     1     -35.195  18.349  -2.761  1.00 20.00     0.032 C 
HETATM    9 CL9  UNL     1     -32.649  19.230  -3.022  1.00 20.00    -0.120 Cl
ENDBRANCH   1   6
TORSDOF 3
ENDMDL
MODEL 6
REMARK VINA RESULT:      -3.4      2.447      4.033
REMARK  3 active torsions:
REMARK  status: ('A' for Active; 'I' for Inactive)
REMARK    1  A    between atoms: C1_1  and  C4_4 
REMARK    2  A    between atoms: C4_4  and  C5_5 
REMARK    3  A    between atoms: C5_5  and  C6_6 
ROOT
HETATM    1  C5  UNL     1     -34.039   8.058   4.520  1.00 20.00     0.035 C 
ENDROOT
BRANCH   1   2
HETATM    2  C4  UNL     1     -33.983   7.211   5.793  1.00 20.00     0.115 C 
BRANCH   2   3
HETATM    3  C1  UNL     1     -34.644   5.830   5.681  1.00 20.00     0.172 C 
HETATM    4  O7  UNL     1     -34.324   4.976   6.551  1.00 20.00    -0.648 OA
HETATM    5  O8  UNL     1     -35.444   5.720   4.706  1.00 20.00    -0.648 OA
ENDBRANCH   2   3
ENDBRANCH   1   2
BRANCH   1   6
HETATM    6  C6  UNL     1     -32.751   8.071   3.663  1.00 20.00     0.030 C 
HETATM    7  C2  UNL     1     -32.902   9.108   2.541  1.00 20.00     0.032 C 
HETATM    8  C3  UNL     1     -31.504   8.395   4.490  1.00 20.00     0.032 C 
HETATM    9 CL9  UNL     1     -32.514   6.463   2.887  1.00 20.00    -0.120 Cl
ENDBRANCH   1   6
TORSDOF 3
ENDMDL
MODEL 7
REMARK VINA RESULT:      -3.4     12.265     12.862
REMARK  3 active torsions:
REMARK  status: ('A' for Active; 'I' for Inactive)
REMARK    1  A    between atoms: C1_1  and  C4_4 
REMARK    2  A    between atoms: C4_4  and  C5_5 
REMARK    3  A    between atoms: C5_5  and  C6_6 
ROOT
HETATM    1  C5  UNL     1     -33.543  17.735  -0.926  1.00 20.00     0.035 C 
ENDROOT
BRANCH   1   2
HETATM    2  C4  UNL     1     -32.828  18.921  -0.278  1.00 20.00     0.115 C 
BRANCH   2   3
HETATM    3  C1  UNL     1     -31.493  18.580   0.400  1.00 20.00     0.172 C 
HETATM    4  O7  UNL     1     -31.533  18.320   1.633  1.00 20.00    -0.648 OA
HETATM    5  O8  UNL     1     -30.498  18.607  -0.382  1.00 20.00    -0.648 OA
ENDBRANCH   2   3
ENDBRANCH   1   2
BRANCH   1   6
HETATM    6  C6  UNL     1     -33.742  17.822  -2.458  1.00 20.00     0.030 C 
HETATM    7  C2  UNL     1     -32.811  18.902  -3.026  1.00 20.00     0.032 C 
HETATM    8  C3  UNL     1     -33.463  16.489  -3.158  1.00 20.00     0.032 C 
HETATM    9 CL9  UNL     1     -35.435  18.314  -2.830  1.00 20.00    -0.120 Cl
ENDBRANCH   1   6
TORSDOF 3
ENDMDL
MODEL 8
REMARK VINA RESULT:      -3.4     11.856     12.811
REMARK  3 active torsions:
REMARK  status: ('A' for Active; 'I' for Inactive)
REMARK    1  A    between atoms: C1_1  and  C4_4 
REMARK    2  A    between atoms: C4_4  and  C5_5 
REMARK    3  A    between atoms: C5_5  and  C6_6 
ROOT
HETATM    1  C5  UNL     1     -33.523  16.643  -2.138  1.00 20.00     0.035 C 
ENDROOT
BRANCH   1   2
HETATM    2  C4  UNL     1     -33.047  16.117  -3.493  1.00 20.00     0.115 C 
BRANCH   2   3
HETATM    3  C1  UNL     1     -34.073  15.267  -4.255  1.00 20.00     0.172 C 
HETATM    4  O7  UNL     1     -34.015  14.019  -4.083  1.00 20.00    -0.648 OA
HETATM    5  O8  UNL     1     -34.864  15.940  -4.978  1.00 20.00    -0.648 OA
ENDBRANCH   2   3
ENDBRANCH   1   2
BRANCH   1   6
HETATM    6  C6  UNL     1     -33.249  18.140  -1.860  1.00 20.00     0.030 C 
HETATM    7  C2  UNL     1     -32.981  18.858  -3.190  1.00 20.00     0.032 C 
HETATM    8  C3  UNL     1     -34.414  18.821  -1.139  1.00 20.00     0.032 C 
HETATM    9 CL9  UNL     1     -31.773  18.314  -0.842  1.00 20.00    -0.120 Cl
ENDBRANCH   1   6
TORSDOF 3
ENDMDL
MODEL 9
REMARK VINA RESULT:      -3.4     12.049     12.814
REMARK  3 active torsions:
REMARK  status: ('A' for Active; 'I' for Inactive)
REMARK    1  A    between atoms: C1_1  and  C4_4 
REMARK    2  A    between atoms: C4_4  and  C5_5 
REMARK    3  A    between atoms: C5_5  and  C6_6 
ROOT
HETATM    1  C5  UNL     1     -33.539  16.554  -2.243  1.00 20.00     0.035 C 
ENDROOT
BRANCH   1   2
HETATM    2  C4  UNL     1     -33.073  15.973  -3.580  1.00 20.00     0.115 C 
BRANCH   2   3
HETATM    3  C1  UNL     1     -34.139  15.179  -4.346  1.00 20.00     0.172 C 
HETATM    4  O7  UNL     1     -34.858  15.826  -5.155  1.00 20.00    -0.648 OA
HETATM    5  O8  UNL     1     -34.165  13.945  -4.062  1.00 20.00    -0.648 OA
ENDBRANCH   2   3
ENDBRANCH   1   2
BRANCH   1   6
HETATM    6  C6  UNL     1     -33.299  18.069  -2.046  1.00 20.00     0.030 C 
HETATM    7  C2  UNL     1     -34.577  18.715  -1.495  1.00 20.00     0.032 C 
HETATM    8  C3  UNL     1     -32.133  18.355  -1.095  1.00 20.00     0.032 C 
HETATM    9 CL9  UNL     1     -32.939  18.844  -3.632  1.00 20.00    -0.120 Cl
ENDBRANCH   1   6
TORSDOF 3
ENDMDL
