MODEL 1
REMARK VINA RESULT:      -4.3      0.000      0.000
REMARK  0 active torsions:
REMARK  status: ('A' for Active; 'I' for Inactive)
ROOT
HETATM    1  C1  UNL     1     -32.700   7.779   4.207  1.00 20.00     0.066 C 
HETATM    2  C2  UNL     1     -34.056   5.061   6.199  1.00 20.00     0.034 C 
HETATM    3  C3  UNL     1     -34.380   6.543   6.382  1.00 20.00     0.036 C 
HETATM    4  C4  UNL     1     -33.528   5.451   3.772  1.00 20.00     0.053 C 
HETATM    5  C5  UNL     1     -33.862   6.943   3.905  1.00 20.00     0.124 C 
HETATM    6  C6  UNL     1     -34.507   4.813   4.760  1.00 20.00     0.123 C 
HETATM    7  C7  UNL     1     -34.929   6.927   5.006  1.00 20.00     0.139 C 
HETATM    8  N8  UNL     1     -31.777   8.441   4.448  1.00 20.00    -0.197 NA
HETATM    9  O9  UNL     1     -35.640   5.709   4.662  1.00 20.00    -0.379 OA
ENDROOT
TORSDOF 0
ENDMDL
MODEL 2
REMARK VINA RESULT:      -4.2     15.800     16.658
REMARK  0 active torsions:
REMARK  status: ('A' for Active; 'I' for Inactive)
ROOT
HETATM    1  C1  UNL     1     -22.465  17.566   9.361  1.00 20.00     0.066 C 
HETATM    2  C2  UNL     1     -25.215  17.029  11.672  1.00 20.00     0.034 C 
HETATM    3  C3  UNL     1     -23.753  16.667  11.932  1.00 20.00     0.036 C 
HETATM    4  C4  UNL     1     -24.508  18.835  10.072  1.00 20.00     0.053 C 
HETATM    5  C5  UNL     1     -23.027  18.519  10.317  1.00 20.00     0.124 C 
HETATM    6  C6  UNL     1     -25.131  18.536  11.438  1.00 20.00     0.123 C 
HETATM    7  C7  UNL     1     -23.051  18.017  11.766  1.00 20.00     0.139 C 
HETATM    8  N8  UNL     1     -22.020  16.808   8.601  1.00 20.00    -0.197 NA
HETATM    9  O9  UNL     1     -24.053  18.901  12.332  1.00 20.00    -0.379 OA
ENDROOT
TORSDOF 0
ENDMDL
MODEL 3
REMARK VINA RESULT:      -3.9     15.928     16.811
REMARK  0 active torsions:
REMARK  status: ('A' for Active; 'I' for Inactive)
ROOT
HETATM    1  C1  UNL     1     -23.191  18.348   8.814  1.00 20.00     0.066 C 
HETATM    2  C2  UNL     1     -24.373  18.838  12.213  1.00 20.00     0.034 C 
HETATM    3  C3  UNL     1     -25.085  18.023  11.134  1.00 20.00     0.036 C 
HETATM    4  C4  UNL     1     -22.158  18.424  11.098  1.00 20.00     0.053 C 
HETATM    5  C5  UNL     1     -22.828  17.581  10.006  1.00 20.00     0.124 C 
HETATM    6  C6  UNL     1     -23.029  18.119  12.319  1.00 20.00     0.123 C 
HETATM    7  C7  UNL     1     -24.024  16.986  10.759  1.00 20.00     0.139 C 
HETATM    8  N8  UNL     1     -23.479  18.958   7.869  1.00 20.00    -0.197 NA
HETATM    9  O9  UNL     1     -23.421  16.750  12.058  1.00 20.00    -0.379 OA
ENDROOT
TORSDOF 0
ENDMDL
MODEL 4
REMARK VINA RESULT:      -3.8     12.679     13.861
REMARK  0 active torsions:
REMARK  status: ('A' for Active; 'I' for Inactive)
ROOT
HETATM    1  C1  UNL     1     -31.711  18.818  -0.879  1.00 20.00     0.066 C 
HETATM    2  C2  UNL     1     -33.337  16.835  -3.452  1.00 20.00     0.034 C 
HETATM    3  C3  UNL     1     -33.500  16.639  -1.945  1.00 20.00     0.036 C 
HETATM    4  C4  UNL     1     -32.785  19.263  -3.102  1.00 20.00     0.053 C 
HETATM    5  C5  UNL     1     -32.958  19.117  -1.584  1.00 20.00     0.124 C 
HETATM    6  C6  UNL     1     -33.820  18.272  -3.639  1.00 20.00     0.123 C 
HETATM    7  C7  UNL     1     -34.013  18.009  -1.495  1.00 20.00     0.139 C 
HETATM    8  N8  UNL     1     -30.722  18.579  -0.321  1.00 20.00    -0.197 NA
HETATM    9  O9  UNL     1     -34.852  18.356  -2.628  1.00 20.00    -0.379 OA
ENDROOT
TORSDOF 0
ENDMDL
MODEL 5
REMARK VINA RESULT:      -3.7      9.301     10.008
REMARK  0 active torsions:
REMARK  status: ('A' for Active; 'I' for Inactive)
ROOT
HETATM    1  C1  UNL     1     -42.756   4.996  -0.760  1.00 20.00     0.066 C 
HETATM    2  C2  UNL     1     -41.935   8.527  -0.541  1.00 20.00     0.034 C 
HETATM    3  C3  UNL     1     -43.194   7.872   0.024  1.00 20.00     0.036 C 
HETATM    4  C4  UNL     1     -40.687   6.353  -0.347  1.00 20.00     0.053 C 
HETATM    5  C5  UNL     1     -41.922   5.659   0.243  1.00 20.00     0.124 C 
HETATM    6  C6  UNL     1     -40.828   7.776   0.198  1.00 20.00     0.123 C 
HETATM    7  C7  UNL     1     -42.614   6.818   0.970  1.00 20.00     0.139 C 
HETATM    8  N8  UNL     1     -43.417   4.471  -1.556  1.00 20.00    -0.197 NA
HETATM    9  O9  UNL     1     -41.458   7.534   1.478  1.00 20.00    -0.379 OA
ENDROOT
TORSDOF 0
ENDMDL
MODEL 6
REMARK VINA RESULT:      -3.7     16.180     16.970
REMARK  0 active torsions:
REMARK  status: ('A' for Active; 'I' for Inactive)
ROOT
HETATM    1  C1  UNL     1     -25.499  18.802  11.379  1.00 20.00     0.066 C 
HETATM    2  C2  UNL     1     -21.880  18.512  11.291  1.00 20.00     0.034 C 
HETATM    3  C3  UNL     1     -22.833  17.522  11.957  1.00 20.00     0.036 C 
HETATM    4  C4  UNL     1     -23.689  19.218   9.694  1.00 20.00     0.053 C 
HETATM    5  C5  UNL     1     -24.674  18.223  10.318  1.00 20.00     0.124 C 
HETATM    6  C6  UNL     1     -22.354  18.483   9.839  1.00 20.00     0.123 C 
HETATM    7  C7  UNL     1     -23.735  17.107  10.791  1.00 20.00     0.139 C 
HETATM    8  N8  UNL     1     -26.152  19.263  12.221  1.00 20.00    -0.197 NA
HETATM    9  O9  UNL     1     -22.770  17.103   9.707  1.00 20.00    -0.379 OA
ENDROOT
TORSDOF 0
ENDMDL
MODEL 7
REMARK VINA RESULT:      -3.6     12.496     13.561
REMARK  0 active torsions:
REMARK  status: ('A' for Active; 'I' for Inactive)
ROOT
HETATM    1  C1  UNL     1     -33.497  15.828  -3.567  1.00 20.00     0.066 C 
HETATM    2  C2  UNL     1     -36.544  15.829  -5.543  1.00 20.00     0.034 C 
HETATM    3  C3  UNL     1     -35.345  16.751  -5.760  1.00 20.00     0.036 C 
HETATM    4  C4  UNL     1     -35.053  14.095  -4.498  1.00 20.00     0.053 C 
HETATM    5  C5  UNL     1     -33.818  14.979  -4.715  1.00 20.00     0.124 C 
HETATM    6  C6  UNL     1     -35.917  14.447  -5.712  1.00 20.00     0.123 C 
HETATM    7  C7  UNL     1     -34.206  15.753  -5.981  1.00 20.00     0.139 C 
HETATM    8  N8  UNL     1     -33.243  16.501  -2.656  1.00 20.00    -0.197 NA
HETATM    9  O9  UNL     1     -34.908  14.716  -6.714  1.00 20.00    -0.379 OA
ENDROOT
TORSDOF 0
ENDMDL
MODEL 8
REMARK VINA RESULT:      -3.5      9.385     10.134
REMARK  0 active torsions:
REMARK  status: ('A' for Active; 'I' for Inactive)
ROOT
HETATM    1  C1  UNL     1     -43.414   4.485   0.785  1.00 20.00     0.066 C 
HETATM    2  C2  UNL     1     -40.614   6.796   0.660  1.00 20.00     0.034 C 
HETATM    3  C3  UNL     1     -40.961   5.763  -0.412  1.00 20.00     0.036 C 
HETATM    4  C4  UNL     1     -43.019   6.888   1.386  1.00 20.00     0.053 C 
HETATM    5  C5  UNL     1     -43.417   5.869   0.310  1.00 20.00     0.124 C 
HETATM    6  C6  UNL     1     -41.881   7.649   0.701  1.00 20.00     0.123 C 
HETATM    7  C7  UNL     1     -42.391   6.159  -0.791  1.00 20.00     0.139 C 
HETATM    8  N8  UNL     1     -43.409   3.387   1.163  1.00 20.00    -0.197 NA
HETATM    9  O9  UNL     1     -42.296   7.604  -0.684  1.00 20.00    -0.379 OA
ENDROOT
TORSDOF 0
ENDMDL
MODEL 9
REMARK VINA RESULT:      -3.5      9.501     10.125
REMARK  0 active torsions:
REMARK  status: ('A' for Active; 'I' for Inactive)
ROOT
HETATM    1  C1  UNL     1     -42.754   5.078  -1.309  1.00 20.00     0.066 C 
HETATM    2  C2  UNL     1     -43.417   5.952   2.153  1.00 20.00     0.034 C 
HETATM    3  C3  UNL     1     -42.351   4.967   1.675  1.00 20.00     0.036 C 
HETATM    4  C4  UNL     1     -43.313   7.170  -0.044  1.00 20.00     0.053 C 
HETATM    5  C5  UNL     1     -42.226   6.217  -0.558  1.00 20.00     0.124 C 
HETATM    6  C6  UNL     1     -42.995   7.242   1.452  1.00 20.00     0.123 C 
HETATM    7  C7  UNL     1     -41.505   5.835   0.740  1.00 20.00     0.139 C 
HETATM    8  N8  UNL     1     -43.174   4.174  -1.904  1.00 20.00    -0.197 NA
HETATM    9  O9  UNL     1     -41.555   7.101   1.447  1.00 20.00    -0.379 OA
ENDROOT
TORSDOF 0
ENDMDL
