MODEL 1
REMARK VINA RESULT:      -3.2      0.000      0.000
REMARK  1 active torsions:
REMARK  status: ('A' for Active; 'I' for Inactive)
REMARK    1  A    between atoms: C1_1  and  C5_5 
ROOT
HETATM    1  C2  UNL     1     -35.330  16.911  -7.918  1.00 20.00     0.006 C 
HETATM    2  C3  UNL     1     -36.710  16.544  -7.345  1.00 20.00     0.011 C 
HETATM    3  C4  UNL     1     -34.246  15.265  -6.414  1.00 20.00     0.017 C 
HETATM    4  C5  UNL     1     -35.638  14.859  -5.883  1.00 20.00     0.056 C 
HETATM    5  C6  UNL     1     -34.404  16.779  -6.690  1.00 20.00    -0.005 C 
HETATM    6  C7  UNL     1     -36.398  16.226  -5.850  1.00 20.00    -0.027 C 
HETATM    7  C8  UNL     1     -35.287  17.272  -5.516  1.00 20.00    -0.036 C 
HETATM    8  C9  UNL     1     -37.651  16.254  -4.994  1.00 20.00     0.016 C 
HETATM    9  C10 UNL     1     -35.728  18.748  -5.633  1.00 20.00     0.016 C 
HETATM   10  C11 UNL     1     -34.609  17.153  -4.139  1.00 20.00     0.016 C 
ENDROOT
BRANCH   4  11
HETATM   11  C1  UNL     1     -35.552  14.103  -4.591  1.00 20.00     0.236 C 
HETATM   12  O12 UNL     1     -35.895  12.932  -4.468  1.00 20.00    -0.306 OA
ENDBRANCH   4  11
TORSDOF 1
ENDMDL
MODEL 2
REMARK VINA RESULT:      -3.1      1.364      2.480
REMARK  1 active torsions:
REMARK  status: ('A' for Active; 'I' for Inactive)
REMARK    1  A    between atoms: C1_1  and  C5_5 
ROOT
HETATM    1  C2  UNL     1     -37.511  16.666  -6.165  1.00 20.00     0.006 C 
HETATM    2  C3  UNL     1     -36.648  17.389  -5.117  1.00 20.00     0.011 C 
HETATM    3  C4  UNL     1     -35.892  14.790  -6.236  1.00 20.00     0.017 C 
HETATM    4  C5  UNL     1     -35.059  15.491  -5.142  1.00 20.00     0.056 C 
HETATM    5  C6  UNL     1     -36.459  15.973  -7.057  1.00 20.00    -0.005 C 
HETATM    6  C7  UNL     1     -35.194  17.000  -5.529  1.00 20.00    -0.027 C 
HETATM    7  C8  UNL     1     -35.287  16.986  -7.088  1.00 20.00    -0.036 C 
HETATM    8  C9  UNL     1     -34.165  17.927  -4.909  1.00 20.00     0.016 C 
HETATM    9  C10 UNL     1     -35.644  18.346  -7.730  1.00 20.00     0.016 C 
HETATM   10  C11 UNL     1     -34.052  16.480  -7.856  1.00 20.00     0.016 C 
ENDROOT
BRANCH   4  11
HETATM   11  C1  UNL     1     -33.668  14.939  -5.051  1.00 20.00     0.236 C 
HETATM   12  O12 UNL     1     -33.350  14.028  -4.294  1.00 20.00    -0.306 OA
ENDBRANCH   4  11
TORSDOF 1
ENDMDL
MODEL 3
REMARK VINA RESULT:      -3.1     12.895     14.580
REMARK  1 active torsions:
REMARK  status: ('A' for Active; 'I' for Inactive)
REMARK    1  A    between atoms: C1_1  and  C5_5 
ROOT
HETATM    1  C2  UNL     1     -43.335  13.497   8.549  1.00 20.00     0.006 C 
HETATM    2  C3  UNL     1     -42.028  14.240   8.870  1.00 20.00     0.011 C 
HETATM    3  C4  UNL     1     -42.215  12.282   6.700  1.00 20.00     0.017 C 
HETATM    4  C5  UNL     1     -40.890  12.987   7.064  1.00 20.00     0.056 C 
HETATM    5  C6  UNL     1     -43.282  13.358   7.012  1.00 20.00    -0.005 C 
HETATM    6  C7  UNL     1     -41.370  14.420   7.466  1.00 20.00    -0.027 C 
HETATM    7  C8  UNL     1     -42.611  14.677   6.553  1.00 20.00    -0.036 C 
HETATM    8  C9  UNL     1     -40.292  15.488   7.481  1.00 20.00     0.016 C 
HETATM    9  C10 UNL     1     -43.417  15.950   6.896  1.00 20.00     0.016 C 
HETATM   10  C11 UNL     1     -42.357  14.747   5.035  1.00 20.00     0.016 C 
ENDROOT
BRANCH   4  11
HETATM   11  C1  UNL     1     -39.881  12.899   5.958  1.00 20.00     0.236 C 
HETATM   12  O12 UNL     1     -40.046  12.228   4.944  1.00 20.00    -0.306 OA
ENDBRANCH   4  11
TORSDOF 1
ENDMDL
MODEL 4
REMARK VINA RESULT:      -3.1     12.777     14.502
REMARK  1 active torsions:
REMARK  status: ('A' for Active; 'I' for Inactive)
REMARK    1  A    between atoms: C1_1  and  C5_5 
ROOT
HETATM    1  C2  UNL     1     -43.375  13.387   8.319  1.00 20.00     0.006 C 
HETATM    2  C3  UNL     1     -42.574  12.433   7.417  1.00 20.00     0.011 C 
HETATM    3  C4  UNL     1     -43.417  15.089   6.516  1.00 20.00     0.017 C 
HETATM    4  C5  UNL     1     -42.664  14.105   5.595  1.00 20.00     0.056 C 
HETATM    5  C6  UNL     1     -42.834  14.776   7.915  1.00 20.00    -0.005 C 
HETATM    6  C7  UNL     1     -41.679  13.403   6.585  1.00 20.00    -0.027 C 
HETATM    7  C8  UNL     1     -41.334  14.511   7.630  1.00 20.00    -0.036 C 
HETATM    8  C9  UNL     1     -40.512  12.678   5.939  1.00 20.00     0.016 C 
HETATM    9  C10 UNL     1     -40.535  14.020   8.858  1.00 20.00     0.016 C 
HETATM   10  C11 UNL     1     -40.574  15.746   7.112  1.00 20.00     0.016 C 
ENDROOT
BRANCH   4  11
HETATM   11  C1  UNL     1     -42.054  14.795   4.411  1.00 20.00     0.236 C 
HETATM   12  O12 UNL     1     -42.149  14.377   3.262  1.00 20.00    -0.306 OA
ENDBRANCH   4  11
TORSDOF 1
ENDMDL
MODEL 5
REMARK VINA RESULT:      -3.1      1.356      2.704
REMARK  1 active torsions:
REMARK  status: ('A' for Active; 'I' for Inactive)
REMARK    1  A    between atoms: C1_1  and  C5_5 
ROOT
HETATM    1  C2  UNL     1     -36.842  18.822  -5.287  1.00 20.00     0.006 C 
HETATM    2  C3  UNL     1     -35.993  18.069  -4.248  1.00 20.00     0.011 C 
HETATM    3  C4  UNL     1     -37.074  16.751  -6.630  1.00 20.00     0.017 C 
HETATM    4  C5  UNL     1     -36.271  15.986  -5.555  1.00 20.00     0.056 C 
HETATM    5  C6  UNL     1     -36.426  18.156  -6.617  1.00 20.00    -0.005 C 
HETATM    6  C7  UNL     1     -35.204  17.041  -5.117  1.00 20.00    -0.027 C 
HETATM    7  C8  UNL     1     -34.919  17.858  -6.417  1.00 20.00    -0.036 C 
HETATM    8  C9  UNL     1     -34.002  16.483  -4.377  1.00 20.00     0.016 C 
HETATM    9  C10 UNL     1     -34.047  19.118  -6.214  1.00 20.00     0.016 C 
HETATM   10  C11 UNL     1     -34.276  17.098  -7.592  1.00 20.00     0.016 C 
ENDROOT
BRANCH   4  11
HETATM   11  C1  UNL     1     -35.753  14.673  -6.065  1.00 20.00     0.236 C 
HETATM   12  O12 UNL     1     -36.054  14.207  -7.158  1.00 20.00    -0.306 OA
ENDBRANCH   4  11
TORSDOF 1
ENDMDL
MODEL 6
REMARK VINA RESULT:      -3.0     13.172     14.790
REMARK  1 active torsions:
REMARK  status: ('A' for Active; 'I' for Inactive)
REMARK    1  A    between atoms: C1_1  and  C5_5 
ROOT
HETATM    1  C2  UNL     1     -43.217  14.387   5.189  1.00 20.00     0.006 C 
HETATM    2  C3  UNL     1     -41.767  13.878   5.121  1.00 20.00     0.011 C 
HETATM    3  C4  UNL     1     -42.612  15.928   7.034  1.00 20.00     0.017 C 
HETATM    4  C5  UNL     1     -41.145  15.456   6.924  1.00 20.00     0.056 C 
HETATM    5  C6  UNL     1     -43.417  14.651   6.697  1.00 20.00    -0.005 C 
HETATM    6  C7  UNL     1     -41.305  13.932   6.611  1.00 20.00    -0.027 C 
HETATM    7  C8  UNL     1     -42.604  13.519   7.373  1.00 20.00    -0.036 C 
HETATM    8  C9  UNL     1     -40.067  13.086   6.848  1.00 20.00     0.016 C 
HETATM    9  C10 UNL     1     -43.117  12.096   7.059  1.00 20.00     0.016 C 
HETATM   10  C11 UNL     1     -42.570  13.615   8.910  1.00 20.00     0.016 C 
ENDROOT
BRANCH   4  11
HETATM   11  C1  UNL     1     -40.344  15.815   8.139  1.00 20.00     0.236 C 
HETATM   12  O12 UNL     1     -40.696  16.659   8.956  1.00 20.00    -0.306 OA
ENDBRANCH   4  11
TORSDOF 1
ENDMDL
MODEL 7
REMARK VINA RESULT:      -3.0     13.303     14.840
REMARK  1 active torsions:
REMARK  status: ('A' for Active; 'I' for Inactive)
REMARK    1  A    between atoms: C1_1  and  C5_5 
ROOT
HETATM    1  C2  UNL     1     -40.504  16.001   8.899  1.00 20.00     0.006 C 
HETATM    2  C3  UNL     1     -40.929  16.370   7.467  1.00 20.00     0.011 C 
HETATM    3  C4  UNL     1     -40.059  13.668   8.190  1.00 20.00     0.017 C 
HETATM    4  C5  UNL     1     -40.430  14.056   6.742  1.00 20.00     0.056 C 
HETATM    5  C6  UNL     1     -41.004  14.548   9.042  1.00 20.00    -0.005 C 
HETATM    6  C7  UNL     1     -41.608  15.062   6.954  1.00 20.00    -0.027 C 
HETATM    7  C8  UNL     1     -42.329  14.540   8.238  1.00 20.00    -0.036 C 
HETATM    8  C9  UNL     1     -42.474  15.318   5.734  1.00 20.00     0.016 C 
HETATM    9  C10 UNL     1     -43.416  15.483   8.801  1.00 20.00     0.016 C 
HETATM   10  C11 UNL     1     -42.992  13.153   8.150  1.00 20.00     0.016 C 
ENDROOT
BRANCH   4  11
HETATM   11  C1  UNL     1     -40.713  12.855   5.890  1.00 20.00     0.236 C 
HETATM   12  O12 UNL     1     -40.371  11.716   6.192  1.00 20.00    -0.306 OA
ENDBRANCH   4  11
TORSDOF 1
ENDMDL
MODEL 8
REMARK VINA RESULT:      -3.0      1.805      3.009
REMARK  1 active torsions:
REMARK  status: ('A' for Active; 'I' for Inactive)
REMARK    1  A    between atoms: C1_1  and  C5_5 
ROOT
HETATM    1  C2  UNL     1     -34.199  16.553  -7.918  1.00 20.00     0.006 C 
HETATM    2  C3  UNL     1     -34.434  17.589  -6.806  1.00 20.00     0.011 C 
HETATM    3  C4  UNL     1     -36.598  15.928  -7.874  1.00 20.00     0.017 C 
HETATM    4  C5  UNL     1     -36.841  17.010  -6.799  1.00 20.00     0.056 C 
HETATM    5  C6  UNL     1     -35.175  15.418  -7.541  1.00 20.00    -0.005 C 
HETATM    6  C7  UNL     1     -35.542  16.922  -5.932  1.00 20.00    -0.027 C 
HETATM    7  C8  UNL     1     -35.144  15.413  -5.992  1.00 20.00    -0.036 C 
HETATM    8  C9  UNL     1     -35.633  17.557  -4.556  1.00 20.00     0.016 C 
HETATM    9  C10 UNL     1     -33.761  15.081  -5.388  1.00 20.00     0.016 C 
HETATM   10  C11 UNL     1     -36.123  14.409  -5.356  1.00 20.00     0.016 C 
ENDROOT
BRANCH   4  11
HETATM   11  C1  UNL     1     -38.144  16.813  -6.084  1.00 20.00     0.236 C 
HETATM   12  O12 UNL     1     -39.137  16.323  -6.611  1.00 20.00    -0.306 OA
ENDBRANCH   4  11
TORSDOF 1
ENDMDL
MODEL 9
REMARK VINA RESULT:      -2.9      1.852      2.496
REMARK  1 active torsions:
REMARK  status: ('A' for Active; 'I' for Inactive)
REMARK    1  A    between atoms: C1_1  and  C5_5 
ROOT
HETATM    1  C2  UNL     1     -35.983  14.829  -6.746  1.00 20.00     0.006 C 
HETATM    2  C3  UNL     1     -36.688  15.563  -5.593  1.00 20.00     0.011 C 
HETATM    3  C4  UNL     1     -33.771  15.364  -5.762  1.00 20.00     0.017 C 
HETATM    4  C5  UNL     1     -34.485  16.049  -4.576  1.00 20.00     0.056 C 
HETATM    5  C6  UNL     1     -34.705  15.670  -6.957  1.00 20.00    -0.005 C 
HETATM    6  C7  UNL     1     -35.708  16.733  -5.269  1.00 20.00    -0.027 C 
HETATM    7  C8  UNL     1     -35.178  17.120  -6.686  1.00 20.00    -0.036 C 
HETATM    8  C9  UNL     1     -36.384  17.828  -4.463  1.00 20.00     0.016 C 
HETATM    9  C10 UNL     1     -36.257  17.627  -7.668  1.00 20.00     0.016 C 
HETATM   10  C11 UNL     1     -34.045  18.162  -6.746  1.00 20.00     0.016 C 
ENDROOT
BRANCH   4  11
HETATM   11  C1  UNL     1     -33.561  16.941  -3.801  1.00 20.00     0.236 C 
HETATM   12  O12 UNL     1     -33.170  16.688  -2.667  1.00 20.00    -0.306 OA
ENDBRANCH   4  11
TORSDOF 1
ENDMDL
