MODEL 1
REMARK VINA RESULT:      -3.3      0.000      0.000
REMARK  2 active torsions:
REMARK  status: ('A' for Active; 'I' for Inactive)
REMARK    1  A    between atoms: C2_2  and  C6_6 
REMARK    2  A    between atoms: C6_6  and  N7_7 
ROOT
HETATM    1  C3  UNL     1     -34.805   5.087   6.280  1.00 20.00     0.060 C 
HETATM    2  C4  UNL     1     -34.284   6.524   6.475  1.00 20.00     0.274 C 
HETATM    3  C5  UNL     1     -34.793   5.439   4.780  1.00 20.00     0.274 C 
HETATM    4  N7  UNL     1     -33.744   6.444   5.093  1.00 20.00     0.093 N 
ENDROOT
BRANCH   4   5
HETATM    5  C6  UNL     1     -33.993   7.686   4.372  1.00 20.00     0.317 C 
BRANCH   5   6
HETATM    6  C2  UNL     1     -32.726   8.365   3.933  1.00 20.00     0.007 C 
HETATM    7  C1  UNL     1     -32.013   9.173   4.731  1.00 20.00     0.029 C 
HETATM    8 BR8  UNL     1     -32.146   7.956   2.199  1.00 20.00    -0.055 Br
ENDBRANCH   5   6
ENDBRANCH   4   5
TORSDOF 2
ENDMDL
MODEL 2
REMARK VINA RESULT:      -3.1      1.433      1.900
REMARK  2 active torsions:
REMARK  status: ('A' for Active; 'I' for Inactive)
REMARK    1  A    between atoms: C2_2  and  C6_6 
REMARK    2  A    between atoms: C6_6  and  N7_7 
ROOT
HETATM    1  C3  UNL     1     -34.985   5.568   6.372  1.00 20.00     0.060 C 
HETATM    2  C4  UNL     1     -34.907   5.280   4.860  1.00 20.00     0.274 C 
HETATM    3  C5  UNL     1     -33.699   6.383   6.138  1.00 20.00     0.274 C 
HETATM    4  N7  UNL     1     -34.137   6.545   4.728  1.00 20.00     0.093 N 
ENDROOT
BRANCH   4   5
HETATM    5  C6  UNL     1     -33.012   6.368   3.818  1.00 20.00     0.317 C 
BRANCH   5   6
HETATM    6  C2  UNL     1     -32.461   7.674   3.317  1.00 20.00     0.007 C 
HETATM    7  C1  UNL     1     -32.172   7.901   2.028  1.00 20.00     0.029 C 
HETATM    8 BR8  UNL     1     -32.265   9.018   4.608  1.00 20.00    -0.055 Br
ENDBRANCH   5   6
ENDBRANCH   4   5
TORSDOF 2
ENDMDL
MODEL 3
REMARK VINA RESULT:      -2.9     12.311     13.189
REMARK  2 active torsions:
REMARK  status: ('A' for Active; 'I' for Inactive)
REMARK    1  A    between atoms: C2_2  and  C6_6 
REMARK    2  A    between atoms: C6_6  and  N7_7 
ROOT
HETATM    1  C3  UNL     1     -32.649  18.305  -1.533  1.00 20.00     0.060 C 
HETATM    2  C4  UNL     1     -32.889  18.605  -3.025  1.00 20.00     0.274 C 
HETATM    3  C5  UNL     1     -33.530  17.067  -1.787  1.00 20.00     0.274 C 
HETATM    4  N7  UNL     1     -33.117  17.148  -3.212  1.00 20.00     0.093 N 
ENDROOT
BRANCH   4   5
HETATM    5  C6  UNL     1     -34.257  16.915  -4.091  1.00 20.00     0.317 C 
BRANCH   5   6
HETATM    6  C2  UNL     1     -34.129  15.644  -4.881  1.00 20.00     0.007 C 
HETATM    7  C1  UNL     1     -33.811  14.465  -4.328  1.00 20.00     0.029 C 
HETATM    8 BR8  UNL     1     -34.516  15.784  -6.709  1.00 20.00    -0.055 Br
ENDBRANCH   5   6
ENDBRANCH   4   5
TORSDOF 2
ENDMDL
MODEL 4
REMARK VINA RESULT:      -2.9      9.657     10.200
REMARK  2 active torsions:
REMARK  status: ('A' for Active; 'I' for Inactive)
REMARK    1  A    between atoms: C2_2  and  C6_6 
REMARK    2  A    between atoms: C6_6  and  N7_7 
ROOT
HETATM    1  C3  UNL     1     -39.295  11.758   4.673  1.00 20.00     0.060 C 
HETATM    2  C4  UNL     1     -40.395  12.834   4.746  1.00 20.00     0.274 C 
HETATM    3  C5  UNL     1     -39.216  11.938   6.201  1.00 20.00     0.274 C 
HETATM    4  N7  UNL     1     -40.625  12.407   6.151  1.00 20.00     0.093 N 
ENDROOT
BRANCH   4   5
HETATM    5  C6  UNL     1     -40.811  13.566   7.016  1.00 20.00     0.317 C 
BRANCH   5   6
HETATM    6  C2  UNL     1     -42.108  13.520   7.774  1.00 20.00     0.007 C 
HETATM    7  C1  UNL     1     -42.440  14.418   8.713  1.00 20.00     0.029 C 
HETATM    8 BR8  UNL     1     -43.290  12.155   7.275  1.00 20.00    -0.055 Br
ENDBRANCH   5   6
ENDBRANCH   4   5
TORSDOF 2
ENDMDL
MODEL 5
REMARK VINA RESULT:      -2.9      9.631     10.033
REMARK  2 active torsions:
REMARK  status: ('A' for Active; 'I' for Inactive)
REMARK    1  A    between atoms: C2_2  and  C6_6 
REMARK    2  A    between atoms: C6_6  and  N7_7 
ROOT
HETATM    1  C3  UNL     1     -39.369  11.862   4.769  1.00 20.00     0.060 C 
HETATM    2  C4  UNL     1     -39.254  11.973   6.301  1.00 20.00     0.274 C 
HETATM    3  C5  UNL     1     -40.523  12.871   4.925  1.00 20.00     0.274 C 
HETATM    4  N7  UNL     1     -39.871  13.320   6.182  1.00 20.00     0.093 N 
ENDROOT
BRANCH   4   5
HETATM    5  C6  UNL     1     -40.864  13.525   7.230  1.00 20.00     0.317 C 
BRANCH   5   6
HETATM    6  C2  UNL     1     -40.608  14.767   8.037  1.00 20.00     0.007 C 
HETATM    7  C1  UNL     1     -40.511  15.988   7.492  1.00 20.00     0.029 C 
HETATM    8 BR8  UNL     1     -40.502  14.521   9.891  1.00 20.00    -0.055 Br
ENDBRANCH   5   6
ENDBRANCH   4   5
TORSDOF 2
ENDMDL
MODEL 6
REMARK VINA RESULT:      -2.9     12.542     13.075
REMARK  2 active torsions:
REMARK  status: ('A' for Active; 'I' for Inactive)
REMARK    1  A    between atoms: C2_2  and  C6_6 
REMARK    2  A    between atoms: C6_6  and  N7_7 
ROOT
HETATM    1  C3  UNL     1     -31.608  18.602   1.374  1.00 20.00     0.060 C 
HETATM    2  C4  UNL     1     -31.017  18.562  -0.048  1.00 20.00     0.274 C 
HETATM    3  C5  UNL     1     -32.946  18.866   0.657  1.00 20.00     0.274 C 
HETATM    4  N7  UNL     1     -32.371  18.177  -0.527  1.00 20.00     0.093 N 
ENDROOT
BRANCH   4   5
HETATM    5  C6  UNL     1     -32.706  18.895  -1.751  1.00 20.00     0.317 C 
BRANCH   5   6
HETATM    6  C2  UNL     1     -33.195  17.983  -2.841  1.00 20.00     0.007 C 
HETATM    7  C1  UNL     1     -33.356  16.663  -2.676  1.00 20.00     0.029 C 
HETATM    8 BR8  UNL     1     -33.646  18.821  -4.456  1.00 20.00    -0.055 Br
ENDBRANCH   5   6
ENDBRANCH   4   5
TORSDOF 2
ENDMDL
MODEL 7
REMARK VINA RESULT:      -2.8     12.121     12.798
REMARK  2 active torsions:
REMARK  status: ('A' for Active; 'I' for Inactive)
REMARK    1  A    between atoms: C2_2  and  C6_6 
REMARK    2  A    between atoms: C6_6  and  N7_7 
ROOT
HETATM    1  C3  UNL     1     -32.560  19.137   0.406  1.00 20.00     0.060 C 
HETATM    2  C4  UNL     1     -33.819  18.345   0.006  1.00 20.00     0.274 C 
HETATM    3  C5  UNL     1     -31.886  18.371  -0.748  1.00 20.00     0.274 C 
HETATM    4  N7  UNL     1     -33.234  18.232  -1.356  1.00 20.00     0.093 N 
ENDROOT
BRANCH   4   5
HETATM    5  C6  UNL     1     -33.422  16.888  -1.886  1.00 20.00     0.317 C 
BRANCH   5   6
HETATM    6  C2  UNL     1     -33.595  16.872  -3.379  1.00 20.00     0.007 C 
HETATM    7  C1  UNL     1     -33.753  17.985  -4.110  1.00 20.00     0.029 C 
HETATM    8 BR8  UNL     1     -33.502  15.184  -4.188  1.00 20.00    -0.055 Br
ENDBRANCH   5   6
ENDBRANCH   4   5
TORSDOF 2
ENDMDL
MODEL 8
REMARK VINA RESULT:      -2.8     12.132     13.243
REMARK  2 active torsions:
REMARK  status: ('A' for Active; 'I' for Inactive)
REMARK    1  A    between atoms: C2_2  and  C6_6 
REMARK    2  A    between atoms: C6_6  and  N7_7 
ROOT
HETATM    1  C3  UNL     1     -32.471  18.290  -0.893  1.00 20.00     0.060 C 
HETATM    2  C4  UNL     1     -32.612  18.791  -2.343  1.00 20.00     0.274 C 
HETATM    3  C5  UNL     1     -33.617  17.329  -1.264  1.00 20.00     0.274 C 
HETATM    4  N7  UNL     1     -33.176  17.457  -2.677  1.00 20.00     0.093 N 
ENDROOT
BRANCH   4   5
HETATM    5  C6  UNL     1     -34.326  17.592  -3.563  1.00 20.00     0.317 C 
BRANCH   5   6
HETATM    6  C2  UNL     1     -34.305  16.604  -4.696  1.00 20.00     0.007 C 
HETATM    7  C1  UNL     1     -34.728  16.898  -5.933  1.00 20.00     0.029 C 
HETATM    8 BR8  UNL     1     -33.571  14.927  -4.293  1.00 20.00    -0.055 Br
ENDBRANCH   5   6
ENDBRANCH   4   5
TORSDOF 2
ENDMDL
MODEL 9
REMARK VINA RESULT:      -2.8     12.347     12.954
REMARK  2 active torsions:
REMARK  status: ('A' for Active; 'I' for Inactive)
REMARK    1  A    between atoms: C2_2  and  C6_6 
REMARK    2  A    between atoms: C6_6  and  N7_7 
ROOT
HETATM    1  C3  UNL     1     -33.797  17.346  -3.930  1.00 20.00     0.060 C 
HETATM    2  C4  UNL     1     -33.196  18.605  -3.274  1.00 20.00     0.274 C 
HETATM    3  C5  UNL     1     -33.347  16.634  -2.640  1.00 20.00     0.274 C 
HETATM    4  N7  UNL     1     -33.435  17.952  -1.960  1.00 20.00     0.093 N 
ENDROOT
BRANCH   4   5
HETATM    5  C6  UNL     1     -32.295  18.150  -1.074  1.00 20.00     0.317 C 
BRANCH   5   6
HETATM    6  C2  UNL     1     -32.706  18.463   0.338  1.00 20.00     0.007 C 
HETATM    7  C1  UNL     1     -33.985  18.588   0.718  1.00 20.00     0.029 C 
HETATM    8 BR8  UNL     1     -31.307  18.600   1.577  1.00 20.00    -0.055 Br
ENDBRANCH   5   6
ENDBRANCH   4   5
TORSDOF 2
ENDMDL
