MODEL 1
REMARK VINA RESULT:      -3.7      0.000      0.000
REMARK  0 active torsions:
REMARK  status: ('A' for Active; 'I' for Inactive)
ROOT
HETATM    1  C1  UNL     1     -33.118   5.922   3.710  1.00 20.00     0.050 C 
HETATM    2  C2  UNL     1     -33.902   6.859   5.953  1.00 20.00     0.050 C 
HETATM    3  C3  UNL     1     -35.631   5.706   4.376  1.00 20.00     0.207 A 
HETATM    4  C4  UNL     1     -32.786   7.293   3.132  1.00 20.00     0.077 C 
HETATM    5  C5  UNL     1     -33.634   8.308   5.561  1.00 20.00     0.077 C 
HETATM    6  C6  UNL     1     -34.199   6.014   4.748  1.00 20.00     0.084 A 
HETATM    7  O7  UNL     1     -34.807   4.753   5.063  1.00 20.00    -0.375 OA
HETATM    8  S8  UNL     1     -32.216   8.443   4.425  1.00 20.00    -0.169 SA
ENDROOT
TORSDOF 0
ENDMDL
MODEL 2
REMARK VINA RESULT:      -3.6      1.264      2.276
REMARK  0 active torsions:
REMARK  status: ('A' for Active; 'I' for Inactive)
ROOT
HETATM    1  C1  UNL     1     -33.829   7.827   5.170  1.00 20.00     0.050 C 
HETATM    2  C2  UNL     1     -34.160   5.679   3.830  1.00 20.00     0.050 C 
HETATM    3  C3  UNL     1     -33.931   5.542   6.425  1.00 20.00     0.207 A 
HETATM    4  C4  UNL     1     -32.449   8.106   4.584  1.00 20.00     0.077 C 
HETATM    5  C5  UNL     1     -32.809   5.780   3.132  1.00 20.00     0.077 C 
HETATM    6  C6  UNL     1     -34.135   6.357   5.169  1.00 20.00     0.084 A 
HETATM    7  O7  UNL     1     -35.231   5.995   6.021  1.00 20.00    -0.375 OA
HETATM    8  S8  UNL     1     -32.322   7.516   2.865  1.00 20.00    -0.169 SA
ENDROOT
TORSDOF 0
ENDMDL
MODEL 3
REMARK VINA RESULT:      -3.4      2.427      3.088
REMARK  0 active torsions:
REMARK  status: ('A' for Active; 'I' for Inactive)
ROOT
HETATM    1  C1  UNL     1     -33.755   6.333   3.406  1.00 20.00     0.050 C 
HETATM    2  C2  UNL     1     -33.832   7.949   5.382  1.00 20.00     0.050 C 
HETATM    3  C3  UNL     1     -31.684   7.839   3.906  1.00 20.00     0.207 A 
HETATM    4  C4  UNL     1     -33.793   5.088   4.285  1.00 20.00     0.077 C 
HETATM    5  C5  UNL     1     -33.878   6.839   6.424  1.00 20.00     0.077 C 
HETATM    6  C6  UNL     1     -33.138   7.494   4.131  1.00 20.00     0.084 A 
HETATM    7  O7  UNL     1     -32.741   8.569   3.267  1.00 20.00    -0.375 OA
HETATM    8  S8  UNL     1     -34.761   5.372   5.802  1.00 20.00    -0.169 SA
ENDROOT
TORSDOF 0
ENDMDL
MODEL 4
REMARK VINA RESULT:      -3.2      2.380      3.451
REMARK  0 active torsions:
REMARK  status: ('A' for Active; 'I' for Inactive)
ROOT
HETATM    1  C1  UNL     1     -32.956   7.516   5.794  1.00 20.00     0.050 C 
HETATM    2  C2  UNL     1     -33.187   6.003   3.750  1.00 20.00     0.050 C 
HETATM    3  C3  UNL     1     -33.180   8.591   3.427  1.00 20.00     0.207 A 
HETATM    4  C4  UNL     1     -34.305   7.112   6.378  1.00 20.00     0.077 C 
HETATM    5  C5  UNL     1     -34.554   5.473   4.165  1.00 20.00     0.077 C 
HETATM    6  C6  UNL     1     -32.946   7.379   4.299  1.00 20.00     0.084 A 
HETATM    7  O7  UNL     1     -31.863   8.073   3.662  1.00 20.00    -0.375 OA
HETATM    8  S8  UNL     1     -34.715   5.383   5.977  1.00 20.00    -0.169 SA
ENDROOT
TORSDOF 0
ENDMDL
MODEL 5
REMARK VINA RESULT:      -3.1     12.508     13.457
REMARK  0 active torsions:
REMARK  status: ('A' for Active; 'I' for Inactive)
ROOT
HETATM    1  C1  UNL     1     -34.566  14.471  -4.657  1.00 20.00     0.050 C 
HETATM    2  C2  UNL     1     -35.600  16.780  -5.009  1.00 20.00     0.050 C 
HETATM    3  C3  UNL     1     -35.208  15.228  -7.070  1.00 20.00     0.207 A 
HETATM    4  C4  UNL     1     -33.217  15.026  -4.214  1.00 20.00     0.077 C 
HETATM    5  C5  UNL     1     -34.337  17.525  -4.596  1.00 20.00     0.077 C 
HETATM    6  C6  UNL     1     -35.274  15.427  -5.573  1.00 20.00     0.084 A 
HETATM    7  O7  UNL     1     -36.355  14.831  -6.305  1.00 20.00    -0.375 OA
HETATM    8  S8  UNL     1     -33.402  16.607  -3.329  1.00 20.00    -0.169 SA
ENDROOT
TORSDOF 0
ENDMDL
MODEL 6
REMARK VINA RESULT:      -3.0     12.652     13.599
REMARK  0 active torsions:
REMARK  status: ('A' for Active; 'I' for Inactive)
ROOT
HETATM    1  C1  UNL     1     -34.774  17.005  -5.908  1.00 20.00     0.050 C 
HETATM    2  C2  UNL     1     -33.504  15.097  -4.781  1.00 20.00     0.050 C 
HETATM    3  C3  UNL     1     -35.910  14.666  -5.692  1.00 20.00     0.207 A 
HETATM    4  C4  UNL     1     -34.889  17.826  -4.628  1.00 20.00     0.077 C 
HETATM    5  C5  UNL     1     -33.512  15.760  -3.409  1.00 20.00     0.077 C 
HETATM    6  C6  UNL     1     -34.678  15.537  -5.607  1.00 20.00     0.084 A 
HETATM    7  O7  UNL     1     -34.933  14.696  -6.742  1.00 20.00    -0.375 OA
HETATM    8  S8  UNL     1     -33.447  17.576  -3.543  1.00 20.00    -0.169 SA
ENDROOT
TORSDOF 0
ENDMDL
MODEL 7
REMARK VINA RESULT:      -2.9     12.755     13.766
REMARK  0 active torsions:
REMARK  status: ('A' for Active; 'I' for Inactive)
ROOT
HETATM    1  C1  UNL     1     -35.846  14.521  -5.163  1.00 20.00     0.050 C 
HETATM    2  C2  UNL     1     -33.822  15.175  -6.578  1.00 20.00     0.050 C 
HETATM    3  C3  UNL     1     -33.683  15.376  -3.980  1.00 20.00     0.207 A 
HETATM    4  C4  UNL     1     -36.712  15.662  -5.684  1.00 20.00     0.077 C 
HETATM    5  C5  UNL     1     -34.522  16.369  -7.216  1.00 20.00     0.077 C 
HETATM    6  C6  UNL     1     -34.387  14.874  -5.220  1.00 20.00     0.084 A 
HETATM    7  O7  UNL     1     -33.554  14.018  -4.424  1.00 20.00    -0.375 OA
HETATM    8  S8  UNL     1     -36.309  16.072  -7.412  1.00 20.00    -0.169 SA
ENDROOT
TORSDOF 0
ENDMDL
MODEL 8
REMARK VINA RESULT:      -2.9     12.500     13.478
REMARK  0 active torsions:
REMARK  status: ('A' for Active; 'I' for Inactive)
ROOT
HETATM    1  C1  UNL     1     -33.051  15.633  -3.904  1.00 20.00     0.050 C 
HETATM    2  C2  UNL     1     -34.469  17.553  -4.812  1.00 20.00     0.050 C 
HETATM    3  C3  UNL     1     -33.942  17.451  -2.259  1.00 20.00     0.207 A 
HETATM    4  C4  UNL     1     -34.098  14.571  -4.218  1.00 20.00     0.077 C 
HETATM    5  C5  UNL     1     -35.633  16.650  -5.201  1.00 20.00     0.077 C 
HETATM    6  C6  UNL     1     -33.687  16.973  -3.670  1.00 20.00     0.084 A 
HETATM    7  O7  UNL     1     -32.821  17.918  -3.023  1.00 20.00    -0.375 OA
HETATM    8  S8  UNL     1     -35.057  14.997  -5.707  1.00 20.00    -0.169 SA
ENDROOT
TORSDOF 0
ENDMDL
MODEL 9
REMARK VINA RESULT:      -2.9      9.377     10.008
REMARK  0 active torsions:
REMARK  status: ('A' for Active; 'I' for Inactive)
ROOT
HETATM    1  C1  UNL     1     -41.850   5.958  -0.497  1.00 20.00     0.050 C 
HETATM    2  C2  UNL     1     -43.408   7.628   0.648  1.00 20.00     0.050 C 
HETATM    3  C3  UNL     1     -41.010   8.387  -0.046  1.00 20.00     0.207 A 
HETATM    4  C4  UNL     1     -41.730   5.065   0.733  1.00 20.00     0.077 C 
HETATM    5  C5  UNL     1     -43.417   6.873   1.971  1.00 20.00     0.077 C 
HETATM    6  C6  UNL     1     -42.136   7.381  -0.112  1.00 20.00     0.084 A 
HETATM    7  O7  UNL     1     -41.902   8.324  -1.168  1.00 20.00    -0.375 OA
HETATM    8  S8  UNL     1     -43.263   5.075   1.718  1.00 20.00    -0.169 SA
ENDROOT
TORSDOF 0
ENDMDL
