MODEL 1
REMARK VINA RESULT:      -4.2      0.000      0.000
REMARK  1 active torsions:
REMARK  status: ('A' for Active; 'I' for Inactive)
REMARK    1  A    between atoms: C3_3  and  C5_5 
ROOT
HETATM    1  C1  UNL     1     -34.214   5.735   6.196  1.00 20.00    -0.015 C 
HETATM    2  C2  UNL     1     -33.613   6.891   6.490  1.00 20.00    -0.021 C 
HETATM    3  C4  UNL     1     -34.592   7.164   4.335  1.00 20.00     0.032 C 
HETATM    4  C5  UNL     1     -34.768   5.722   4.815  1.00 20.00     0.110 C 
HETATM    5  C6  UNL     1     -33.641   7.862   5.342  1.00 20.00    -0.029 C 
HETATM    6  C7  UNL     1     -34.201   9.218   5.779  1.00 20.00     0.019 C 
HETATM    7  C8  UNL     1     -32.235   8.041   4.758  1.00 20.00     0.019 C 
ENDROOT
BRANCH   4   8
HETATM    8  C3  UNL     1     -33.954   4.752   3.990  1.00 20.00     0.180 C 
HETATM    9  O9  UNL     1     -33.427   5.238   2.952  1.00 20.00    -0.647 OA
HETATM   10  O10 UNL     1     -33.907   3.576   4.450  1.00 20.00    -0.647 OA
ENDBRANCH   4   8
TORSDOF 1
ENDMDL
MODEL 2
REMARK VINA RESULT:      -4.0      2.073      3.389
REMARK  1 active torsions:
REMARK  status: ('A' for Active; 'I' for Inactive)
REMARK    1  A    between atoms: C3_3  and  C5_5 
ROOT
HETATM    1  C1  UNL     1     -32.991   8.330   5.106  1.00 20.00    -0.015 C 
HETATM    2  C2  UNL     1     -34.070   7.727   5.614  1.00 20.00    -0.021 C 
HETATM    3  C4  UNL     1     -33.053   6.162   4.133  1.00 20.00     0.032 C 
HETATM    4  C5  UNL     1     -32.322   7.505   4.064  1.00 20.00     0.110 C 
HETATM    5  C6  UNL     1     -34.330   6.387   4.984  1.00 20.00    -0.029 C 
HETATM    6  C7  UNL     1     -34.481   5.296   6.048  1.00 20.00     0.019 C 
HETATM    7  C8  UNL     1     -35.587   6.441   4.110  1.00 20.00     0.019 C 
ENDROOT
BRANCH   4   8
HETATM    8  C3  UNL     1     -32.518   8.183   2.728  1.00 20.00     0.180 C 
HETATM    9  O9  UNL     1     -32.922   9.377   2.784  1.00 20.00    -0.647 OA
HETATM   10  O10 UNL     1     -32.250   7.463   1.725  1.00 20.00    -0.647 OA
ENDBRANCH   4   8
TORSDOF 1
ENDMDL
MODEL 3
REMARK VINA RESULT:      -4.0      1.546      2.080
REMARK  1 active torsions:
REMARK  status: ('A' for Active; 'I' for Inactive)
REMARK    1  A    between atoms: C3_3  and  C5_5 
ROOT
HETATM    1  C1  UNL     1     -33.368   7.537   6.060  1.00 20.00    -0.015 C 
HETATM    2  C2  UNL     1     -32.521   8.043   5.159  1.00 20.00    -0.021 C 
HETATM    3  C4  UNL     1     -34.437   7.304   3.951  1.00 20.00     0.032 C 
HETATM    4  C5  UNL     1     -34.566   6.922   5.427  1.00 20.00     0.110 C 
HETATM    5  C6  UNL     1     -32.997   7.839   3.747  1.00 20.00    -0.029 C 
HETATM    6  C7  UNL     1     -33.005   9.160   2.972  1.00 20.00     0.019 C 
HETATM    7  C8  UNL     1     -32.111   6.817   3.027  1.00 20.00     0.019 C 
ENDROOT
BRANCH   4   8
HETATM    8  C3  UNL     1     -34.490   5.426   5.629  1.00 20.00     0.180 C 
HETATM    9  O9  UNL     1     -34.838   4.730   4.636  1.00 20.00    -0.647 OA
HETATM   10  O10 UNL     1     -34.084   5.066   6.770  1.00 20.00    -0.647 OA
ENDBRANCH   4   8
TORSDOF 1
ENDMDL
MODEL 4
REMARK VINA RESULT:      -3.5     13.073     14.043
REMARK  1 active torsions:
REMARK  status: ('A' for Active; 'I' for Inactive)
REMARK    1  A    between atoms: C3_3  and  C5_5 
ROOT
HETATM    1  C1  UNL     1     -34.430  18.648  -0.823  1.00 20.00    -0.015 C 
HETATM    2  C2  UNL     1     -34.735  18.871  -2.104  1.00 20.00    -0.021 C 
HETATM    3  C4  UNL     1     -32.921  17.327  -2.098  1.00 20.00     0.032 C 
HETATM    4  C5  UNL     1     -33.224  17.789  -0.671  1.00 20.00     0.110 C 
HETATM    5  C6  UNL     1     -33.769  18.211  -3.048  1.00 20.00    -0.029 C 
HETATM    6  C7  UNL     1     -34.507  17.356  -4.083  1.00 20.00     0.019 C 
HETATM    7  C8  UNL     1     -32.910  19.263  -3.757  1.00 20.00     0.019 C 
ENDROOT
BRANCH   4   8
HETATM    8  C3  UNL     1     -32.109  18.638  -0.106  1.00 20.00     0.180 C 
HETATM    9  O9  UNL     1     -31.048  18.658  -0.789  1.00 20.00    -0.647 OA
HETATM   10  O10 UNL     1     -32.386  19.220   0.980  1.00 20.00    -0.647 OA
ENDBRANCH   4   8
TORSDOF 1
ENDMDL
MODEL 5
REMARK VINA RESULT:      -3.5      9.064     10.524
REMARK  1 active torsions:
REMARK  status: ('A' for Active; 'I' for Inactive)
REMARK    1  A    between atoms: C3_3  and  C5_5 
ROOT
HETATM    1  C1  UNL     1     -41.544  13.911   5.086  1.00 20.00    -0.015 C 
HETATM    2  C2  UNL     1     -42.737  13.836   5.682  1.00 20.00    -0.021 C 
HETATM    3  C4  UNL     1     -41.104  13.674   7.409  1.00 20.00     0.032 C 
HETATM    4  C5  UNL     1     -40.422  13.699   6.040  1.00 20.00     0.110 C 
HETATM    5  C6  UNL     1     -42.627  13.539   7.152  1.00 20.00    -0.029 C 
HETATM    6  C7  UNL     1     -43.417  14.556   7.981  1.00 20.00     0.019 C 
HETATM    7  C8  UNL     1     -43.127  12.122   7.451  1.00 20.00     0.019 C 
ENDROOT
BRANCH   4   8
HETATM    8  C3  UNL     1     -39.768  12.376   5.713  1.00 20.00     0.180 C 
HETATM    9  O9  UNL     1     -39.772  12.060   4.492  1.00 20.00    -0.647 OA
HETATM   10  O10 UNL     1     -39.301  11.757   6.710  1.00 20.00    -0.647 OA
ENDBRANCH   4   8
TORSDOF 1
ENDMDL
MODEL 6
REMARK VINA RESULT:      -3.5     13.143     14.105
REMARK  1 active torsions:
REMARK  status: ('A' for Active; 'I' for Inactive)
REMARK    1  A    between atoms: C3_3  and  C5_5 
ROOT
HETATM    1  C1  UNL     1     -33.753  15.368  -4.088  1.00 20.00    -0.015 C 
HETATM    2  C2  UNL     1     -33.283  16.292  -3.244  1.00 20.00    -0.021 C 
HETATM    3  C4  UNL     1     -35.145  17.275  -4.357  1.00 20.00     0.032 C 
HETATM    4  C5  UNL     1     -34.851  15.893  -4.944  1.00 20.00     0.110 C 
HETATM    5  C6  UNL     1     -33.976  17.617  -3.398  1.00 20.00    -0.029 C 
HETATM    6  C7  UNL     1     -34.499  18.127  -2.052  1.00 20.00     0.019 C 
HETATM    7  C8  UNL     1     -33.025  18.649  -4.014  1.00 20.00     0.019 C 
ENDROOT
BRANCH   4   8
HETATM    8  C3  UNL     1     -34.340  15.982  -6.363  1.00 20.00     0.180 C 
HETATM    9  O9  UNL     1     -34.444  17.117  -6.903  1.00 20.00    -0.647 OA
HETATM   10  O10 UNL     1     -33.872  14.903  -6.825  1.00 20.00    -0.647 OA
ENDBRANCH   4   8
TORSDOF 1
ENDMDL
MODEL 7
REMARK VINA RESULT:      -3.4     13.560     14.615
REMARK  1 active torsions:
REMARK  status: ('A' for Active; 'I' for Inactive)
REMARK    1  A    between atoms: C3_3  and  C5_5 
ROOT
HETATM    1  C1  UNL     1     -34.425  16.422  -7.022  1.00 20.00    -0.015 C 
HETATM    2  C2  UNL     1     -34.491  17.595  -6.386  1.00 20.00    -0.021 C 
HETATM    3  C4  UNL     1     -34.454  15.911  -4.702  1.00 20.00     0.032 C 
HETATM    4  C5  UNL     1     -34.518  15.267  -6.088  1.00 20.00     0.110 C 
HETATM    5  C6  UNL     1     -34.661  17.435  -4.901  1.00 20.00    -0.029 C 
HETATM    6  C7  UNL     1     -33.607  18.239  -4.135  1.00 20.00     0.019 C 
HETATM    7  C8  UNL     1     -36.066  17.874  -4.473  1.00 20.00     0.019 C 
ENDROOT
BRANCH   4   8
HETATM    8  C3  UNL     1     -35.841  14.575  -6.325  1.00 20.00     0.180 C 
HETATM    9  O9  UNL     1     -36.093  14.293  -7.528  1.00 20.00    -0.647 OA
HETATM   10  O10 UNL     1     -36.523  14.368  -5.282  1.00 20.00    -0.647 OA
ENDBRANCH   4   8
TORSDOF 1
ENDMDL
MODEL 8
REMARK VINA RESULT:      -3.3     11.222     12.326
REMARK  1 active torsions:
REMARK  status: ('A' for Active; 'I' for Inactive)
REMARK    1  A    between atoms: C3_3  and  C5_5 
ROOT
HETATM    1  C1  UNL     1     -27.539  -3.666  10.813  1.00 20.00    -0.015 C 
HETATM    2  C2  UNL     1     -26.741  -2.638  10.510  1.00 20.00    -0.021 C 
HETATM    3  C4  UNL     1     -28.262  -1.853  12.168  1.00 20.00     0.032 C 
HETATM    4  C5  UNL     1     -28.625  -3.281  11.755  1.00 20.00     0.110 C 
HETATM    5  C6  UNL     1     -27.165  -1.364  11.188  1.00 20.00    -0.029 C 
HETATM    6  C7  UNL     1     -25.996  -0.726  11.943  1.00 20.00     0.019 C 
HETATM    7  C8  UNL     1     -27.726  -0.374  10.161  1.00 20.00     0.019 C 
ENDROOT
BRANCH   4   8
HETATM    8  C3  UNL     1     -29.937  -3.333  11.007  1.00 20.00     0.180 C 
HETATM    9  O9  UNL     1     -30.731  -2.382  11.244  1.00 20.00    -0.647 OA
HETATM   10  O10 UNL     1     -30.068  -4.327  10.238  1.00 20.00    -0.647 OA
ENDBRANCH   4   8
TORSDOF 1
ENDMDL
MODEL 9
REMARK VINA RESULT:      -3.3     12.884     14.107
REMARK  1 active torsions:
REMARK  status: ('A' for Active; 'I' for Inactive)
REMARK    1  A    between atoms: C3_3  and  C5_5 
ROOT
HETATM    1  C1  UNL     1     -33.326  15.551  -3.729  1.00 20.00    -0.015 C 
HETATM    2  C2  UNL     1     -34.065  15.018  -4.706  1.00 20.00    -0.021 C 
HETATM    3  C4  UNL     1     -34.121  17.379  -5.023  1.00 20.00     0.032 C 
HETATM    4  C5  UNL     1     -33.372  17.038  -3.732  1.00 20.00     0.110 C 
HETATM    5  C6  UNL     1     -34.760  16.063  -5.535  1.00 20.00    -0.029 C 
HETATM    6  C7  UNL     1     -34.481  15.859  -7.027  1.00 20.00     0.019 C 
HETATM    7  C8  UNL     1     -36.270  16.032  -5.277  1.00 20.00     0.019 C 
ENDROOT
BRANCH   4   8
HETATM    8  C3  UNL     1     -34.134  17.488  -2.506  1.00 20.00     0.180 C 
HETATM    9  O9  UNL     1     -33.723  17.014  -1.412  1.00 20.00    -0.647 OA
HETATM   10  O10 UNL     1     -35.086  18.285  -2.739  1.00 20.00    -0.647 OA
ENDBRANCH   4   8
TORSDOF 1
ENDMDL
