MODEL 1
REMARK VINA RESULT:      -3.8      0.000      0.000
REMARK  3 active torsions:
REMARK  status: ('A' for Active; 'I' for Inactive)
REMARK    1  A    between atoms: C1_1  and  C2_2 
REMARK    2  A    between atoms: C1_1  and  O10_10 
REMARK    3  A    between atoms: C3_3  and  C7_7 
ROOT
HETATM    1  C2  UNL     1     -33.546   8.313   4.610  1.00 20.00     0.256 A 
HETATM    2  C3  UNL     1     -32.677   8.232   3.371  1.00 20.00     0.093 A 
HETATM    3  C4  UNL     1     -32.103   6.928   2.911  1.00 20.00     0.049 C 
HETATM    4  O9  UNL     1     -32.156   8.680   4.629  1.00 20.00    -0.359 OA
ENDROOT
BRANCH   1   5
HETATM    5  C1  UNL     1     -33.849   7.131   5.418  1.00 20.00     0.290 C 
HETATM    6  O8  UNL     1     -33.274   6.850   6.462  1.00 20.00    -0.262 OA
BRANCH   5   7
HETATM    7  O10 UNL     1     -34.848   6.418   4.827  1.00 20.00    -0.324 OA
HETATM    8  C6  UNL     1     -34.678   4.997   4.835  1.00 20.00     0.213 C 
ENDBRANCH   5   7
ENDBRANCH   1   5
BRANCH   2   9
HETATM    9  C7  UNL     1     -32.786   9.313   2.343  1.00 20.00     0.036 C 
HETATM   10  C5  UNL     1     -32.470   8.830   0.953  1.00 20.00     0.008 C 
ENDBRANCH   2   9
TORSDOF 3
ENDMDL
MODEL 2
REMARK VINA RESULT:      -3.7      1.592      4.163
REMARK  3 active torsions:
REMARK  status: ('A' for Active; 'I' for Inactive)
REMARK    1  A    between atoms: C1_1  and  C2_2 
REMARK    2  A    between atoms: C1_1  and  O10_10 
REMARK    3  A    between atoms: C3_3  and  C7_7 
ROOT
HETATM    1  C2  UNL     1     -32.720   7.929   4.368  1.00 20.00     0.256 A 
HETATM    2  C3  UNL     1     -33.844   7.068   4.909  1.00 20.00     0.093 A 
HETATM    3  C4  UNL     1     -34.679   6.224   3.998  1.00 20.00     0.049 C 
HETATM    4  O9  UNL     1     -34.007   8.477   4.700  1.00 20.00    -0.359 OA
ENDROOT
BRANCH   1   5
HETATM    5  C1  UNL     1     -32.412   7.987   2.939  1.00 20.00     0.290 C 
HETATM    6  O8  UNL     1     -31.926   7.060   2.305  1.00 20.00    -0.262 OA
BRANCH   5   7
HETATM    7  O10 UNL     1     -32.746   9.215   2.450  1.00 20.00    -0.324 OA
HETATM    8  C6  UNL     1     -32.718   9.337   1.024  1.00 20.00     0.213 C 
ENDBRANCH   5   7
ENDBRANCH   1   5
BRANCH   2   9
HETATM    9  C7  UNL     1     -33.817   6.671   6.351  1.00 20.00     0.036 C 
HETATM   10  C5  UNL     1     -34.558   5.387   6.615  1.00 20.00     0.008 C 
ENDBRANCH   2   9
TORSDOF 3
ENDMDL
MODEL 3
REMARK VINA RESULT:      -3.5      9.642     10.595
REMARK  3 active torsions:
REMARK  status: ('A' for Active; 'I' for Inactive)
REMARK    1  A    between atoms: C1_1  and  C2_2 
REMARK    2  A    between atoms: C1_1  and  O10_10 
REMARK    3  A    between atoms: C3_3  and  C7_7 
ROOT
HETATM    1  C2  UNL     1     -40.460  13.602   7.391  1.00 20.00     0.256 A 
HETATM    2  C3  UNL     1     -40.491  12.887   6.055  1.00 20.00     0.093 A 
HETATM    3  C4  UNL     1     -41.188  13.485   4.873  1.00 20.00     0.049 C 
HETATM    4  O9  UNL     1     -41.375  12.525   7.124  1.00 20.00    -0.359 OA
ENDROOT
BRANCH   1   5
HETATM    5  C1  UNL     1     -41.121  14.892   7.591  1.00 20.00     0.290 C 
HETATM    6  O8  UNL     1     -42.318  15.021   7.811  1.00 20.00    -0.262 OA
BRANCH   5   7
HETATM    7  O10 UNL     1     -40.202  15.894   7.492  1.00 20.00    -0.324 OA
HETATM    8  C6  UNL     1     -40.738  17.222   7.501  1.00 20.00     0.213 C 
ENDBRANCH   5   7
ENDBRANCH   1   5
BRANCH   2   9
HETATM    9  C7  UNL     1     -39.443  11.860   5.763  1.00 20.00     0.036 C 
HETATM   10  C5  UNL     1     -39.159  11.719   4.291  1.00 20.00     0.008 C 
ENDBRANCH   2   9
TORSDOF 3
ENDMDL
MODEL 4
REMARK VINA RESULT:      -3.5     11.367     12.498
REMARK  3 active torsions:
REMARK  status: ('A' for Active; 'I' for Inactive)
REMARK    1  A    between atoms: C1_1  and  C2_2 
REMARK    2  A    between atoms: C1_1  and  O10_10 
REMARK    3  A    between atoms: C3_3  and  C7_7 
ROOT
HETATM    1  C2  UNL     1     -34.113  15.051  -4.149  1.00 20.00     0.256 A 
HETATM    2  C3  UNL     1     -33.688  16.409  -3.629  1.00 20.00     0.093 A 
HETATM    3  C4  UNL     1     -33.969  17.658  -4.405  1.00 20.00     0.049 C 
HETATM    4  O9  UNL     1     -32.762  15.525  -4.275  1.00 20.00    -0.359 OA
ENDROOT
BRANCH   1   5
HETATM    5  C1  UNL     1     -34.799  14.896  -5.433  1.00 20.00     0.290 C 
HETATM    6  O8  UNL     1     -36.016  14.872  -5.561  1.00 20.00    -0.262 OA
BRANCH   5   7
HETATM    7  O10 UNL     1     -33.877  14.786  -6.431  1.00 20.00    -0.324 OA
HETATM    8  C6  UNL     1     -34.109  15.613  -7.576  1.00 20.00     0.213 C 
ENDBRANCH   5   7
ENDBRANCH   1   5
BRANCH   2   9
HETATM    9  C7  UNL     1     -33.443  16.574  -2.162  1.00 20.00     0.036 C 
HETATM   10  C5  UNL     1     -33.997  17.865  -1.621  1.00 20.00     0.008 C 
ENDBRANCH   2   9
TORSDOF 3
ENDMDL
MODEL 5
REMARK VINA RESULT:      -3.4     11.323     12.446
REMARK  3 active torsions:
REMARK  status: ('A' for Active; 'I' for Inactive)
REMARK    1  A    between atoms: C1_1  and  C2_2 
REMARK    2  A    between atoms: C1_1  and  O10_10 
REMARK    3  A    between atoms: C3_3  and  C7_7 
ROOT
HETATM    1  C2  UNL     1     -32.727  19.263  -1.176  1.00 20.00     0.256 A 
HETATM    2  C3  UNL     1     -33.515  18.351  -2.096  1.00 20.00     0.093 A 
HETATM    3  C4  UNL     1     -33.332  16.866  -2.056  1.00 20.00     0.049 C 
HETATM    4  O9  UNL     1     -32.357  19.063  -2.551  1.00 20.00    -0.359 OA
ENDROOT
BRANCH   1   5
HETATM    5  C1  UNL     1     -31.746  18.739  -0.226  1.00 20.00     0.290 C 
HETATM    6  O8  UNL     1     -30.594  18.450  -0.520  1.00 20.00    -0.262 OA
BRANCH   5   7
HETATM    7  O10 UNL     1     -32.319  18.630   1.006  1.00 20.00    -0.324 OA
HETATM    8  C6  UNL     1     -31.405  18.474   2.097  1.00 20.00     0.213 C 
ENDBRANCH   5   7
ENDBRANCH   1   5
BRANCH   2   9
HETATM    9  C7  UNL     1     -34.799  18.851  -2.679  1.00 20.00     0.036 C 
HETATM   10  C5  UNL     1     -34.941  18.525  -4.141  1.00 20.00     0.008 C 
ENDBRANCH   2   9
TORSDOF 3
ENDMDL
MODEL 6
REMARK VINA RESULT:      -3.3     11.080     12.927
REMARK  3 active torsions:
REMARK  status: ('A' for Active; 'I' for Inactive)
REMARK    1  A    between atoms: C1_1  and  C2_2 
REMARK    2  A    between atoms: C1_1  and  O10_10 
REMARK    3  A    between atoms: C3_3  and  C7_7 
ROOT
HETATM    1  C2  UNL     1     -33.889  15.025  -5.977  1.00 20.00     0.256 A 
HETATM    2  C3  UNL     1     -34.878  16.043  -6.510  1.00 20.00     0.093 A 
HETATM    3  C4  UNL     1     -35.821  16.759  -5.594  1.00 20.00     0.049 C 
HETATM    4  O9  UNL     1     -35.123  14.634  -6.603  1.00 20.00    -0.359 OA
ENDROOT
BRANCH   1   5
HETATM    5  C1  UNL     1     -33.823  14.685  -4.555  1.00 20.00     0.290 C 
HETATM    6  O8  UNL     1     -34.530  13.842  -4.019  1.00 20.00    -0.262 OA
BRANCH   5   7
HETATM    7  O10 UNL     1     -32.870  15.447  -3.949  1.00 20.00    -0.324 OA
HETATM    8  C6  UNL     1     -33.346  16.330  -2.927  1.00 20.00     0.213 C 
ENDBRANCH   5   7
ENDBRANCH   1   5
BRANCH   2   9
HETATM    9  C7  UNL     1     -34.599  16.696  -7.827  1.00 20.00     0.036 C 
HETATM   10  C5  UNL     1     -34.390  18.182  -7.707  1.00 20.00     0.008 C 
ENDBRANCH   2   9
TORSDOF 3
ENDMDL
MODEL 7
REMARK VINA RESULT:      -3.3     11.165     12.033
REMARK  3 active torsions:
REMARK  status: ('A' for Active; 'I' for Inactive)
REMARK    1  A    between atoms: C1_1  and  C2_2 
REMARK    2  A    between atoms: C1_1  and  O10_10 
REMARK    3  A    between atoms: C3_3  and  C7_7 
ROOT
HETATM    1  C2  UNL     1     -32.579  17.912  -2.103  1.00 20.00     0.256 A 
HETATM    2  C3  UNL     1     -32.534  18.300  -0.638  1.00 20.00     0.093 A 
HETATM    3  C4  UNL     1     -33.696  18.037   0.268  1.00 20.00     0.049 C 
HETATM    4  O9  UNL     1     -32.810  19.262  -1.665  1.00 20.00    -0.359 OA
ENDROOT
BRANCH   1   5
HETATM    5  C1  UNL     1     -33.757  17.282  -2.699  1.00 20.00     0.290 C 
HETATM    6  O8  UNL     1     -34.738  17.898  -3.092  1.00 20.00    -0.262 OA
BRANCH   5   7
HETATM    7  O10 UNL     1     -33.581  15.931  -2.737  1.00 20.00    -0.324 OA
HETATM    8  C6  UNL     1     -33.435  15.367  -4.045  1.00 20.00     0.213 C 
ENDBRANCH   5   7
ENDBRANCH   1   5
BRANCH   2   9
HETATM    9  C7  UNL     1     -31.203  18.483   0.018  1.00 20.00     0.036 C 
HETATM   10  C5  UNL     1     -31.281  18.424   1.520  1.00 20.00     0.008 C 
ENDBRANCH   2   9
TORSDOF 3
ENDMDL
MODEL 8
REMARK VINA RESULT:      -3.3     11.751     13.299
REMARK  3 active torsions:
REMARK  status: ('A' for Active; 'I' for Inactive)
REMARK    1  A    between atoms: C1_1  and  C2_2 
REMARK    2  A    between atoms: C1_1  and  O10_10 
REMARK    3  A    between atoms: C3_3  and  C7_7 
ROOT
HETATM    1  C2  UNL     1     -34.566  16.601  -5.919  1.00 20.00     0.256 A 
HETATM    2  C3  UNL     1     -34.097  16.212  -4.531  1.00 20.00     0.093 A 
HETATM    3  C4  UNL     1     -33.778  14.790  -4.193  1.00 20.00     0.049 C 
HETATM    4  O9  UNL     1     -35.482  16.440  -4.823  1.00 20.00    -0.359 OA
ENDROOT
BRANCH   1   5
HETATM    5  C1  UNL     1     -34.745  15.609  -6.980  1.00 20.00     0.290 C 
HETATM    6  O8  UNL     1     -33.827  15.138  -7.637  1.00 20.00    -0.262 OA
BRANCH   5   7
HETATM    7  O10 UNL     1     -36.068  15.311  -7.106  1.00 20.00    -0.324 OA
HETATM    8  C6  UNL     1     -36.827  16.214  -7.918  1.00 20.00     0.213 C 
ENDBRANCH   5   7
ENDBRANCH   1   5
BRANCH   2   9
HETATM    9  C7  UNL     1     -33.484  17.261  -3.658  1.00 20.00     0.036 C 
HETATM   10  C5  UNL     1     -33.293  16.798  -2.238  1.00 20.00     0.008 C 
ENDBRANCH   2   9
TORSDOF 3
ENDMDL
MODEL 9
REMARK VINA RESULT:      -3.3      9.846     10.638
REMARK  3 active torsions:
REMARK  status: ('A' for Active; 'I' for Inactive)
REMARK    1  A    between atoms: C1_1  and  C2_2 
REMARK    2  A    between atoms: C1_1  and  O10_10 
REMARK    3  A    between atoms: C3_3  and  C7_7 
ROOT
HETATM    1  C2  UNL     1     -40.434  14.160   7.400  1.00 20.00     0.256 A 
HETATM    2  C3  UNL     1     -40.997  13.064   6.517  1.00 20.00     0.093 A 
HETATM    3  C4  UNL     1     -42.290  12.388   6.853  1.00 20.00     0.049 C 
HETATM    4  O9  UNL     1     -39.949  12.808   7.461  1.00 20.00    -0.359 OA
ENDROOT
BRANCH   1   5
HETATM    5  C1  UNL     1     -41.114  14.593   8.621  1.00 20.00     0.290 C 
HETATM    6  O8  UNL     1     -41.995  15.441   8.651  1.00 20.00    -0.262 OA
BRANCH   5   7
HETATM    7  O10 UNL     1     -40.610  13.910   9.688  1.00 20.00    -0.324 OA
HETATM    8  C6  UNL     1     -41.414  13.941  10.872  1.00 20.00     0.213 C 
ENDBRANCH   5   7
ENDBRANCH   1   5
BRANCH   2   9
HETATM    9  C7  UNL     1     -40.556  12.991   5.089  1.00 20.00     0.036 C 
HETATM   10  C5  UNL     1     -39.625  11.837   4.826  1.00 20.00     0.008 C 
ENDBRANCH   2   9
TORSDOF 3
ENDMDL
