MODEL 1
REMARK VINA RESULT:      -4.1      0.000      0.000
REMARK  0 active torsions:
REMARK  status: ('A' for Active; 'I' for Inactive)
ROOT
HETATM    1  C1  UNL     1     -31.827  18.504  -0.884  1.00 20.00     0.069 C 
HETATM    2  C2  UNL     1     -34.883  17.708  -4.043  1.00 20.00     0.000 C 
HETATM    3  C3  UNL     1     -33.707  16.738  -4.088  1.00 20.00     0.000 C 
HETATM    4  C4  UNL     1     -34.543  19.118  -3.548  1.00 20.00     0.002 C 
HETATM    5  C5  UNL     1     -33.203  16.247  -2.723  1.00 20.00     0.002 C 
HETATM    6  C6  UNL     1     -33.267  19.263  -2.714  1.00 20.00     0.024 C 
HETATM    7  C7  UNL     1     -33.695  17.015  -1.492  1.00 20.00     0.024 C 
HETATM    8  C8  UNL     1     -33.227  18.484  -1.381  1.00 20.00     0.045 C 
HETATM    9  C9  UNL     1     -34.105  19.195  -0.332  1.00 20.00     0.031 C 
HETATM   10  N10 UNL     1     -30.734  18.519  -0.496  1.00 20.00    -0.196 NA
ENDROOT
TORSDOF 0
ENDMDL
MODEL 2
REMARK VINA RESULT:      -4.1      3.171      4.807
REMARK  0 active torsions:
REMARK  status: ('A' for Active; 'I' for Inactive)
ROOT
HETATM    1  C1  UNL     1     -35.215  14.160  -4.723  1.00 20.00     0.069 C 
HETATM    2  C2  UNL     1     -33.752  18.332  -4.090  1.00 20.00     0.000 C 
HETATM    3  C3  UNL     1     -33.931  17.555  -2.789  1.00 20.00     0.000 C 
HETATM    4  C4  UNL     1     -34.722  17.950  -5.213  1.00 20.00     0.002 C 
HETATM    5  C5  UNL     1     -33.471  16.091  -2.826  1.00 20.00     0.002 C 
HETATM    6  C6  UNL     1     -35.382  16.573  -5.110  1.00 20.00     0.024 C 
HETATM    7  C7  UNL     1     -33.204  15.488  -4.209  1.00 20.00     0.024 C 
HETATM    8  C8  UNL     1     -34.433  15.353  -5.136  1.00 20.00     0.045 C 
HETATM    9  C9  UNL     1     -33.933  15.110  -6.574  1.00 20.00     0.031 C 
HETATM   10  N10 UNL     1     -35.826  13.227  -4.401  1.00 20.00    -0.196 NA
ENDROOT
TORSDOF 0
ENDMDL
MODEL 3
REMARK VINA RESULT:      -3.9      3.287      5.116
REMARK  0 active torsions:
REMARK  status: ('A' for Active; 'I' for Inactive)
ROOT
HETATM    1  C1  UNL     1     -34.043  15.302  -6.787  1.00 20.00     0.069 C 
HETATM    2  C2  UNL     1     -33.865  17.363  -2.828  1.00 20.00     0.000 C 
HETATM    3  C3  UNL     1     -33.506  18.275  -3.996  1.00 20.00     0.000 C 
HETATM    4  C4  UNL     1     -33.494  15.888  -3.018  1.00 20.00     0.002 C 
HETATM    5  C5  UNL     1     -34.374  18.114  -5.252  1.00 20.00     0.002 C 
HETATM    6  C6  UNL     1     -33.290  15.412  -4.459  1.00 20.00     0.024 C 
HETATM    7  C7  UNL     1     -35.260  16.865  -5.320  1.00 20.00     0.024 C 
HETATM    8  C8  UNL     1     -34.516  15.512  -5.395  1.00 20.00     0.045 C 
HETATM    9  C9  UNL     1     -35.519  14.388  -5.066  1.00 20.00     0.031 C 
HETATM   10  N10 UNL     1     -33.674  15.138  -7.875  1.00 20.00    -0.196 NA
ENDROOT
TORSDOF 0
ENDMDL
MODEL 4
REMARK VINA RESULT:      -3.9     11.345     12.644
REMARK  0 active torsions:
REMARK  status: ('A' for Active; 'I' for Inactive)
ROOT
HETATM    1  C1  UNL     1     -32.914   8.916   2.747  1.00 20.00     0.069 C 
HETATM    2  C2  UNL     1     -34.188   5.700   5.572  1.00 20.00     0.000 C 
HETATM    3  C3  UNL     1     -34.445   5.350   4.110  1.00 20.00     0.000 C 
HETATM    4  C4  UNL     1     -34.283   7.192   5.909  1.00 20.00     0.002 C 
HETATM    5  C5  UNL     1     -33.331   5.746   3.130  1.00 20.00     0.002 C 
HETATM    6  C6  UNL     1     -34.122   8.170   4.743  1.00 20.00     0.024 C 
HETATM    7  C7  UNL     1     -32.268   6.717   3.654  1.00 20.00     0.024 C 
HETATM    8  C8  UNL     1     -32.765   8.138   4.004  1.00 20.00     0.045 C 
HETATM    9  C9  UNL     1     -31.686   8.834   4.859  1.00 20.00     0.031 C 
HETATM   10  N10 UNL     1     -33.029   9.523   1.765  1.00 20.00    -0.196 NA
ENDROOT
TORSDOF 0
ENDMDL
MODEL 5
REMARK VINA RESULT:      -3.6     12.359     13.688
REMARK  0 active torsions:
REMARK  status: ('A' for Active; 'I' for Inactive)
ROOT
HETATM    1  C1  UNL     1     -33.944   4.562   4.469  1.00 20.00     0.069 C 
HETATM    2  C2  UNL     1     -33.013   8.917   4.812  1.00 20.00     0.000 C 
HETATM    3  C3  UNL     1     -31.862   8.102   4.230  1.00 20.00     0.000 C 
HETATM    4  C4  UNL     1     -33.893   8.170   5.821  1.00 20.00     0.002 C 
HETATM    5  C5  UNL     1     -32.267   7.014   3.225  1.00 20.00     0.002 C 
HETATM    6  C6  UNL     1     -33.857   6.642   5.761  1.00 20.00     0.024 C 
HETATM    7  C7  UNL     1     -33.753   6.647   3.169  1.00 20.00     0.024 C 
HETATM    8  C8  UNL     1     -34.337   5.994   4.443  1.00 20.00     0.045 C 
HETATM    9  C9  UNL     1     -35.875   6.055   4.359  1.00 20.00     0.031 C 
HETATM   10  N10 UNL     1     -33.636   3.444   4.490  1.00 20.00    -0.196 NA
ENDROOT
TORSDOF 0
ENDMDL
MODEL 6
REMARK VINA RESULT:      -3.6      1.382      2.623
REMARK  0 active torsions:
REMARK  status: ('A' for Active; 'I' for Inactive)
ROOT
HETATM    1  C1  UNL     1     -34.035  18.539  -0.017  1.00 20.00     0.069 C 
HETATM    2  C2  UNL     1     -33.851  17.088  -4.237  1.00 20.00     0.000 C 
HETATM    3  C3  UNL     1     -35.133  17.851  -3.920  1.00 20.00     0.000 C 
HETATM    4  C4  UNL     1     -33.251  16.310  -3.061  1.00 20.00     0.002 C 
HETATM    5  C5  UNL     1     -34.959  19.103  -3.050  1.00 20.00     0.002 C 
HETATM    6  C6  UNL     1     -33.669  16.758  -1.658  1.00 20.00     0.024 C 
HETATM    7  C7  UNL     1     -33.613  19.262  -2.335  1.00 20.00     0.024 C 
HETATM    8  C8  UNL     1     -33.291  18.202  -1.258  1.00 20.00     0.045 C 
HETATM    9  C9  UNL     1     -31.785  18.279  -0.935  1.00 20.00     0.031 C 
HETATM   10  N10 UNL     1     -34.616  18.803   0.952  1.00 20.00    -0.196 NA
ENDROOT
TORSDOF 0
ENDMDL
MODEL 7
REMARK VINA RESULT:      -3.6      2.060      3.982
REMARK  0 active torsions:
REMARK  status: ('A' for Active; 'I' for Inactive)
ROOT
HETATM    1  C1  UNL     1     -34.684  18.414  -2.725  1.00 20.00     0.069 C 
HETATM    2  C2  UNL     1     -31.683  18.617   0.577  1.00 20.00     0.000 C 
HETATM    3  C3  UNL     1     -33.018  19.261   0.939  1.00 20.00     0.000 C 
HETATM    4  C4  UNL     1     -31.300  18.706  -0.905  1.00 20.00     0.002 C 
HETATM    5  C5  UNL     1     -34.266  18.502   0.467  1.00 20.00     0.002 C 
HETATM    6  C6  UNL     1     -32.443  18.948  -1.894  1.00 20.00     0.024 C 
HETATM    7  C7  UNL     1     -34.048  17.397  -0.572  1.00 20.00     0.024 C 
HETATM    8  C8  UNL     1     -33.540  17.862  -1.956  1.00 20.00     0.045 C 
HETATM    9  C9  UNL     1     -33.014  16.629  -2.720  1.00 20.00     0.031 C 
HETATM   10  N10 UNL     1     -35.579  18.845  -3.325  1.00 20.00    -0.196 NA
ENDROOT
TORSDOF 0
ENDMDL
MODEL 8
REMARK VINA RESULT:      -3.5      3.254      4.770
REMARK  0 active torsions:
REMARK  status: ('A' for Active; 'I' for Inactive)
ROOT
HETATM    1  C1  UNL     1     -36.169  15.705  -5.495  1.00 20.00     0.069 C 
HETATM    2  C2  UNL     1     -33.092  17.983  -3.195  1.00 20.00     0.000 C 
HETATM    3  C3  UNL     1     -33.462  16.653  -2.547  1.00 20.00     0.000 C 
HETATM    4  C4  UNL     1     -34.223  18.663  -3.974  1.00 20.00     0.002 C 
HETATM    5  C5  UNL     1     -33.640  15.474  -3.514  1.00 20.00     0.002 C 
HETATM    6  C6  UNL     1     -35.374  17.765  -4.435  1.00 20.00     0.024 C 
HETATM    7  C7  UNL     1     -33.756  15.817  -5.003  1.00 20.00     0.024 C 
HETATM    8  C8  UNL     1     -35.007  16.627  -5.414  1.00 20.00     0.045 C 
HETATM    9  C9  UNL     1     -34.770  17.205  -6.824  1.00 20.00     0.031 C 
HETATM   10  N10 UNL     1     -37.076  14.984  -5.558  1.00 20.00    -0.196 NA
ENDROOT
TORSDOF 0
ENDMDL
MODEL 9
REMARK VINA RESULT:      -3.5     14.135     15.232
REMARK  0 active torsions:
REMARK  status: ('A' for Active; 'I' for Inactive)
ROOT
HETATM    1  C1  UNL     1     -42.954   4.808  -0.946  1.00 20.00     0.069 C 
HETATM    2  C2  UNL     1     -40.782   8.290   0.818  1.00 20.00     0.000 C 
HETATM    3  C3  UNL     1     -41.665   8.671  -0.366  1.00 20.00     0.000 C 
HETATM    4  C4  UNL     1     -40.186   6.879   0.756  1.00 20.00     0.002 C 
HETATM    5  C5  UNL     1     -43.037   7.984  -0.415  1.00 20.00     0.002 C 
HETATM    6  C6  UNL     1     -40.896   5.874  -0.155  1.00 20.00     0.024 C 
HETATM    7  C7  UNL     1     -43.236   6.778   0.509  1.00 20.00     0.024 C 
HETATM    8  C8  UNL     1     -42.361   5.540   0.203  1.00 20.00     0.045 C 
HETATM    9  C9  UNL     1     -42.401   4.602   1.426  1.00 20.00     0.031 C 
HETATM   10  N10 UNL     1     -43.417   4.237  -1.843  1.00 20.00    -0.196 NA
ENDROOT
TORSDOF 0
ENDMDL
