MODEL 1
REMARK VINA RESULT:      -5.1      0.000      0.000
REMARK  2 active torsions:
REMARK  status: ('A' for Active; 'I' for Inactive)
REMARK    1  A    between atoms: C2_2  and  C3_3 
REMARK    2  A    between atoms: C3_3  and  C4_4 
ROOT
HETATM    1  C3  UNL     1     -34.105   6.926   5.409  1.00 20.00     0.254 C 
HETATM    2  O5  UNL     1     -34.090   6.956   6.636  1.00 20.00    -0.283 OA
ENDROOT
BRANCH   1   3
HETATM    3  C2  UNL     1     -33.596   8.051   4.580  1.00 20.00     0.049 C 
HETATM    4  C1  UNL     1     -32.303   8.384   4.599  1.00 20.00     0.015 C 
ENDBRANCH   1   3
BRANCH   1   5
HETATM    5  C4  UNL     1     -34.642   5.743   4.656  1.00 20.00     0.455 C 
HETATM    6  F6  UNL     1     -33.949   5.513   3.512  1.00 20.00    -0.163 F 
HETATM    7  F7  UNL     1     -34.579   4.603   5.391  1.00 20.00    -0.163 F 
HETATM    8  F8  UNL     1     -35.941   5.911   4.302  1.00 20.00    -0.163 F 
ENDBRANCH   1   5
TORSDOF 2
ENDMDL
MODEL 2
REMARK VINA RESULT:      -5.0      1.473      1.549
REMARK  2 active torsions:
REMARK  status: ('A' for Active; 'I' for Inactive)
REMARK    1  A    between atoms: C2_2  and  C3_3 
REMARK    2  A    between atoms: C3_3  and  C4_4 
ROOT
HETATM    1  C3  UNL     1     -33.699   6.597   4.411  1.00 20.00     0.254 C 
HETATM    2  O5  UNL     1     -33.040   6.309   3.416  1.00 20.00    -0.283 OA
ENDROOT
BRANCH   1   3
HETATM    3  C2  UNL     1     -33.480   7.855   5.173  1.00 20.00     0.049 C 
HETATM    4  C1  UNL     1     -32.482   8.683   4.853  1.00 20.00     0.015 C 
ENDBRANCH   1   3
BRANCH   1   5
HETATM    5  C4  UNL     1     -34.779   5.692   4.930  1.00 20.00     0.455 C 
HETATM    6  F6  UNL     1     -34.505   4.385   4.688  1.00 20.00    -0.163 F 
HETATM    7  F7  UNL     1     -34.947   5.818   6.271  1.00 20.00    -0.163 F 
HETATM    8  F8  UNL     1     -35.982   5.953   4.358  1.00 20.00    -0.163 F 
ENDBRANCH   1   5
TORSDOF 2
ENDMDL
MODEL 3
REMARK VINA RESULT:      -5.0      1.475      1.742
REMARK  2 active torsions:
REMARK  status: ('A' for Active; 'I' for Inactive)
REMARK    1  A    between atoms: C2_2  and  C3_3 
REMARK    2  A    between atoms: C3_3  and  C4_4 
ROOT
HETATM    1  C3  UNL     1     -33.695   6.594   4.420  1.00 20.00     0.254 C 
HETATM    2  O5  UNL     1     -33.048   6.313   3.414  1.00 20.00    -0.283 OA
ENDROOT
BRANCH   1   3
HETATM    3  C2  UNL     1     -33.456   7.840   5.195  1.00 20.00     0.049 C 
HETATM    4  C1  UNL     1     -32.480   8.684   4.850  1.00 20.00     0.015 C 
ENDBRANCH   1   3
BRANCH   1   5
HETATM    5  C4  UNL     1     -34.778   5.693   4.937  1.00 20.00     0.455 C 
HETATM    6  F6  UNL     1     -35.976   5.954   4.356  1.00 20.00    -0.163 F 
HETATM    7  F7  UNL     1     -34.503   4.384   4.705  1.00 20.00    -0.163 F 
HETATM    8  F8  UNL     1     -34.954   5.825   6.277  1.00 20.00    -0.163 F 
ENDBRANCH   1   5
TORSDOF 2
ENDMDL
MODEL 4
REMARK VINA RESULT:      -4.7      2.974      3.576
REMARK  2 active torsions:
REMARK  status: ('A' for Active; 'I' for Inactive)
REMARK    1  A    between atoms: C2_2  and  C3_3 
REMARK    2  A    between atoms: C3_3  and  C4_4 
ROOT
HETATM    1  C3  UNL     1     -33.333   7.077   4.516  1.00 20.00     0.254 C 
HETATM    2  O5  UNL     1     -33.577   6.163   3.732  1.00 20.00    -0.283 OA
ENDROOT
BRANCH   1   3
HETATM    3  C2  UNL     1     -33.924   7.131   5.880  1.00 20.00     0.049 C 
HETATM    4  C1  UNL     1     -34.487   6.050   6.426  1.00 20.00     0.015 C 
ENDBRANCH   1   3
BRANCH   1   5
HETATM    5  C4  UNL     1     -32.416   8.207   4.150  1.00 20.00     0.455 C 
HETATM    6  F6  UNL     1     -31.194   7.762   3.761  1.00 20.00    -0.163 F 
HETATM    7  F7  UNL     1     -32.909   8.949   3.126  1.00 20.00    -0.163 F 
HETATM    8  F8  UNL     1     -32.213   9.056   5.188  1.00 20.00    -0.163 F 
ENDBRANCH   1   5
TORSDOF 2
ENDMDL
MODEL 5
REMARK VINA RESULT:      -4.7      2.966      3.536
REMARK  2 active torsions:
REMARK  status: ('A' for Active; 'I' for Inactive)
REMARK    1  A    between atoms: C2_2  and  C3_3 
REMARK    2  A    between atoms: C3_3  and  C4_4 
ROOT
HETATM    1  C3  UNL     1     -33.341   7.068   4.522  1.00 20.00     0.254 C 
HETATM    2  O5  UNL     1     -33.590   6.152   3.743  1.00 20.00    -0.283 OA
ENDROOT
BRANCH   1   3
HETATM    3  C2  UNL     1     -33.928   7.132   5.887  1.00 20.00     0.049 C 
HETATM    4  C1  UNL     1     -34.486   6.054   6.443  1.00 20.00     0.015 C 
ENDBRANCH   1   3
BRANCH   1   5
HETATM    5  C4  UNL     1     -32.419   8.192   4.148  1.00 20.00     0.455 C 
HETATM    6  F6  UNL     1     -32.200   9.036   5.187  1.00 20.00    -0.163 F 
HETATM    7  F7  UNL     1     -31.204   7.739   3.744  1.00 20.00    -0.163 F 
HETATM    8  F8  UNL     1     -32.915   8.941   3.131  1.00 20.00    -0.163 F 
ENDBRANCH   1   5
TORSDOF 2
ENDMDL
MODEL 6
REMARK VINA RESULT:      -4.6      2.234      3.181
REMARK  2 active torsions:
REMARK  status: ('A' for Active; 'I' for Inactive)
REMARK    1  A    between atoms: C2_2  and  C3_3 
REMARK    2  A    between atoms: C3_3  and  C4_4 
ROOT
HETATM    1  C3  UNL     1     -33.580   7.604   4.796  1.00 20.00     0.254 C 
HETATM    2  O5  UNL     1     -33.824   8.490   5.611  1.00 20.00    -0.283 OA
ENDROOT
BRANCH   1   3
HETATM    3  C2  UNL     1     -34.306   6.306   4.793  1.00 20.00     0.049 C 
HETATM    4  C1  UNL     1     -34.651   5.712   5.939  1.00 20.00     0.015 C 
ENDBRANCH   1   3
BRANCH   1   5
HETATM    5  C4  UNL     1     -32.528   7.774   3.739  1.00 20.00     0.455 C 
HETATM    6  F6  UNL     1     -31.306   8.023   4.276  1.00 20.00    -0.163 F 
HETATM    7  F7  UNL     1     -32.401   6.665   2.966  1.00 20.00    -0.163 F 
HETATM    8  F8  UNL     1     -32.807   8.806   2.902  1.00 20.00    -0.163 F 
ENDBRANCH   1   5
TORSDOF 2
ENDMDL
MODEL 7
REMARK VINA RESULT:      -4.5      1.988      2.599
REMARK  2 active torsions:
REMARK  status: ('A' for Active; 'I' for Inactive)
REMARK    1  A    between atoms: C2_2  and  C3_3 
REMARK    2  A    between atoms: C3_3  and  C4_4 
ROOT
HETATM    1  C3  UNL     1     -33.918   6.585   4.802  1.00 20.00     0.254 C 
HETATM    2  O5  UNL     1     -33.625   7.732   4.478  1.00 20.00    -0.283 OA
ENDROOT
BRANCH   1   3
HETATM    3  C2  UNL     1     -33.929   5.463   3.825  1.00 20.00     0.049 C 
HETATM    4  C1  UNL     1     -33.017   5.394   2.852  1.00 20.00     0.015 C 
ENDBRANCH   1   3
BRANCH   1   5
HETATM    5  C4  UNL     1     -34.287   6.234   6.214  1.00 20.00     0.455 C 
HETATM    6  F6  UNL     1     -35.387   5.440   6.268  1.00 20.00    -0.163 F 
HETATM    7  F7  UNL     1     -33.288   5.569   6.849  1.00 20.00    -0.163 F 
HETATM    8  F8  UNL     1     -34.560   7.335   6.958  1.00 20.00    -0.163 F 
ENDBRANCH   1   5
TORSDOF 2
ENDMDL
MODEL 8
REMARK VINA RESULT:      -4.5      2.382      2.804
REMARK  2 active torsions:
REMARK  status: ('A' for Active; 'I' for Inactive)
REMARK    1  A    between atoms: C2_2  and  C3_3 
REMARK    2  A    between atoms: C3_3  and  C4_4 
ROOT
HETATM    1  C3  UNL     1     -34.214   5.773   4.839  1.00 20.00     0.254 C 
HETATM    2  O5  UNL     1     -34.865   4.733   4.895  1.00 20.00    -0.283 OA
ENDROOT
BRANCH   1   3
HETATM    3  C2  UNL     1     -33.478   6.184   3.614  1.00 20.00     0.049 C 
HETATM    4  C1  UNL     1     -32.968   5.271   2.783  1.00 20.00     0.015 C 
ENDBRANCH   1   3
BRANCH   1   5
HETATM    5  C4  UNL     1     -34.118   6.705   6.011  1.00 20.00     0.455 C 
HETATM    6  F6  UNL     1     -32.936   6.577   6.666  1.00 20.00    -0.163 F 
HETATM    7  F7  UNL     1     -34.222   8.006   5.635  1.00 20.00    -0.163 F 
HETATM    8  F8  UNL     1     -35.098   6.482   6.923  1.00 20.00    -0.163 F 
ENDBRANCH   1   5
TORSDOF 2
ENDMDL
MODEL 9
REMARK VINA RESULT:      -4.4      2.509      3.419
REMARK  2 active torsions:
REMARK  status: ('A' for Active; 'I' for Inactive)
REMARK    1  A    between atoms: C2_2  and  C3_3 
REMARK    2  A    between atoms: C3_3  and  C4_4 
ROOT
HETATM    1  C3  UNL     1     -33.554   7.342   5.106  1.00 20.00     0.254 C 
HETATM    2  O5  UNL     1     -33.894   7.554   6.267  1.00 20.00    -0.283 OA
ENDROOT
BRANCH   1   3
HETATM    3  C2  UNL     1     -34.032   6.158   4.343  1.00 20.00     0.049 C 
HETATM    4  C1  UNL     1     -35.184   5.560   4.659  1.00 20.00     0.015 C 
ENDBRANCH   1   3
BRANCH   1   5
HETATM    5  C4  UNL     1     -32.628   8.268   4.374  1.00 20.00     0.455 C 
HETATM    6  F6  UNL     1     -33.239   8.871   3.323  1.00 20.00    -0.163 F 
HETATM    7  F7  UNL     1     -32.159   9.257   5.178  1.00 20.00    -0.163 F 
HETATM    8  F8  UNL     1     -31.544   7.619   3.879  1.00 20.00    -0.163 F 
ENDBRANCH   1   5
TORSDOF 2
ENDMDL
