MODEL 1
REMARK VINA RESULT:      -4.7      0.000      0.000
REMARK  3 active torsions:
REMARK  status: ('A' for Active; 'I' for Inactive)
REMARK    1  A    between atoms: C1_1  and  C4_4 
REMARK    2  A    between atoms: C2_2  and  C5_5 
REMARK    3  A    between atoms: C3_3  and  C4_4 
ROOT
HETATM    1  C1  UNL     1     -33.886   7.216   6.024  1.00 20.00    -0.019 C 
HETATM    2  C2  UNL     1     -33.033   7.456   5.018  1.00 20.00    -0.015 C 
ENDROOT
BRANCH   1   3
HETATM    3  C4  UNL     1     -34.477   5.870   6.310  1.00 20.00     0.140 C 
BRANCH   3   4
HETATM    4  C3  UNL     1     -34.883   5.246   4.980  1.00 20.00     0.176 C 
HETATM    5  O6  UNL     1     -35.806   5.848   4.364  1.00 20.00    -0.648 OA
HETATM    6  O7  UNL     1     -34.255   4.195   4.666  1.00 20.00    -0.648 OA
ENDBRANCH   3   4
ENDBRANCH   1   3
BRANCH   2   7
HETATM    7  C5  UNL     1     -32.457   8.801   4.724  1.00 20.00     0.141 C 
HETATM    8 CL8  UNL     1     -32.561   9.134   2.982  1.00 20.00    -0.126 Cl
ENDBRANCH   2   7
TORSDOF 3
ENDMDL
MODEL 2
REMARK VINA RESULT:      -4.7      0.016      1.144
REMARK  3 active torsions:
REMARK  status: ('A' for Active; 'I' for Inactive)
REMARK    1  A    between atoms: C1_1  and  C4_4 
REMARK    2  A    between atoms: C2_2  and  C5_5 
REMARK    3  A    between atoms: C3_3  and  C4_4 
ROOT
HETATM    1  C1  UNL     1     -33.891   7.203   6.037  1.00 20.00    -0.019 C 
HETATM    2  C2  UNL     1     -33.050   7.451   5.022  1.00 20.00    -0.015 C 
ENDROOT
BRANCH   1   3
HETATM    3  C4  UNL     1     -34.481   5.855   6.316  1.00 20.00     0.140 C 
BRANCH   3   4
HETATM    4  C3  UNL     1     -34.885   5.237   4.984  1.00 20.00     0.176 C 
HETATM    5  O6  UNL     1     -34.248   4.196   4.659  1.00 20.00    -0.648 OA
HETATM    6  O7  UNL     1     -35.798   5.852   4.361  1.00 20.00    -0.648 OA
ENDBRANCH   3   4
ENDBRANCH   1   3
BRANCH   2   7
HETATM    7  C5  UNL     1     -32.475   8.798   4.734  1.00 20.00     0.141 C 
HETATM    8 CL8  UNL     1     -32.544   9.123   2.988  1.00 20.00    -0.126 Cl
ENDBRANCH   2   7
TORSDOF 3
ENDMDL
MODEL 3
REMARK VINA RESULT:      -4.2      1.184      1.663
REMARK  3 active torsions:
REMARK  status: ('A' for Active; 'I' for Inactive)
REMARK    1  A    between atoms: C1_1  and  C4_4 
REMARK    2  A    between atoms: C2_2  and  C5_5 
REMARK    3  A    between atoms: C3_3  and  C4_4 
ROOT
HETATM    1  C1  UNL     1     -33.805   7.951   5.100  1.00 20.00    -0.019 C 
HETATM    2  C2  UNL     1     -32.619   7.988   4.475  1.00 20.00    -0.015 C 
ENDROOT
BRANCH   1   3
HETATM    3  C4  UNL     1     -34.087   7.094   6.295  1.00 20.00     0.140 C 
BRANCH   3   4
HETATM    4  C3  UNL     1     -34.658   5.772   5.797  1.00 20.00     0.176 C 
HETATM    5  O6  UNL     1     -34.291   4.751   6.444  1.00 20.00    -0.648 OA
HETATM    6  O7  UNL     1     -35.415   5.860   4.789  1.00 20.00    -0.648 OA
ENDBRANCH   3   4
ENDBRANCH   1   3
BRANCH   2   7
HETATM    7  C5  UNL     1     -32.343   8.830   3.274  1.00 20.00     0.141 C 
HETATM    8 CL8  UNL     1     -32.158   7.796   1.841  1.00 20.00    -0.126 Cl
ENDBRANCH   2   7
TORSDOF 3
ENDMDL
MODEL 4
REMARK VINA RESULT:      -4.2      1.117      1.210
REMARK  3 active torsions:
REMARK  status: ('A' for Active; 'I' for Inactive)
REMARK    1  A    between atoms: C1_1  and  C4_4 
REMARK    2  A    between atoms: C2_2  and  C5_5 
REMARK    3  A    between atoms: C3_3  and  C4_4 
ROOT
HETATM    1  C1  UNL     1     -33.794   7.978   5.266  1.00 20.00    -0.019 C 
HETATM    2  C2  UNL     1     -32.767   7.771   4.428  1.00 20.00    -0.015 C 
ENDROOT
BRANCH   1   3
HETATM    3  C4  UNL     1     -34.192   7.019   6.345  1.00 20.00     0.140 C 
BRANCH   3   4
HETATM    4  C3  UNL     1     -34.710   5.752   5.676  1.00 20.00     0.176 C 
HETATM    5  O6  UNL     1     -35.515   5.938   4.721  1.00 20.00    -0.648 OA
HETATM    6  O7  UNL     1     -34.279   4.670   6.170  1.00 20.00    -0.648 OA
ENDBRANCH   3   4
ENDBRANCH   1   3
BRANCH   2   7
HETATM    7  C5  UNL     1     -32.381   8.719   3.342  1.00 20.00     0.141 C 
HETATM    8 CL8  UNL     1     -32.146   7.830   1.821  1.00 20.00    -0.126 Cl
ENDBRANCH   2   7
TORSDOF 3
ENDMDL
MODEL 5
REMARK VINA RESULT:      -4.1      1.128      1.460
REMARK  3 active torsions:
REMARK  status: ('A' for Active; 'I' for Inactive)
REMARK    1  A    between atoms: C1_1  and  C4_4 
REMARK    2  A    between atoms: C2_2  and  C5_5 
REMARK    3  A    between atoms: C3_3  and  C4_4 
ROOT
HETATM    1  C1  UNL     1     -34.132   7.096   4.362  1.00 20.00    -0.019 C 
HETATM    2  C2  UNL     1     -33.394   7.849   5.191  1.00 20.00    -0.015 C 
ENDROOT
BRANCH   1   3
HETATM    3  C4  UNL     1     -35.168   6.119   4.826  1.00 20.00     0.140 C 
BRANCH   3   4
HETATM    4  C3  UNL     1     -34.443   4.906   5.397  1.00 20.00     0.176 C 
HETATM    5  O6  UNL     1     -34.136   4.017   4.554  1.00 20.00    -0.648 OA
HETATM    6  O7  UNL     1     -34.253   4.933   6.647  1.00 20.00    -0.648 OA
ENDBRANCH   3   4
ENDBRANCH   1   3
BRANCH   2   7
HETATM    7  C5  UNL     1     -32.351   8.810   4.729  1.00 20.00     0.141 C 
HETATM    8 CL8  UNL     1     -32.448   9.005   2.965  1.00 20.00    -0.126 Cl
ENDBRANCH   2   7
TORSDOF 3
ENDMDL
MODEL 6
REMARK VINA RESULT:      -4.1      3.164      4.046
REMARK  3 active torsions:
REMARK  status: ('A' for Active; 'I' for Inactive)
REMARK    1  A    between atoms: C1_1  and  C4_4 
REMARK    2  A    between atoms: C2_2  and  C5_5 
REMARK    3  A    between atoms: C3_3  and  C4_4 
ROOT
HETATM    1  C1  UNL     1     -33.339   7.352   4.729  1.00 20.00    -0.019 C 
HETATM    2  C2  UNL     1     -33.821   7.189   5.970  1.00 20.00    -0.015 C 
ENDROOT
BRANCH   1   3
HETATM    3  C4  UNL     1     -32.623   8.585   4.272  1.00 20.00     0.140 C 
BRANCH   3   4
HETATM    4  C3  UNL     1     -32.499   8.516   2.755  1.00 20.00     0.176 C 
HETATM    5  O6  UNL     1     -32.829   9.570   2.140  1.00 20.00    -0.648 OA
HETATM    6  O7  UNL     1     -32.095   7.409   2.298  1.00 20.00    -0.648 OA
ENDBRANCH   3   4
ENDBRANCH   1   3
BRANCH   2   7
HETATM    7  C5  UNL     1     -34.550   5.967   6.421  1.00 20.00     0.141 C 
HETATM    8 CL8  UNL     1     -34.742   4.842   5.059  1.00 20.00    -0.126 Cl
ENDBRANCH   2   7
TORSDOF 3
ENDMDL
MODEL 7
REMARK VINA RESULT:      -4.1      3.166      4.191
REMARK  3 active torsions:
REMARK  status: ('A' for Active; 'I' for Inactive)
REMARK    1  A    between atoms: C1_1  and  C4_4 
REMARK    2  A    between atoms: C2_2  and  C5_5 
REMARK    3  A    between atoms: C3_3  and  C4_4 
ROOT
HETATM    1  C1  UNL     1     -33.264   7.331   4.739  1.00 20.00    -0.019 C 
HETATM    2  C2  UNL     1     -33.824   7.204   5.951  1.00 20.00    -0.015 C 
ENDROOT
BRANCH   1   3
HETATM    3  C4  UNL     1     -32.590   8.580   4.262  1.00 20.00     0.140 C 
BRANCH   3   4
HETATM    4  C3  UNL     1     -32.497   8.508   2.742  1.00 20.00     0.176 C 
HETATM    5  O6  UNL     1     -32.110   7.399   2.279  1.00 20.00    -0.648 OA
HETATM    6  O7  UNL     1     -32.803   9.574   2.135  1.00 20.00    -0.648 OA
ENDBRANCH   3   4
ENDBRANCH   1   3
BRANCH   2   7
HETATM    7  C5  UNL     1     -34.511   5.965   6.420  1.00 20.00     0.141 C 
HETATM    8 CL8  UNL     1     -34.709   4.834   5.064  1.00 20.00    -0.126 Cl
ENDBRANCH   2   7
TORSDOF 3
ENDMDL
MODEL 8
REMARK VINA RESULT:      -3.8     12.651     13.085
REMARK  3 active torsions:
REMARK  status: ('A' for Active; 'I' for Inactive)
REMARK    1  A    between atoms: C1_1  and  C4_4 
REMARK    2  A    between atoms: C2_2  and  C5_5 
REMARK    3  A    between atoms: C3_3  and  C4_4 
ROOT
HETATM    1  C1  UNL     1     -32.929  18.120  -1.458  1.00 20.00    -0.019 C 
HETATM    2  C2  UNL     1     -33.349  16.977  -2.019  1.00 20.00    -0.015 C 
ENDROOT
BRANCH   1   3
HETATM    3  C4  UNL     1     -32.876  18.350   0.021  1.00 20.00     0.140 C 
BRANCH   3   4
HETATM    4  C3  UNL     1     -31.411  18.470   0.423  1.00 20.00     0.176 C 
HETATM    5  O6  UNL     1     -30.612  18.712  -0.525  1.00 20.00    -0.648 OA
HETATM    6  O7  UNL     1     -31.176  18.298   1.653  1.00 20.00    -0.648 OA
ENDBRANCH   3   4
ENDBRANCH   1   3
BRANCH   2   7
HETATM    7  C5  UNL     1     -33.417  16.755  -3.493  1.00 20.00     0.141 C 
HETATM    8 CL8  UNL     1     -33.724  15.037  -3.831  1.00 20.00    -0.126 Cl
ENDBRANCH   2   7
TORSDOF 3
ENDMDL
MODEL 9
REMARK VINA RESULT:      -3.7     12.776     13.188
REMARK  3 active torsions:
REMARK  status: ('A' for Active; 'I' for Inactive)
REMARK    1  A    between atoms: C1_1  and  C4_4 
REMARK    2  A    between atoms: C2_2  and  C5_5 
REMARK    3  A    between atoms: C3_3  and  C4_4 
ROOT
HETATM    1  C1  UNL     1     -30.120  19.047   2.069  1.00 20.00    -0.019 C 
HETATM    2  C2  UNL     1     -29.413  18.621   3.126  1.00 20.00    -0.015 C 
ENDROOT
BRANCH   1   3
HETATM    3  C4  UNL     1     -31.489  18.544   1.727  1.00 20.00     0.140 C 
BRANCH   3   4
HETATM    4  C3  UNL     1     -31.609  18.510   0.209  1.00 20.00     0.176 C 
HETATM    5  O6  UNL     1     -30.529  18.697  -0.420  1.00 20.00    -0.648 OA
HETATM    6  O7  UNL     1     -32.776  18.315  -0.234  1.00 20.00    -0.648 OA
ENDBRANCH   3   4
ENDBRANCH   1   3
BRANCH   2   7
HETATM    7  C5  UNL     1     -28.042  19.110   3.456  1.00 20.00     0.141 C 
HETATM    8 CL8  UNL     1     -27.361  18.145   4.784  1.00 20.00    -0.126 Cl
ENDBRANCH   2   7
TORSDOF 3
ENDMDL
