MODEL 1
REMARK VINA RESULT:      -3.3      0.000      0.000
REMARK  0 active torsions:
REMARK  status: ('A' for Active; 'I' for Inactive)
ROOT
HETATM    1  C1  UNL     1     -33.537   5.456   3.572  1.00 20.00     0.080 C 
HETATM    2  C2  UNL     1     -34.309   4.958   5.863  1.00 20.00     0.043 C 
HETATM    3  C3  UNL     1     -35.794   6.192   4.247  1.00 20.00     0.043 C 
HETATM    4  C4  UNL     1     -34.357   5.939   4.695  1.00 20.00     0.099 C 
HETATM    5  N5  UNL     1     -32.893   5.072   2.686  1.00 20.00    -0.196 NA
HETATM    6 BR6  UNL     1     -33.614   7.654   5.322  1.00 20.00    -0.070 Br
ENDROOT
TORSDOF 0
ENDMDL
MODEL 2
REMARK VINA RESULT:      -3.2     16.839     17.038
REMARK  0 active torsions:
REMARK  status: ('A' for Active; 'I' for Inactive)
ROOT
HETATM    1  C1  UNL     1     -22.785  17.281   9.681  1.00 20.00     0.080 C 
HETATM    2  C2  UNL     1     -24.368  16.414  11.364  1.00 20.00     0.043 C 
HETATM    3  C3  UNL     1     -24.669  18.713  10.381  1.00 20.00     0.043 C 
HETATM    4  C4  UNL     1     -23.662  17.646  10.804  1.00 20.00     0.099 C 
HETATM    5  N5  UNL     1     -22.096  16.991   8.793  1.00 20.00    -0.196 NA
HETATM    6 BR6  UNL     1     -22.553  18.408  12.245  1.00 20.00    -0.070 Br
ENDROOT
TORSDOF 0
ENDMDL
MODEL 3
REMARK VINA RESULT:      -3.1     16.875     17.100
REMARK  0 active torsions:
REMARK  status: ('A' for Active; 'I' for Inactive)
ROOT
HETATM    1  C1  UNL     1     -22.487  17.261   9.327  1.00 20.00     0.080 C 
HETATM    2  C2  UNL     1     -22.563  18.493  11.464  1.00 20.00     0.043 C 
HETATM    3  C3  UNL     1     -24.189  16.627  10.997  1.00 20.00     0.043 C 
HETATM    4  C4  UNL     1     -23.369  17.764  10.392  1.00 20.00     0.099 C 
HETATM    5  N5  UNL     1     -21.789  16.863   8.489  1.00 20.00    -0.196 NA
HETATM    6 BR6  UNL     1     -24.630  19.059   9.605  1.00 20.00    -0.070 Br
ENDROOT
TORSDOF 0
ENDMDL
MODEL 4
REMARK VINA RESULT:      -3.1      2.248      2.773
REMARK  0 active torsions:
REMARK  status: ('A' for Active; 'I' for Inactive)
ROOT
HETATM    1  C1  UNL     1     -33.752   7.321   4.989  1.00 20.00     0.080 C 
HETATM    2  C2  UNL     1     -35.784   6.143   4.229  1.00 20.00     0.043 C 
HETATM    3  C3  UNL     1     -34.276   5.116   5.965  1.00 20.00     0.043 C 
HETATM    4  C4  UNL     1     -34.347   6.001   4.724  1.00 20.00     0.099 C 
HETATM    5  N5  UNL     1     -33.286   8.362   5.201  1.00 20.00    -0.196 NA
HETATM    6 BR6  UNL     1     -33.307   5.119   3.299  1.00 20.00    -0.070 Br
ENDROOT
TORSDOF 0
ENDMDL
MODEL 5
REMARK VINA RESULT:      -3.0      2.008      2.256
REMARK  0 active torsions:
REMARK  status: ('A' for Active; 'I' for Inactive)
ROOT
HETATM    1  C1  UNL     1     -33.579   7.275   4.594  1.00 20.00     0.080 C 
HETATM    2  C2  UNL     1     -33.642   4.963   3.732  1.00 20.00     0.043 C 
HETATM    3  C3  UNL     1     -35.774   6.241   4.138  1.00 20.00     0.043 C 
HETATM    4  C4  UNL     1     -34.336   6.012   4.597  1.00 20.00     0.099 C 
HETATM    5  N5  UNL     1     -32.983   8.271   4.588  1.00 20.00    -0.196 NA
HETATM    6 BR6  UNL     1     -34.399   5.322   6.443  1.00 20.00    -0.070 Br
ENDROOT
TORSDOF 0
ENDMDL
MODEL 6
REMARK VINA RESULT:      -2.9     13.782     14.089
REMARK  0 active torsions:
REMARK  status: ('A' for Active; 'I' for Inactive)
ROOT
HETATM    1  C1  UNL     1     -31.700  18.513  -0.908  1.00 20.00     0.080 C 
HETATM    2  C2  UNL     1     -33.344  16.977  -1.922  1.00 20.00     0.043 C 
HETATM    3  C3  UNL     1     -32.946  19.263  -2.902  1.00 20.00     0.043 C 
HETATM    4  C4  UNL     1     -32.983  18.430  -1.623  1.00 20.00     0.099 C 
HETATM    5  N5  UNL     1     -30.686  18.577  -0.347  1.00 20.00    -0.196 NA
HETATM    6 BR6  UNL     1     -34.396  19.172  -0.465  1.00 20.00    -0.070 Br
ENDROOT
TORSDOF 0
ENDMDL
MODEL 7
REMARK VINA RESULT:      -2.9      8.845      9.752
REMARK  0 active torsions:
REMARK  status: ('A' for Active; 'I' for Inactive)
ROOT
HETATM    1  C1  UNL     1     -42.643   5.773  -0.756  1.00 20.00     0.080 C 
HETATM    2  C2  UNL     1     -42.558   8.219  -0.434  1.00 20.00     0.043 C 
HETATM    3  C3  UNL     1     -40.831   6.722   0.625  1.00 20.00     0.043 C 
HETATM    4  C4  UNL     1     -42.287   6.849   0.183  1.00 20.00     0.099 C 
HETATM    5  N5  UNL     1     -42.921   4.926  -1.499  1.00 20.00    -0.196 NA
HETATM    6 BR6  UNL     1     -43.417   6.679   1.790  1.00 20.00    -0.070 Br
ENDROOT
TORSDOF 0
ENDMDL
MODEL 8
REMARK VINA RESULT:      -2.8     16.978     17.252
REMARK  0 active torsions:
REMARK  status: ('A' for Active; 'I' for Inactive)
ROOT
HETATM    1  C1  UNL     1     -24.778  18.542  10.676  1.00 20.00     0.080 C 
HETATM    2  C2  UNL     1     -22.812  17.374   9.747  1.00 20.00     0.043 C 
HETATM    3  C3  UNL     1     -24.175  16.330  11.590  1.00 20.00     0.043 C 
HETATM    4  C4  UNL     1     -23.661  17.636  10.988  1.00 20.00     0.099 C 
HETATM    5  N5  UNL     1     -25.660  19.255  10.427  1.00 20.00    -0.196 NA
HETATM    6 BR6  UNL     1     -22.507  18.502  12.332  1.00 20.00    -0.070 Br
ENDROOT
TORSDOF 0
ENDMDL
MODEL 9
REMARK VINA RESULT:      -2.8     13.455     13.843
REMARK  0 active torsions:
REMARK  status: ('A' for Active; 'I' for Inactive)
ROOT
HETATM    1  C1  UNL     1     -34.065  15.155  -6.706  1.00 20.00     0.080 C 
HETATM    2  C2  UNL     1     -33.687  14.638  -4.322  1.00 20.00     0.043 C 
HETATM    3  C3  UNL     1     -35.980  14.412  -5.339  1.00 20.00     0.043 C 
HETATM    4  C4  UNL     1     -34.663  15.183  -5.362  1.00 20.00     0.099 C 
HETATM    5  N5  UNL     1     -33.592  15.129  -7.766  1.00 20.00    -0.196 NA
HETATM    6 BR6  UNL     1     -35.058  17.056  -4.889  1.00 20.00    -0.070 Br
ENDROOT
TORSDOF 0
ENDMDL
