MODEL 1
REMARK VINA RESULT:      -4.9      0.000      0.000
REMARK  0 active torsions:
REMARK  status: ('A' for Active; 'I' for Inactive)
ROOT
HETATM    1  C1  UNL     1     -32.856   7.575   3.905  1.00 20.00     0.064 C 
HETATM    2  C2  UNL     1     -34.436   5.089   4.925  1.00 20.00     0.128 C 
HETATM    3  C3  UNL     1     -34.326   5.271   6.421  1.00 20.00     0.078 C 
HETATM    4  C4  UNL     1     -34.950   6.277   4.137  1.00 20.00     0.097 C 
HETATM    5  C5  UNL     1     -33.558   6.542   6.749  1.00 20.00     0.009 C 
HETATM    6  C6  UNL     1     -34.135   7.760   6.024  1.00 20.00     0.020 C 
HETATM    7  C7  UNL     1     -34.206   7.563   4.503  1.00 20.00     0.100 C 
HETATM    8  N8  UNL     1     -31.795   7.585   3.435  1.00 20.00    -0.197 NA
HETATM    9  O9  UNL     1     -34.217   4.004   4.388  1.00 20.00    -0.298 OA
ENDROOT
TORSDOF 0
ENDMDL
MODEL 2
REMARK VINA RESULT:      -4.0      2.510      3.639
REMARK  0 active torsions:
REMARK  status: ('A' for Active; 'I' for Inactive)
ROOT
HETATM    1  C1  UNL     1     -34.335   5.675   5.822  1.00 20.00     0.064 C 
HETATM    2  C2  UNL     1     -32.792   7.961   4.372  1.00 20.00     0.128 C 
HETATM    3  C3  UNL     1     -32.280   7.235   3.149  1.00 20.00     0.078 C 
HETATM    4  C4  UNL     1     -34.277   7.852   4.649  1.00 20.00     0.097 C 
HETATM    5  C5  UNL     1     -32.751   5.788   3.153  1.00 20.00     0.009 C 
HETATM    6  C6  UNL     1     -34.265   5.681   3.342  1.00 20.00     0.020 C 
HETATM    7  C7  UNL     1     -34.755   6.399   4.607  1.00 20.00     0.100 C 
HETATM    8  N8  UNL     1     -34.005   5.104   6.778  1.00 20.00    -0.197 NA
HETATM    9  O9  UNL     1     -32.061   8.684   5.046  1.00 20.00    -0.298 OA
ENDROOT
TORSDOF 0
ENDMDL
MODEL 3
REMARK VINA RESULT:      -3.9      1.579      1.970
REMARK  0 active torsions:
REMARK  status: ('A' for Active; 'I' for Inactive)
ROOT
HETATM    1  C1  UNL     1     -33.437   5.684   3.132  1.00 20.00     0.064 C 
HETATM    2  C2  UNL     1     -34.375   5.862   6.098  1.00 20.00     0.128 C 
HETATM    3  C3  UNL     1     -33.745   7.167   6.524  1.00 20.00     0.078 C 
HETATM    4  C4  UNL     1     -35.216   5.897   4.838  1.00 20.00     0.097 C 
HETATM    5  C5  UNL     1     -32.996   7.801   5.361  1.00 20.00     0.009 C 
HETATM    6  C6  UNL     1     -33.874   7.921   4.114  1.00 20.00     0.020 C 
HETATM    7  C7  UNL     1     -34.476   6.575   3.684  1.00 20.00     0.100 C 
HETATM    8  N8  UNL     1     -32.620   4.984   2.697  1.00 20.00    -0.197 NA
HETATM    9  O9  UNL     1     -34.295   4.850   6.793  1.00 20.00    -0.298 OA
ENDROOT
TORSDOF 0
ENDMDL
MODEL 4
REMARK VINA RESULT:      -3.9      9.793     10.399
REMARK  0 active torsions:
REMARK  status: ('A' for Active; 'I' for Inactive)
ROOT
HETATM    1  C1  UNL     1     -42.307   5.013  -1.169  1.00 20.00     0.064 C 
HETATM    2  C2  UNL     1     -42.820   7.757   0.216  1.00 20.00     0.128 C 
HETATM    3  C3  UNL     1     -43.290   7.309   1.580  1.00 20.00     0.078 C 
HETATM    4  C4  UNL     1     -41.509   7.175  -0.271  1.00 20.00     0.097 C 
HETATM    5  C5  UNL     1     -43.274   5.791   1.679  1.00 20.00     0.009 C 
HETATM    6  C6  UNL     1     -41.918   5.208   1.274  1.00 20.00     0.020 C 
HETATM    7  C7  UNL     1     -41.479   5.652  -0.128  1.00 20.00     0.100 C 
HETATM    8  N8  UNL     1     -42.959   4.509  -1.987  1.00 20.00    -0.197 NA
HETATM    9  O9  UNL     1     -43.417   8.624  -0.420  1.00 20.00    -0.298 OA
ENDROOT
TORSDOF 0
ENDMDL
MODEL 5
REMARK VINA RESULT:      -3.7      9.008     10.116
REMARK  0 active torsions:
REMARK  status: ('A' for Active; 'I' for Inactive)
ROOT
HETATM    1  C1  UNL     1     -42.880   5.429   1.458  1.00 20.00     0.064 C 
HETATM    2  C2  UNL     1     -42.551   7.896  -0.419  1.00 20.00     0.128 C 
HETATM    3  C3  UNL     1     -41.088   8.216  -0.222  1.00 20.00     0.078 C 
HETATM    4  C4  UNL     1     -42.885   6.465  -0.789  1.00 20.00     0.097 C 
HETATM    5  C5  UNL     1     -40.448   7.221   0.734  1.00 20.00     0.009 C 
HETATM    6  C6  UNL     1     -40.708   5.774   0.309  1.00 20.00     0.020 C 
HETATM    7  C7  UNL     1     -42.203   5.465   0.147  1.00 20.00     0.100 C 
HETATM    8  N8  UNL     1     -43.412   5.400   2.489  1.00 20.00    -0.197 NA
HETATM    9  O9  UNL     1     -43.414   8.771  -0.381  1.00 20.00    -0.298 OA
ENDROOT
TORSDOF 0
ENDMDL
MODEL 6
REMARK VINA RESULT:      -3.7     12.916     13.733
REMARK  0 active torsions:
REMARK  status: ('A' for Active; 'I' for Inactive)
ROOT
HETATM    1  C1  UNL     1     -35.202  14.039  -4.843  1.00 20.00     0.064 C 
HETATM    2  C2  UNL     1     -35.020  17.148  -4.736  1.00 20.00     0.128 C 
HETATM    3  C3  UNL     1     -34.007  17.341  -3.632  1.00 20.00     0.078 C 
HETATM    4  C4  UNL     1     -34.622  16.217  -5.863  1.00 20.00     0.097 C 
HETATM    5  C5  UNL     1     -33.524  15.996  -3.110  1.00 20.00     0.009 C 
HETATM    6  C6  UNL     1     -33.035  15.088  -4.241  1.00 20.00     0.020 C 
HETATM    7  C7  UNL     1     -34.094  14.883  -5.333  1.00 20.00     0.100 C 
HETATM    8  N8  UNL     1     -36.072  13.375  -4.458  1.00 20.00    -0.197 NA
HETATM    9  O9  UNL     1     -36.068  17.791  -4.770  1.00 20.00    -0.298 OA
ENDROOT
TORSDOF 0
ENDMDL
MODEL 7
REMARK VINA RESULT:      -3.6      2.459      3.143
REMARK  0 active torsions:
REMARK  status: ('A' for Active; 'I' for Inactive)
ROOT
HETATM    1  C1  UNL     1     -35.786   5.895   4.186  1.00 20.00     0.064 C 
HETATM    2  C2  UNL     1     -33.097   7.468   4.279  1.00 20.00     0.128 C 
HETATM    3  C3  UNL     1     -32.988   7.769   5.755  1.00 20.00     0.078 C 
HETATM    4  C4  UNL     1     -33.332   6.020   3.901  1.00 20.00     0.097 C 
HETATM    5  C5  UNL     1     -34.167   7.171   6.509  1.00 20.00     0.009 C 
HETATM    6  C6  UNL     1     -34.348   5.684   6.198  1.00 20.00     0.020 C 
HETATM    7  C7  UNL     1     -34.488   5.409   4.694  1.00 20.00     0.100 C 
HETATM    8  N8  UNL     1     -36.807   6.278   3.787  1.00 20.00    -0.197 NA
HETATM    9  O9  UNL     1     -32.903   8.334   3.428  1.00 20.00    -0.298 OA
ENDROOT
TORSDOF 0
ENDMDL
MODEL 8
REMARK VINA RESULT:      -3.6     13.024     14.154
REMARK  0 active torsions:
REMARK  status: ('A' for Active; 'I' for Inactive)
ROOT
HETATM    1  C1  UNL     1     -36.291  15.758  -5.692  1.00 20.00     0.064 C 
HETATM    2  C2  UNL     1     -34.260  17.199  -3.818  1.00 20.00     0.128 C 
HETATM    3  C3  UNL     1     -33.346  16.054  -3.448  1.00 20.00     0.078 C 
HETATM    4  C4  UNL     1     -34.500  17.419  -5.297  1.00 20.00     0.097 C 
HETATM    5  C5  UNL     1     -33.782  14.775  -4.146  1.00 20.00     0.009 C 
HETATM    6  C6  UNL     1     -33.937  14.974  -5.655  1.00 20.00     0.020 C 
HETATM    7  C7  UNL     1     -34.895  16.121  -6.005  1.00 20.00     0.100 C 
HETATM    8  N8  UNL     1     -37.388  15.471  -5.446  1.00 20.00    -0.197 NA
HETATM    9  O9  UNL     1     -34.703  17.972  -2.970  1.00 20.00    -0.298 OA
ENDROOT
TORSDOF 0
ENDMDL
MODEL 9
REMARK VINA RESULT:      -3.4     12.961     13.900
REMARK  0 active torsions:
REMARK  status: ('A' for Active; 'I' for Inactive)
ROOT
HETATM    1  C1  UNL     1     -34.610  15.331  -6.867  1.00 20.00     0.064 C 
HETATM    2  C2  UNL     1     -33.200  15.271  -4.088  1.00 20.00     0.128 C 
HETATM    3  C3  UNL     1     -33.474  16.673  -3.594  1.00 20.00     0.078 C 
HETATM    4  C4  UNL     1     -34.401  14.474  -4.556  1.00 20.00     0.097 C 
HETATM    5  C5  UNL     1     -34.304  17.443  -4.610  1.00 20.00     0.009 C 
HETATM    6  C6  UNL     1     -35.566  16.677  -5.015  1.00 20.00     0.020 C 
HETATM    7  C7  UNL     1     -35.258  15.269  -5.542  1.00 20.00     0.100 C 
HETATM    8  N8  UNL     1     -34.101  15.381  -7.909  1.00 20.00    -0.197 NA
HETATM    9  O9  UNL     1     -32.080  14.770  -4.018  1.00 20.00    -0.298 OA
ENDROOT
TORSDOF 0
ENDMDL
