MODEL 1
REMARK VINA RESULT:      -3.6      0.000      0.000
REMARK  2 active torsions:
REMARK  status: ('A' for Active; 'I' for Inactive)
REMARK    1  A    between atoms: C1_1  and  C6_6 
REMARK    2  A    between atoms: C6_6  and  N7_7 
ROOT
HETATM    1  C3  UNL     1     -34.798   5.629   5.942  1.00 20.00     0.060 C 
HETATM    2  C4  UNL     1     -34.086   5.809   4.589  1.00 20.00     0.274 C 
HETATM    3  C5  UNL     1     -34.029   6.899   6.355  1.00 20.00     0.274 C 
HETATM    4  N7  UNL     1     -33.979   7.255   4.913  1.00 20.00     0.091 N 
ENDROOT
BRANCH   4   5
HETATM    5  C6  UNL     1     -32.661   7.766   4.556  1.00 20.00     0.300 C 
BRANCH   5   6
HETATM    6  C1  UNL     1     -32.705   8.565   3.289  1.00 20.00     0.010 C 
HETATM    7  C2  UNL     1     -32.444   8.050   2.083  1.00 20.00     0.053 C 
HETATM    8 BR8  UNL     1     -32.501   9.012   0.499  1.00 20.00    -0.064 Br
ENDBRANCH   5   6
ENDBRANCH   4   5
TORSDOF 2
ENDMDL
MODEL 2
REMARK VINA RESULT:      -3.3     11.747     12.059
REMARK  2 active torsions:
REMARK  status: ('A' for Active; 'I' for Inactive)
REMARK    1  A    between atoms: C1_1  and  C6_6 
REMARK    2  A    between atoms: C6_6  and  N7_7 
ROOT
HETATM    1  C3  UNL     1     -30.190  18.931   3.756  1.00 20.00     0.060 C 
HETATM    2  C4  UNL     1     -29.533  19.233   2.396  1.00 20.00     0.274 C 
HETATM    3  C5  UNL     1     -31.502  18.875   2.949  1.00 20.00     0.274 C 
HETATM    4  N7  UNL     1     -30.677  18.529   1.762  1.00 20.00     0.091 N 
ENDROOT
BRANCH   4   5
HETATM    5  C6  UNL     1     -31.141  19.256   0.586  1.00 20.00     0.300 C 
BRANCH   5   6
HETATM    6  C1  UNL     1     -31.528  18.323  -0.521  1.00 20.00     0.010 C 
HETATM    7  C2  UNL     1     -32.787  18.157  -0.939  1.00 20.00     0.053 C 
HETATM    8 BR8  UNL     1     -33.292  17.019  -2.312  1.00 20.00    -0.064 Br
ENDBRANCH   5   6
ENDBRANCH   4   5
TORSDOF 2
ENDMDL
MODEL 3
REMARK VINA RESULT:      -3.2     16.092     16.901
REMARK  2 active torsions:
REMARK  status: ('A' for Active; 'I' for Inactive)
REMARK    1  A    between atoms: C1_1  and  C6_6 
REMARK    2  A    between atoms: C6_6  and  N7_7 
ROOT
HETATM    1  C3  UNL     1     -21.568  18.274   8.235  1.00 20.00     0.060 C 
HETATM    2  C4  UNL     1     -21.451  19.245   9.425  1.00 20.00     0.274 C 
HETATM    3  C5  UNL     1     -22.321  17.370   9.229  1.00 20.00     0.274 C 
HETATM    4  N7  UNL     1     -22.670  18.603   9.981  1.00 20.00     0.091 N 
ENDROOT
BRANCH   4   5
HETATM    5  C6  UNL     1     -22.528  18.386  11.417  1.00 20.00     0.300 C 
BRANCH   5   6
HETATM    6  C1  UNL     1     -23.848  18.476  12.121  1.00 20.00     0.010 C 
HETATM    7  C2  UNL     1     -25.007  18.686  11.488  1.00 20.00     0.053 C 
HETATM    8 BR8  UNL     1     -26.655  18.792  12.332  1.00 20.00    -0.064 Br
ENDBRANCH   5   6
ENDBRANCH   4   5
TORSDOF 2
ENDMDL
MODEL 4
REMARK VINA RESULT:      -3.2     11.541     12.067
REMARK  2 active torsions:
REMARK  status: ('A' for Active; 'I' for Inactive)
REMARK    1  A    between atoms: C1_1  and  C6_6 
REMARK    2  A    between atoms: C6_6  and  N7_7 
ROOT
HETATM    1  C3  UNL     1     -32.103  18.575   0.931  1.00 20.00     0.060 C 
HETATM    2  C4  UNL     1     -31.356  18.576  -0.416  1.00 20.00     0.274 C 
HETATM    3  C5  UNL     1     -33.376  18.587   0.063  1.00 20.00     0.274 C 
HETATM    4  N7  UNL     1     -32.567  17.956  -1.012  1.00 20.00     0.091 N 
ENDROOT
BRANCH   4   5
HETATM    5  C6  UNL     1     -32.871  18.560  -2.305  1.00 20.00     0.300 C 
BRANCH   5   6
HETATM    6  C1  UNL     1     -33.240  17.524  -3.323  1.00 20.00     0.010 C 
HETATM    7  C2  UNL     1     -33.316  16.217  -3.051  1.00 20.00     0.053 C 
HETATM    8 BR8  UNL     1     -33.780  14.916  -4.287  1.00 20.00    -0.064 Br
ENDBRANCH   5   6
ENDBRANCH   4   5
TORSDOF 2
ENDMDL
MODEL 5
REMARK VINA RESULT:      -3.2     11.748     12.847
REMARK  2 active torsions:
REMARK  status: ('A' for Active; 'I' for Inactive)
REMARK    1  A    between atoms: C1_1  and  C6_6 
REMARK    2  A    between atoms: C6_6  and  N7_7 
ROOT
HETATM    1  C3  UNL     1     -35.838  15.265  -7.351  1.00 20.00     0.060 C 
HETATM    2  C4  UNL     1     -34.346  15.558  -7.107  1.00 20.00     0.274 C 
HETATM    3  C5  UNL     1     -35.799  14.637  -5.945  1.00 20.00     0.274 C 
HETATM    4  N7  UNL     1     -34.647  15.529  -5.652  1.00 20.00     0.091 N 
ENDROOT
BRANCH   4   5
HETATM    5  C6  UNL     1     -33.609  14.806  -4.926  1.00 20.00     0.300 C 
BRANCH   5   6
HETATM    6  C1  UNL     1     -33.233  15.509  -3.657  1.00 20.00     0.010 C 
HETATM    7  C2  UNL     1     -33.672  16.730  -3.334  1.00 20.00     0.053 C 
HETATM    8 BR8  UNL     1     -33.232  17.619  -1.767  1.00 20.00    -0.064 Br
ENDBRANCH   5   6
ENDBRANCH   4   5
TORSDOF 2
ENDMDL
MODEL 6
REMARK VINA RESULT:      -3.2     15.306     15.949
REMARK  2 active torsions:
REMARK  status: ('A' for Active; 'I' for Inactive)
REMARK    1  A    between atoms: C1_1  and  C6_6 
REMARK    2  A    between atoms: C6_6  and  N7_7 
ROOT
HETATM    1  C3  UNL     1     -25.751  17.212  12.332  1.00 20.00     0.060 C 
HETATM    2  C4  UNL     1     -24.383  16.641  11.912  1.00 20.00     0.274 C 
HETATM    3  C5  UNL     1     -25.081  18.584  12.129  1.00 20.00     0.274 C 
HETATM    4  N7  UNL     1     -24.151  17.915  11.182  1.00 20.00     0.091 N 
ENDROOT
BRANCH   4   5
HETATM    5  C6  UNL     1     -22.785  18.383  11.387  1.00 20.00     0.300 C 
BRANCH   5   6
HETATM    6  C1  UNL     1     -22.048  18.517  10.089  1.00 20.00     0.010 C 
HETATM    7  C2  UNL     1     -22.183  17.658   9.074  1.00 20.00     0.053 C 
HETATM    8 BR8  UNL     1     -21.293  17.805   7.454  1.00 20.00    -0.064 Br
ENDBRANCH   5   6
ENDBRANCH   4   5
TORSDOF 2
ENDMDL
MODEL 7
REMARK VINA RESULT:      -3.1     11.673     12.347
REMARK  2 active torsions:
REMARK  status: ('A' for Active; 'I' for Inactive)
REMARK    1  A    between atoms: C1_1  and  C6_6 
REMARK    2  A    between atoms: C6_6  and  N7_7 
ROOT
HETATM    1  C3  UNL     1     -34.519  15.022  -5.989  1.00 20.00     0.060 C 
HETATM    2  C4  UNL     1     -34.454  16.450  -5.415  1.00 20.00     0.274 C 
HETATM    3  C5  UNL     1     -33.620  14.653  -4.794  1.00 20.00     0.274 C 
HETATM    4  N7  UNL     1     -34.186  15.832  -4.090  1.00 20.00     0.091 N 
ENDROOT
BRANCH   4   5
HETATM    5  C6  UNL     1     -33.138  16.561  -3.385  1.00 20.00     0.300 C 
BRANCH   5   6
HETATM    6  C1  UNL     1     -33.558  16.920  -1.992  1.00 20.00     0.010 C 
HETATM    7  C2  UNL     1     -32.988  17.897  -1.279  1.00 20.00     0.053 C 
HETATM    8 BR8  UNL     1     -33.494  18.369   0.441  1.00 20.00    -0.064 Br
ENDBRANCH   5   6
ENDBRANCH   4   5
TORSDOF 2
ENDMDL
MODEL 8
REMARK VINA RESULT:      -3.0      9.836     10.403
REMARK  2 active torsions:
REMARK  status: ('A' for Active; 'I' for Inactive)
REMARK    1  A    between atoms: C1_1  and  C6_6 
REMARK    2  A    between atoms: C6_6  and  N7_7 
ROOT
HETATM    1  C3  UNL     1     -40.430  15.967   9.022  1.00 20.00     0.060 C 
HETATM    2  C4  UNL     1     -41.089  15.813   7.639  1.00 20.00     0.274 C 
HETATM    3  C5  UNL     1     -40.464  14.427   9.052  1.00 20.00     0.274 C 
HETATM    4  N7  UNL     1     -40.467  14.465   7.566  1.00 20.00     0.091 N 
ENDROOT
BRANCH   4   5
HETATM    5  C6  UNL     1     -41.412  13.491   7.030  1.00 20.00     0.300 C 
BRANCH   5   6
HETATM    6  C1  UNL     1     -40.903  12.871   5.764  1.00 20.00     0.010 C 
HETATM    7  C2  UNL     1     -39.657  12.409   5.619  1.00 20.00     0.053 C 
HETATM    8 BR8  UNL     1     -39.005  11.627   4.069  1.00 20.00    -0.064 Br
ENDBRANCH   5   6
ENDBRANCH   4   5
TORSDOF 2
ENDMDL
MODEL 9
REMARK VINA RESULT:      -3.0     11.914     12.542
REMARK  2 active torsions:
REMARK  status: ('A' for Active; 'I' for Inactive)
REMARK    1  A    between atoms: C1_1  and  C6_6 
REMARK    2  A    between atoms: C6_6  and  N7_7 
ROOT
HETATM    1  C3  UNL     1     -26.708  18.812   4.568  1.00 20.00     0.060 C 
HETATM    2  C4  UNL     1     -27.504  19.261   3.328  1.00 20.00     0.274 C 
HETATM    3  C5  UNL     1     -28.095  18.553   5.188  1.00 20.00     0.274 C 
HETATM    4  N7  UNL     1     -28.609  18.388   3.804  1.00 20.00     0.091 N 
ENDROOT
BRANCH   4   5
HETATM    5  C6  UNL     1     -29.896  19.057   3.651  1.00 20.00     0.300 C 
BRANCH   5   6
HETATM    6  C1  UNL     1     -30.620  18.585   2.427  1.00 20.00     0.010 C 
HETATM    7  C2  UNL     1     -30.568  19.217   1.250  1.00 20.00     0.053 C 
HETATM    8 BR8  UNL     1     -31.445  18.650  -0.282  1.00 20.00    -0.064 Br
ENDBRANCH   5   6
ENDBRANCH   4   5
TORSDOF 2
ENDMDL
