MODEL 1
REMARK VINA RESULT:      -3.9      0.000      0.000
REMARK  4 active torsions:
REMARK  status: ('A' for Active; 'I' for Inactive)
REMARK    1  A    between atoms: C2_2  and  C3_3 
REMARK    2  A    between atoms: C2_2  and  C4_4 
REMARK    3  A    between atoms: C3_3  and  C5_5 
REMARK    4  A    between atoms: C4_4  and  S6_6 
ROOT
HETATM    1  C2  UNL     1     -33.798   7.125   6.384  1.00 20.00     0.011 C 
ENDROOT
BRANCH   1   2
HETATM    2  C3  UNL     1     -34.587   5.814   6.295  1.00 20.00     0.016 C 
BRANCH   2   3
HETATM    3  C5  UNL     1     -35.027   5.470   4.874  1.00 20.00     0.114 C 
HETATM    4 CL7  UNL     1     -33.942   4.288   4.107  1.00 20.00    -0.130 Cl
ENDBRANCH   2   3
ENDBRANCH   1   2
BRANCH   1   5
HETATM    5  C4  UNL     1     -33.951   7.937   5.100  1.00 20.00     0.073 C 
BRANCH   5   6
HETATM    6  S6  UNL     1     -32.331   8.469   4.478  1.00 20.00    -0.173 SA
HETATM    7  C1  UNL     1     -32.208   7.345   3.069  1.00 20.00     0.089 C 
ENDBRANCH   5   6
ENDBRANCH   1   5
TORSDOF 4
ENDMDL
MODEL 2
REMARK VINA RESULT:      -3.7      2.232      3.171
REMARK  4 active torsions:
REMARK  status: ('A' for Active; 'I' for Inactive)
REMARK    1  A    between atoms: C2_2  and  C3_3 
REMARK    2  A    between atoms: C2_2  and  C4_4 
REMARK    3  A    between atoms: C3_3  and  C5_5 
REMARK    4  A    between atoms: C4_4  and  S6_6 
ROOT
HETATM    1  C2  UNL     1     -33.547   7.220   6.422  1.00 20.00     0.011 C 
ENDROOT
BRANCH   1   2
HETATM    2  C3  UNL     1     -33.672   8.085   5.162  1.00 20.00     0.016 C 
BRANCH   2   3
HETATM    3  C5  UNL     1     -32.335   8.344   4.474  1.00 20.00     0.114 C 
HETATM    4 CL7  UNL     1     -32.146   7.376   2.994  1.00 20.00    -0.130 Cl
ENDBRANCH   2   3
ENDBRANCH   1   2
BRANCH   1   5
HETATM    5  C4  UNL     1     -34.527   6.050   6.373  1.00 20.00     0.073 C 
BRANCH   5   6
HETATM    6  S6  UNL     1     -35.109   5.769   4.677  1.00 20.00    -0.173 SA
HETATM    7  C1  UNL     1     -33.963   4.449   4.220  1.00 20.00     0.089 C 
ENDBRANCH   5   6
ENDBRANCH   1   5
TORSDOF 4
ENDMDL
MODEL 3
REMARK VINA RESULT:      -3.7      1.324      1.682
REMARK  4 active torsions:
REMARK  status: ('A' for Active; 'I' for Inactive)
REMARK    1  A    between atoms: C2_2  and  C3_3 
REMARK    2  A    between atoms: C2_2  and  C4_4 
REMARK    3  A    between atoms: C3_3  and  C5_5 
REMARK    4  A    between atoms: C4_4  and  S6_6 
ROOT
HETATM    1  C2  UNL     1     -34.522   5.714   6.244  1.00 20.00     0.011 C 
ENDROOT
BRANCH   1   2
HETATM    2  C3  UNL     1     -34.879   5.458   4.775  1.00 20.00     0.016 C 
BRANCH   2   3
HETATM    3  C5  UNL     1     -33.954   4.450   4.097  1.00 20.00     0.114 C 
HETATM    4 CL7  UNL     1     -33.032   5.181   2.764  1.00 20.00    -0.130 Cl
ENDBRANCH   2   3
ENDBRANCH   1   2
BRANCH   1   5
HETATM    5  C4  UNL     1     -33.754   7.026   6.393  1.00 20.00     0.073 C 
BRANCH   5   6
HETATM    6  S6  UNL     1     -33.950   8.057   4.912  1.00 20.00    -0.173 SA
HETATM    7  C1  UNL     1     -32.201   8.293   4.523  1.00 20.00     0.089 C 
ENDBRANCH   5   6
ENDBRANCH   1   5
TORSDOF 4
ENDMDL
MODEL 4
REMARK VINA RESULT:      -3.6      1.914      3.212
REMARK  4 active torsions:
REMARK  status: ('A' for Active; 'I' for Inactive)
REMARK    1  A    between atoms: C2_2  and  C3_3 
REMARK    2  A    between atoms: C2_2  and  C4_4 
REMARK    3  A    between atoms: C3_3  and  C5_5 
REMARK    4  A    between atoms: C4_4  and  S6_6 
ROOT
HETATM    1  C2  UNL     1     -33.747   7.854   4.893  1.00 20.00     0.011 C 
ENDROOT
BRANCH   1   2
HETATM    2  C3  UNL     1     -32.344   8.030   4.301  1.00 20.00     0.016 C 
BRANCH   2   3
HETATM    3  C5  UNL     1     -32.237   7.562   2.852  1.00 20.00     0.114 C 
HETATM    4 CL7  UNL     1     -32.602   5.830   2.682  1.00 20.00    -0.130 Cl
ENDBRANCH   2   3
ENDBRANCH   1   2
BRANCH   1   5
HETATM    5  C4  UNL     1     -33.679   7.144   6.243  1.00 20.00     0.073 C 
BRANCH   5   6
HETATM    6  S6  UNL     1     -34.554   5.555   6.179  1.00 20.00    -0.173 SA
HETATM    7  C1  UNL     1     -35.364   5.765   4.578  1.00 20.00     0.089 C 
ENDBRANCH   5   6
ENDBRANCH   1   5
TORSDOF 4
ENDMDL
MODEL 5
REMARK VINA RESULT:      -3.5      1.257      1.530
REMARK  4 active torsions:
REMARK  status: ('A' for Active; 'I' for Inactive)
REMARK    1  A    between atoms: C2_2  and  C3_3 
REMARK    2  A    between atoms: C2_2  and  C4_4 
REMARK    3  A    between atoms: C3_3  and  C5_5 
REMARK    4  A    between atoms: C4_4  and  S6_6 
ROOT
HETATM    1  C2  UNL     1     -33.857   7.870   5.220  1.00 20.00     0.011 C 
ENDROOT
BRANCH   1   2
HETATM    2  C3  UNL     1     -33.830   6.887   6.396  1.00 20.00     0.016 C 
BRANCH   2   3
HETATM    3  C5  UNL     1     -34.692   5.648   6.167  1.00 20.00     0.114 C 
HETATM    4 CL7  UNL     1     -35.513   5.688   4.590  1.00 20.00    -0.130 Cl
ENDBRANCH   2   3
ENDBRANCH   1   2
BRANCH   1   5
HETATM    5  C4  UNL     1     -32.438   8.224   4.780  1.00 20.00     0.073 C 
BRANCH   5   6
HETATM    6  S6  UNL     1     -32.256   8.034   2.983  1.00 20.00    -0.173 SA
HETATM    7  C1  UNL     1     -32.595   6.263   2.870  1.00 20.00     0.089 C 
ENDBRANCH   5   6
ENDBRANCH   1   5
TORSDOF 4
ENDMDL
MODEL 6
REMARK VINA RESULT:      -3.4      2.540      3.586
REMARK  4 active torsions:
REMARK  status: ('A' for Active; 'I' for Inactive)
REMARK    1  A    between atoms: C2_2  and  C3_3 
REMARK    2  A    between atoms: C2_2  and  C4_4 
REMARK    3  A    between atoms: C3_3  and  C5_5 
REMARK    4  A    between atoms: C4_4  and  S6_6 
ROOT
HETATM    1  C2  UNL     1     -33.809   7.804   4.815  1.00 20.00     0.011 C 
ENDROOT
BRANCH   1   2
HETATM    2  C3  UNL     1     -32.428   8.141   4.241  1.00 20.00     0.016 C 
BRANCH   2   3
HETATM    3  C5  UNL     1     -32.081   7.337   2.991  1.00 20.00     0.114 C 
HETATM    4 CL7  UNL     1     -32.274   8.295   1.505  1.00 20.00    -0.130 Cl
ENDBRANCH   2   3
ENDBRANCH   1   2
BRANCH   1   5
HETATM    5  C4  UNL     1     -33.681   7.210   6.216  1.00 20.00     0.073 C 
BRANCH   5   6
HETATM    6  S6  UNL     1     -34.553   5.621   6.322  1.00 20.00    -0.173 SA
HETATM    7  C1  UNL     1     -34.871   5.377   4.561  1.00 20.00     0.089 C 
ENDBRANCH   5   6
ENDBRANCH   1   5
TORSDOF 4
ENDMDL
MODEL 7
REMARK VINA RESULT:      -3.3      1.164      1.443
REMARK  4 active torsions:
REMARK  status: ('A' for Active; 'I' for Inactive)
REMARK    1  A    between atoms: C2_2  and  C3_3 
REMARK    2  A    between atoms: C2_2  and  C4_4 
REMARK    3  A    between atoms: C3_3  and  C5_5 
REMARK    4  A    between atoms: C4_4  and  S6_6 
ROOT
HETATM    1  C2  UNL     1     -33.906   7.929   5.330  1.00 20.00     0.011 C 
ENDROOT
BRANCH   1   2
HETATM    2  C3  UNL     1     -33.774   6.833   6.394  1.00 20.00     0.016 C 
BRANCH   2   3
HETATM    3  C5  UNL     1     -34.729   5.662   6.175  1.00 20.00     0.114 C 
HETATM    4 CL7  UNL     1     -34.444   4.850   4.618  1.00 20.00    -0.130 Cl
ENDBRANCH   2   3
ENDBRANCH   1   2
BRANCH   1   5
HETATM    5  C4  UNL     1     -32.534   8.330   4.794  1.00 20.00     0.073 C 
BRANCH   5   6
HETATM    6  S6  UNL     1     -32.220   7.555   3.183  1.00 20.00    -0.173 SA
HETATM    7  C1  UNL     1     -32.656   8.955   2.128  1.00 20.00     0.089 C 
ENDBRANCH   5   6
ENDBRANCH   1   5
TORSDOF 4
ENDMDL
MODEL 8
REMARK VINA RESULT:      -3.2      2.045      2.482
REMARK  4 active torsions:
REMARK  status: ('A' for Active; 'I' for Inactive)
REMARK    1  A    between atoms: C2_2  and  C3_3 
REMARK    2  A    between atoms: C2_2  and  C4_4 
REMARK    3  A    between atoms: C3_3  and  C5_5 
REMARK    4  A    between atoms: C4_4  and  S6_6 
ROOT
HETATM    1  C2  UNL     1     -34.242   6.027   3.948  1.00 20.00     0.011 C 
ENDROOT
BRANCH   1   2
HETATM    2  C3  UNL     1     -34.559   4.863   4.893  1.00 20.00     0.016 C 
BRANCH   2   3
HETATM    3  C5  UNL     1     -34.534   5.258   6.367  1.00 20.00     0.114 C 
HETATM    4 CL7  UNL     1     -34.292   7.007   6.586  1.00 20.00    -0.130 Cl
ENDBRANCH   2   3
ENDBRANCH   1   2
BRANCH   1   5
HETATM    5  C4  UNL     1     -33.009   5.717   3.102  1.00 20.00     0.073 C 
BRANCH   5   6
HETATM    6  S6  UNL     1     -32.187   7.248   2.578  1.00 20.00    -0.173 SA
HETATM    7  C1  UNL     1     -32.273   8.143   4.145  1.00 20.00     0.089 C 
ENDBRANCH   5   6
ENDBRANCH   1   5
TORSDOF 4
ENDMDL
MODEL 9
REMARK VINA RESULT:      -3.0      2.542      3.804
REMARK  4 active torsions:
REMARK  status: ('A' for Active; 'I' for Inactive)
REMARK    1  A    between atoms: C2_2  and  C3_3 
REMARK    2  A    between atoms: C2_2  and  C4_4 
REMARK    3  A    between atoms: C3_3  and  C5_5 
REMARK    4  A    between atoms: C4_4  and  S6_6 
ROOT
HETATM    1  C2  UNL     1     -34.098   6.136   3.872  1.00 20.00     0.011 C 
ENDROOT
BRANCH   1   2
HETATM    2  C3  UNL     1     -32.885   5.882   2.970  1.00 20.00     0.016 C 
BRANCH   2   3
HETATM    3  C5  UNL     1     -32.164   7.161   2.552  1.00 20.00     0.114 C 
HETATM    4 CL7  UNL     1     -32.517   8.515   3.650  1.00 20.00    -0.130 Cl
ENDBRANCH   2   3
ENDBRANCH   1   2
BRANCH   1   5
HETATM    5  C4  UNL     1     -34.449   4.884   4.672  1.00 20.00     0.073 C 
BRANCH   5   6
HETATM    6  S6  UNL     1     -34.546   5.261   6.446  1.00 20.00    -0.173 SA
HETATM    7  C1  UNL     1     -34.104   7.010   6.368  1.00 20.00     0.089 C 
ENDBRANCH   5   6
ENDBRANCH   1   5
TORSDOF 4
ENDMDL
