MODEL 1
REMARK VINA RESULT:      -4.3      0.000      0.000
REMARK  4 active torsions:
REMARK  status: ('A' for Active; 'I' for Inactive)
REMARK    1  A    between atoms: C2_2  and  C7_7 
REMARK    2  A    between atoms: C5_5  and  C6_6 
REMARK    3  A    between atoms: C6_6  and  C7_7 
REMARK    4  A    between atoms: C7_7  and  O8_8 
ROOT
HETATM    1  C7  UNL     1     -34.679   6.058   4.378  1.00 20.00     0.146 C 
ENDROOT
BRANCH   1   2
HETATM    2  C2  UNL     1     -34.334   6.222   5.843  1.00 20.00    -0.065 C 
HETATM    3  C1  UNL     1     -34.506   5.215   6.714  1.00 20.00     0.016 C 
HETATM    4  C3  UNL     1     -33.803   7.554   6.299  1.00 20.00     0.045 C 
ENDBRANCH   1   2
BRANCH   1   5
HETATM    5  C6  UNL     1     -33.892   4.952   3.658  1.00 20.00     0.036 C 
BRANCH   5   6
HETATM    6  C5  UNL     1     -32.855   5.436   2.641  1.00 20.00    -0.002 C 
HETATM    7  C4  UNL     1     -32.408   6.872   2.872  1.00 20.00     0.005 C 
ENDBRANCH   5   6
ENDBRANCH   1   5
BRANCH   1   8
HETATM    8  O8  UNL     1     -36.074   5.754   4.281  1.00 20.00    -0.391 OA
HETATM    9  H22 UNL     1     -36.371   5.555   5.181  1.00 20.00     0.210 HD
ENDBRANCH   1   8
TORSDOF 4
ENDMDL
MODEL 2
REMARK VINA RESULT:      -4.3      2.093      4.068
REMARK  4 active torsions:
REMARK  status: ('A' for Active; 'I' for Inactive)
REMARK    1  A    between atoms: C2_2  and  C7_7 
REMARK    2  A    between atoms: C5_5  and  C6_6 
REMARK    3  A    between atoms: C6_6  and  C7_7 
REMARK    4  A    between atoms: C7_7  and  O8_8 
ROOT
HETATM    1  C7  UNL     1     -32.928   8.213   4.072  1.00 20.00     0.146 C 
ENDROOT
BRANCH   1   2
HETATM    2  C2  UNL     1     -32.554   7.356   2.881  1.00 20.00    -0.065 C 
HETATM    3  C1  UNL     1     -32.671   6.019   2.924  1.00 20.00     0.016 C 
HETATM    4  C3  UNL     1     -32.035   8.045   1.649  1.00 20.00     0.045 C 
ENDBRANCH   1   2
BRANCH   1   5
HETATM    5  C6  UNL     1     -34.144   7.708   4.864  1.00 20.00     0.036 C 
BRANCH   5   6
HETATM    6  C5  UNL     1     -33.826   7.022   6.194  1.00 20.00    -0.002 C 
HETATM    7  C4  UNL     1     -34.483   5.658   6.343  1.00 20.00     0.005 C 
ENDBRANCH   5   6
ENDBRANCH   1   5
BRANCH   1   8
HETATM    8  O8  UNL     1     -31.804   8.261   4.956  1.00 20.00    -0.391 OA
HETATM    9  H22 UNL     1     -31.098   7.757   4.525  1.00 20.00     0.210 HD
ENDBRANCH   1   8
TORSDOF 4
ENDMDL
MODEL 3
REMARK VINA RESULT:      -4.3      1.703      2.748
REMARK  4 active torsions:
REMARK  status: ('A' for Active; 'I' for Inactive)
REMARK    1  A    between atoms: C2_2  and  C7_7 
REMARK    2  A    between atoms: C5_5  and  C6_6 
REMARK    3  A    between atoms: C6_6  and  C7_7 
REMARK    4  A    between atoms: C7_7  and  O8_8 
ROOT
HETATM    1  C7  UNL     1     -33.817   6.733   5.723  1.00 20.00     0.146 C 
ENDROOT
BRANCH   1   2
HETATM    2  C2  UNL     1     -34.567   5.761   4.837  1.00 20.00    -0.065 C 
HETATM    3  C1  UNL     1     -35.745   6.092   4.285  1.00 20.00     0.016 C 
HETATM    4  C3  UNL     1     -33.959   4.405   4.603  1.00 20.00     0.045 C 
ENDBRANCH   1   2
BRANCH   1   5
HETATM    5  C6  UNL     1     -33.594   8.120   5.101  1.00 20.00     0.036 C 
BRANCH   5   6
HETATM    6  C5  UNL     1     -32.253   8.315   4.388  1.00 20.00    -0.002 C 
HETATM    7  C4  UNL     1     -32.156   7.562   3.070  1.00 20.00     0.005 C 
ENDBRANCH   5   6
ENDBRANCH   1   5
BRANCH   1   8
HETATM    8  O8  UNL     1     -34.562   6.897   6.933  1.00 20.00    -0.391 OA
HETATM    9  H22 UNL     1     -34.015   6.526   7.641  1.00 20.00     0.210 HD
ENDBRANCH   1   8
TORSDOF 4
ENDMDL
MODEL 4
REMARK VINA RESULT:      -4.2      2.002      3.384
REMARK  4 active torsions:
REMARK  status: ('A' for Active; 'I' for Inactive)
REMARK    1  A    between atoms: C2_2  and  C7_7 
REMARK    2  A    between atoms: C5_5  and  C6_6 
REMARK    3  A    between atoms: C6_6  and  C7_7 
REMARK    4  A    between atoms: C7_7  and  O8_8 
ROOT
HETATM    1  C7  UNL     1     -33.773   7.559   5.485  1.00 20.00     0.146 C 
ENDROOT
BRANCH   1   2
HETATM    2  C2  UNL     1     -32.709   8.102   4.554  1.00 20.00    -0.065 C 
HETATM    3  C1  UNL     1     -32.075   9.255   4.823  1.00 20.00     0.016 C 
HETATM    4  C3  UNL     1     -32.391   7.319   3.309  1.00 20.00     0.045 C 
ENDBRANCH   1   2
BRANCH   1   5
HETATM    5  C6  UNL     1     -34.739   6.557   4.832  1.00 20.00     0.036 C 
BRANCH   5   6
HETATM    6  C5  UNL     1     -34.654   5.122   5.356  1.00 20.00    -0.002 C 
HETATM    7  C4  UNL     1     -33.936   4.173   4.407  1.00 20.00     0.005 C 
ENDBRANCH   5   6
ENDBRANCH   1   5
BRANCH   1   8
HETATM    8  O8  UNL     1     -33.118   6.906   6.576  1.00 20.00    -0.391 OA
HETATM    9  H22 UNL     1     -32.806   6.055   6.235  1.00 20.00     0.210 HD
ENDBRANCH   1   8
TORSDOF 4
ENDMDL
MODEL 5
REMARK VINA RESULT:      -4.2      1.743      3.514
REMARK  4 active torsions:
REMARK  status: ('A' for Active; 'I' for Inactive)
REMARK    1  A    between atoms: C2_2  and  C7_7 
REMARK    2  A    between atoms: C5_5  and  C6_6 
REMARK    3  A    between atoms: C6_6  and  C7_7 
REMARK    4  A    between atoms: C7_7  and  O8_8 
ROOT
HETATM    1  C7  UNL     1     -32.988   5.951   3.615  1.00 20.00     0.146 C 
ENDROOT
BRANCH   1   2
HETATM    2  C2  UNL     1     -32.500   7.353   3.318  1.00 20.00    -0.065 C 
HETATM    3  C1  UNL     1     -32.203   7.734   2.065  1.00 20.00     0.016 C 
HETATM    4  C3  UNL     1     -32.345   8.307   4.471  1.00 20.00     0.045 C 
ENDBRANCH   1   2
BRANCH   1   5
HETATM    5  C6  UNL     1     -34.468   5.865   4.023  1.00 20.00     0.036 C 
BRANCH   5   6
HETATM    6  C5  UNL     1     -34.739   5.227   5.387  1.00 20.00    -0.002 C 
HETATM    7  C4  UNL     1     -34.408   6.141   6.558  1.00 20.00     0.005 C 
ENDBRANCH   5   6
ENDBRANCH   1   5
BRANCH   1   8
HETATM    8  O8  UNL     1     -32.797   5.156   2.442  1.00 20.00    -0.391 OA
HETATM    9  H22 UNL     1     -33.632   4.690   2.291  1.00 20.00     0.210 HD
ENDBRANCH   1   8
TORSDOF 4
ENDMDL
MODEL 6
REMARK VINA RESULT:      -4.0      1.884      2.699
REMARK  4 active torsions:
REMARK  status: ('A' for Active; 'I' for Inactive)
REMARK    1  A    between atoms: C2_2  and  C7_7 
REMARK    2  A    between atoms: C5_5  and  C6_6 
REMARK    3  A    between atoms: C6_6  and  C7_7 
REMARK    4  A    between atoms: C7_7  and  O8_8 
ROOT
HETATM    1  C7  UNL     1     -33.344   6.966   5.361  1.00 20.00     0.146 C 
ENDROOT
BRANCH   1   2
HETATM    2  C2  UNL     1     -34.527   6.022   5.393  1.00 20.00    -0.065 C 
HETATM    3  C1  UNL     1     -35.395   5.961   4.370  1.00 20.00     0.016 C 
HETATM    4  C3  UNL     1     -34.711   5.160   6.612  1.00 20.00     0.045 C 
ENDBRANCH   1   2
BRANCH   1   5
HETATM    5  C6  UNL     1     -33.601   8.284   4.612  1.00 20.00     0.036 C 
BRANCH   5   6
HETATM    6  C5  UNL     1     -32.622   8.599   3.478  1.00 20.00    -0.002 C 
HETATM    7  C4  UNL     1     -32.144   7.362   2.732  1.00 20.00     0.005 C 
ENDBRANCH   5   6
ENDBRANCH   1   5
BRANCH   1   8
HETATM    8  O8  UNL     1     -32.987   7.278   6.710  1.00 20.00    -0.391 OA
HETATM    9  H22 UNL     1     -33.764   7.698   7.107  1.00 20.00     0.210 HD
ENDBRANCH   1   8
TORSDOF 4
ENDMDL
MODEL 7
REMARK VINA RESULT:      -3.8      2.379      3.101
REMARK  4 active torsions:
REMARK  status: ('A' for Active; 'I' for Inactive)
REMARK    1  A    between atoms: C2_2  and  C7_7 
REMARK    2  A    between atoms: C5_5  and  C6_6 
REMARK    3  A    between atoms: C6_6  and  C7_7 
REMARK    4  A    between atoms: C7_7  and  O8_8 
ROOT
HETATM    1  C7  UNL     1     -32.518   7.764   4.430  1.00 20.00     0.146 C 
ENDROOT
BRANCH   1   2
HETATM    2  C2  UNL     1     -33.646   6.973   5.057  1.00 20.00    -0.065 C 
HETATM    3  C1  UNL     1     -34.049   7.217   6.315  1.00 20.00     0.016 C 
HETATM    4  C3  UNL     1     -34.297   5.894   4.235  1.00 20.00     0.045 C 
ENDBRANCH   1   2
BRANCH   1   5
HETATM    5  C6  UNL     1     -32.894   8.484   3.125  1.00 20.00     0.036 C 
BRANCH   5   6
HETATM    6  C5  UNL     1     -32.206   7.961   1.862  1.00 20.00    -0.002 C 
HETATM    7  C4  UNL     1     -32.465   8.820   0.633  1.00 20.00     0.005 C 
ENDBRANCH   5   6
ENDBRANCH   1   5
BRANCH   1   8
HETATM    8  O8  UNL     1     -32.082   8.744   5.375  1.00 20.00    -0.391 OA
HETATM    9  H22 UNL     1     -31.509   9.354   4.889  1.00 20.00     0.210 HD
ENDBRANCH   1   8
TORSDOF 4
ENDMDL
MODEL 8
REMARK VINA RESULT:      -3.8      1.625      2.436
REMARK  4 active torsions:
REMARK  status: ('A' for Active; 'I' for Inactive)
REMARK    1  A    between atoms: C2_2  and  C7_7 
REMARK    2  A    between atoms: C5_5  and  C6_6 
REMARK    3  A    between atoms: C6_6  and  C7_7 
REMARK    4  A    between atoms: C7_7  and  O8_8 
ROOT
HETATM    1  C7  UNL     1     -33.673   6.750   3.991  1.00 20.00     0.146 C 
ENDROOT
BRANCH   1   2
HETATM    2  C2  UNL     1     -34.121   6.414   5.397  1.00 20.00    -0.065 C 
HETATM    3  C1  UNL     1     -33.959   7.287   6.405  1.00 20.00     0.016 C 
HETATM    4  C3  UNL     1     -34.744   5.066   5.638  1.00 20.00     0.045 C 
ENDBRANCH   1   2
BRANCH   1   5
HETATM    5  C6  UNL     1     -32.457   7.687   3.916  1.00 20.00     0.036 C 
BRANCH   5   6
HETATM    6  C5  UNL     1     -32.528   8.774   2.841  1.00 20.00    -0.002 C 
HETATM    7  C4  UNL     1     -32.192   8.268   1.447  1.00 20.00     0.005 C 
ENDBRANCH   5   6
ENDBRANCH   1   5
BRANCH   1   8
HETATM    8  O8  UNL     1     -33.341   5.527   3.326  1.00 20.00    -0.391 OA
HETATM    9  H22 UNL     1     -32.730   5.057   3.912  1.00 20.00     0.210 HD
ENDBRANCH   1   8
TORSDOF 4
ENDMDL
MODEL 9
REMARK VINA RESULT:      -3.7      1.648      2.140
REMARK  4 active torsions:
REMARK  status: ('A' for Active; 'I' for Inactive)
REMARK    1  A    between atoms: C2_2  and  C7_7 
REMARK    2  A    between atoms: C5_5  and  C6_6 
REMARK    3  A    between atoms: C6_6  and  C7_7 
REMARK    4  A    between atoms: C7_7  and  O8_8 
ROOT
HETATM    1  C7  UNL     1     -33.686   6.612   3.866  1.00 20.00     0.146 C 
ENDROOT
BRANCH   1   2
HETATM    2  C2  UNL     1     -34.167   6.230   5.250  1.00 20.00    -0.065 C 
HETATM    3  C1  UNL     1     -34.757   5.045   5.477  1.00 20.00     0.016 C 
HETATM    4  C3  UNL     1     -33.975   7.222   6.364  1.00 20.00     0.045 C 
ENDBRANCH   1   2
BRANCH   1   5
HETATM    5  C6  UNL     1     -32.481   7.566   3.851  1.00 20.00     0.036 C 
BRANCH   5   6
HETATM    6  C5  UNL     1     -32.568   8.722   2.852  1.00 20.00    -0.002 C 
HETATM    7  C4  UNL     1     -32.194   8.323   1.432  1.00 20.00     0.005 C 
ENDBRANCH   5   6
ENDBRANCH   1   5
BRANCH   1   8
HETATM    8  O8  UNL     1     -33.321   5.414   3.175  1.00 20.00    -0.391 OA
HETATM    9  H22 UNL     1     -32.364   5.317   3.287  1.00 20.00     0.210 HD
ENDBRANCH   1   8
TORSDOF 4
ENDMDL
