MODEL 1
REMARK VINA RESULT:      -3.9      0.000      0.000
REMARK  0 active torsions:
REMARK  status: ('A' for Active; 'I' for Inactive)
ROOT
HETATM    1  C1  UNL     1     -42.836  12.517   6.987  1.00 20.00    -0.023 C 
HETATM    2  C2  UNL     1     -43.190  13.527   7.796  1.00 20.00    -0.014 C 
HETATM    3  C3  UNL     1     -40.913  14.603   7.500  1.00 20.00     0.144 C 
HETATM    4  C4  UNL     1     -41.465  12.256   6.553  1.00 20.00     0.028 A 
HETATM    5  C5  UNL     1     -40.458  13.334   6.868  1.00 20.00     0.073 A 
HETATM    6  C6  UNL     1     -42.219  14.566   8.317  1.00 20.00     0.031 C 
HETATM    7  C7  UNL     1     -40.800  13.017   5.421  1.00 20.00    -0.029 A 
HETATM    8  C8  UNL     1     -42.887  15.947   8.230  1.00 20.00     0.027 C 
HETATM    9  C9  UNL     1     -41.861  14.252   9.774  1.00 20.00     0.027 C 
HETATM   10  C10 UNL     1     -39.759  12.275   4.617  1.00 20.00     0.016 C 
HETATM   11  C11 UNL     1     -41.592  14.001   4.594  1.00 20.00     0.016 C 
HETATM   12  O12 UNL     1     -40.209  15.603   7.401  1.00 20.00    -0.296 OA
ENDROOT
TORSDOF 0
ENDMDL
MODEL 2
REMARK VINA RESULT:      -3.7     21.412     22.955
REMARK  0 active torsions:
REMARK  status: ('A' for Active; 'I' for Inactive)
ROOT
HETATM    1  C1  UNL     1     -24.922  -1.368  12.005  1.00 20.00    -0.023 C 
HETATM    2  C2  UNL     1     -26.169  -0.892  12.137  1.00 20.00    -0.014 C 
HETATM    3  C3  UNL     1     -27.041  -2.639  10.519  1.00 20.00     0.144 C 
HETATM    4  C4  UNL     1     -24.511  -2.314  10.969  1.00 20.00     0.028 A 
HETATM    5  C5  UNL     1     -25.626  -2.937  10.167  1.00 20.00     0.073 A 
HETATM    6  C6  UNL     1     -27.329  -1.320  11.262  1.00 20.00     0.031 C 
HETATM    7  C7  UNL     1     -24.764  -3.806  11.070  1.00 20.00    -0.029 A 
HETATM    8  C8  UNL     1     -28.565  -1.523  12.153  1.00 20.00     0.027 C 
HETATM    9  C9  UNL     1     -27.615  -0.236  10.216  1.00 20.00     0.027 C 
HETATM   10  C10 UNL     1     -23.766  -4.716  10.394  1.00 20.00     0.016 C 
HETATM   11  C11 UNL     1     -25.343  -4.400  12.331  1.00 20.00     0.016 C 
HETATM   12  O12 UNL     1     -27.921  -3.412  10.154  1.00 20.00    -0.296 OA
ENDROOT
TORSDOF 0
ENDMDL
MODEL 3
REMARK VINA RESULT:      -3.5     13.619     14.848
REMARK  0 active torsions:
REMARK  status: ('A' for Active; 'I' for Inactive)
ROOT
HETATM    1  C1  UNL     1     -35.532  17.758  -5.302  1.00 20.00    -0.023 C 
HETATM    2  C2  UNL     1     -34.449  17.102  -5.746  1.00 20.00    -0.014 C 
HETATM    3  C3  UNL     1     -35.870  15.083  -6.324  1.00 20.00     0.144 C 
HETATM    4  C4  UNL     1     -36.828  17.127  -5.055  1.00 20.00     0.028 A 
HETATM    5  C5  UNL     1     -36.977  15.711  -5.553  1.00 20.00     0.073 A 
HETATM    6  C6  UNL     1     -34.446  15.631  -6.105  1.00 20.00     0.031 C 
HETATM    7  C7  UNL     1     -37.819  16.821  -6.161  1.00 20.00    -0.029 A 
HETATM    8  C8  UNL     1     -33.649  15.447  -7.407  1.00 20.00     0.027 C 
HETATM    9  C9  UNL     1     -33.792  14.825  -4.977  1.00 20.00     0.027 C 
HETATM   10  C10 UNL     1     -39.284  16.849  -5.794  1.00 20.00     0.016 C 
HETATM   11  C11 UNL     1     -37.557  17.287  -7.573  1.00 20.00     0.016 C 
HETATM   12  O12 UNL     1     -36.118  14.123  -7.047  1.00 20.00    -0.296 OA
ENDROOT
TORSDOF 0
ENDMDL
MODEL 4
REMARK VINA RESULT:      -3.5      1.611      3.925
REMARK  0 active torsions:
REMARK  status: ('A' for Active; 'I' for Inactive)
ROOT
HETATM    1  C1  UNL     1     -42.649  15.771   5.800  1.00 20.00    -0.023 C 
HETATM    2  C2  UNL     1     -42.687  14.435   5.689  1.00 20.00    -0.014 C 
HETATM    3  C3  UNL     1     -40.984  14.200   7.553  1.00 20.00     0.144 C 
HETATM    4  C4  UNL     1     -41.638  16.502   6.562  1.00 20.00     0.028 A 
HETATM    5  C5  UNL     1     -40.742  15.665   7.440  1.00 20.00     0.073 A 
HETATM    6  C6  UNL     1     -41.717  13.506   6.389  1.00 20.00     0.031 C 
HETATM    7  C7  UNL     1     -41.700  16.664   8.069  1.00 20.00    -0.029 A 
HETATM    8  C8  UNL     1     -42.504  12.312   6.953  1.00 20.00     0.027 C 
HETATM    9  C9  UNL     1     -40.665  13.010   5.390  1.00 20.00     0.027 C 
HETATM   10  C10 UNL     1     -41.096  17.922   8.647  1.00 20.00     0.016 C 
HETATM   11  C11 UNL     1     -42.904  16.180   8.841  1.00 20.00     0.016 C 
HETATM   12  O12 UNL     1     -40.540  13.597   8.525  1.00 20.00    -0.296 OA
ENDROOT
TORSDOF 0
ENDMDL
MODEL 5
REMARK VINA RESULT:      -3.4     13.003     14.223
REMARK  0 active torsions:
REMARK  status: ('A' for Active; 'I' for Inactive)
ROOT
HETATM    1  C1  UNL     1     -35.643  14.032  -5.050  1.00 20.00    -0.023 C 
HETATM    2  C2  UNL     1     -34.771  14.304  -4.067  1.00 20.00    -0.014 C 
HETATM    3  C3  UNL     1     -34.199  16.526  -5.147  1.00 20.00     0.144 C 
HETATM    4  C4  UNL     1     -35.728  14.783  -6.301  1.00 20.00     0.028 A 
HETATM    5  C5  UNL     1     -34.931  16.062  -6.358  1.00 20.00     0.073 A 
HETATM    6  C6  UNL     1     -33.799  15.464  -4.104  1.00 20.00     0.031 C 
HETATM    7  C7  UNL     1     -36.449  16.112  -6.417  1.00 20.00    -0.029 A 
HETATM    8  C8  UNL     1     -33.776  16.129  -2.718  1.00 20.00     0.027 C 
HETATM    9  C9  UNL     1     -32.398  14.953  -4.458  1.00 20.00     0.027 C 
HETATM   10  C10 UNL     1     -37.072  16.438  -7.754  1.00 20.00     0.016 C 
HETATM   11  C11 UNL     1     -37.238  16.658  -5.251  1.00 20.00     0.016 C 
HETATM   12  O12 UNL     1     -33.890  17.710  -5.056  1.00 20.00    -0.296 OA
ENDROOT
TORSDOF 0
ENDMDL
MODEL 6
REMARK VINA RESULT:      -3.4      1.784      2.984
REMARK  0 active torsions:
REMARK  status: ('A' for Active; 'I' for Inactive)
ROOT
HETATM    1  C1  UNL     1     -40.458  16.095   7.806  1.00 20.00    -0.023 C 
HETATM    2  C2  UNL     1     -40.493  15.856   9.125  1.00 20.00    -0.014 C 
HETATM    3  C3  UNL     1     -42.198  14.011   8.777  1.00 20.00     0.144 C 
HETATM    4  C4  UNL     1     -41.424  15.559   6.850  1.00 20.00     0.028 A 
HETATM    5  C5  UNL     1     -42.361  14.503   7.381  1.00 20.00     0.073 A 
HETATM    6  C6  UNL     1     -41.508  14.948   9.788  1.00 20.00     0.031 C 
HETATM    7  C7  UNL     1     -41.347  14.146   6.306  1.00 20.00    -0.029 A 
HETATM    8  C8  UNL     1     -40.784  14.085  10.834  1.00 20.00     0.027 C 
HETATM    9  C9  UNL     1     -42.589  15.793  10.470  1.00 20.00     0.027 C 
HETATM   10  C10 UNL     1     -41.880  13.920   4.910  1.00 20.00     0.016 C 
HETATM   11  C11 UNL     1     -40.168  13.263   6.635  1.00 20.00     0.016 C 
HETATM   12  O12 UNL     1     -42.669  12.920   9.082  1.00 20.00    -0.296 OA
ENDROOT
TORSDOF 0
ENDMDL
MODEL 7
REMARK VINA RESULT:      -3.3     12.720     14.220
REMARK  0 active torsions:
REMARK  status: ('A' for Active; 'I' for Inactive)
ROOT
HETATM    1  C1  UNL     1     -33.671  15.345  -4.391  1.00 20.00    -0.023 C 
HETATM    2  C2  UNL     1     -33.671  16.303  -3.453  1.00 20.00    -0.014 C 
HETATM    3  C3  UNL     1     -34.963  17.852  -4.990  1.00 20.00     0.144 C 
HETATM    4  C4  UNL     1     -34.048  15.563  -5.786  1.00 20.00     0.028 A 
HETATM    5  C5  UNL     1     -34.680  16.896  -6.097  1.00 20.00     0.073 A 
HETATM    6  C6  UNL     1     -34.119  17.728  -3.707  1.00 20.00     0.031 C 
HETATM    7  C7  UNL     1     -35.491  15.620  -6.250  1.00 20.00    -0.029 A 
HETATM    8  C8  UNL     1     -34.973  18.193  -2.516  1.00 20.00     0.027 C 
HETATM    9  C9  UNL     1     -32.892  18.636  -3.853  1.00 20.00     0.027 C 
HETATM   10  C10 UNL     1     -35.775  15.154  -7.659  1.00 20.00     0.016 C 
HETATM   11  C11 UNL     1     -36.615  15.313  -5.291  1.00 20.00     0.016 C 
HETATM   12  O12 UNL     1     -35.801  18.730  -5.163  1.00 20.00    -0.296 OA
ENDROOT
TORSDOF 0
ENDMDL
MODEL 8
REMARK VINA RESULT:      -3.3     13.075     15.041
REMARK  0 active torsions:
REMARK  status: ('A' for Active; 'I' for Inactive)
ROOT
HETATM    1  C1  UNL     1     -34.491  15.695  -7.534  1.00 20.00    -0.023 C 
HETATM    2  C2  UNL     1     -34.303  17.022  -7.587  1.00 20.00    -0.014 C 
HETATM    3  C3  UNL     1     -35.631  17.327  -5.448  1.00 20.00     0.144 C 
HETATM    4  C4  UNL     1     -35.447  15.038  -6.645  1.00 20.00     0.028 A 
HETATM    5  C5  UNL     1     -36.072  15.912  -5.587  1.00 20.00     0.073 A 
HETATM    6  C6  UNL     1     -35.018  18.009  -6.687  1.00 20.00     0.031 C 
HETATM    7  C7  UNL     1     -35.158  14.767  -5.180  1.00 20.00    -0.029 A 
HETATM    8  C8  UNL     1     -34.004  19.061  -6.210  1.00 20.00     0.027 C 
HETATM    9  C9  UNL     1     -36.149  18.692  -7.464  1.00 20.00     0.027 C 
HETATM   10  C10 UNL     1     -35.813  13.552  -4.567  1.00 20.00     0.016 C 
HETATM   11  C11 UNL     1     -33.792  15.053  -4.605  1.00 20.00     0.016 C 
HETATM   12  O12 UNL     1     -35.828  17.910  -4.387  1.00 20.00    -0.296 OA
ENDROOT
TORSDOF 0
ENDMDL
MODEL 9
REMARK VINA RESULT:      -3.3     21.250     22.724
REMARK  0 active torsions:
REMARK  status: ('A' for Active; 'I' for Inactive)
ROOT
HETATM    1  C1  UNL     1     -27.503  -3.868  10.460  1.00 20.00    -0.023 C 
HETATM    2  C2  UNL     1     -28.092  -2.668  10.345  1.00 20.00    -0.014 C 
HETATM    3  C3  UNL     1     -26.223  -1.588  11.675  1.00 20.00     0.144 C 
HETATM    4  C4  UNL     1     -26.399  -4.154  11.373  1.00 20.00     0.028 A 
HETATM    5  C5  UNL     1     -25.767  -2.957  12.039  1.00 20.00     0.073 A 
HETATM    6  C6  UNL     1     -27.648  -1.437  11.107  1.00 20.00     0.031 C 
HETATM    7  C7  UNL     1     -24.958  -3.795  11.062  1.00 20.00    -0.029 A 
HETATM    8  C8  UNL     1     -27.665  -0.235  10.149  1.00 20.00     0.027 C 
HETATM    9  C9  UNL     1     -28.604  -1.182  12.278  1.00 20.00     0.027 C 
HETATM   10  C10 UNL     1     -23.889  -4.688  11.646  1.00 20.00     0.016 C 
HETATM   11  C11 UNL     1     -24.585  -3.236   9.710  1.00 20.00     0.016 C 
HETATM   12  O12 UNL     1     -25.483  -0.635  11.897  1.00 20.00    -0.296 OA
ENDROOT
TORSDOF 0
ENDMDL
