MODEL 1
REMARK VINA RESULT:      -4.9      0.000      0.000
REMARK  2 active torsions:
REMARK  status: ('A' for Active; 'I' for Inactive)
REMARK    1  A    between atoms: C3_3  and  C5_5 
REMARK    2  A    between atoms: C4_4  and  C5_5 
ROOT
HETATM    1  C1  UNL     1     -32.570   7.952   4.369  1.00 20.00     0.012 C 
HETATM    2  C2  UNL     1     -33.276   7.592   5.270  1.00 20.00    -0.117 C 
HETATM    3  C4  UNL     1     -34.144   7.153   6.375  1.00 20.00     0.101 C 
ENDROOT
BRANCH   3   4
HETATM    4  C5  UNL     1     -34.364   5.642   6.360  1.00 20.00     0.108 C 
BRANCH   4   5
HETATM    5  C3  UNL     1     -34.686   5.088   4.980  1.00 20.00     0.219 C 
HETATM    6  O6  UNL     1     -34.096   4.133   4.486  1.00 20.00    -0.280 OA
HETATM    7 CL7  UNL     1     -35.955   5.999   4.207  1.00 20.00    -0.044 Cl
ENDBRANCH   4   5
ENDBRANCH   3   4
TORSDOF 2
ENDMDL
MODEL 2
REMARK VINA RESULT:      -4.9      1.429      1.429
REMARK  2 active torsions:
REMARK  status: ('A' for Active; 'I' for Inactive)
REMARK    1  A    between atoms: C3_3  and  C5_5 
REMARK    2  A    between atoms: C4_4  and  C5_5 
ROOT
HETATM    1  C1  UNL     1     -32.497   8.103   4.400  1.00 20.00     0.012 C 
HETATM    2  C2  UNL     1     -33.194   7.726   5.301  1.00 20.00    -0.117 C 
HETATM    3  C4  UNL     1     -34.051   7.266   6.405  1.00 20.00     0.101 C 
ENDROOT
BRANCH   3   4
HETATM    4  C5  UNL     1     -34.446   5.799   6.247  1.00 20.00     0.108 C 
BRANCH   4   5
HETATM    5  C3  UNL     1     -34.907   5.442   4.841  1.00 20.00     0.219 C 
HETATM    6  O6  UNL     1     -35.891   5.948   4.311  1.00 20.00    -0.280 OA
HETATM    7 CL7  UNL     1     -33.887   4.226   4.123  1.00 20.00    -0.044 Cl
ENDBRANCH   4   5
ENDBRANCH   3   4
TORSDOF 2
ENDMDL
MODEL 3
REMARK VINA RESULT:      -4.6      2.553      3.505
REMARK  2 active torsions:
REMARK  status: ('A' for Active; 'I' for Inactive)
REMARK    1  A    between atoms: C3_3  and  C5_5 
REMARK    2  A    between atoms: C4_4  and  C5_5 
ROOT
HETATM    1  C1  UNL     1     -34.469   5.435   6.346  1.00 20.00     0.012 C 
HETATM    2  C2  UNL     1     -34.237   6.561   6.001  1.00 20.00    -0.117 C 
HETATM    3  C4  UNL     1     -33.955   7.942   5.579  1.00 20.00     0.101 C 
ENDROOT
BRANCH   3   4
HETATM    4  C5  UNL     1     -32.571   8.073   4.946  1.00 20.00     0.108 C 
BRANCH   4   5
HETATM    5  C3  UNL     1     -32.587   7.979   3.427  1.00 20.00     0.219 C 
HETATM    6  O6  UNL     1     -32.633   8.963   2.695  1.00 20.00    -0.280 OA
HETATM    7 CL7  UNL     1     -32.563   6.322   2.890  1.00 20.00    -0.044 Cl
ENDBRANCH   4   5
ENDBRANCH   3   4
TORSDOF 2
ENDMDL
MODEL 4
REMARK VINA RESULT:      -4.5      2.718      3.671
REMARK  2 active torsions:
REMARK  status: ('A' for Active; 'I' for Inactive)
REMARK    1  A    between atoms: C3_3  and  C5_5 
REMARK    2  A    between atoms: C4_4  and  C5_5 
ROOT
HETATM    1  C1  UNL     1     -34.767   4.817   5.244  1.00 20.00     0.012 C 
HETATM    2  C2  UNL     1     -34.392   5.859   5.708  1.00 20.00    -0.117 C 
HETATM    3  C4  UNL     1     -33.931   7.134   6.279  1.00 20.00     0.101 C 
ENDROOT
BRANCH   3   4
HETATM    4  C5  UNL     1     -33.932   8.256   5.242  1.00 20.00     0.108 C 
BRANCH   4   5
HETATM    5  C3  UNL     1     -32.564   8.513   4.626  1.00 20.00     0.219 C 
HETATM    6  O6  UNL     1     -31.803   9.388   5.025  1.00 20.00    -0.280 OA
HETATM    7 CL7  UNL     1     -32.255   7.439   3.289  1.00 20.00    -0.044 Cl
ENDBRANCH   4   5
ENDBRANCH   3   4
TORSDOF 2
ENDMDL
MODEL 5
REMARK VINA RESULT:      -4.4      2.346      3.339
REMARK  2 active torsions:
REMARK  status: ('A' for Active; 'I' for Inactive)
REMARK    1  A    between atoms: C3_3  and  C5_5 
REMARK    2  A    between atoms: C4_4  and  C5_5 
ROOT
HETATM    1  C1  UNL     1     -34.426   5.543   6.319  1.00 20.00     0.012 C 
HETATM    2  C2  UNL     1     -34.186   6.663   5.958  1.00 20.00    -0.117 C 
HETATM    3  C4  UNL     1     -33.893   8.036   5.518  1.00 20.00     0.101 C 
ENDROOT
BRANCH   3   4
HETATM    4  C5  UNL     1     -32.521   8.140   4.853  1.00 20.00     0.108 C 
BRANCH   4   5
HETATM    5  C3  UNL     1     -32.527   7.745   3.384  1.00 20.00     0.219 C 
HETATM    6  O6  UNL     1     -32.420   6.584   3.002  1.00 20.00    -0.280 OA
HETATM    7 CL7  UNL     1     -32.673   9.139   2.348  1.00 20.00    -0.044 Cl
ENDBRANCH   4   5
ENDBRANCH   3   4
TORSDOF 2
ENDMDL
MODEL 6
REMARK VINA RESULT:      -4.4      1.451      2.039
REMARK  2 active torsions:
REMARK  status: ('A' for Active; 'I' for Inactive)
REMARK    1  A    between atoms: C3_3  and  C5_5 
REMARK    2  A    between atoms: C4_4  and  C5_5 
ROOT
HETATM    1  C1  UNL     1     -32.172   7.286   2.580  1.00 20.00     0.012 C 
HETATM    2  C2  UNL     1     -32.374   7.700   3.689  1.00 20.00    -0.117 C 
HETATM    3  C4  UNL     1     -32.619   8.210   5.047  1.00 20.00     0.101 C 
ENDROOT
BRANCH   3   4
HETATM    4  C5  UNL     1     -34.051   7.938   5.507  1.00 20.00     0.108 C 
BRANCH   4   5
HETATM    5  C3  UNL     1     -34.348   6.461   5.725  1.00 20.00     0.219 C 
HETATM    6  O6  UNL     1     -33.905   5.821   6.673  1.00 20.00    -0.280 OA
HETATM    7 CL7  UNL     1     -35.351   5.818   4.454  1.00 20.00    -0.044 Cl
ENDBRANCH   4   5
ENDBRANCH   3   4
TORSDOF 2
ENDMDL
MODEL 7
REMARK VINA RESULT:      -4.3      1.897      2.335
REMARK  2 active torsions:
REMARK  status: ('A' for Active; 'I' for Inactive)
REMARK    1  A    between atoms: C3_3  and  C5_5 
REMARK    2  A    between atoms: C4_4  and  C5_5 
ROOT
HETATM    1  C1  UNL     1     -32.351   8.260   4.354  1.00 20.00     0.012 C 
HETATM    2  C2  UNL     1     -32.650   7.268   3.747  1.00 20.00    -0.117 C 
HETATM    3  C4  UNL     1     -33.015   6.053   3.002  1.00 20.00     0.101 C 
ENDROOT
BRANCH   3   4
HETATM    4  C5  UNL     1     -33.686   5.015   3.899  1.00 20.00     0.108 C 
BRANCH   4   5
HETATM    5  C3  UNL     1     -34.826   5.580   4.735  1.00 20.00     0.219 C 
HETATM    6  O6  UNL     1     -35.877   5.985   4.248  1.00 20.00    -0.280 OA
HETATM    7 CL7  UNL     1     -34.425   5.600   6.430  1.00 20.00    -0.044 Cl
ENDBRANCH   4   5
ENDBRANCH   3   4
TORSDOF 2
ENDMDL
MODEL 8
REMARK VINA RESULT:      -4.3      2.359      2.947
REMARK  2 active torsions:
REMARK  status: ('A' for Active; 'I' for Inactive)
REMARK    1  A    between atoms: C3_3  and  C5_5 
REMARK    2  A    between atoms: C4_4  and  C5_5 
ROOT
HETATM    1  C1  UNL     1     -32.861   5.209   2.495  1.00 20.00     0.012 C 
HETATM    2  C2  UNL     1     -33.572   5.010   3.443  1.00 20.00    -0.117 C 
HETATM    3  C4  UNL     1     -34.441   4.765   4.604  1.00 20.00     0.101 C 
ENDROOT
BRANCH   3   4
HETATM    4  C5  UNL     1     -34.991   6.065   5.188  1.00 20.00     0.108 C 
BRANCH   4   5
HETATM    5  C3  UNL     1     -33.910   7.013   5.686  1.00 20.00     0.219 C 
HETATM    6  O6  UNL     1     -33.301   6.842   6.737  1.00 20.00    -0.280 OA
HETATM    7 CL7  UNL     1     -33.686   8.354   4.596  1.00 20.00    -0.044 Cl
ENDBRANCH   4   5
ENDBRANCH   3   4
TORSDOF 2
ENDMDL
MODEL 9
REMARK VINA RESULT:      -4.2      1.746      2.134
REMARK  2 active torsions:
REMARK  status: ('A' for Active; 'I' for Inactive)
REMARK    1  A    between atoms: C3_3  and  C5_5 
REMARK    2  A    between atoms: C4_4  and  C5_5 
ROOT
HETATM    1  C1  UNL     1     -32.218   7.386   2.550  1.00 20.00     0.012 C 
HETATM    2  C2  UNL     1     -32.477   7.656   3.691  1.00 20.00    -0.117 C 
HETATM    3  C4  UNL     1     -32.792   7.988   5.089  1.00 20.00     0.101 C 
ENDROOT
BRANCH   3   4
HETATM    4  C5  UNL     1     -34.258   7.716   5.423  1.00 20.00     0.108 C 
BRANCH   4   5
HETATM    5  C3  UNL     1     -34.653   6.254   5.272  1.00 20.00     0.219 C 
HETATM    6  O6  UNL     1     -35.309   5.831   4.326  1.00 20.00    -0.280 OA
HETATM    7 CL7  UNL     1     -34.083   5.297   6.613  1.00 20.00    -0.044 Cl
ENDBRANCH   4   5
ENDBRANCH   3   4
TORSDOF 2
ENDMDL
