MODEL 1
REMARK VINA RESULT:      -3.6      0.000      0.000
REMARK  1 active torsions:
REMARK  status: ('A' for Active; 'I' for Inactive)
REMARK    1  A    between atoms: C3_3  and  C7_7 
ROOT
HETATM    1  C1  UNL     1     -32.471   7.168   2.582  1.00 20.00     0.220 A 
HETATM    2  C2  UNL     1     -33.133   5.805   2.848  1.00 20.00     0.128 A 
HETATM    3  C3  UNL     1     -32.977   6.154   4.347  1.00 20.00     0.100 A 
HETATM    4  N8  UNL     1     -32.385   7.417   3.917  1.00 20.00    -0.355 N 
HETATM    5  O9  UNL     1     -32.142   7.808   1.612  1.00 20.00    -0.274 OA
HETATM    6  H22 UNL     1     -32.008   8.213   4.411  1.00 20.00     0.162 HD
ENDROOT
BRANCH   3   7
HETATM    7  C7  UNL     1     -34.265   6.383   5.152  1.00 20.00    -0.030 C 
HETATM    8  C4  UNL     1     -34.287   7.823   5.685  1.00 20.00     0.016 C 
HETATM    9  C5  UNL     1     -34.313   5.401   6.331  1.00 20.00     0.016 C 
HETATM   10  C6  UNL     1     -35.483   6.155   4.245  1.00 20.00     0.016 C 
ENDBRANCH   3   7
TORSDOF 1
ENDMDL
MODEL 2
REMARK VINA RESULT:      -3.6      0.012      1.447
REMARK  1 active torsions:
REMARK  status: ('A' for Active; 'I' for Inactive)
REMARK    1  A    between atoms: C3_3  and  C7_7 
ROOT
HETATM    1  C1  UNL     1     -32.473   7.158   2.587  1.00 20.00     0.220 A 
HETATM    2  C2  UNL     1     -33.131   5.794   2.862  1.00 20.00     0.128 A 
HETATM    3  C3  UNL     1     -32.978   6.155   4.359  1.00 20.00     0.100 A 
HETATM    4  N8  UNL     1     -32.390   7.417   3.920  1.00 20.00    -0.355 N 
HETATM    5  O9  UNL     1     -32.145   7.792   1.612  1.00 20.00    -0.274 OA
HETATM    6  H22 UNL     1     -32.017   8.219   4.408  1.00 20.00     0.162 HD
ENDROOT
BRANCH   3   7
HETATM    7  C7  UNL     1     -34.268   6.385   5.160  1.00 20.00    -0.030 C 
HETATM    8  C4  UNL     1     -34.319   5.404   6.340  1.00 20.00     0.016 C 
HETATM    9  C5  UNL     1     -35.483   6.154   4.250  1.00 20.00     0.016 C 
HETATM   10  C6  UNL     1     -34.292   7.825   5.691  1.00 20.00     0.016 C 
ENDBRANCH   3   7
TORSDOF 1
ENDMDL
MODEL 3
REMARK VINA RESULT:      -3.6      1.274      1.541
REMARK  1 active torsions:
REMARK  status: ('A' for Active; 'I' for Inactive)
REMARK    1  A    between atoms: C3_3  and  C7_7 
ROOT
HETATM    1  C1  UNL     1     -32.926   8.332   3.450  1.00 20.00     0.220 A 
HETATM    2  C2  UNL     1     -32.505   6.854   3.356  1.00 20.00     0.128 A 
HETATM    3  C3  UNL     1     -33.095   6.719   4.780  1.00 20.00     0.100 A 
HETATM    4  N8  UNL     1     -33.443   8.134   4.692  1.00 20.00    -0.355 N 
HETATM    5  O9  UNL     1     -32.856   9.309   2.742  1.00 20.00    -0.274 OA
HETATM    6  H22 UNL     1     -33.892   8.782   5.324  1.00 20.00     0.162 HD
ENDROOT
BRANCH   3   7
HETATM    7  C7  UNL     1     -34.345   5.842   4.941  1.00 20.00    -0.030 C 
HETATM    8  C4  UNL     1     -34.690   5.710   6.432  1.00 20.00     0.016 C 
HETATM    9  C5  UNL     1     -34.072   4.450   4.355  1.00 20.00     0.016 C 
HETATM   10  C6  UNL     1     -35.524   6.488   4.199  1.00 20.00     0.016 C 
ENDBRANCH   3   7
TORSDOF 1
ENDMDL
MODEL 4
REMARK VINA RESULT:      -3.5      2.628      3.708
REMARK  1 active torsions:
REMARK  status: ('A' for Active; 'I' for Inactive)
REMARK    1  A    between atoms: C3_3  and  C7_7 
ROOT
HETATM    1  C1  UNL     1     -34.311   6.149   5.869  1.00 20.00     0.220 A 
HETATM    2  C2  UNL     1     -34.552   6.276   4.354  1.00 20.00     0.128 A 
HETATM    3  C3  UNL     1     -34.131   7.754   4.531  1.00 20.00     0.100 A 
HETATM    4  N8  UNL     1     -33.933   7.453   5.945  1.00 20.00    -0.355 N 
HETATM    5  O9  UNL     1     -34.401   5.276   6.700  1.00 20.00    -0.274 OA
HETATM    6  H22 UNL     1     -33.640   8.003   6.740  1.00 20.00     0.162 HD
ENDROOT
BRANCH   3   7
HETATM    7  C7  UNL     1     -32.822   8.195   3.861  1.00 20.00    -0.030 C 
HETATM    8  C4  UNL     1     -33.116   9.307   2.844  1.00 20.00     0.016 C 
HETATM    9  C5  UNL     1     -32.187   6.997   3.140  1.00 20.00     0.016 C 
HETATM   10  C6  UNL     1     -31.852   8.722   4.929  1.00 20.00     0.016 C 
ENDBRANCH   3   7
TORSDOF 1
ENDMDL
MODEL 5
REMARK VINA RESULT:      -3.5     11.792     12.818
REMARK  1 active torsions:
REMARK  status: ('A' for Active; 'I' for Inactive)
REMARK    1  A    between atoms: C3_3  and  C7_7 
ROOT
HETATM    1  C1  UNL     1     -34.277  14.822  -4.118  1.00 20.00     0.220 A 
HETATM    2  C2  UNL     1     -32.931  15.533  -3.893  1.00 20.00     0.128 A 
HETATM    3  C3  UNL     1     -33.708  16.840  -4.179  1.00 20.00     0.100 A 
HETATM    4  N8  UNL     1     -34.899  16.011  -4.339  1.00 20.00    -0.355 N 
HETATM    5  O9  UNL     1     -34.677  13.682  -4.112  1.00 20.00    -0.274 OA
HETATM    6  H22 UNL     1     -35.863  16.213  -4.562  1.00 20.00     0.162 HD
ENDROOT
BRANCH   3   7
HETATM    7  C7  UNL     1     -33.866  17.831  -3.016  1.00 20.00    -0.030 C 
HETATM    8  C4  UNL     1     -35.308  18.358  -2.985  1.00 20.00     0.016 C 
HETATM    9  C5  UNL     1     -32.896  19.005  -3.211  1.00 20.00     0.016 C 
HETATM   10  C6  UNL     1     -33.552  17.121  -1.692  1.00 20.00     0.016 C 
ENDBRANCH   3   7
TORSDOF 1
ENDMDL
MODEL 6
REMARK VINA RESULT:      -3.4      8.952     10.093
REMARK  1 active torsions:
REMARK  status: ('A' for Active; 'I' for Inactive)
REMARK    1  A    between atoms: C3_3  and  C7_7 
ROOT
HETATM    1  C1  UNL     1     -42.548   4.609  -1.501  1.00 20.00     0.220 A 
HETATM    2  C2  UNL     1     -43.363   4.820  -0.212  1.00 20.00     0.128 A 
HETATM    3  C3  UNL     1     -42.077   5.469   0.353  1.00 20.00     0.100 A 
HETATM    4  N8  UNL     1     -41.462   5.209  -0.944  1.00 20.00    -0.355 N 
HETATM    5  O9  UNL     1     -42.741   4.121  -2.589  1.00 20.00    -0.274 OA
HETATM    6  H22 UNL     1     -40.542   5.380  -1.326  1.00 20.00     0.162 HD
ENDROOT
BRANCH   3   7
HETATM    7  C7  UNL     1     -42.127   6.972   0.661  1.00 20.00    -0.030 C 
HETATM    8  C4  UNL     1     -40.776   7.423   1.235  1.00 20.00     0.016 C 
HETATM    9  C5  UNL     1     -43.235   7.248   1.687  1.00 20.00     0.016 C 
HETATM   10  C6  UNL     1     -42.419   7.750  -0.630  1.00 20.00     0.016 C 
ENDBRANCH   3   7
TORSDOF 1
ENDMDL
MODEL 7
REMARK VINA RESULT:      -3.3      1.624      2.668
REMARK  1 active torsions:
REMARK  status: ('A' for Active; 'I' for Inactive)
REMARK    1  A    between atoms: C3_3  and  C7_7 
ROOT
HETATM    1  C1  UNL     1     -32.672   8.430   5.000  1.00 20.00     0.220 A 
HETATM    2  C2  UNL     1     -33.271   7.632   6.172  1.00 20.00     0.128 A 
HETATM    3  C3  UNL     1     -34.449   7.336   5.213  1.00 20.00     0.100 A 
HETATM    4  N8  UNL     1     -33.731   8.113   4.208  1.00 20.00    -0.355 N 
HETATM    5  O9  UNL     1     -31.676   9.085   4.805  1.00 20.00    -0.274 OA
HETATM    6  H22 UNL     1     -33.931   8.368   3.251  1.00 20.00     0.162 HD
ENDROOT
BRANCH   3   7
HETATM    7  C7  UNL     1     -34.641   5.879   4.767  1.00 20.00    -0.030 C 
HETATM    8  C4  UNL     1     -33.587   5.525   3.708  1.00 20.00     0.016 C 
HETATM    9  C5  UNL     1     -36.045   5.709   4.168  1.00 20.00     0.016 C 
HETATM   10  C6  UNL     1     -34.483   4.948   5.977  1.00 20.00     0.016 C 
ENDBRANCH   3   7
TORSDOF 1
ENDMDL
MODEL 8
REMARK VINA RESULT:      -3.3      8.452      9.148
REMARK  1 active torsions:
REMARK  status: ('A' for Active; 'I' for Inactive)
REMARK    1  A    between atoms: C3_3  and  C7_7 
ROOT
HETATM    1  C1  UNL     1     -40.750   8.236   0.405  1.00 20.00     0.220 A 
HETATM    2  C2  UNL     1     -41.013   7.097  -0.595  1.00 20.00     0.128 A 
HETATM    3  C3  UNL     1     -41.248   6.214   0.654  1.00 20.00     0.100 A 
HETATM    4  N8  UNL     1     -40.989   7.406   1.455  1.00 20.00    -0.355 N 
HETATM    5  O9  UNL     1     -40.452   9.406   0.343  1.00 20.00    -0.274 OA
HETATM    6  H22 UNL     1     -40.964   7.585   2.449  1.00 20.00     0.162 HD
ENDROOT
BRANCH   3   7
HETATM    7  C7  UNL     1     -42.671   5.683   0.879  1.00 20.00    -0.030 C 
HETATM    8  C4  UNL     1     -43.417   6.613   1.846  1.00 20.00     0.016 C 
HETATM    9  C5  UNL     1     -42.600   4.271   1.480  1.00 20.00     0.016 C 
HETATM   10  C6  UNL     1     -43.417   5.632  -0.461  1.00 20.00     0.016 C 
ENDBRANCH   3   7
TORSDOF 1
ENDMDL
MODEL 9
REMARK VINA RESULT:      -3.3      9.184     10.244
REMARK  1 active torsions:
REMARK  status: ('A' for Active; 'I' for Inactive)
REMARK    1  A    between atoms: C3_3  and  C7_7 
ROOT
HETATM    1  C1  UNL     1     -39.145  12.455   5.768  1.00 20.00     0.220 A 
HETATM    2  C2  UNL     1     -40.535  11.800   5.859  1.00 20.00     0.128 A 
HETATM    3  C3  UNL     1     -40.936  13.043   6.689  1.00 20.00     0.100 A 
HETATM    4  N8  UNL     1     -39.574  13.527   6.488  1.00 20.00    -0.355 N 
HETATM    5  O9  UNL     1     -38.078  12.180   5.274  1.00 20.00    -0.274 OA
HETATM    6  H22 UNL     1     -39.078  14.355   6.785  1.00 20.00     0.162 HD
ENDROOT
BRANCH   3   7
HETATM    7  C7  UNL     1     -41.968  13.996   6.071  1.00 20.00    -0.030 C 
HETATM    8  C4  UNL     1     -41.786  15.401   6.663  1.00 20.00     0.016 C 
HETATM    9  C5  UNL     1     -43.384  13.489   6.383  1.00 20.00     0.016 C 
HETATM   10  C6  UNL     1     -41.768  14.052   4.550  1.00 20.00     0.016 C 
ENDBRANCH   3   7
TORSDOF 1
ENDMDL
