MODEL 1
REMARK VINA RESULT:      -4.0      0.000      0.000
REMARK  2 active torsions:
REMARK  status: ('A' for Active; 'I' for Inactive)
REMARK    1  A    between atoms: C5_5  and  C6_6 
REMARK    2  A    between atoms: C6_6  and  N7_7 
ROOT
HETATM    1  C1  UNL     1     -32.180   9.083   4.813  1.00 20.00     0.012 C 
HETATM    2  C2  UNL     1     -32.765   8.080   4.508  1.00 20.00    -0.115 C 
HETATM    3  C5  UNL     1     -33.479   6.850   4.129  1.00 20.00     0.128 C 
ENDROOT
BRANCH   3   4
HETATM    4  C6  UNL     1     -34.657   6.553   5.067  1.00 20.00     0.227 C 
HETATM    5  C3  UNL     1     -34.269   6.660   6.542  1.00 20.00     0.043 C 
BRANCH   4   6
HETATM    6  N7  UNL     1     -35.141   5.194   4.809  1.00 20.00     0.084 N 
HETATM    7  C4  UNL     1     -34.037   4.314   4.463  1.00 20.00     0.307 C 
HETATM    8  H18 UNL     1     -35.807   5.223   4.040  1.00 20.00     0.315 HD
ENDBRANCH   4   6
ENDBRANCH   3   4
TORSDOF 2
ENDMDL
MODEL 2
REMARK VINA RESULT:      -4.0      1.032      1.110
REMARK  2 active torsions:
REMARK  status: ('A' for Active; 'I' for Inactive)
REMARK    1  A    between atoms: C5_5  and  C6_6 
REMARK    2  A    between atoms: C6_6  and  N7_7 
ROOT
HETATM    1  C1  UNL     1     -32.460   8.727   3.515  1.00 20.00     0.012 C 
HETATM    2  C2  UNL     1     -32.898   8.190   4.495  1.00 20.00    -0.115 C 
HETATM    3  C5  UNL     1     -33.430   7.533   5.701  1.00 20.00     0.128 C 
ENDROOT
BRANCH   3   4
HETATM    4  C6  UNL     1     -34.489   6.475   5.363  1.00 20.00     0.227 C 
HETATM    5  C3  UNL     1     -34.617   5.410   6.453  1.00 20.00     0.043 C 
BRANCH   4   6
HETATM    6  N7  UNL     1     -34.120   5.815   4.108  1.00 20.00     0.084 N 
HETATM    7  C4  UNL     1     -34.000   4.379   4.300  1.00 20.00     0.307 C 
HETATM    8  H18 UNL     1     -33.230   6.191   3.789  1.00 20.00     0.315 HD
ENDBRANCH   4   6
ENDBRANCH   3   4
TORSDOF 2
ENDMDL
MODEL 3
REMARK VINA RESULT:      -3.9      1.629      3.412
REMARK  2 active torsions:
REMARK  status: ('A' for Active; 'I' for Inactive)
REMARK    1  A    between atoms: C5_5  and  C6_6 
REMARK    2  A    between atoms: C6_6  and  N7_7 
ROOT
HETATM    1  C1  UNL     1     -34.762   5.069   6.123  1.00 20.00     0.012 C 
HETATM    2  C2  UNL     1     -34.373   6.200   6.018  1.00 20.00    -0.115 C 
HETATM    3  C5  UNL     1     -33.902   7.590   5.892  1.00 20.00     0.128 C 
ENDROOT
BRANCH   3   4
HETATM    4  C6  UNL     1     -32.697   7.708   4.949  1.00 20.00     0.227 C 
HETATM    5  C3  UNL     1     -32.382   9.160   4.586  1.00 20.00     0.043 C 
BRANCH   4   6
HETATM    6  N7  UNL     1     -32.982   6.971   3.716  1.00 20.00     0.084 N 
HETATM    7  C4  UNL     1     -32.192   7.492   2.613  1.00 20.00     0.307 C 
HETATM    8  H18 UNL     1     -33.972   7.064   3.500  1.00 20.00     0.315 HD
ENDBRANCH   4   6
ENDBRANCH   3   4
TORSDOF 2
ENDMDL
MODEL 4
REMARK VINA RESULT:      -3.8      1.775      3.104
REMARK  2 active torsions:
REMARK  status: ('A' for Active; 'I' for Inactive)
REMARK    1  A    between atoms: C5_5  and  C6_6 
REMARK    2  A    between atoms: C6_6  and  N7_7 
ROOT
HETATM    1  C1  UNL     1     -32.854   5.035   2.361  1.00 20.00     0.012 C 
HETATM    2  C2  UNL     1     -33.542   5.361   3.289  1.00 20.00    -0.115 C 
HETATM    3  C5  UNL     1     -34.390   5.758   4.425  1.00 20.00     0.128 C 
ENDROOT
BRANCH   3   4
HETATM    4  C6  UNL     1     -33.689   6.768   5.345  1.00 20.00     0.227 C 
HETATM    5  C3  UNL     1     -34.373   6.888   6.708  1.00 20.00     0.043 C 
BRANCH   4   6
HETATM    6  N7  UNL     1     -33.698   8.085   4.702  1.00 20.00     0.084 N 
HETATM    7  C4  UNL     1     -32.350   8.617   4.604  1.00 20.00     0.307 C 
HETATM    8  H18 UNL     1     -34.274   8.716   5.255  1.00 20.00     0.315 HD
ENDBRANCH   4   6
ENDBRANCH   3   4
TORSDOF 2
ENDMDL
MODEL 5
REMARK VINA RESULT:      -3.7      1.436      1.765
REMARK  2 active torsions:
REMARK  status: ('A' for Active; 'I' for Inactive)
REMARK    1  A    between atoms: C5_5  and  C6_6 
REMARK    2  A    between atoms: C6_6  and  N7_7 
ROOT
HETATM    1  C1  UNL     1     -32.270   9.096   4.812  1.00 20.00     0.012 C 
HETATM    2  C2  UNL     1     -33.023   8.219   5.137  1.00 20.00    -0.115 C 
HETATM    3  C5  UNL     1     -33.946   7.145   5.540  1.00 20.00     0.128 C 
ENDROOT
BRANCH   3   4
HETATM    4  C6  UNL     1     -34.247   6.178   4.387  1.00 20.00     0.227 C 
HETATM    5  C3  UNL     1     -34.361   4.727   4.859  1.00 20.00     0.043 C 
BRANCH   4   6
HETATM    6  N7  UNL     1     -33.170   6.263   3.399  1.00 20.00     0.084 N 
HETATM    7  C4  UNL     1     -33.023   5.004   2.689  1.00 20.00     0.307 C 
HETATM    8  H18 UNL     1     -32.301   6.486   3.880  1.00 20.00     0.315 HD
ENDBRANCH   4   6
ENDBRANCH   3   4
TORSDOF 2
ENDMDL
MODEL 6
REMARK VINA RESULT:      -3.6     12.707     13.548
REMARK  2 active torsions:
REMARK  status: ('A' for Active; 'I' for Inactive)
REMARK    1  A    between atoms: C5_5  and  C6_6 
REMARK    2  A    between atoms: C6_6  and  N7_7 
ROOT
HETATM    1  C1  UNL     1     -33.396  16.879  -2.336  1.00 20.00     0.012 C 
HETATM    2  C2  UNL     1     -33.426  16.015  -3.169  1.00 20.00    -0.115 C 
HETATM    3  C5  UNL     1     -33.458  14.952  -4.188  1.00 20.00     0.128 C 
ENDROOT
BRANCH   3   4
HETATM    4  C6  UNL     1     -34.200  15.391  -5.458  1.00 20.00     0.227 C 
HETATM    5  C3  UNL     1     -35.556  14.699  -5.609  1.00 20.00     0.043 C 
BRANCH   4   6
HETATM    6  N7  UNL     1     -33.379  15.067  -6.626  1.00 20.00     0.084 N 
HETATM    7  C4  UNL     1     -33.938  15.663  -7.828  1.00 20.00     0.307 C 
HETATM    8  H18 UNL     1     -33.345  14.055  -6.733  1.00 20.00     0.315 HD
ENDBRANCH   4   6
ENDBRANCH   3   4
TORSDOF 2
ENDMDL
MODEL 7
REMARK VINA RESULT:      -3.6      1.438      2.277
REMARK  2 active torsions:
REMARK  status: ('A' for Active; 'I' for Inactive)
REMARK    1  A    between atoms: C5_5  and  C6_6 
REMARK    2  A    between atoms: C6_6  and  N7_7 
ROOT
HETATM    1  C1  UNL     1     -32.858   5.067   2.388  1.00 20.00     0.012 C 
HETATM    2  C2  UNL     1     -32.862   6.064   3.057  1.00 20.00    -0.115 C 
HETATM    3  C5  UNL     1     -32.861   7.288   3.875  1.00 20.00     0.128 C 
ENDROOT
BRANCH   3   4
HETATM    4  C6  UNL     1     -34.006   7.300   4.898  1.00 20.00     0.227 C 
HETATM    5  C3  UNL     1     -33.500   7.411   6.337  1.00 20.00     0.043 C 
BRANCH   4   6
HETATM    6  N7  UNL     1     -34.775   6.060   4.769  1.00 20.00     0.084 N 
HETATM    7  C4  UNL     1     -34.748   5.309   6.012  1.00 20.00     0.307 C 
HETATM    8  H18 UNL     1     -34.368   5.499   4.023  1.00 20.00     0.315 HD
ENDBRANCH   4   6
ENDBRANCH   3   4
TORSDOF 2
ENDMDL
MODEL 8
REMARK VINA RESULT:      -3.5     12.225     12.619
REMARK  2 active torsions:
REMARK  status: ('A' for Active; 'I' for Inactive)
REMARK    1  A    between atoms: C5_5  and  C6_6 
REMARK    2  A    between atoms: C6_6  and  N7_7 
ROOT
HETATM    1  C1  UNL     1     -33.629  16.998  -2.147  1.00 20.00     0.012 C 
HETATM    2  C2  UNL     1     -33.276  16.239  -3.007  1.00 20.00    -0.115 C 
HETATM    3  C5  UNL     1     -32.837  15.309  -4.060  1.00 20.00     0.128 C 
ENDROOT
BRANCH   3   4
HETATM    4  C6  UNL     1     -33.998  14.869  -4.964  1.00 20.00     0.227 C 
HETATM    5  C3  UNL     1     -34.892  16.039  -5.376  1.00 20.00     0.043 C 
BRANCH   4   6
HETATM    6  N7  UNL     1     -34.816  13.888  -4.246  1.00 20.00     0.084 N 
HETATM    7  C4  UNL     1     -36.152  13.821  -4.813  1.00 20.00     0.307 C 
HETATM    8  H18 UNL     1     -34.875  14.164  -3.268  1.00 20.00     0.315 HD
ENDBRANCH   4   6
ENDBRANCH   3   4
TORSDOF 2
ENDMDL
MODEL 9
REMARK VINA RESULT:      -3.5      1.895      3.703
REMARK  2 active torsions:
REMARK  status: ('A' for Active; 'I' for Inactive)
REMARK    1  A    between atoms: C5_5  and  C6_6 
REMARK    2  A    between atoms: C6_6  and  N7_7 
ROOT
HETATM    1  C1  UNL     1     -34.783   5.031   6.407  1.00 20.00     0.012 C 
HETATM    2  C2  UNL     1     -34.353   6.085   6.027  1.00 20.00    -0.115 C 
HETATM    3  C5  UNL     1     -33.827   7.381   5.565  1.00 20.00     0.128 C 
ENDROOT
BRANCH   3   4
HETATM    4  C6  UNL     1     -33.434   7.350   4.082  1.00 20.00     0.227 C 
HETATM    5  C3  UNL     1     -33.277   5.924   3.550  1.00 20.00     0.043 C 
BRANCH   4   6
HETATM    6  N7  UNL     1     -32.160   8.053   3.912  1.00 20.00     0.084 N 
HETATM    7  C4  UNL     1     -32.053   9.155   4.854  1.00 20.00     0.307 C 
HETATM    8  H18 UNL     1     -32.108   8.412   2.961  1.00 20.00     0.315 HD
ENDBRANCH   4   6
ENDBRANCH   3   4
TORSDOF 2
ENDMDL
