MODEL 1
REMARK VINA RESULT:      -5.2      0.000      0.000
REMARK  3 active torsions:
REMARK  status: ('A' for Active; 'I' for Inactive)
REMARK    1  A    between atoms: C2_2  and  C3_3 
REMARK    2  A    between atoms: C3_3  and  C4_4 
REMARK    3  A    between atoms: C3_3  and  O5_5 
ROOT
HETATM    1  C3  UNL     1     -34.361   6.167   4.747  1.00 20.00     0.362 C 
HETATM    2  F8  UNL     1     -35.636   6.358   4.311  1.00 20.00    -0.195 F 
ENDROOT
BRANCH   1   3
HETATM    3  C2  UNL     1     -33.529   7.397   4.421  1.00 20.00     0.429 C 
HETATM    4  F6  UNL     1     -32.560   7.568   5.353  1.00 20.00    -0.208 F 
HETATM    5  F7  UNL     1     -34.301   8.511   4.473  1.00 20.00    -0.208 F 
ENDBRANCH   1   3
BRANCH   1   6
HETATM    6  C4  UNL     1     -34.420   5.917   6.242  1.00 20.00     0.455 C 
HETATM    7  F9  UNL     1     -33.275   5.360   6.695  1.00 20.00    -0.165 F 
HETATM    8  F10 UNL     1     -35.430   5.074   6.551  1.00 20.00    -0.165 F 
HETATM    9  F11 UNL     1     -34.618   7.064   6.927  1.00 20.00    -0.165 F 
ENDBRANCH   1   6
BRANCH   1  10
HETATM   10  O5  UNL     1     -33.852   4.973   4.149  1.00 20.00    -0.345 OA
HETATM   11  C1  UNL     1     -33.124   5.166   2.946  1.00 20.00     0.206 C 
ENDBRANCH   1  10
TORSDOF 3
ENDMDL
MODEL 2
REMARK VINA RESULT:      -5.2      0.011      1.140
REMARK  3 active torsions:
REMARK  status: ('A' for Active; 'I' for Inactive)
REMARK    1  A    between atoms: C2_2  and  C3_3 
REMARK    2  A    between atoms: C3_3  and  C4_4 
REMARK    3  A    between atoms: C3_3  and  O5_5 
ROOT
HETATM    1  C3  UNL     1     -34.360   6.164   4.739  1.00 20.00     0.362 C 
HETATM    2  F8  UNL     1     -35.634   6.350   4.300  1.00 20.00    -0.195 F 
ENDROOT
BRANCH   1   3
HETATM    3  C2  UNL     1     -33.532   7.397   4.412  1.00 20.00     0.429 C 
HETATM    4  F6  UNL     1     -32.557   7.566   5.338  1.00 20.00    -0.208 F 
HETATM    5  F7  UNL     1     -34.305   8.510   4.473  1.00 20.00    -0.208 F 
ENDBRANCH   1   3
BRANCH   1   6
HETATM    6  C4  UNL     1     -34.421   5.918   6.234  1.00 20.00     0.455 C 
HETATM    7  F9  UNL     1     -34.615   7.067   6.917  1.00 20.00    -0.165 F 
HETATM    8  F10 UNL     1     -33.269   5.371   6.681  1.00 20.00    -0.165 F 
HETATM    9  F11 UNL     1     -35.427   5.075   6.555  1.00 20.00    -0.165 F 
ENDBRANCH   1   6
BRANCH   1  10
HETATM   10  O5  UNL     1     -33.845   4.971   4.145  1.00 20.00    -0.345 OA
HETATM   11  C1  UNL     1     -33.121   5.163   2.939  1.00 20.00     0.206 C 
ENDBRANCH   1  10
TORSDOF 3
ENDMDL
MODEL 3
REMARK VINA RESULT:      -5.2      1.377      2.155
REMARK  3 active torsions:
REMARK  status: ('A' for Active; 'I' for Inactive)
REMARK    1  A    between atoms: C2_2  and  C3_3 
REMARK    2  A    between atoms: C3_3  and  C4_4 
REMARK    3  A    between atoms: C3_3  and  O5_5 
ROOT
HETATM    1  C3  UNL     1     -34.034   6.813   4.816  1.00 20.00     0.362 C 
HETATM    2  F8  UNL     1     -34.742   7.890   4.380  1.00 20.00    -0.195 F 
ENDROOT
BRANCH   1   3
HETATM    3  C2  UNL     1     -33.482   7.103   6.203  1.00 20.00     0.429 C 
HETATM    4  F6  UNL     1     -33.094   5.951   6.803  1.00 20.00    -0.208 F 
HETATM    5  F7  UNL     1     -34.451   7.629   6.992  1.00 20.00    -0.208 F 
ENDBRANCH   1   3
BRANCH   1   6
HETATM    6  C4  UNL     1     -34.972   5.621   4.830  1.00 20.00     0.455 C 
HETATM    7  F9  UNL     1     -34.413   4.544   4.235  1.00 20.00    -0.165 F 
HETATM    8  F10 UNL     1     -36.117   5.900   4.167  1.00 20.00    -0.165 F 
HETATM    9  F11 UNL     1     -35.303   5.268   6.091  1.00 20.00    -0.165 F 
ENDBRANCH   1   6
BRANCH   1  10
HETATM   10  O5  UNL     1     -33.014   6.523   3.857  1.00 20.00    -0.345 OA
HETATM   11  C1  UNL     1     -32.229   7.637   3.460  1.00 20.00     0.206 C 
ENDBRANCH   1  10
TORSDOF 3
ENDMDL
MODEL 4
REMARK VINA RESULT:      -5.2      1.383      2.361
REMARK  3 active torsions:
REMARK  status: ('A' for Active; 'I' for Inactive)
REMARK    1  A    between atoms: C2_2  and  C3_3 
REMARK    2  A    between atoms: C3_3  and  C4_4 
REMARK    3  A    between atoms: C3_3  and  O5_5 
ROOT
HETATM    1  C3  UNL     1     -34.040   6.822   4.828  1.00 20.00     0.362 C 
HETATM    2  F8  UNL     1     -34.751   7.905   4.412  1.00 20.00    -0.195 F 
ENDROOT
BRANCH   1   3
HETATM    3  C2  UNL     1     -33.490   7.088   6.220  1.00 20.00     0.429 C 
HETATM    4  F6  UNL     1     -33.116   5.924   6.806  1.00 20.00    -0.208 F 
HETATM    5  F7  UNL     1     -34.456   7.614   7.014  1.00 20.00    -0.208 F 
ENDBRANCH   1   3
BRANCH   1   6
HETATM    6  C4  UNL     1     -34.976   5.629   4.820  1.00 20.00     0.455 C 
HETATM    7  F9  UNL     1     -36.125   5.906   4.164  1.00 20.00    -0.165 F 
HETATM    8  F10 UNL     1     -35.307   5.265   6.079  1.00 20.00    -0.165 F 
HETATM    9  F11 UNL     1     -34.408   4.560   4.219  1.00 20.00    -0.165 F 
ENDBRANCH   1   6
BRANCH   1  10
HETATM   10  O5  UNL     1     -33.020   6.552   3.865  1.00 20.00    -0.345 OA
HETATM   11  C1  UNL     1     -32.222   7.670   3.505  1.00 20.00     0.206 C 
ENDBRANCH   1  10
TORSDOF 3
ENDMDL
MODEL 5
REMARK VINA RESULT:      -4.9      2.101      3.560
REMARK  3 active torsions:
REMARK  status: ('A' for Active; 'I' for Inactive)
REMARK    1  A    between atoms: C2_2  and  C3_3 
REMARK    2  A    between atoms: C3_3  and  C4_4 
REMARK    3  A    between atoms: C3_3  and  O5_5 
ROOT
HETATM    1  C3  UNL     1     -33.355   7.346   4.532  1.00 20.00     0.362 C 
HETATM    2  F8  UNL     1     -34.596   7.826   4.247  1.00 20.00    -0.195 F 
ENDROOT
BRANCH   1   3
HETATM    3  C2  UNL     1     -33.114   6.075   3.734  1.00 20.00     0.429 C 
HETATM    4  F6  UNL     1     -32.693   6.381   2.482  1.00 20.00    -0.208 F 
HETATM    5  F7  UNL     1     -34.274   5.389   3.582  1.00 20.00    -0.208 F 
ENDBRANCH   1   3
BRANCH   1   6
HETATM    6  C4  UNL     1     -32.352   8.425   4.174  1.00 20.00     0.455 C 
HETATM    7  F9  UNL     1     -31.115   7.911   3.997  1.00 20.00    -0.165 F 
HETATM    8  F10 UNL     1     -32.268   9.351   5.155  1.00 20.00    -0.165 F 
HETATM    9  F11 UNL     1     -32.699   9.064   3.036  1.00 20.00    -0.165 F 
ENDBRANCH   1   6
BRANCH   1  10
HETATM   10  O5  UNL     1     -33.260   7.147   5.944  1.00 20.00    -0.345 OA
HETATM   11  C1  UNL     1     -34.395   6.538   6.542  1.00 20.00     0.206 C 
ENDBRANCH   1  10
TORSDOF 3
ENDMDL
MODEL 6
REMARK VINA RESULT:      -4.8      2.103      3.627
REMARK  3 active torsions:
REMARK  status: ('A' for Active; 'I' for Inactive)
REMARK    1  A    between atoms: C2_2  and  C3_3 
REMARK    2  A    between atoms: C3_3  and  C4_4 
REMARK    3  A    between atoms: C3_3  and  O5_5 
ROOT
HETATM    1  C3  UNL     1     -33.347   7.343   4.529  1.00 20.00     0.362 C 
HETATM    2  F8  UNL     1     -34.587   7.826   4.242  1.00 20.00    -0.195 F 
ENDROOT
BRANCH   1   3
HETATM    3  C2  UNL     1     -33.106   6.074   3.728  1.00 20.00     0.429 C 
HETATM    4  F6  UNL     1     -32.689   6.382   2.476  1.00 20.00    -0.208 F 
HETATM    5  F7  UNL     1     -34.266   5.386   3.579  1.00 20.00    -0.208 F 
ENDBRANCH   1   3
BRANCH   1   6
HETATM    6  C4  UNL     1     -32.342   8.422   4.176  1.00 20.00     0.455 C 
HETATM    7  F9  UNL     1     -32.257   9.356   5.148  1.00 20.00    -0.165 F 
HETATM    8  F10 UNL     1     -32.694   9.056   3.036  1.00 20.00    -0.165 F 
HETATM    9  F11 UNL     1     -31.107   7.905   3.993  1.00 20.00    -0.165 F 
ENDBRANCH   1   6
BRANCH   1  10
HETATM   10  O5  UNL     1     -33.256   7.141   5.941  1.00 20.00    -0.345 OA
HETATM   11  C1  UNL     1     -34.399   6.548   6.538  1.00 20.00     0.206 C 
ENDBRANCH   1  10
TORSDOF 3
ENDMDL
MODEL 7
REMARK VINA RESULT:      -4.6      1.734      2.830
REMARK  3 active torsions:
REMARK  status: ('A' for Active; 'I' for Inactive)
REMARK    1  A    between atoms: C2_2  and  C3_3 
REMARK    2  A    between atoms: C3_3  and  C4_4 
REMARK    3  A    between atoms: C3_3  and  O5_5 
ROOT
HETATM    1  C3  UNL     1     -33.517   7.225   4.285  1.00 20.00     0.362 C 
HETATM    2  F8  UNL     1     -34.589   7.865   3.743  1.00 20.00    -0.195 F 
ENDROOT
BRANCH   1   3
HETATM    3  C2  UNL     1     -32.377   7.216   3.279  1.00 20.00     0.429 C 
HETATM    4  F6  UNL     1     -32.439   8.318   2.491  1.00 20.00    -0.208 F 
HETATM    5  F7  UNL     1     -32.496   6.152   2.445  1.00 20.00    -0.208 F 
ENDBRANCH   1   3
BRANCH   1   6
HETATM    6  C4  UNL     1     -33.133   7.965   5.552  1.00 20.00     0.455 C 
HETATM    7  F9  UNL     1     -34.075   8.867   5.902  1.00 20.00    -0.165 F 
HETATM    8  F10 UNL     1     -31.972   8.637   5.386  1.00 20.00    -0.165 F 
HETATM    9  F11 UNL     1     -32.971   7.115   6.590  1.00 20.00    -0.165 F 
ENDBRANCH   1   6
BRANCH   1  10
HETATM   10  O5  UNL     1     -33.924   5.914   4.681  1.00 20.00    -0.345 OA
HETATM   11  C1  UNL     1     -35.326   5.690   4.665  1.00 20.00     0.206 C 
ENDBRANCH   1  10
TORSDOF 3
ENDMDL
MODEL 8
REMARK VINA RESULT:      -4.6      1.773      3.685
REMARK  3 active torsions:
REMARK  status: ('A' for Active; 'I' for Inactive)
REMARK    1  A    between atoms: C2_2  and  C3_3 
REMARK    2  A    between atoms: C3_3  and  C4_4 
REMARK    3  A    between atoms: C3_3  and  O5_5 
ROOT
HETATM    1  C3  UNL     1     -33.688   7.219   4.477  1.00 20.00     0.362 C 
HETATM    2  F8  UNL     1     -34.587   8.240   4.470  1.00 20.00    -0.195 F 
ENDROOT
BRANCH   1   3
HETATM    3  C2  UNL     1     -34.345   5.969   3.913  1.00 20.00     0.429 C 
HETATM    4  F6  UNL     1     -35.666   5.957   4.216  1.00 20.00    -0.208 F 
HETATM    5  F7  UNL     1     -33.817   4.861   4.492  1.00 20.00    -0.208 F 
ENDBRANCH   1   3
BRANCH   1   6
HETATM    6  C4  UNL     1     -32.500   7.648   3.637  1.00 20.00     0.455 C 
HETATM    7  F9  UNL     1     -31.449   8.000   4.411  1.00 20.00    -0.165 F 
HETATM    8  F10 UNL     1     -32.812   8.715   2.869  1.00 20.00    -0.165 F 
HETATM    9  F11 UNL     1     -32.091   6.656   2.817  1.00 20.00    -0.165 F 
ENDBRANCH   1   6
BRANCH   1  10
HETATM   10  O5  UNL     1     -33.209   7.046   5.812  1.00 20.00    -0.345 OA
HETATM   11  C1  UNL     1     -34.217   6.981   6.809  1.00 20.00     0.206 C 
ENDBRANCH   1  10
TORSDOF 3
ENDMDL
MODEL 9
REMARK VINA RESULT:      -4.4      1.766      2.833
REMARK  3 active torsions:
REMARK  status: ('A' for Active; 'I' for Inactive)
REMARK    1  A    between atoms: C2_2  and  C3_3 
REMARK    2  A    between atoms: C3_3  and  C4_4 
REMARK    3  A    between atoms: C3_3  and  O5_5 
ROOT
HETATM    1  C3  UNL     1     -33.680   6.503   4.673  1.00 20.00     0.362 C 
HETATM    2  F8  UNL     1     -32.925   6.546   5.804  1.00 20.00    -0.195 F 
ENDROOT
BRANCH   1   3
HETATM    3  C2  UNL     1     -32.832   5.981   3.524  1.00 20.00     0.429 C 
HETATM    4  F6  UNL     1     -32.063   6.978   3.019  1.00 20.00    -0.208 F 
HETATM    5  F7  UNL     1     -33.626   5.568   2.505  1.00 20.00    -0.208 F 
ENDBRANCH   1   3
BRANCH   1   6
HETATM    6  C4  UNL     1     -34.863   5.594   4.946  1.00 20.00     0.455 C 
HETATM    7  F9  UNL     1     -35.961   5.995   4.267  1.00 20.00    -0.165 F 
HETATM    8  F10 UNL     1     -35.178   5.593   6.260  1.00 20.00    -0.165 F 
HETATM    9  F11 UNL     1     -34.600   4.319   4.585  1.00 20.00    -0.165 F 
ENDBRANCH   1   6
BRANCH   1  10
HETATM   10  O5  UNL     1     -34.209   7.807   4.431  1.00 20.00    -0.345 OA
HETATM   11  C1  UNL     1     -33.559   8.859   5.129  1.00 20.00     0.206 C 
ENDBRANCH   1  10
TORSDOF 3
ENDMDL
