MODEL 1
REMARK VINA RESULT:      -4.6      0.000      0.000
REMARK  0 active torsions:
REMARK  status: ('A' for Active; 'I' for Inactive)
ROOT
HETATM    1  C1  UNL     1     -33.120   6.534   3.751  1.00 20.00    -0.032 A 
HETATM    2  C2  UNL     1     -33.909   6.625   4.826  1.00 20.00     0.056 A 
HETATM    3  C3  UNL     1     -32.304   7.782   3.760  1.00 20.00     0.157 A 
HETATM    4  C4  UNL     1     -32.974   5.474   2.726  1.00 20.00     0.048 C 
HETATM    5  C5  UNL     1     -34.926   5.660   5.321  1.00 20.00     0.072 C 
HETATM    6  C6  UNL     1     -32.516   8.675   2.547  1.00 20.00     0.041 C 
HETATM    7  N7  UNL     1     -33.702   7.789   5.527  1.00 20.00    -0.160 NA
HETATM    8  N8  UNL     1     -32.806   8.483   4.972  1.00 20.00    -0.183 NA
ENDROOT
TORSDOF 0
ENDMDL
MODEL 2
REMARK VINA RESULT:      -4.5      1.396      2.623
REMARK  0 active torsions:
REMARK  status: ('A' for Active; 'I' for Inactive)
ROOT
HETATM    1  C1  UNL     1     -34.050   6.265   4.343  1.00 20.00    -0.032 A 
HETATM    2  C2  UNL     1     -33.113   6.178   3.395  1.00 20.00     0.056 A 
HETATM    3  C3  UNL     1     -33.823   7.585   4.997  1.00 20.00     0.157 A 
HETATM    4  C4  UNL     1     -35.141   5.341   4.734  1.00 20.00     0.048 C 
HETATM    5  C5  UNL     1     -32.867   5.079   2.424  1.00 20.00     0.072 C 
HETATM    6  C6  UNL     1     -33.463   7.498   6.473  1.00 20.00     0.041 C 
HETATM    7  N7  UNL     1     -32.302   7.287   3.361  1.00 20.00    -0.160 NA
HETATM    8  N8  UNL     1     -32.655   8.117   4.244  1.00 20.00    -0.183 NA
ENDROOT
TORSDOF 0
ENDMDL
MODEL 3
REMARK VINA RESULT:      -4.4      0.856      2.869
REMARK  0 active torsions:
REMARK  status: ('A' for Active; 'I' for Inactive)
ROOT
HETATM    1  C1  UNL     1     -33.691   6.242   4.215  1.00 20.00    -0.032 A 
HETATM    2  C2  UNL     1     -33.016   7.394   4.239  1.00 20.00     0.056 A 
HETATM    3  C3  UNL     1     -34.598   6.296   5.398  1.00 20.00     0.157 A 
HETATM    4  C4  UNL     1     -33.659   5.103   3.267  1.00 20.00     0.048 C 
HETATM    5  C5  UNL     1     -31.979   7.888   3.295  1.00 20.00     0.072 C 
HETATM    6  C6  UNL     1     -34.342   5.210   6.432  1.00 20.00     0.041 C 
HETATM    7  N7  UNL     1     -33.376   8.187   5.302  1.00 20.00    -0.160 NA
HETATM    8  N8  UNL     1     -34.267   7.619   5.993  1.00 20.00    -0.183 NA
ENDROOT
TORSDOF 0
ENDMDL
MODEL 4
REMARK VINA RESULT:      -4.2      1.790      3.371
REMARK  0 active torsions:
REMARK  status: ('A' for Active; 'I' for Inactive)
ROOT
HETATM    1  C1  UNL     1     -33.691   6.993   5.311  1.00 20.00    -0.032 A 
HETATM    2  C2  UNL     1     -32.878   7.632   4.466  1.00 20.00     0.056 A 
HETATM    3  C3  UNL     1     -34.082   5.740   4.604  1.00 20.00     0.157 A 
HETATM    4  C4  UNL     1     -34.152   7.332   6.679  1.00 20.00     0.048 C 
HETATM    5  C5  UNL     1     -32.180   8.933   4.647  1.00 20.00     0.072 C 
HETATM    6  C6  UNL     1     -35.573   5.619   4.326  1.00 20.00     0.041 C 
HETATM    7  N7  UNL     1     -32.700   6.941   3.291  1.00 20.00    -0.160 NA
HETATM    8  N8  UNL     1     -33.356   5.863   3.311  1.00 20.00    -0.183 NA
ENDROOT
TORSDOF 0
ENDMDL
MODEL 5
REMARK VINA RESULT:      -4.1      1.889      2.783
REMARK  0 active torsions:
REMARK  status: ('A' for Active; 'I' for Inactive)
ROOT
HETATM    1  C1  UNL     1     -33.721   6.829   4.411  1.00 20.00    -0.032 A 
HETATM    2  C2  UNL     1     -34.134   6.459   5.626  1.00 20.00     0.056 A 
HETATM    3  C3  UNL     1     -34.003   5.660   3.530  1.00 20.00     0.157 A 
HETATM    4  C4  UNL     1     -33.130   8.095   3.917  1.00 20.00     0.048 C 
HETATM    5  C5  UNL     1     -34.106   7.231   6.897  1.00 20.00     0.072 C 
HETATM    6  C6  UNL     1     -32.766   5.043   2.895  1.00 20.00     0.041 C 
HETATM    7  N7  UNL     1     -34.647   5.184   5.636  1.00 20.00    -0.160 NA
HETATM    8  N8  UNL     1     -34.600   4.681   4.479  1.00 20.00    -0.183 NA
ENDROOT
TORSDOF 0
ENDMDL
MODEL 6
REMARK VINA RESULT:      -3.9      1.750      2.378
REMARK  0 active torsions:
REMARK  status: ('A' for Active; 'I' for Inactive)
ROOT
HETATM    1  C1  UNL     1     -33.747   6.916   4.954  1.00 20.00    -0.032 A 
HETATM    2  C2  UNL     1     -33.586   5.854   4.161  1.00 20.00     0.056 A 
HETATM    3  C3  UNL     1     -33.140   8.056   4.209  1.00 20.00     0.157 A 
HETATM    4  C4  UNL     1     -34.391   7.064   6.281  1.00 20.00     0.048 C 
HETATM    5  C5  UNL     1     -34.007   4.446   4.390  1.00 20.00     0.072 C 
HETATM    6  C6  UNL     1     -31.956   8.702   4.911  1.00 20.00     0.041 C 
HETATM    7  N7  UNL     1     -32.941   6.171   2.989  1.00 20.00    -0.160 NA
HETATM    8  N8  UNL     1     -32.664   7.402   2.959  1.00 20.00    -0.183 NA
ENDROOT
TORSDOF 0
ENDMDL
MODEL 7
REMARK VINA RESULT:      -3.9     12.122     12.442
REMARK  0 active torsions:
REMARK  status: ('A' for Active; 'I' for Inactive)
ROOT
HETATM    1  C1  UNL     1     -32.873  18.614   0.365  1.00 20.00    -0.032 A 
HETATM    2  C2  UNL     1     -32.385  18.173  -0.797  1.00 20.00     0.056 A 
HETATM    3  C3  UNL     1     -31.720  19.262   1.053  1.00 20.00     0.157 A 
HETATM    4  C4  UNL     1     -34.238  18.561   0.942  1.00 20.00     0.048 C 
HETATM    5  C5  UNL     1     -33.089  17.455  -1.893  1.00 20.00     0.072 C 
HETATM    6  C6  UNL     1     -31.331  18.608   2.371  1.00 20.00     0.041 C 
HETATM    7  N7  UNL     1     -31.047  18.456  -0.941  1.00 20.00    -0.160 NA
HETATM    8  N8  UNL     1     -30.616  19.070   0.074  1.00 20.00    -0.183 NA
ENDROOT
TORSDOF 0
ENDMDL
MODEL 8
REMARK VINA RESULT:      -3.8     12.146     12.532
REMARK  0 active torsions:
REMARK  status: ('A' for Active; 'I' for Inactive)
ROOT
HETATM    1  C1  UNL     1     -32.743  18.571   0.495  1.00 20.00    -0.032 A 
HETATM    2  C2  UNL     1     -31.756  18.916   1.327  1.00 20.00     0.056 A 
HETATM    3  C3  UNL     1     -32.080  18.330  -0.819  1.00 20.00     0.157 A 
HETATM    4  C4  UNL     1     -34.199  18.402   0.713  1.00 20.00     0.048 C 
HETATM    5  C5  UNL     1     -31.832  19.263   2.771  1.00 20.00     0.072 C 
HETATM    6  C6  UNL     1     -32.537  19.262  -1.930  1.00 20.00     0.041 C 
HETATM    7  N7  UNL     1     -30.531  18.931   0.704  1.00 20.00    -0.160 NA
HETATM    8  N8  UNL     1     -30.651  18.608  -0.510  1.00 20.00    -0.183 NA
ENDROOT
TORSDOF 0
ENDMDL
MODEL 9
REMARK VINA RESULT:      -3.8      9.088      9.612
REMARK  0 active torsions:
REMARK  status: ('A' for Active; 'I' for Inactive)
ROOT
HETATM    1  C1  UNL     1     -40.779  13.295   5.617  1.00 20.00    -0.032 A 
HETATM    2  C2  UNL     1     -40.381  13.714   6.822  1.00 20.00     0.056 A 
HETATM    3  C3  UNL     1     -40.136  11.963   5.435  1.00 20.00     0.157 A 
HETATM    4  C4  UNL     1     -41.678  13.909   4.611  1.00 20.00     0.048 C 
HETATM    5  C5  UNL     1     -40.720  14.977   7.530  1.00 20.00     0.072 C 
HETATM    6  C6  UNL     1     -39.167  11.892   4.264  1.00 20.00     0.041 C 
HETATM    7  N7  UNL     1     -39.551  12.809   7.439  1.00 20.00    -0.160 NA
HETATM    8  N8  UNL     1     -39.376  11.799   6.703  1.00 20.00    -0.183 NA
ENDROOT
TORSDOF 0
ENDMDL
