MODEL 1
REMARK VINA RESULT:      -6.0      0.000      0.000
REMARK  0 active torsions:
REMARK  status: ('A' for Active; 'I' for Inactive)
ROOT
HETATM    1  C1  UNL     1     -33.045   6.108   3.156  1.00 20.00    -0.008 C 
HETATM    2  C2  UNL     1     -33.779   5.930   4.249  1.00 20.00    -0.037 C 
HETATM    3  C3  UNL     1     -33.757   7.005   5.251  1.00 20.00     0.044 C 
HETATM    4  C4  UNL     1     -32.557   8.476   3.957  1.00 20.00     0.246 C 
HETATM    5  C5  UNL     1     -32.288   7.373   2.931  1.00 20.00     0.133 C 
HETATM    6  C6  UNL     1     -34.585   4.798   4.775  1.00 20.00     0.040 C 
HETATM    7  C7  UNL     1     -34.498   6.571   6.479  1.00 20.00     0.060 C 
HETATM    8  C8  UNL     1     -34.553   5.051   6.286  1.00 20.00     0.011 C 
HETATM    9  N9  UNL     1     -33.207   8.164   5.136  1.00 20.00    -0.218 NA
HETATM   10  O10 UNL     1     -32.146   9.614   3.722  1.00 20.00    -0.271 OA
ENDROOT
TORSDOF 0
ENDMDL
MODEL 2
REMARK VINA RESULT:      -5.9      1.353      2.152
REMARK  0 active torsions:
REMARK  status: ('A' for Active; 'I' for Inactive)
ROOT
HETATM    1  C1  UNL     1     -33.123   8.318   5.087  1.00 20.00    -0.008 C 
HETATM    2  C2  UNL     1     -33.581   7.100   5.354  1.00 20.00    -0.037 C 
HETATM    3  C3  UNL     1     -33.603   6.137   4.243  1.00 20.00     0.044 C 
HETATM    4  C4  UNL     1     -32.476   7.489   2.767  1.00 20.00     0.246 C 
HETATM    5  C5  UNL     1     -32.594   8.667   3.737  1.00 20.00     0.133 C 
HETATM    6  C6  UNL     1     -34.201   6.472   6.549  1.00 20.00     0.040 C 
HETATM    7  C7  UNL     1     -34.296   4.880   4.675  1.00 20.00     0.060 C 
HETATM    8  C8  UNL     1     -35.044   5.353   5.927  1.00 20.00     0.011 C 
HETATM    9  N9  UNL     1     -33.109   6.297   3.065  1.00 20.00    -0.218 NA
HETATM   10  O10 UNL     1     -31.849   7.649   1.719  1.00 20.00    -0.271 OA
ENDROOT
TORSDOF 0
ENDMDL
MODEL 3
REMARK VINA RESULT:      -5.6      2.106      3.578
REMARK  0 active torsions:
REMARK  status: ('A' for Active; 'I' for Inactive)
ROOT
HETATM    1  C1  UNL     1     -33.670   5.504   3.571  1.00 20.00    -0.008 C 
HETATM    2  C2  UNL     1     -33.040   6.664   3.712  1.00 20.00    -0.037 C 
HETATM    3  C3  UNL     1     -33.290   7.414   4.952  1.00 20.00     0.044 C 
HETATM    4  C4  UNL     1     -34.508   5.750   5.964  1.00 20.00     0.246 C 
HETATM    5  C5  UNL     1     -34.539   4.960   4.654  1.00 20.00     0.133 C 
HETATM    6  C6  UNL     1     -32.169   7.477   2.825  1.00 20.00     0.040 C 
HETATM    7  C7  UNL     1     -32.637   8.761   4.872  1.00 20.00     0.060 C 
HETATM    8  C8  UNL     1     -32.388   8.895   3.364  1.00 20.00     0.011 C 
HETATM    9  N9  UNL     1     -33.953   7.016   5.981  1.00 20.00    -0.218 NA
HETATM   10  O10 UNL     1     -35.019   5.250   6.967  1.00 20.00    -0.271 OA
ENDROOT
TORSDOF 0
ENDMDL
MODEL 4
REMARK VINA RESULT:      -5.5      2.316      3.976
REMARK  0 active torsions:
REMARK  status: ('A' for Active; 'I' for Inactive)
ROOT
HETATM    1  C1  UNL     1     -34.319   6.682   6.425  1.00 20.00    -0.008 C 
HETATM    2  C2  UNL     1     -33.755   7.545   5.588  1.00 20.00    -0.037 C 
HETATM    3  C3  UNL     1     -33.242   7.007   4.320  1.00 20.00     0.044 C 
HETATM    4  C4  UNL     1     -34.105   4.899   4.619  1.00 20.00     0.246 C 
HETATM    5  C5  UNL     1     -34.482   5.245   6.061  1.00 20.00     0.133 C 
HETATM    6  C6  UNL     1     -33.412   8.988   5.673  1.00 20.00     0.040 C 
HETATM    7  C7  UNL     1     -32.498   8.076   3.578  1.00 20.00     0.060 C 
HETATM    8  C8  UNL     1     -32.243   9.103   4.688  1.00 20.00     0.011 C 
HETATM    9  N9  UNL     1     -33.390   5.812   3.866  1.00 20.00    -0.218 NA
HETATM   10  O10 UNL     1     -34.416   3.792   4.177  1.00 20.00    -0.271 OA
ENDROOT
TORSDOF 0
ENDMDL
MODEL 5
REMARK VINA RESULT:      -5.0      2.313      3.982
REMARK  0 active torsions:
REMARK  status: ('A' for Active; 'I' for Inactive)
ROOT
HETATM    1  C1  UNL     1     -33.444   8.081   5.593  1.00 20.00    -0.008 C 
HETATM    2  C2  UNL     1     -33.172   7.731   4.341  1.00 20.00    -0.037 C 
HETATM    3  C3  UNL     1     -33.432   6.334   3.966  1.00 20.00     0.044 C 
HETATM    4  C4  UNL     1     -34.467   5.775   5.939  1.00 20.00     0.246 C 
HETATM    5  C5  UNL     1     -34.048   7.113   6.552  1.00 20.00     0.133 C 
HETATM    6  C6  UNL     1     -32.542   8.429   3.190  1.00 20.00     0.040 C 
HETATM    7  C7  UNL     1     -32.919   6.075   2.582  1.00 20.00     0.060 C 
HETATM    8  C8  UNL     1     -31.971   7.263   2.375  1.00 20.00     0.011 C 
HETATM    9  N9  UNL     1     -34.016   5.434   4.678  1.00 20.00    -0.218 NA
HETATM   10  O10 UNL     1     -35.167   5.013   6.608  1.00 20.00    -0.271 OA
ENDROOT
TORSDOF 0
ENDMDL
MODEL 6
REMARK VINA RESULT:      -5.0      1.752      3.356
REMARK  0 active torsions:
REMARK  status: ('A' for Active; 'I' for Inactive)
ROOT
HETATM    1  C1  UNL     1     -34.415   4.953   4.484  1.00 20.00    -0.008 C 
HETATM    2  C2  UNL     1     -33.502   5.614   3.781  1.00 20.00    -0.037 C 
HETATM    3  C3  UNL     1     -33.117   6.945   4.271  1.00 20.00     0.044 C 
HETATM    4  C4  UNL     1     -34.298   6.798   6.236  1.00 20.00     0.246 C 
HETATM    5  C5  UNL     1     -34.972   5.514   5.749  1.00 20.00     0.133 C 
HETATM    6  C6  UNL     1     -32.809   5.355   2.493  1.00 20.00     0.040 C 
HETATM    7  C7  UNL     1     -32.211   7.609   3.279  1.00 20.00     0.060 C 
HETATM    8  C8  UNL     1     -32.464   6.771   2.019  1.00 20.00     0.011 C 
HETATM    9  N9  UNL     1     -33.469   7.498   5.379  1.00 20.00    -0.218 NA
HETATM   10  O10 UNL     1     -34.547   7.200   7.374  1.00 20.00    -0.271 OA
ENDROOT
TORSDOF 0
ENDMDL
MODEL 7
REMARK VINA RESULT:      -4.6      1.028      2.206
REMARK  0 active torsions:
REMARK  status: ('A' for Active; 'I' for Inactive)
ROOT
HETATM    1  C1  UNL     1     -34.104   7.471   6.290  1.00 20.00    -0.008 C 
HETATM    2  C2  UNL     1     -33.980   6.373   5.553  1.00 20.00    -0.037 C 
HETATM    3  C3  UNL     1     -33.313   6.514   4.250  1.00 20.00     0.044 C 
HETATM    4  C4  UNL     1     -32.674   8.697   4.575  1.00 20.00     0.246 C 
HETATM    5  C5  UNL     1     -33.532   8.773   5.840  1.00 20.00     0.133 C 
HETATM    6  C6  UNL     1     -34.465   4.976   5.696  1.00 20.00     0.040 C 
HETATM    7  C7  UNL     1     -33.406   5.226   3.489  1.00 20.00     0.060 C 
HETATM    8  C8  UNL     1     -34.532   4.504   4.239  1.00 20.00     0.011 C 
HETATM    9  N9  UNL     1     -32.718   7.559   3.791  1.00 20.00    -0.218 NA
HETATM   10  O10 UNL     1     -31.992   9.675   4.265  1.00 20.00    -0.271 OA
ENDROOT
TORSDOF 0
ENDMDL
MODEL 8
REMARK VINA RESULT:      -4.4      2.434      3.344
REMARK  0 active torsions:
REMARK  status: ('A' for Active; 'I' for Inactive)
ROOT
HETATM    1  C1  UNL     1     -32.461   6.741   2.970  1.00 20.00    -0.008 C 
HETATM    2  C2  UNL     1     -32.737   7.417   4.079  1.00 20.00    -0.037 C 
HETATM    3  C3  UNL     1     -33.660   6.785   5.034  1.00 20.00     0.044 C 
HETATM    4  C4  UNL     1     -33.762   4.773   3.930  1.00 20.00     0.246 C 
HETATM    5  C5  UNL     1     -33.011   5.374   2.740  1.00 20.00     0.133 C 
HETATM    6  C6  UNL     1     -32.394   8.777   4.568  1.00 20.00     0.040 C 
HETATM    7  C7  UNL     1     -33.987   7.746   6.136  1.00 20.00     0.060 C 
HETATM    8  C8  UNL     1     -33.557   9.083   5.519  1.00 20.00     0.011 C 
HETATM    9  N9  UNL     1     -34.135   5.590   4.981  1.00 20.00    -0.218 NA
HETATM   10  O10 UNL     1     -34.054   3.576   3.900  1.00 20.00    -0.271 OA
ENDROOT
TORSDOF 0
ENDMDL
MODEL 9
REMARK VINA RESULT:      -4.4      2.109      3.150
REMARK  0 active torsions:
REMARK  status: ('A' for Active; 'I' for Inactive)
ROOT
HETATM    1  C1  UNL     1     -34.373   4.953   5.173  1.00 20.00    -0.008 C 
HETATM    2  C2  UNL     1     -34.135   6.246   5.365  1.00 20.00    -0.037 C 
HETATM    3  C3  UNL     1     -33.292   6.924   4.370  1.00 20.00     0.044 C 
HETATM    4  C4  UNL     1     -33.199   5.144   2.921  1.00 20.00     0.246 C 
HETATM    5  C5  UNL     1     -33.860   4.243   3.966  1.00 20.00     0.133 C 
HETATM    6  C6  UNL     1     -34.456   7.201   6.456  1.00 20.00     0.040 C 
HETATM    7  C7  UNL     1     -32.993   8.321   4.824  1.00 20.00     0.060 C 
HETATM    8  C8  UNL     1     -33.338   8.241   6.316  1.00 20.00     0.011 C 
HETATM    9  N9  UNL     1     -32.858   6.440   3.258  1.00 20.00    -0.218 NA
HETATM   10  O10 UNL     1     -32.950   4.673   1.809  1.00 20.00    -0.271 OA
ENDROOT
TORSDOF 0
ENDMDL
