MODEL 1
REMARK VINA RESULT:      -3.8      0.000      0.000
REMARK  2 active torsions:
REMARK  status: ('A' for Active; 'I' for Inactive)
REMARK    1  A    between atoms: C1_1  and  C7_7 
REMARK    2  A    between atoms: C7_7  and  C10_10 
ROOT
HETATM    1  C2  UNL     1     -33.311  16.277  -3.158  1.00 20.00     0.000 C 
HETATM    2  C3  UNL     1     -33.700  14.959  -3.819  1.00 20.00     0.001 C 
HETATM    3  C4  UNL     1     -34.295  17.387  -3.508  1.00 20.00     0.001 C 
HETATM    4  C5  UNL     1     -33.840  15.104  -5.334  1.00 20.00     0.021 C 
HETATM    5  C6  UNL     1     -34.443  17.558  -5.021  1.00 20.00     0.021 C 
HETATM    6  C7  UNL     1     -34.777  16.247  -5.737  1.00 20.00     0.051 C 
ENDROOT
BRANCH   6   7
HETATM    7  C1  UNL     1     -36.222  15.853  -5.435  1.00 20.00     0.182 C 
HETATM    8  O11 UNL     1     -36.991  16.808  -5.136  1.00 20.00    -0.647 OA
HETATM    9  O12 UNL     1     -36.463  14.616  -5.523  1.00 20.00    -0.647 OA
ENDBRANCH   6   7
BRANCH   6  10
HETATM   10  C10 UNL     1     -34.792  16.436  -7.254  1.00 20.00    -0.004 C 
HETATM   11  C8  UNL     1     -34.493  17.888  -7.611  1.00 20.00     0.011 C 
HETATM   12  C9  UNL     1     -33.790  15.498  -7.917  1.00 20.00     0.011 C 
ENDBRANCH   6  10
TORSDOF 2
ENDMDL
MODEL 2
REMARK VINA RESULT:      -3.6      1.682      3.033
REMARK  2 active torsions:
REMARK  status: ('A' for Active; 'I' for Inactive)
REMARK    1  A    between atoms: C1_1  and  C7_7 
REMARK    2  A    between atoms: C7_7  and  C10_10 
ROOT
HETATM    1  C2  UNL     1     -33.252  17.134  -3.196  1.00 20.00     0.000 C 
HETATM    2  C3  UNL     1     -34.055  17.976  -4.181  1.00 20.00     0.001 C 
HETATM    3  C4  UNL     1     -32.878  15.782  -3.795  1.00 20.00     0.001 C 
HETATM    4  C5  UNL     1     -35.297  17.238  -4.679  1.00 20.00     0.021 C 
HETATM    5  C6  UNL     1     -34.108  15.020  -4.289  1.00 20.00     0.021 C 
HETATM    6  C7  UNL     1     -34.979  15.849  -5.239  1.00 20.00     0.051 C 
ENDROOT
BRANCH   6   7
HETATM    7  C1  UNL     1     -34.273  15.991  -6.586  1.00 20.00     0.182 C 
HETATM    8  O11 UNL     1     -34.370  17.126  -7.129  1.00 20.00    -0.647 OA
HETATM    9  O12 UNL     1     -33.680  14.950  -6.986  1.00 20.00    -0.647 OA
ENDBRANCH   6   7
BRANCH   6  10
HETATM   10  C10 UNL     1     -36.258  15.098  -5.609  1.00 20.00    -0.004 C 
HETATM   11  C8  UNL     1     -36.375  13.814  -4.795  1.00 20.00     0.011 C 
HETATM   12  C9  UNL     1     -37.478  15.988  -5.394  1.00 20.00     0.011 C 
ENDBRANCH   6  10
TORSDOF 2
ENDMDL
MODEL 3
REMARK VINA RESULT:      -3.5     12.932     14.193
REMARK  2 active torsions:
REMARK  status: ('A' for Active; 'I' for Inactive)
REMARK    1  A    between atoms: C1_1  and  C7_7 
REMARK    2  A    between atoms: C7_7  and  C10_10 
ROOT
HETATM    1  C2  UNL     1     -41.889  16.343   6.338  1.00 20.00     0.000 C 
HETATM    2  C3  UNL     1     -41.248  15.724   7.574  1.00 20.00     0.001 C 
HETATM    3  C4  UNL     1     -42.752  15.332   5.591  1.00 20.00     0.001 C 
HETATM    4  C5  UNL     1     -40.443  14.472   7.229  1.00 20.00     0.021 C 
HETATM    5  C6  UNL     1     -41.962  14.074   5.225  1.00 20.00     0.021 C 
HETATM    6  C7  UNL     1     -41.251  13.447   6.428  1.00 20.00     0.051 C 
ENDROOT
BRANCH   6   7
HETATM    7  C1  UNL     1     -42.280  12.783   7.341  1.00 20.00     0.182 C 
HETATM    8  O11 UNL     1     -43.179  12.122   6.750  1.00 20.00    -0.647 OA
HETATM    9  O12 UNL     1     -42.100  12.981   8.575  1.00 20.00    -0.647 OA
ENDBRANCH   6   7
BRANCH   6  10
HETATM   10  C10 UNL     1     -40.376  12.270   5.998  1.00 20.00    -0.004 C 
HETATM   11  C8  UNL     1     -39.991  12.403   4.528  1.00 20.00     0.011 C 
HETATM   12  C9  UNL     1     -39.133  12.183   6.876  1.00 20.00     0.011 C 
ENDBRANCH   6  10
TORSDOF 2
ENDMDL
MODEL 4
REMARK VINA RESULT:      -3.5      1.171      3.634
REMARK  2 active torsions:
REMARK  status: ('A' for Active; 'I' for Inactive)
REMARK    1  A    between atoms: C1_1  and  C7_7 
REMARK    2  A    between atoms: C7_7  and  C10_10 
ROOT
HETATM    1  C2  UNL     1     -35.308  16.952  -7.518  1.00 20.00     0.000 C 
HETATM    2  C3  UNL     1     -36.093  17.163  -6.228  1.00 20.00     0.001 C 
HETATM    3  C4  UNL     1     -34.823  15.512  -7.646  1.00 20.00     0.001 C 
HETATM    4  C5  UNL     1     -35.285  16.749  -4.998  1.00 20.00     0.021 C 
HETATM    5  C6  UNL     1     -34.002  15.080  -6.430  1.00 20.00     0.021 C 
HETATM    6  C7  UNL     1     -34.728  15.327  -5.105  1.00 20.00     0.051 C 
ENDROOT
BRANCH   6   7
HETATM    7  C1  UNL     1     -35.866  14.320  -4.950  1.00 20.00     0.182 C 
HETATM    8  O11 UNL     1     -35.535  13.200  -4.470  1.00 20.00    -0.647 OA
HETATM    9  O12 UNL     1     -36.998  14.738  -5.323  1.00 20.00    -0.647 OA
ENDBRANCH   6   7
BRANCH   6  10
HETATM   10  C10 UNL     1     -33.826  14.999  -3.914  1.00 20.00    -0.004 C 
HETATM   11  C8  UNL     1     -32.453  14.545  -4.397  1.00 20.00     0.011 C 
HETATM   12  C9  UNL     1     -33.704  16.206  -2.991  1.00 20.00     0.011 C 
ENDBRANCH   6  10
TORSDOF 2
ENDMDL
MODEL 5
REMARK VINA RESULT:      -3.5      0.703      3.537
REMARK  2 active torsions:
REMARK  status: ('A' for Active; 'I' for Inactive)
REMARK    1  A    between atoms: C1_1  and  C7_7 
REMARK    2  A    between atoms: C7_7  and  C10_10 
ROOT
HETATM    1  C2  UNL     1     -34.201  17.717  -7.854  1.00 20.00     0.000 C 
HETATM    2  C3  UNL     1     -34.926  18.342  -6.668  1.00 20.00     0.001 C 
HETATM    3  C4  UNL     1     -34.432  16.211  -7.918  1.00 20.00     0.001 C 
HETATM    4  C5  UNL     1     -34.537  17.675  -5.349  1.00 20.00     0.021 C 
HETATM    5  C6  UNL     1     -34.038  15.521  -6.611  1.00 20.00     0.021 C 
HETATM    6  C7  UNL     1     -34.699  16.153  -5.383  1.00 20.00     0.051 C 
ENDROOT
BRANCH   6   7
HETATM    7  C1  UNL     1     -36.184  15.797  -5.361  1.00 20.00     0.182 C 
HETATM    8  O11 UNL     1     -36.462  14.617  -5.713  1.00 20.00    -0.647 OA
HETATM    9  O12 UNL     1     -36.948  16.732  -4.991  1.00 20.00    -0.647 OA
ENDBRANCH   6   7
BRANCH   6  10
HETATM   10  C10 UNL     1     -34.183  15.516  -4.092  1.00 20.00    -0.004 C 
HETATM   11  C8  UNL     1     -33.192  14.401  -4.408  1.00 20.00     0.011 C 
HETATM   12  C9  UNL     1     -33.542  16.572  -3.198  1.00 20.00     0.011 C 
ENDBRANCH   6  10
TORSDOF 2
ENDMDL
MODEL 6
REMARK VINA RESULT:      -3.4     18.307     19.828
REMARK  2 active torsions:
REMARK  status: ('A' for Active; 'I' for Inactive)
REMARK    1  A    between atoms: C1_1  and  C7_7 
REMARK    2  A    between atoms: C7_7  and  C10_10 
ROOT
HETATM    1  C2  UNL     1     -25.787  17.025  12.052  1.00 20.00     0.000 C 
HETATM    2  C3  UNL     1     -25.506  18.523  12.090  1.00 20.00     0.001 C 
HETATM    3  C4  UNL     1     -24.530  16.230  11.718  1.00 20.00     0.001 C 
HETATM    4  C5  UNL     1     -24.881  19.016  10.786  1.00 20.00     0.021 C 
HETATM    5  C6  UNL     1     -23.894  16.700  10.408  1.00 20.00     0.021 C 
HETATM    6  C7  UNL     1     -23.645  18.211  10.377  1.00 20.00     0.051 C 
ENDROOT
BRANCH   6   7
HETATM    7  C1  UNL     1     -22.481  18.557  11.304  1.00 20.00     0.182 C 
HETATM    8  O11 UNL     1     -21.350  18.139  10.931  1.00 20.00    -0.647 OA
HETATM    9  O12 UNL     1     -22.801  19.219  12.332  1.00 20.00    -0.647 OA
ENDBRANCH   6   7
BRANCH   6  10
HETATM   10  C10 UNL     1     -23.126  18.655   9.009  1.00 20.00    -0.004 C 
HETATM   11  C8  UNL     1     -22.437  17.494   8.300  1.00 20.00     0.011 C 
HETATM   12  C9  UNL     1     -24.266  19.207   8.162  1.00 20.00     0.011 C 
ENDBRANCH   6  10
TORSDOF 2
ENDMDL
MODEL 7
REMARK VINA RESULT:      -3.4      1.682      3.457
REMARK  2 active torsions:
REMARK  status: ('A' for Active; 'I' for Inactive)
REMARK    1  A    between atoms: C1_1  and  C7_7 
REMARK    2  A    between atoms: C7_7  and  C10_10 
ROOT
HETATM    1  C2  UNL     1     -36.813  18.258  -6.366  1.00 20.00     0.000 C 
HETATM    2  C3  UNL     1     -37.373  16.850  -6.197  1.00 20.00     0.001 C 
HETATM    3  C4  UNL     1     -35.402  18.231  -6.945  1.00 20.00     0.001 C 
HETATM    4  C5  UNL     1     -36.453  15.971  -5.350  1.00 20.00     0.021 C 
HETATM    5  C6  UNL     1     -34.461  17.366  -6.105  1.00 20.00     0.021 C 
HETATM    6  C7  UNL     1     -35.009  15.957  -5.860  1.00 20.00     0.051 C 
ENDROOT
BRANCH   6   7
HETATM    7  C1  UNL     1     -34.932  15.146  -7.152  1.00 20.00     0.182 C 
HETATM    8  O11 UNL     1     -35.988  14.531  -7.467  1.00 20.00    -0.647 OA
HETATM    9  O12 UNL     1     -33.816  15.193  -7.741  1.00 20.00    -0.647 OA
ENDBRANCH   6   7
BRANCH   6  10
HETATM   10  C10 UNL     1     -34.101  15.169  -4.916  1.00 20.00    -0.004 C 
HETATM   11  C8  UNL     1     -33.524  16.088  -3.844  1.00 20.00     0.011 C 
HETATM   12  C9  UNL     1     -34.866  14.013  -4.282  1.00 20.00     0.011 C 
ENDBRANCH   6  10
TORSDOF 2
ENDMDL
MODEL 8
REMARK VINA RESULT:      -3.3      1.826      2.866
REMARK  2 active torsions:
REMARK  status: ('A' for Active; 'I' for Inactive)
REMARK    1  A    between atoms: C1_1  and  C7_7 
REMARK    2  A    between atoms: C7_7  and  C10_10 
ROOT
HETATM    1  C2  UNL     1     -34.354  14.230  -3.919  1.00 20.00     0.000 C 
HETATM    2  C3  UNL     1     -33.557  15.147  -4.840  1.00 20.00     0.001 C 
HETATM    3  C4  UNL     1     -35.590  13.675  -4.620  1.00 20.00     0.001 C 
HETATM    4  C5  UNL     1     -34.419  16.278  -5.399  1.00 20.00     0.021 C 
HETATM    5  C6  UNL     1     -36.474  14.792  -5.178  1.00 20.00     0.021 C 
HETATM    6  C7  UNL     1     -35.702  15.773  -6.064  1.00 20.00     0.051 C 
ENDROOT
BRANCH   6   7
HETATM    7  C1  UNL     1     -35.359  15.102  -7.393  1.00 20.00     0.182 C 
HETATM    8  O11 UNL     1     -34.178  15.282  -7.799  1.00 20.00    -0.647 OA
HETATM    9  O12 UNL     1     -36.306  14.451  -7.918  1.00 20.00    -0.647 OA
ENDBRANCH   6   7
BRANCH   6  10
HETATM   10  C10 UNL     1     -36.592  16.939  -6.499  1.00 20.00    -0.004 C 
HETATM   11  C8  UNL     1     -37.683  17.189  -5.463  1.00 20.00     0.011 C 
HETATM   12  C9  UNL     1     -35.754  18.194  -6.716  1.00 20.00     0.011 C 
ENDBRANCH   6  10
TORSDOF 2
ENDMDL
MODEL 9
REMARK VINA RESULT:      -3.2     13.366     14.558
REMARK  2 active torsions:
REMARK  status: ('A' for Active; 'I' for Inactive)
REMARK    1  A    between atoms: C1_1  and  C7_7 
REMARK    2  A    between atoms: C7_7  and  C10_10 
ROOT
HETATM    1  C2  UNL     1     -40.875  16.647   8.120  1.00 20.00     0.000 C 
HETATM    2  C3  UNL     1     -40.338  15.400   8.813  1.00 20.00     0.001 C 
HETATM    3  C4  UNL     1     -42.155  16.348   7.347  1.00 20.00     0.001 C 
HETATM    4  C5  UNL     1     -40.122  14.252   7.828  1.00 20.00     0.021 C 
HETATM    5  C6  UNL     1     -41.959  15.209   6.346  1.00 20.00     0.021 C 
HETATM    6  C7  UNL     1     -41.365  13.950   6.986  1.00 20.00     0.051 C 
ENDROOT
BRANCH   6   7
HETATM    7  C1  UNL     1     -42.421  13.274   7.859  1.00 20.00     0.182 C 
HETATM    8  O11 UNL     1     -42.167  13.253   9.095  1.00 20.00    -0.647 OA
HETATM    9  O12 UNL     1     -43.417  12.820   7.229  1.00 20.00    -0.647 OA
ENDBRANCH   6   7
BRANCH   6  10
HETATM   10  C10 UNL     1     -41.070  12.883   5.932  1.00 20.00    -0.004 C 
HETATM   11  C8  UNL     1     -41.164  13.480   4.531  1.00 20.00     0.011 C 
HETATM   12  C9  UNL     1     -39.694  12.270   6.167  1.00 20.00     0.011 C 
ENDBRANCH   6  10
TORSDOF 2
ENDMDL
