MODEL 1
REMARK VINA RESULT:      -3.6      0.000      0.000
REMARK  0 active torsions:
REMARK  status: ('A' for Active; 'I' for Inactive)
ROOT
HETATM    1  C1  UNL     1     -34.234   6.467   4.863  1.00 20.00     0.158 C 
HETATM    2  C2  UNL     1     -34.292   6.251   6.176  1.00 20.00     0.277 C 
HETATM    3  F3  UNL     1     -34.553   7.280   7.009  1.00 20.00    -0.172 F 
HETATM    4  F4  UNL     1     -34.093   5.016   6.683  1.00 20.00    -0.172 F 
HETATM    5 CL5  UNL     1     -33.912   5.241   3.714  1.00 20.00    -0.091 Cl
ENDROOT
TORSDOF 0
ENDMDL
MODEL 2
REMARK VINA RESULT:      -3.6      1.427      2.006
REMARK  0 active torsions:
REMARK  status: ('A' for Active; 'I' for Inactive)
ROOT
HETATM    1  C1  UNL     1     -33.989   6.606   4.847  1.00 20.00     0.158 C 
HETATM    2  C2  UNL     1     -34.454   6.302   6.057  1.00 20.00     0.277 C 
HETATM    3  F3  UNL     1     -34.901   5.053   6.305  1.00 20.00    -0.172 F 
HETATM    4  F4  UNL     1     -34.482   7.227   7.040  1.00 20.00    -0.172 F 
HETATM    5 CL5  UNL     1     -33.397   8.154   4.421  1.00 20.00    -0.091 Cl
ENDROOT
TORSDOF 0
ENDMDL
MODEL 3
REMARK VINA RESULT:      -3.6      2.066      2.351
REMARK  0 active torsions:
REMARK  status: ('A' for Active; 'I' for Inactive)
ROOT
HETATM    1  C1  UNL     1     -33.842   6.965   6.070  1.00 20.00     0.158 C 
HETATM    2  C2  UNL     1     -34.698   6.017   5.694  1.00 20.00     0.277 C 
HETATM    3  F3  UNL     1     -34.892   4.942   6.487  1.00 20.00    -0.172 F 
HETATM    4  F4  UNL     1     -35.375   6.117   4.530  1.00 20.00    -0.172 F 
HETATM    5 CL5  UNL     1     -33.518   8.368   5.147  1.00 20.00    -0.091 Cl
ENDROOT
TORSDOF 0
ENDMDL
MODEL 4
REMARK VINA RESULT:      -3.5      2.381      2.507
REMARK  0 active torsions:
REMARK  status: ('A' for Active; 'I' for Inactive)
ROOT
HETATM    1  C1  UNL     1     -34.036   6.982   6.225  1.00 20.00     0.158 C 
HETATM    2  C2  UNL     1     -33.467   7.553   5.165  1.00 20.00     0.277 C 
HETATM    3  F3  UNL     1     -33.029   8.827   5.250  1.00 20.00    -0.172 F 
HETATM    4  F4  UNL     1     -33.320   6.874   4.008  1.00 20.00    -0.172 F 
HETATM    5 CL5  UNL     1     -34.627   5.376   6.232  1.00 20.00    -0.091 Cl
ENDROOT
TORSDOF 0
ENDMDL
MODEL 5
REMARK VINA RESULT:      -3.5      1.436      1.765
REMARK  0 active torsions:
REMARK  status: ('A' for Active; 'I' for Inactive)
ROOT
HETATM    1  C1  UNL     1     -34.005   6.538   4.670  1.00 20.00     0.158 C 
HETATM    2  C2  UNL     1     -33.882   7.462   5.621  1.00 20.00     0.277 C 
HETATM    3  F3  UNL     1     -33.271   8.631   5.338  1.00 20.00    -0.172 F 
HETATM    4  F4  UNL     1     -34.361   7.244   6.864  1.00 20.00    -0.172 F 
HETATM    5 CL5  UNL     1     -34.760   5.022   4.916  1.00 20.00    -0.091 Cl
ENDROOT
TORSDOF 0
ENDMDL
MODEL 6
REMARK VINA RESULT:      -3.4      3.158      3.571
REMARK  0 active torsions:
REMARK  status: ('A' for Active; 'I' for Inactive)
ROOT
HETATM    1  C1  UNL     1     -33.596   7.204   4.772  1.00 20.00     0.158 C 
HETATM    2  C2  UNL     1     -32.722   8.115   4.350  1.00 20.00     0.277 C 
HETATM    3  F3  UNL     1     -32.375   8.151   3.046  1.00 20.00    -0.172 F 
HETATM    4  F4  UNL     1     -32.178   9.004   5.209  1.00 20.00    -0.172 F 
HETATM    5 CL5  UNL     1     -34.108   7.066   6.399  1.00 20.00    -0.091 Cl
ENDROOT
TORSDOF 0
ENDMDL
MODEL 7
REMARK VINA RESULT:      -3.4      1.910      1.920
REMARK  0 active torsions:
REMARK  status: ('A' for Active; 'I' for Inactive)
ROOT
HETATM    1  C1  UNL     1     -32.991   7.907   5.107  1.00 20.00     0.158 C 
HETATM    2  C2  UNL     1     -33.928   7.089   5.583  1.00 20.00     0.277 C 
HETATM    3  F3  UNL     1     -34.418   7.287   6.824  1.00 20.00    -0.172 F 
HETATM    4  F4  UNL     1     -34.394   6.064   4.838  1.00 20.00    -0.172 F 
HETATM    5 CL5  UNL     1     -32.299   7.751   3.550  1.00 20.00    -0.091 Cl
ENDROOT
TORSDOF 0
ENDMDL
MODEL 8
REMARK VINA RESULT:      -3.4      2.647      2.978
REMARK  0 active torsions:
REMARK  status: ('A' for Active; 'I' for Inactive)
ROOT
HETATM    1  C1  UNL     1     -34.130   6.277   4.725  1.00 20.00     0.158 C 
HETATM    2  C2  UNL     1     -33.853   5.245   3.930  1.00 20.00     0.277 C 
HETATM    3  F3  UNL     1     -33.441   5.469   2.665  1.00 20.00    -0.172 F 
HETATM    4  F4  UNL     1     -33.979   3.976   4.375  1.00 20.00    -0.172 F 
HETATM    5 CL5  UNL     1     -34.658   6.110   6.344  1.00 20.00    -0.091 Cl
ENDROOT
TORSDOF 0
ENDMDL
MODEL 9
REMARK VINA RESULT:      -3.3      2.497      2.758
REMARK  0 active torsions:
REMARK  status: ('A' for Active; 'I' for Inactive)
ROOT
HETATM    1  C1  UNL     1     -32.310   7.558   3.436  1.00 20.00     0.158 C 
HETATM    2  C2  UNL     1     -32.704   8.039   4.614  1.00 20.00     0.277 C 
HETATM    3  F3  UNL     1     -32.308   9.270   4.997  1.00 20.00    -0.172 F 
HETATM    4  F4  UNL     1     -33.496   7.310   5.429  1.00 20.00    -0.172 F 
HETATM    5 CL5  UNL     1     -32.751   6.013   2.849  1.00 20.00    -0.091 Cl
ENDROOT
TORSDOF 0
ENDMDL
