MODEL 1
REMARK VINA RESULT:      -4.2      0.000      0.000
REMARK  2 active torsions:
REMARK  status: ('A' for Active; 'I' for Inactive)
REMARK    1  A    between atoms: C4_4  and  C10_10 
REMARK    2  A    between atoms: C7_7  and  C10_10 
ROOT
HETATM    1  C1  UNL     1     -40.467  15.642   9.494  1.00 20.00     0.015 A 
HETATM    2  C2  UNL     1     -40.419  14.414   8.771  1.00 20.00     0.017 A 
HETATM    3  C3  UNL     1     -41.038  16.654   8.757  1.00 20.00    -0.021 A 
HETATM    4  C4  UNL     1     -40.956  14.537   7.509  1.00 20.00     0.002 A 
HETATM    5  C8  UNL     1     -41.268  18.062   9.149  1.00 20.00     0.056 C 
HETATM    6  S11 UNL     1     -41.514  16.126   7.199  1.00 20.00    -0.098 SA
ENDROOT
BRANCH   4   7
HETATM    7  C10 UNL     1     -41.095  13.469   6.427  1.00 20.00     0.126 C 
HETATM    8 CL12 UNL     1     -42.274  14.057   5.200  1.00 20.00    -0.119 Cl
BRANCH   7   9
HETATM    9  C7  UNL     1     -39.817  13.055   5.784  1.00 20.00     0.013 A 
HETATM   10  C5  UNL     1     -38.995  11.942   6.379  1.00 20.00     0.011 A 
HETATM   11  C6  UNL     1     -39.722  11.727   5.077  1.00 20.00    -0.012 A 
HETATM   12  C9  UNL     1     -38.958  11.612   3.803  1.00 20.00     0.010 C 
ENDBRANCH   7   9
ENDBRANCH   4   7
TORSDOF 2
ENDMDL
MODEL 2
REMARK VINA RESULT:      -4.2     11.159     13.269
REMARK  2 active torsions:
REMARK  status: ('A' for Active; 'I' for Inactive)
REMARK    1  A    between atoms: C4_4  and  C10_10 
REMARK    2  A    between atoms: C7_7  and  C10_10 
ROOT
HETATM    1  C1  UNL     1     -33.591  15.060  -4.484  1.00 20.00     0.015 A 
HETATM    2  C2  UNL     1     -33.338  15.894  -3.356  1.00 20.00     0.017 A 
HETATM    3  C3  UNL     1     -34.423  15.665  -5.399  1.00 20.00    -0.021 A 
HETATM    4  C4  UNL     1     -33.987  17.105  -3.453  1.00 20.00     0.002 A 
HETATM    5  C8  UNL     1     -34.917  15.132  -6.687  1.00 20.00     0.056 C 
HETATM    6  S11 UNL     1     -34.897  17.233  -4.898  1.00 20.00    -0.098 SA
ENDROOT
BRANCH   4   7
HETATM    7  C10 UNL     1     -33.978  18.270  -2.467  1.00 20.00     0.126 C 
HETATM    8 CL12 UNL     1     -35.677  18.817  -2.222  1.00 20.00    -0.119 Cl
BRANCH   7   9
HETATM    9  C7  UNL     1     -33.317  17.986  -1.164  1.00 20.00     0.013 A 
HETATM   10  C5  UNL     1     -31.863  18.325  -0.961  1.00 20.00     0.011 A 
HETATM   11  C6  UNL     1     -32.928  19.119  -0.250  1.00 20.00    -0.012 A 
HETATM   12  C9  UNL     1     -33.102  18.985   1.224  1.00 20.00     0.010 C 
ENDBRANCH   7   9
ENDBRANCH   4   7
TORSDOF 2
ENDMDL
MODEL 3
REMARK VINA RESULT:      -4.2      1.286      1.535
REMARK  2 active torsions:
REMARK  status: ('A' for Active; 'I' for Inactive)
REMARK    1  A    between atoms: C4_4  and  C10_10 
REMARK    2  A    between atoms: C7_7  and  C10_10 
ROOT
HETATM    1  C1  UNL     1     -40.655  15.536   9.402  1.00 20.00     0.015 A 
HETATM    2  C2  UNL     1     -40.347  14.984   8.125  1.00 20.00     0.017 A 
HETATM    3  C3  UNL     1     -41.814  15.011   9.927  1.00 20.00    -0.021 A 
HETATM    4  C4  UNL     1     -41.283  14.057   7.723  1.00 20.00     0.002 A 
HETATM    5  C8  UNL     1     -42.464  15.323  11.219  1.00 20.00     0.056 C 
HETATM    6  S11 UNL     1     -42.527  13.856   8.883  1.00 20.00    -0.098 SA
ENDROOT
BRANCH   4   7
HETATM    7  C10 UNL     1     -41.321  13.243   6.433  1.00 20.00     0.126 C 
HETATM    8 CL12 UNL     1     -42.415  14.077   5.270  1.00 20.00    -0.119 Cl
BRANCH   7   9
HETATM    9  C7  UNL     1     -39.992  12.977   5.817  1.00 20.00     0.013 A 
HETATM   10  C5  UNL     1     -39.079  11.934   6.406  1.00 20.00     0.011 A 
HETATM   11  C6  UNL     1     -39.745  11.688   5.077  1.00 20.00    -0.012 A 
HETATM   12  C9  UNL     1     -38.939  11.687   3.825  1.00 20.00     0.010 C 
ENDBRANCH   7   9
ENDBRANCH   4   7
TORSDOF 2
ENDMDL
MODEL 4
REMARK VINA RESULT:      -4.0     11.070     11.969
REMARK  2 active torsions:
REMARK  status: ('A' for Active; 'I' for Inactive)
REMARK    1  A    between atoms: C4_4  and  C10_10 
REMARK    2  A    between atoms: C7_7  and  C10_10 
ROOT
HETATM    1  C1  UNL     1     -31.102  18.675   0.288  1.00 20.00     0.015 A 
HETATM    2  C2  UNL     1     -31.753  18.337  -0.935  1.00 20.00     0.017 A 
HETATM    3  C3  UNL     1     -31.994  18.808   1.328  1.00 20.00    -0.021 A 
HETATM    4  C4  UNL     1     -33.117  18.224  -0.781  1.00 20.00     0.002 A 
HETATM    5  C8  UNL     1     -31.716  19.148   2.741  1.00 20.00     0.056 C 
HETATM    6  S11 UNL     1     -33.609  18.525   0.832  1.00 20.00    -0.098 SA
ENDROOT
BRANCH   4   7
HETATM    7  C10 UNL     1     -34.167  17.879  -1.833  1.00 20.00     0.126 C 
HETATM    8 CL12 UNL     1     -35.327  19.252  -1.945  1.00 20.00    -0.119 Cl
BRANCH   7   9
HETATM    9  C7  UNL     1     -33.622  17.530  -3.174  1.00 20.00     0.013 A 
HETATM   10  C5  UNL     1     -33.252  16.106  -3.495  1.00 20.00     0.011 A 
HETATM   11  C6  UNL     1     -34.456  16.735  -4.146  1.00 20.00    -0.012 A 
HETATM   12  C9  UNL     1     -34.433  17.068  -5.598  1.00 20.00     0.010 C 
ENDBRANCH   7   9
ENDBRANCH   4   7
TORSDOF 2
ENDMDL
MODEL 5
REMARK VINA RESULT:      -3.5     12.376     13.937
REMARK  2 active torsions:
REMARK  status: ('A' for Active; 'I' for Inactive)
REMARK    1  A    between atoms: C4_4  and  C10_10 
REMARK    2  A    between atoms: C7_7  and  C10_10 
ROOT
HETATM    1  C1  UNL     1     -36.234  15.543  -6.359  1.00 20.00     0.015 A 
HETATM    2  C2  UNL     1     -35.534  15.100  -5.198  1.00 20.00     0.017 A 
HETATM    3  C3  UNL     1     -35.836  16.799  -6.755  1.00 20.00    -0.021 A 
HETATM    4  C4  UNL     1     -34.627  16.036  -4.753  1.00 20.00     0.002 A 
HETATM    5  C8  UNL     1     -36.318  17.599  -7.901  1.00 20.00     0.056 C 
HETATM    6  S11 UNL     1     -34.622  17.442  -5.731  1.00 20.00    -0.098 SA
ENDROOT
BRANCH   4   7
HETATM    7  C10 UNL     1     -33.686  15.953  -3.554  1.00 20.00     0.126 C 
HETATM    8 CL12 UNL     1     -32.230  15.013  -4.043  1.00 20.00    -0.119 Cl
BRANCH   7   9
HETATM    9  C7  UNL     1     -33.301  17.265  -2.965  1.00 20.00     0.013 A 
HETATM   10  C5  UNL     1     -34.301  18.060  -2.167  1.00 20.00     0.011 A 
HETATM   11  C6  UNL     1     -33.136  17.405  -1.474  1.00 20.00    -0.012 A 
HETATM   12  C9  UNL     1     -32.031  18.236  -0.919  1.00 20.00     0.010 C 
ENDBRANCH   7   9
ENDBRANCH   4   7
TORSDOF 2
ENDMDL
MODEL 6
REMARK VINA RESULT:      -3.5     12.718     13.625
REMARK  2 active torsions:
REMARK  status: ('A' for Active; 'I' for Inactive)
REMARK    1  A    between atoms: C4_4  and  C10_10 
REMARK    2  A    between atoms: C7_7  and  C10_10 
ROOT
HETATM    1  C1  UNL     1     -33.214  16.725  -2.322  1.00 20.00     0.015 A 
HETATM    2  C2  UNL     1     -33.814  16.056  -3.429  1.00 20.00     0.017 A 
HETATM    3  C3  UNL     1     -33.047  18.070  -2.560  1.00 20.00    -0.021 A 
HETATM    4  C4  UNL     1     -34.082  16.917  -4.470  1.00 20.00     0.002 A 
HETATM    5  C8  UNL     1     -32.467  19.098  -1.668  1.00 20.00     0.056 C 
HETATM    6  S11 UNL     1     -33.612  18.524  -4.112  1.00 20.00    -0.098 SA
ENDROOT
BRANCH   4   7
HETATM    7  C10 UNL     1     -34.716  16.604  -5.822  1.00 20.00     0.126 C 
HETATM    8 CL12 UNL     1     -33.928  15.128  -6.489  1.00 20.00    -0.119 Cl
BRANCH   7   9
HETATM    9  C7  UNL     1     -36.198  16.455  -5.803  1.00 20.00     0.013 A 
HETATM   10  C5  UNL     1     -37.047  17.421  -5.019  1.00 20.00     0.011 A 
HETATM   11  C6  UNL     1     -37.067  17.452  -6.525  1.00 20.00    -0.012 A 
HETATM   12  C9  UNL     1     -38.275  16.991  -7.266  1.00 20.00     0.010 C 
ENDBRANCH   7   9
ENDBRANCH   4   7
TORSDOF 2
ENDMDL
MODEL 7
REMARK VINA RESULT:      -3.5     12.594     14.046
REMARK  2 active torsions:
REMARK  status: ('A' for Active; 'I' for Inactive)
REMARK    1  A    between atoms: C4_4  and  C10_10 
REMARK    2  A    between atoms: C7_7  and  C10_10 
ROOT
HETATM    1  C1  UNL     1     -33.417  15.508  -3.453  1.00 20.00     0.015 A 
HETATM    2  C2  UNL     1     -33.908  15.304  -4.776  1.00 20.00     0.017 A 
HETATM    3  C3  UNL     1     -33.584  16.808  -3.034  1.00 20.00    -0.021 A 
HETATM    4  C4  UNL     1     -34.431  16.458  -5.317  1.00 20.00     0.002 A 
HETATM    5  C8  UNL     1     -33.210  17.413  -1.737  1.00 20.00     0.056 C 
HETATM    6  S11 UNL     1     -34.329  17.779  -4.232  1.00 20.00    -0.098 SA
ENDROOT
BRANCH   4   7
HETATM    7  C10 UNL     1     -35.052  16.665  -6.695  1.00 20.00     0.126 C 
HETATM    8 CL12 UNL     1     -33.993  15.872  -7.918  1.00 20.00    -0.119 Cl
BRANCH   7   9
HETATM    9  C7  UNL     1     -36.460  16.198  -6.827  1.00 20.00     0.013 A 
HETATM   10  C5  UNL     1     -37.404  16.298  -5.658  1.00 20.00     0.011 A 
HETATM   11  C6  UNL     1     -37.588  17.197  -6.852  1.00 20.00    -0.012 A 
HETATM   12  C9  UNL     1     -38.745  16.995  -7.769  1.00 20.00     0.010 C 
ENDBRANCH   7   9
ENDBRANCH   4   7
TORSDOF 2
ENDMDL
MODEL 8
REMARK VINA RESULT:      -3.4     11.303     13.030
REMARK  2 active torsions:
REMARK  status: ('A' for Active; 'I' for Inactive)
REMARK    1  A    between atoms: C4_4  and  C10_10 
REMARK    2  A    between atoms: C7_7  and  C10_10 
ROOT
HETATM    1  C1  UNL     1     -35.038  18.946  -1.877  1.00 20.00     0.015 A 
HETATM    2  C2  UNL     1     -35.117  18.385  -3.185  1.00 20.00     0.017 A 
HETATM    3  C3  UNL     1     -34.111  18.300  -1.091  1.00 20.00    -0.021 A 
HETATM    4  C4  UNL     1     -34.245  17.331  -3.348  1.00 20.00     0.002 A 
HETATM    5  C8  UNL     1     -33.738  18.579   0.312  1.00 20.00     0.056 C 
HETATM    6  S11 UNL     1     -33.338  17.021  -1.929  1.00 20.00    -0.098 SA
ENDROOT
BRANCH   4   7
HETATM    7  C10 UNL     1     -34.020  16.468  -4.586  1.00 20.00     0.126 C 
HETATM    8 CL12 UNL     1     -33.882  14.751  -4.061  1.00 20.00    -0.119 Cl
BRANCH   7   9
HETATM    9  C7  UNL     1     -35.048  16.618  -5.653  1.00 20.00     0.013 A 
HETATM   10  C5  UNL     1     -34.837  17.599  -6.776  1.00 20.00     0.011 A 
HETATM   11  C6  UNL     1     -34.769  16.119  -7.048  1.00 20.00    -0.012 A 
HETATM   12  C9  UNL     1     -35.845  15.452  -7.832  1.00 20.00     0.010 C 
ENDBRANCH   7   9
ENDBRANCH   4   7
TORSDOF 2
ENDMDL
MODEL 9
REMARK VINA RESULT:      -3.4     11.270     12.344
REMARK  2 active torsions:
REMARK  status: ('A' for Active; 'I' for Inactive)
REMARK    1  A    between atoms: C4_4  and  C10_10 
REMARK    2  A    between atoms: C7_7  and  C10_10 
ROOT
HETATM    1  C1  UNL     1     -33.632  18.654   0.289  1.00 20.00     0.015 A 
HETATM    2  C2  UNL     1     -34.570  18.314  -0.729  1.00 20.00     0.017 A 
HETATM    3  C3  UNL     1     -32.344  18.709  -0.191  1.00 20.00    -0.021 A 
HETATM    4  C4  UNL     1     -33.961  18.122  -1.949  1.00 20.00     0.002 A 
HETATM    5  C8  UNL     1     -31.099  19.026   0.543  1.00 20.00     0.056 C 
HETATM    6  S11 UNL     1     -32.266  18.351  -1.865  1.00 20.00    -0.098 SA
ENDROOT
BRANCH   4   7
HETATM    7  C10 UNL     1     -34.602  17.750  -3.283  1.00 20.00     0.126 C 
HETATM    8 CL12 UNL     1     -34.872  19.263  -4.222  1.00 20.00    -0.119 Cl
BRANCH   7   9
HETATM    9  C7  UNL     1     -33.845  16.751  -4.088  1.00 20.00     0.013 A 
HETATM   10  C5  UNL     1     -33.717  15.330  -3.607  1.00 20.00     0.011 A 
HETATM   11  C6  UNL     1     -34.577  15.645  -4.803  1.00 20.00    -0.012 A 
HETATM   12  C9  UNL     1     -34.147  15.222  -6.165  1.00 20.00     0.010 C 
ENDBRANCH   7   9
ENDBRANCH   4   7
TORSDOF 2
ENDMDL
