MODEL 1
REMARK VINA RESULT:      -4.1      0.000      0.000
REMARK  2 active torsions:
REMARK  status: ('A' for Active; 'I' for Inactive)
REMARK    1  A    between atoms: C3_3  and  C8_8 
REMARK    2  A    between atoms: C7_7  and  C8_8 
ROOT
HETATM    1  C1  UNL     1     -33.303  15.578  -3.776  1.00 20.00     0.018 A 
HETATM    2  C2  UNL     1     -33.831  14.774  -4.827  1.00 20.00     0.032 A 
HETATM    3  C3  UNL     1     -33.894  16.821  -3.727  1.00 20.00     0.003 A 
HETATM    4  C4  UNL     1     -34.805  15.435  -5.544  1.00 20.00     0.075 A 
HETATM    5  S9  UNL     1     -35.079  17.016  -4.948  1.00 20.00    -0.081 SA
HETATM    6 CL10 UNL     1     -35.700  14.852  -6.885  1.00 20.00    -0.076 Cl
ENDROOT
BRANCH   3   7
HETATM    7  C8  UNL     1     -33.617  17.968  -2.760  1.00 20.00     0.126 C 
HETATM    8 CL11 UNL     1     -35.184  18.762  -2.360  1.00 20.00    -0.119 Cl
BRANCH   7   9
HETATM    9  C7  UNL     1     -32.883  17.583  -1.522  1.00 20.00     0.009 A 
HETATM   10  C5  UNL     1     -31.910  18.539  -0.890  1.00 20.00     0.007 A 
HETATM   11  C6  UNL     1     -33.216  18.238  -0.211  1.00 20.00     0.007 A 
ENDBRANCH   7   9
ENDBRANCH   3   7
TORSDOF 2
ENDMDL
MODEL 2
REMARK VINA RESULT:      -3.6     11.703     13.552
REMARK  2 active torsions:
REMARK  status: ('A' for Active; 'I' for Inactive)
REMARK    1  A    between atoms: C3_3  and  C8_8 
REMARK    2  A    between atoms: C7_7  and  C8_8 
ROOT
HETATM    1  C1  UNL     1     -40.314  14.432   8.663  1.00 20.00     0.018 A 
HETATM    2  C2  UNL     1     -40.371  15.649   9.402  1.00 20.00     0.032 A 
HETATM    3  C3  UNL     1     -40.893  14.553   7.419  1.00 20.00     0.003 A 
HETATM    4  C4  UNL     1     -40.993  16.654   8.694  1.00 20.00     0.075 A 
HETATM    5  S9  UNL     1     -41.504  16.130   7.146  1.00 20.00    -0.081 SA
HETATM    6 CL10 UNL     1     -41.279  18.268   9.195  1.00 20.00    -0.076 Cl
ENDROOT
BRANCH   3   7
HETATM    7  C8  UNL     1     -41.038  13.494   6.330  1.00 20.00     0.126 C 
HETATM    8 CL11 UNL     1     -41.937  14.221   4.949  1.00 20.00    -0.119 Cl
BRANCH   7   9
HETATM    9  C7  UNL     1     -39.758  12.886   5.871  1.00 20.00     0.009 A 
HETATM   10  C5  UNL     1     -39.595  11.391   5.848  1.00 20.00     0.007 A 
HETATM   11  C6  UNL     1     -39.695  12.156   4.558  1.00 20.00     0.007 A 
ENDBRANCH   7   9
ENDBRANCH   3   7
TORSDOF 2
ENDMDL
MODEL 3
REMARK VINA RESULT:      -3.5      2.002      5.051
REMARK  2 active torsions:
REMARK  status: ('A' for Active; 'I' for Inactive)
REMARK    1  A    between atoms: C3_3  and  C8_8 
REMARK    2  A    between atoms: C7_7  and  C8_8 
ROOT
HETATM    1  C1  UNL     1     -33.510  16.512  -3.219  1.00 20.00     0.018 A 
HETATM    2  C2  UNL     1     -33.371  16.964  -1.875  1.00 20.00     0.032 A 
HETATM    3  C3  UNL     1     -34.402  17.280  -3.934  1.00 20.00     0.003 A 
HETATM    4  C4  UNL     1     -34.164  18.060  -1.613  1.00 20.00     0.075 A 
HETATM    5  S9  UNL     1     -35.070  18.539  -2.985  1.00 20.00    -0.081 SA
HETATM    6 CL10 UNL     1     -34.311  18.922  -0.139  1.00 20.00    -0.076 Cl
ENDROOT
BRANCH   3   7
HETATM    7  C8  UNL     1     -34.831  17.130  -5.391  1.00 20.00     0.126 C 
HETATM    8 CL11 UNL     1     -34.171  18.526  -6.320  1.00 20.00    -0.119 Cl
BRANCH   7   9
HETATM    9  C7  UNL     1     -34.451  15.839  -6.029  1.00 20.00     0.009 A 
HETATM   10  C5  UNL     1     -35.499  14.979  -6.679  1.00 20.00     0.007 A 
HETATM   11  C6  UNL     1     -34.483  15.695  -7.525  1.00 20.00     0.007 A 
ENDBRANCH   7   9
ENDBRANCH   3   7
TORSDOF 2
ENDMDL
MODEL 4
REMARK VINA RESULT:      -3.5     11.975     13.269
REMARK  2 active torsions:
REMARK  status: ('A' for Active; 'I' for Inactive)
REMARK    1  A    between atoms: C3_3  and  C8_8 
REMARK    2  A    between atoms: C7_7  and  C8_8 
ROOT
HETATM    1  C1  UNL     1     -40.286  15.311   8.161  1.00 20.00     0.018 A 
HETATM    2  C2  UNL     1     -40.755  16.656   8.179  1.00 20.00     0.032 A 
HETATM    3  C3  UNL     1     -40.913  14.556   7.195  1.00 20.00     0.003 A 
HETATM    4  C4  UNL     1     -41.725  16.878   7.225  1.00 20.00     0.075 A 
HETATM    5  S9  UNL     1     -42.065  15.468   6.314  1.00 20.00    -0.081 SA
HETATM    6 CL10 UNL     1     -42.560  18.338   6.896  1.00 20.00    -0.076 Cl
ENDROOT
BRANCH   3   7
HETATM    7  C8  UNL     1     -40.702  13.084   6.852  1.00 20.00     0.126 C 
HETATM    8 CL11 UNL     1     -42.314  12.284   6.775  1.00 20.00    -0.119 Cl
BRANCH   7   9
HETATM    9  C7  UNL     1     -39.923  12.834   5.607  1.00 20.00     0.009 A 
HETATM   10  C5  UNL     1     -38.574  12.174   5.678  1.00 20.00     0.007 A 
HETATM   11  C6  UNL     1     -39.744  11.432   5.095  1.00 20.00     0.007 A 
ENDBRANCH   7   9
ENDBRANCH   3   7
TORSDOF 2
ENDMDL
MODEL 5
REMARK VINA RESULT:      -3.4     12.211     13.963
REMARK  2 active torsions:
REMARK  status: ('A' for Active; 'I' for Inactive)
REMARK    1  A    between atoms: C3_3  and  C8_8 
REMARK    2  A    between atoms: C7_7  and  C8_8 
ROOT
HETATM    1  C1  UNL     1     -40.329  15.348   7.766  1.00 20.00     0.018 A 
HETATM    2  C2  UNL     1     -40.723  16.081   8.921  1.00 20.00     0.032 A 
HETATM    3  C3  UNL     1     -41.277  14.422   7.390  1.00 20.00     0.003 A 
HETATM    4  C4  UNL     1     -41.959  15.686   9.387  1.00 20.00     0.075 A 
HETATM    5  S9  UNL     1     -42.636  14.438   8.431  1.00 20.00    -0.081 SA
HETATM    6 CL10 UNL     1     -42.813  16.293  10.743  1.00 20.00    -0.076 Cl
ENDROOT
BRANCH   3   7
HETATM    7  C8  UNL     1     -41.240  13.446   6.218  1.00 20.00     0.126 C 
HETATM    8 CL11 UNL     1     -42.037  14.229   4.805  1.00 20.00    -0.119 Cl
BRANCH   7   9
HETATM    9  C7  UNL     1     -39.883  12.949   5.856  1.00 20.00     0.009 A 
HETATM   10  C5  UNL     1     -39.572  11.479   5.923  1.00 20.00     0.007 A 
HETATM   11  C6  UNL     1     -39.677  12.166   4.590  1.00 20.00     0.007 A 
ENDBRANCH   7   9
ENDBRANCH   3   7
TORSDOF 2
ENDMDL
MODEL 6
REMARK VINA RESULT:      -3.4      2.983      5.591
REMARK  2 active torsions:
REMARK  status: ('A' for Active; 'I' for Inactive)
REMARK    1  A    between atoms: C3_3  and  C8_8 
REMARK    2  A    between atoms: C7_7  and  C8_8 
ROOT
HETATM    1  C1  UNL     1     -34.139  18.150  -0.608  1.00 20.00     0.018 A 
HETATM    2  C2  UNL     1     -33.784  18.413   0.747  1.00 20.00     0.032 A 
HETATM    3  C3  UNL     1     -33.042  18.151  -1.440  1.00 20.00     0.003 A 
HETATM    4  C4  UNL     1     -32.428  18.605   0.898  1.00 20.00     0.075 A 
HETATM    5  S9  UNL     1     -31.590  18.469  -0.589  1.00 20.00    -0.081 SA
HETATM    6 CL10 UNL     1     -31.570  18.946   2.342  1.00 20.00    -0.076 Cl
ENDROOT
BRANCH   3   7
HETATM    7  C8  UNL     1     -32.992  17.914  -2.947  1.00 20.00     0.126 C 
HETATM    8 CL11 UNL     1     -33.199  16.150  -3.250  1.00 20.00    -0.119 Cl
BRANCH   7   9
HETATM    9  C7  UNL     1     -33.971  18.709  -3.741  1.00 20.00     0.009 A 
HETATM   10  C5  UNL     1     -33.584  19.261  -5.085  1.00 20.00     0.007 A 
HETATM   11  C6  UNL     1     -34.574  18.134  -4.992  1.00 20.00     0.007 A 
ENDBRANCH   7   9
ENDBRANCH   3   7
TORSDOF 2
ENDMDL
MODEL 7
REMARK VINA RESULT:      -3.4      1.789      5.138
REMARK  2 active torsions:
REMARK  status: ('A' for Active; 'I' for Inactive)
REMARK    1  A    between atoms: C3_3  and  C8_8 
REMARK    2  A    between atoms: C7_7  and  C8_8 
ROOT
HETATM    1  C1  UNL     1     -33.369  16.376  -3.179  1.00 20.00     0.018 A 
HETATM    2  C2  UNL     1     -33.398  16.985  -1.892  1.00 20.00     0.032 A 
HETATM    3  C3  UNL     1     -34.211  17.004  -4.070  1.00 20.00     0.003 A 
HETATM    4  C4  UNL     1     -34.264  18.056  -1.847  1.00 20.00     0.075 A 
HETATM    5  S9  UNL     1     -35.035  18.323  -3.352  1.00 20.00    -0.081 SA
HETATM    6 CL10 UNL     1     -34.611  19.071  -0.510  1.00 20.00    -0.076 Cl
ENDROOT
BRANCH   3   7
HETATM    7  C8  UNL     1     -34.470  16.665  -5.535  1.00 20.00     0.126 C 
HETATM    8 CL11 UNL     1     -33.936  14.969  -5.826  1.00 20.00    -0.119 Cl
BRANCH   7   9
HETATM    9  C7  UNL     1     -35.875  16.866  -5.988  1.00 20.00     0.009 A 
HETATM   10  C5  UNL     1     -36.158  17.515  -7.314  1.00 20.00     0.007 A 
HETATM   11  C6  UNL     1     -36.428  16.049  -7.122  1.00 20.00     0.007 A 
ENDBRANCH   7   9
ENDBRANCH   3   7
TORSDOF 2
ENDMDL
MODEL 8
REMARK VINA RESULT:      -3.1      4.837      6.716
REMARK  2 active torsions:
REMARK  status: ('A' for Active; 'I' for Inactive)
REMARK    1  A    between atoms: C3_3  and  C8_8 
REMARK    2  A    between atoms: C7_7  and  C8_8 
ROOT
HETATM    1  C1  UNL     1     -32.622  18.581   2.056  1.00 20.00     0.018 A 
HETATM    2  C2  UNL     1     -33.202  18.224   0.805  1.00 20.00     0.032 A 
HETATM    3  C3  UNL     1     -31.275  18.847   1.945  1.00 20.00     0.003 A 
HETATM    4  C4  UNL     1     -32.276  18.228  -0.215  1.00 20.00     0.075 A 
HETATM    5  S9  UNL     1     -30.715  18.663   0.337  1.00 20.00    -0.081 SA
HETATM    6 CL10 UNL     1     -32.533  17.862  -1.870  1.00 20.00    -0.076 Cl
ENDROOT
BRANCH   3   7
HETATM    7  C8  UNL     1     -30.295  19.260   3.039  1.00 20.00     0.126 C 
HETATM    8 CL11 UNL     1     -31.123  19.101   4.630  1.00 20.00    -0.119 Cl
BRANCH   7   9
HETATM    9  C7  UNL     1     -29.001  18.521   3.035  1.00 20.00     0.009 A 
HETATM   10  C5  UNL     1     -27.706  19.260   3.226  1.00 20.00     0.007 A 
HETATM   11  C6  UNL     1     -28.222  18.354   4.310  1.00 20.00     0.007 A 
ENDBRANCH   7   9
ENDBRANCH   3   7
TORSDOF 2
ENDMDL
MODEL 9
REMARK VINA RESULT:      -3.1     12.304     13.366
REMARK  2 active torsions:
REMARK  status: ('A' for Active; 'I' for Inactive)
REMARK    1  A    between atoms: C3_3  and  C8_8 
REMARK    2  A    between atoms: C7_7  and  C8_8 
ROOT
HETATM    1  C1  UNL     1     -41.927  14.147   5.770  1.00 20.00     0.018 A 
HETATM    2  C2  UNL     1     -41.310  13.487   4.669  1.00 20.00     0.032 A 
HETATM    3  C3  UNL     1     -41.292  13.873   6.961  1.00 20.00     0.003 A 
HETATM    4  C4  UNL     1     -40.227  12.731   5.061  1.00 20.00     0.075 A 
HETATM    5  S9  UNL     1     -39.957  12.821   6.749  1.00 20.00    -0.081 SA
HETATM    6 CL10 UNL     1     -39.200  11.777   4.074  1.00 20.00    -0.076 Cl
ENDROOT
BRANCH   3   7
HETATM    7  C8  UNL     1     -41.635  14.378   8.360  1.00 20.00     0.126 C 
HETATM    8 CL11 UNL     1     -42.991  13.382   9.003  1.00 20.00    -0.119 Cl
BRANCH   7   9
HETATM    9  C7  UNL     1     -40.493  14.404   9.316  1.00 20.00     0.009 A 
HETATM   10  C5  UNL     1     -40.319  15.564  10.257  1.00 20.00     0.007 A 
HETATM   11  C6  UNL     1     -40.735  14.221  10.789  1.00 20.00     0.007 A 
ENDBRANCH   7   9
ENDBRANCH   3   7
TORSDOF 2
ENDMDL
