MODEL 1
REMARK VINA RESULT:      -3.8      0.000      0.000
REMARK  2 active torsions:
REMARK  status: ('A' for Active; 'I' for Inactive)
REMARK    1  A    between atoms: C3_3  and  C8_8 
REMARK    2  A    between atoms: C7_7  and  C8_8 
ROOT
HETATM    1  C1  UNL     1     -31.861  18.301  -1.261  1.00 20.00     0.018 A 
HETATM    2  C2  UNL     1     -31.266  18.661  -0.018  1.00 20.00     0.032 A 
HETATM    3  C3  UNL     1     -33.219  18.098  -1.145  1.00 20.00    -0.001 A 
HETATM    4  C4  UNL     1     -32.191  18.720   1.002  1.00 20.00     0.075 A 
HETATM    5  S9  UNL     1     -33.770  18.343   0.458  1.00 20.00    -0.081 SA
HETATM    6 CL10 UNL     1     -31.918  19.111   2.647  1.00 20.00    -0.076 Cl
ENDROOT
BRANCH   3   7
HETATM    7  C8  UNL     1     -34.207  17.708  -2.221  1.00 20.00     0.102 C 
HETATM    8 BR11 UNL     1     -35.395  19.224  -2.583  1.00 20.00    -0.085 Br
BRANCH   7   9
HETATM    9  C7  UNL     1     -33.563  17.249  -3.483  1.00 20.00     0.005 A 
HETATM   10  C5  UNL     1     -33.054  15.839  -3.603  1.00 20.00     0.006 A 
HETATM   11  C6  UNL     1     -34.267  16.268  -4.379  1.00 20.00     0.006 A 
ENDBRANCH   7   9
ENDBRANCH   3   7
TORSDOF 2
ENDMDL
MODEL 2
REMARK VINA RESULT:      -3.8      3.690      5.251
REMARK  2 active torsions:
REMARK  status: ('A' for Active; 'I' for Inactive)
REMARK    1  A    between atoms: C3_3  and  C8_8 
REMARK    2  A    between atoms: C7_7  and  C8_8 
ROOT
HETATM    1  C1  UNL     1     -33.305  15.979  -3.284  1.00 20.00     0.018 A 
HETATM    2  C2  UNL     1     -33.625  15.135  -4.387  1.00 20.00     0.032 A 
HETATM    3  C3  UNL     1     -33.930  17.204  -3.371  1.00 20.00    -0.001 A 
HETATM    4  C4  UNL     1     -34.484  15.747  -5.274  1.00 20.00     0.075 A 
HETATM    5  S9  UNL     1     -34.899  17.332  -4.777  1.00 20.00    -0.081 SA
HETATM    6 CL10 UNL     1     -35.125  15.105  -6.727  1.00 20.00    -0.076 Cl
ENDROOT
BRANCH   3   7
HETATM    7  C8  UNL     1     -33.852  18.370  -2.412  1.00 20.00     0.102 C 
HETATM    8 BR11 UNL     1     -35.642  19.133  -2.180  1.00 20.00    -0.085 Br
BRANCH   7   9
HETATM    9  C7  UNL     1     -33.271  18.013  -1.087  1.00 20.00     0.005 A 
HETATM   10  C5  UNL     1     -31.833  18.328  -0.781  1.00 20.00     0.006 A 
HETATM   11  C6  UNL     1     -32.932  19.090  -0.095  1.00 20.00     0.006 A 
ENDBRANCH   7   9
ENDBRANCH   3   7
TORSDOF 2
ENDMDL
MODEL 3
REMARK VINA RESULT:      -3.6     12.267     12.831
REMARK  2 active torsions:
REMARK  status: ('A' for Active; 'I' for Inactive)
REMARK    1  A    between atoms: C3_3  and  C8_8 
REMARK    2  A    between atoms: C7_7  and  C8_8 
ROOT
HETATM    1  C1  UNL     1     -40.447  14.407   8.205  1.00 20.00     0.018 A 
HETATM    2  C2  UNL     1     -40.888  14.759   9.513  1.00 20.00     0.032 A 
HETATM    3  C3  UNL     1     -41.409  13.713   7.504  1.00 20.00    -0.001 A 
HETATM    4  C4  UNL     1     -42.171  14.322   9.762  1.00 20.00     0.075 A 
HETATM    5  S9  UNL     1     -42.837  13.490   8.421  1.00 20.00    -0.081 SA
HETATM    6 CL10 UNL     1     -43.091  14.524  11.193  1.00 20.00    -0.076 Cl
ENDROOT
BRANCH   3   7
HETATM    7  C8  UNL     1     -41.335  13.166   6.097  1.00 20.00     0.102 C 
HETATM    8 BR11 UNL     1     -42.299  14.369   4.887  1.00 20.00    -0.085 Br
BRANCH   7   9
HETATM    9  C7  UNL     1     -39.942  12.958   5.611  1.00 20.00     0.005 A 
HETATM   10  C5  UNL     1     -39.115  11.822   6.145  1.00 20.00     0.006 A 
HETATM   11  C6  UNL     1     -39.616  11.785   4.728  1.00 20.00     0.006 A 
ENDBRANCH   7   9
ENDBRANCH   3   7
TORSDOF 2
ENDMDL
MODEL 4
REMARK VINA RESULT:      -3.6      3.251      4.892
REMARK  2 active torsions:
REMARK  status: ('A' for Active; 'I' for Inactive)
REMARK    1  A    between atoms: C3_3  and  C8_8 
REMARK    2  A    between atoms: C7_7  and  C8_8 
ROOT
HETATM    1  C1  UNL     1     -33.303  16.628  -2.282  1.00 20.00     0.018 A 
HETATM    2  C2  UNL     1     -33.663  16.102  -3.556  1.00 20.00     0.032 A 
HETATM    3  C3  UNL     1     -33.663  17.951  -2.148  1.00 20.00    -0.001 A 
HETATM    4  C4  UNL     1     -34.285  17.043  -4.348  1.00 20.00     0.075 A 
HETATM    5  S9  UNL     1     -34.432  18.553  -3.554  1.00 20.00    -0.081 SA
HETATM    6 CL10 UNL     1     -34.881  16.846  -5.942  1.00 20.00    -0.076 Cl
ENDROOT
BRANCH   3   7
HETATM    7  C8  UNL     1     -33.461  18.865  -0.961  1.00 20.00     0.102 C 
HETATM    8 BR11 UNL     1     -35.198  19.249  -0.141  1.00 20.00    -0.085 Br
BRANCH   7   9
HETATM    9  C7  UNL     1     -32.522  18.319   0.058  1.00 20.00     0.005 A 
HETATM   10  C5  UNL     1     -31.038  18.486  -0.111  1.00 20.00     0.006 A 
HETATM   11  C6  UNL     1     -31.762  19.248   0.963  1.00 20.00     0.006 A 
ENDBRANCH   7   9
ENDBRANCH   3   7
TORSDOF 2
ENDMDL
MODEL 5
REMARK VINA RESULT:      -3.6     11.384     12.023
REMARK  2 active torsions:
REMARK  status: ('A' for Active; 'I' for Inactive)
REMARK    1  A    between atoms: C3_3  and  C8_8 
REMARK    2  A    between atoms: C7_7  and  C8_8 
ROOT
HETATM    1  C1  UNL     1     -40.307  14.319   8.588  1.00 20.00     0.018 A 
HETATM    2  C2  UNL     1     -40.345  15.500   9.385  1.00 20.00     0.032 A 
HETATM    3  C3  UNL     1     -40.931  14.495   7.373  1.00 20.00    -0.001 A 
HETATM    4  C4  UNL     1     -40.997  16.533   8.748  1.00 20.00     0.075 A 
HETATM    5  S9  UNL     1     -41.560  16.078   7.196  1.00 20.00    -0.081 SA
HETATM    6 CL10 UNL     1     -41.274  18.120   9.333  1.00 20.00    -0.076 Cl
ENDROOT
BRANCH   3   7
HETATM    7  C8  UNL     1     -41.105  13.496   6.252  1.00 20.00     0.102 C 
HETATM    8 BR11 UNL     1     -42.227  14.287   4.853  1.00 20.00    -0.085 Br
BRANCH   7   9
HETATM    9  C7  UNL     1     -39.818  13.023   5.670  1.00 20.00     0.005 A 
HETATM   10  C5  UNL     1     -39.061  11.898   6.319  1.00 20.00     0.006 A 
HETATM   11  C6  UNL     1     -39.739  11.682   4.995  1.00 20.00     0.006 A 
ENDBRANCH   7   9
ENDBRANCH   3   7
TORSDOF 2
ENDMDL
MODEL 6
REMARK VINA RESULT:      -3.5      2.546      3.353
REMARK  2 active torsions:
REMARK  status: ('A' for Active; 'I' for Inactive)
REMARK    1  A    between atoms: C3_3  and  C8_8 
REMARK    2  A    between atoms: C7_7  and  C8_8 
ROOT
HETATM    1  C1  UNL     1     -33.523  16.543  -3.252  1.00 20.00     0.018 A 
HETATM    2  C2  UNL     1     -33.268  17.015  -1.932  1.00 20.00     0.032 A 
HETATM    3  C3  UNL     1     -34.498  17.282  -3.886  1.00 20.00    -0.001 A 
HETATM    4  C4  UNL     1     -34.058  18.097  -1.607  1.00 20.00     0.075 A 
HETATM    5  S9  UNL     1     -35.100  18.539  -2.892  1.00 20.00    -0.081 SA
HETATM    6 CL10 UNL     1     -34.084  18.975  -0.136  1.00 20.00    -0.076 Cl
ENDROOT
BRANCH   3   7
HETATM    7  C8  UNL     1     -35.052  17.106  -5.282  1.00 20.00     0.102 C 
HETATM    8 BR11 UNL     1     -34.341  18.518  -6.439  1.00 20.00    -0.085 Br
BRANCH   7   9
HETATM    9  C7  UNL     1     -34.767  15.768  -5.871  1.00 20.00     0.005 A 
HETATM   10  C5  UNL     1     -35.612  14.582  -5.501  1.00 20.00     0.006 A 
HETATM   11  C6  UNL     1     -35.707  15.170  -6.880  1.00 20.00     0.006 A 
ENDBRANCH   7   9
ENDBRANCH   3   7
TORSDOF 2
ENDMDL
MODEL 7
REMARK VINA RESULT:      -3.4      3.518      4.809
REMARK  2 active torsions:
REMARK  status: ('A' for Active; 'I' for Inactive)
REMARK    1  A    between atoms: C3_3  and  C8_8 
REMARK    2  A    between atoms: C7_7  and  C8_8 
ROOT
HETATM    1  C1  UNL     1     -33.920  15.396  -4.599  1.00 20.00     0.018 A 
HETATM    2  C2  UNL     1     -33.311  15.685  -3.344  1.00 20.00     0.032 A 
HETATM    3  C3  UNL     1     -34.457  16.521  -5.185  1.00 20.00    -0.001 A 
HETATM    4  C4  UNL     1     -33.405  17.020  -3.019  1.00 20.00     0.075 A 
HETATM    5  S9  UNL     1     -34.225  17.919  -4.224  1.00 20.00    -0.081 SA
HETATM    6 CL10 UNL     1     -32.814  17.803  -1.614  1.00 20.00    -0.076 Cl
ENDROOT
BRANCH   3   7
HETATM    7  C8  UNL     1     -35.183  16.638  -6.506  1.00 20.00     0.102 C 
HETATM    8 BR11 UNL     1     -34.082  15.841  -7.918  1.00 20.00    -0.085 Br
BRANCH   7   9
HETATM    9  C7  UNL     1     -36.537  16.016  -6.499  1.00 20.00     0.005 A 
HETATM   10  C5  UNL     1     -37.490  16.290  -5.369  1.00 20.00     0.006 A 
HETATM   11  C6  UNL     1     -37.759  16.860  -6.734  1.00 20.00     0.006 A 
ENDBRANCH   7   9
ENDBRANCH   3   7
TORSDOF 2
ENDMDL
MODEL 8
REMARK VINA RESULT:      -3.3     11.504     12.076
REMARK  2 active torsions:
REMARK  status: ('A' for Active; 'I' for Inactive)
REMARK    1  A    between atoms: C3_3  and  C8_8 
REMARK    2  A    between atoms: C7_7  and  C8_8 
ROOT
HETATM    1  C1  UNL     1     -42.207  15.453   6.080  1.00 20.00     0.018 A 
HETATM    2  C2  UNL     1     -42.075  16.841   6.375  1.00 20.00     0.032 A 
HETATM    3  C3  UNL     1     -41.386  14.676   6.867  1.00 20.00    -0.001 A 
HETATM    4  C4  UNL     1     -41.159  17.072   7.378  1.00 20.00     0.075 A 
HETATM    5  S9  UNL     1     -40.462  15.619   7.958  1.00 20.00    -0.081 SA
HETATM    6 CL10 UNL     1     -40.690  18.578   8.046  1.00 20.00    -0.076 Cl
ENDROOT
BRANCH   3   7
HETATM    7  C8  UNL     1     -41.229  13.173   6.866  1.00 20.00     0.102 C 
HETATM    8 BR11 UNL     1     -42.991  12.342   7.079  1.00 20.00    -0.085 Br
BRANCH   7   9
HETATM    9  C7  UNL     1     -40.558  12.645   5.645  1.00 20.00     0.005 A 
HETATM   10  C5  UNL     1     -39.059  12.553   5.584  1.00 20.00     0.006 A 
HETATM   11  C6  UNL     1     -39.885  11.301   5.672  1.00 20.00     0.006 A 
ENDBRANCH   7   9
ENDBRANCH   3   7
TORSDOF 2
ENDMDL
MODEL 9
REMARK VINA RESULT:      -3.2      2.999      3.858
REMARK  2 active torsions:
REMARK  status: ('A' for Active; 'I' for Inactive)
REMARK    1  A    between atoms: C3_3  and  C8_8 
REMARK    2  A    between atoms: C7_7  and  C8_8 
ROOT
HETATM    1  C1  UNL     1     -33.309  16.448  -3.164  1.00 20.00     0.018 A 
HETATM    2  C2  UNL     1     -33.388  17.137  -1.920  1.00 20.00     0.032 A 
HETATM    3  C3  UNL     1     -34.216  16.930  -4.082  1.00 20.00    -0.001 A 
HETATM    4  C4  UNL     1     -34.353  18.121  -1.933  1.00 20.00     0.075 A 
HETATM    5  S9  UNL     1     -35.158  18.210  -3.442  1.00 20.00    -0.081 SA
HETATM    6 CL10 UNL     1     -34.785  19.186  -0.663  1.00 20.00    -0.076 Cl
ENDROOT
BRANCH   3   7
HETATM    7  C8  UNL     1     -34.449  16.474  -5.504  1.00 20.00     0.102 C 
HETATM    8 BR11 UNL     1     -35.669  14.940  -5.496  1.00 20.00    -0.085 Br
BRANCH   7   9
HETATM    9  C7  UNL     1     -34.978  17.545  -6.394  1.00 20.00     0.005 A 
HETATM   10  C5  UNL     1     -34.086  18.672  -6.835  1.00 20.00     0.006 A 
HETATM   11  C6  UNL     1     -34.527  17.631  -7.825  1.00 20.00     0.006 A 
ENDBRANCH   7   9
ENDBRANCH   3   7
TORSDOF 2
ENDMDL
