MODEL 1
REMARK VINA RESULT:      -4.1      0.000      0.000
REMARK  2 active torsions:
REMARK  status: ('A' for Active; 'I' for Inactive)
REMARK    1  A    between atoms: C4_4  and  C9_9 
REMARK    2  A    between atoms: C7_7  and  C9_9 
ROOT
HETATM    1  C1  UNL     1     -33.729  14.920  -4.555  1.00 20.00     0.015 A 
HETATM    2  C2  UNL     1     -33.302  15.723  -3.459  1.00 20.00     0.017 A 
HETATM    3  C3  UNL     1     -34.548  15.614  -5.418  1.00 20.00    -0.021 A 
HETATM    4  C4  UNL     1     -33.812  17.001  -3.525  1.00 20.00    -0.002 A 
HETATM    5  C8  UNL     1     -35.191  15.137  -6.662  1.00 20.00     0.056 C 
HETATM    6  S10 UNL     1     -34.801  17.228  -4.904  1.00 20.00    -0.099 SA
ENDROOT
BRANCH   4   7
HETATM    7  C9  UNL     1     -33.599  18.150  -2.565  1.00 20.00     0.102 C 
HETATM    8 BR11 UNL     1     -35.323  19.000  -2.186  1.00 20.00    -0.085 Br
BRANCH   7   9
HETATM    9  C7  UNL     1     -32.935  17.748  -1.293  1.00 20.00     0.005 A 
HETATM   10  C5  UNL     1     -31.758  18.528  -0.773  1.00 20.00     0.006 A 
HETATM   11  C6  UNL     1     -33.082  18.598  -0.061  1.00 20.00     0.006 A 
ENDBRANCH   7   9
ENDBRANCH   4   7
TORSDOF 2
ENDMDL
MODEL 2
REMARK VINA RESULT:      -3.9      2.067      5.388
REMARK  2 active torsions:
REMARK  status: ('A' for Active; 'I' for Inactive)
REMARK    1  A    between atoms: C4_4  and  C9_9 
REMARK    2  A    between atoms: C7_7  and  C9_9 
ROOT
HETATM    1  C1  UNL     1     -31.221  18.889   0.035  1.00 20.00     0.015 A 
HETATM    2  C2  UNL     1     -31.774  18.409  -1.187  1.00 20.00     0.017 A 
HETATM    3  C3  UNL     1     -32.133  18.851   1.066  1.00 20.00    -0.021 A 
HETATM    4  C4  UNL     1     -33.088  18.022  -1.043  1.00 20.00    -0.002 A 
HETATM    5  C8  UNL     1     -31.947  19.259   2.476  1.00 20.00     0.056 C 
HETATM    6  S10 UNL     1     -33.650  18.238   0.559  1.00 20.00    -0.099 SA
ENDROOT
BRANCH   4   7
HETATM    7  C9  UNL     1     -34.023  17.461  -2.091  1.00 20.00     0.102 C 
HETATM    8 BR11 UNL     1     -35.222  18.881  -2.711  1.00 20.00    -0.085 Br
BRANCH   7   9
HETATM    9  C7  UNL     1     -33.319  16.842  -3.249  1.00 20.00     0.005 A 
HETATM   10  C5  UNL     1     -33.579  15.407  -3.616  1.00 20.00     0.006 A 
HETATM   11  C6  UNL     1     -34.075  16.513  -4.506  1.00 20.00     0.006 A 
ENDBRANCH   7   9
ENDBRANCH   4   7
TORSDOF 2
ENDMDL
MODEL 3
REMARK VINA RESULT:      -3.6     11.746     13.498
REMARK  2 active torsions:
REMARK  status: ('A' for Active; 'I' for Inactive)
REMARK    1  A    between atoms: C4_4  and  C9_9 
REMARK    2  A    between atoms: C7_7  and  C9_9 
ROOT
HETATM    1  C1  UNL     1     -40.393  15.698   9.388  1.00 20.00     0.015 A 
HETATM    2  C2  UNL     1     -40.342  14.472   8.665  1.00 20.00     0.017 A 
HETATM    3  C3  UNL     1     -41.036  16.689   8.680  1.00 20.00    -0.021 A 
HETATM    4  C4  UNL     1     -40.948  14.572   7.433  1.00 20.00    -0.002 A 
HETATM    5  C8  UNL     1     -41.292  18.090   9.081  1.00 20.00     0.056 C 
HETATM    6  S10 UNL     1     -41.576  16.139   7.150  1.00 20.00    -0.099 SA
ENDROOT
BRANCH   4   7
HETATM    7  C9  UNL     1     -41.107  13.504   6.373  1.00 20.00     0.102 C 
HETATM    8 BR11 UNL     1     -42.118  14.240   4.865  1.00 20.00    -0.085 Br
BRANCH   7   9
HETATM    9  C7  UNL     1     -39.813  12.940   5.897  1.00 20.00     0.005 A 
HETATM   10  C5  UNL     1     -39.588  11.453   5.897  1.00 20.00     0.006 A 
HETATM   11  C6  UNL     1     -39.748  12.189   4.595  1.00 20.00     0.006 A 
ENDBRANCH   7   9
ENDBRANCH   4   7
TORSDOF 2
ENDMDL
MODEL 4
REMARK VINA RESULT:      -3.6      2.274      2.890
REMARK  2 active torsions:
REMARK  status: ('A' for Active; 'I' for Inactive)
REMARK    1  A    between atoms: C4_4  and  C9_9 
REMARK    2  A    between atoms: C7_7  and  C9_9 
ROOT
HETATM    1  C1  UNL     1     -33.627  17.034  -3.009  1.00 20.00     0.015 A 
HETATM    2  C2  UNL     1     -32.981  17.387  -1.789  1.00 20.00     0.017 A 
HETATM    3  C3  UNL     1     -34.683  17.871  -3.296  1.00 20.00    -0.021 A 
HETATM    4  C4  UNL     1     -33.568  18.480  -1.191  1.00 20.00    -0.002 A 
HETATM    5  C8  UNL     1     -35.595  17.836  -4.460  1.00 20.00     0.056 C 
HETATM    6  S10 UNL     1     -34.891  19.076  -2.097  1.00 20.00    -0.099 SA
ENDROOT
BRANCH   4   7
HETATM    7  C9  UNL     1     -33.184  19.163   0.104  1.00 20.00     0.102 C 
HETATM    8 BR11 UNL     1     -34.754  19.260   1.270  1.00 20.00    -0.085 Br
BRANCH   7   9
HETATM    9  C7  UNL     1     -32.056  18.499   0.815  1.00 20.00     0.005 A 
HETATM   10  C5  UNL     1     -30.763  19.235   1.038  1.00 20.00     0.006 A 
HETATM   11  C6  UNL     1     -31.671  18.942   2.200  1.00 20.00     0.006 A 
ENDBRANCH   7   9
ENDBRANCH   4   7
TORSDOF 2
ENDMDL
MODEL 5
REMARK VINA RESULT:      -3.5      1.870      5.015
REMARK  2 active torsions:
REMARK  status: ('A' for Active; 'I' for Inactive)
REMARK    1  A    between atoms: C4_4  and  C9_9 
REMARK    2  A    between atoms: C7_7  and  C9_9 
ROOT
HETATM    1  C1  UNL     1     -33.248  17.023  -1.883  1.00 20.00     0.015 A 
HETATM    2  C2  UNL     1     -33.457  16.555  -3.212  1.00 20.00     0.017 A 
HETATM    3  C3  UNL     1     -34.045  18.107  -1.585  1.00 20.00    -0.021 A 
HETATM    4  C4  UNL     1     -34.406  17.298  -3.879  1.00 20.00    -0.002 A 
HETATM    5  C8  UNL     1     -34.122  18.872  -0.321  1.00 20.00     0.056 C 
HETATM    6  S10 UNL     1     -35.040  18.555  -2.904  1.00 20.00    -0.099 SA
ENDROOT
BRANCH   4   7
HETATM    7  C9  UNL     1     -34.913  17.126  -5.294  1.00 20.00     0.102 C 
HETATM    8 BR11 UNL     1     -34.348  18.662  -6.371  1.00 20.00    -0.085 Br
BRANCH   7   9
HETATM    9  C7  UNL     1     -34.467  15.858  -5.936  1.00 20.00     0.005 A 
HETATM   10  C5  UNL     1     -35.474  14.928  -6.557  1.00 20.00     0.006 A 
HETATM   11  C6  UNL     1     -34.528  15.705  -7.431  1.00 20.00     0.006 A 
ENDBRANCH   7   9
ENDBRANCH   4   7
TORSDOF 2
ENDMDL
MODEL 6
REMARK VINA RESULT:      -3.4      2.140      5.081
REMARK  2 active torsions:
REMARK  status: ('A' for Active; 'I' for Inactive)
REMARK    1  A    between atoms: C4_4  and  C9_9 
REMARK    2  A    between atoms: C7_7  and  C9_9 
ROOT
HETATM    1  C1  UNL     1     -33.332  17.026  -2.094  1.00 20.00     0.015 A 
HETATM    2  C2  UNL     1     -33.331  16.119  -3.192  1.00 20.00     0.017 A 
HETATM    3  C3  UNL     1     -34.151  18.111  -2.320  1.00 20.00    -0.021 A 
HETATM    4  C4  UNL     1     -34.149  16.543  -4.215  1.00 20.00    -0.002 A 
HETATM    5  C8  UNL     1     -34.419  19.263  -1.432  1.00 20.00     0.056 C 
HETATM    6  S10 UNL     1     -34.914  18.031  -3.851  1.00 20.00    -0.099 SA
ENDROOT
BRANCH   4   7
HETATM    7  C9  UNL     1     -34.424  15.870  -5.542  1.00 20.00     0.102 C 
HETATM    8 BR11 UNL     1     -35.742  14.445  -5.280  1.00 20.00    -0.085 Br
BRANCH   7   9
HETATM    9  C7  UNL     1     -34.887  16.809  -6.602  1.00 20.00     0.005 A 
HETATM   10  C5  UNL     1     -34.153  16.894  -7.912  1.00 20.00     0.006 A 
HETATM   11  C6  UNL     1     -35.525  16.279  -7.856  1.00 20.00     0.006 A 
ENDBRANCH   7   9
ENDBRANCH   4   7
TORSDOF 2
ENDMDL
MODEL 7
REMARK VINA RESULT:      -3.4     12.095     13.141
REMARK  2 active torsions:
REMARK  status: ('A' for Active; 'I' for Inactive)
REMARK    1  A    between atoms: C4_4  and  C9_9 
REMARK    2  A    between atoms: C7_7  and  C9_9 
ROOT
HETATM    1  C1  UNL     1     -40.811  17.067   7.687  1.00 20.00     0.015 A 
HETATM    2  C2  UNL     1     -40.334  15.736   7.856  1.00 20.00     0.017 A 
HETATM    3  C3  UNL     1     -41.848  17.134   6.782  1.00 20.00    -0.021 A 
HETATM    4  C4  UNL     1     -41.023  14.836   7.075  1.00 20.00    -0.002 A 
HETATM    5  C8  UNL     1     -42.606  18.323   6.337  1.00 20.00     0.056 C 
HETATM    6  S10 UNL     1     -42.241  15.595   6.142  1.00 20.00    -0.099 SA
ENDROOT
BRANCH   4   7
HETATM    7  C9  UNL     1     -40.827  13.339   6.967  1.00 20.00     0.102 C 
HETATM    8 BR11 UNL     1     -42.578  12.463   6.907  1.00 20.00    -0.085 Br
BRANCH   7   9
HETATM    9  C7  UNL     1     -40.008  12.930   5.792  1.00 20.00     0.005 A 
HETATM   10  C5  UNL     1     -38.725  12.169   5.990  1.00 20.00     0.006 A 
HETATM   11  C6  UNL     1     -39.924  11.481   5.396  1.00 20.00     0.006 A 
ENDBRANCH   7   9
ENDBRANCH   4   7
TORSDOF 2
ENDMDL
MODEL 8
REMARK VINA RESULT:      -3.4     12.690     14.311
REMARK  2 active torsions:
REMARK  status: ('A' for Active; 'I' for Inactive)
REMARK    1  A    between atoms: C4_4  and  C9_9 
REMARK    2  A    between atoms: C7_7  and  C9_9 
ROOT
HETATM    1  C1  UNL     1     -40.769  14.953   9.773  1.00 20.00     0.015 A 
HETATM    2  C2  UNL     1     -40.345  14.472   8.501  1.00 20.00     0.017 A 
HETATM    3  C3  UNL     1     -42.101  14.692  10.007  1.00 20.00    -0.021 A 
HETATM    4  C4  UNL     1     -41.368  13.863   7.811  1.00 20.00    -0.002 A 
HETATM    5  C8  UNL     1     -42.910  15.028  11.199  1.00 20.00     0.056 C 
HETATM    6  S10 UNL     1     -42.834  13.871   8.695  1.00 20.00    -0.099 SA
ENDROOT
BRANCH   4   7
HETATM    7  C9  UNL     1     -41.330  13.226   6.439  1.00 20.00     0.102 C 
HETATM    8 BR11 UNL     1     -42.388  14.311   5.197  1.00 20.00    -0.085 Br
BRANCH   7   9
HETATM    9  C7  UNL     1     -39.951  13.037   5.908  1.00 20.00     0.005 A 
HETATM   10  C5  UNL     1     -39.235  11.729   6.109  1.00 20.00     0.006 A 
HETATM   11  C6  UNL     1     -39.710  12.124   4.737  1.00 20.00     0.006 A 
ENDBRANCH   7   9
ENDBRANCH   4   7
TORSDOF 2
ENDMDL
MODEL 9
REMARK VINA RESULT:      -3.4      2.181      5.276
REMARK  2 active torsions:
REMARK  status: ('A' for Active; 'I' for Inactive)
REMARK    1  A    between atoms: C4_4  and  C9_9 
REMARK    2  A    between atoms: C7_7  and  C9_9 
ROOT
HETATM    1  C1  UNL     1     -34.994  18.897  -1.819  1.00 20.00     0.015 A 
HETATM    2  C2  UNL     1     -35.197  18.436  -3.151  1.00 20.00     0.017 A 
HETATM    3  C3  UNL     1     -34.031  18.165  -1.159  1.00 20.00    -0.021 A 
HETATM    4  C4  UNL     1     -34.381  17.370  -3.459  1.00 20.00    -0.002 A 
HETATM    5  C8  UNL     1     -33.537  18.330   0.226  1.00 20.00     0.056 C 
HETATM    6  S10 UNL     1     -33.376  16.928  -2.146  1.00 20.00    -0.099 SA
ENDROOT
BRANCH   4   7
HETATM    7  C9  UNL     1     -34.289  16.600  -4.758  1.00 20.00     0.102 C 
HETATM    8 BR11 UNL     1     -33.487  14.847  -4.412  1.00 20.00    -0.085 Br
BRANCH   7   9
HETATM    9  C7  UNL     1     -35.600  16.437  -5.448  1.00 20.00     0.005 A 
HETATM   10  C5  UNL     1     -35.708  16.662  -6.931  1.00 20.00     0.006 A 
HETATM   11  C6  UNL     1     -35.829  15.272  -6.371  1.00 20.00     0.006 A 
ENDBRANCH   7   9
ENDBRANCH   4   7
TORSDOF 2
ENDMDL
