MODEL 1
REMARK VINA RESULT:      -4.0      0.000      0.000
REMARK  2 active torsions:
REMARK  status: ('A' for Active; 'I' for Inactive)
REMARK    1  A    between atoms: C4_4  and  C10_10 
REMARK    2  A    between atoms: C7_7  and  C10_10 
ROOT
HETATM    1  C1  UNL     1     -34.141  14.686  -4.693  1.00 20.00     0.015 A 
HETATM    2  C2  UNL     1     -33.634  15.580  -3.706  1.00 20.00     0.017 A 
HETATM    3  C3  UNL     1     -35.041  15.302  -5.535  1.00 20.00    -0.021 A 
HETATM    4  C4  UNL     1     -34.165  16.845  -3.832  1.00 20.00    -0.002 A 
HETATM    5  C8  UNL     1     -35.780  14.720  -6.676  1.00 20.00     0.056 C 
HETATM    6  S11 UNL     1     -35.271  16.951  -5.135  1.00 20.00    -0.099 SA
ENDROOT
BRANCH   4   7
HETATM    7  C10 UNL     1     -33.887  18.070  -2.990  1.00 20.00     0.102 C 
HETATM    8 BR12 UNL     1     -32.684  19.262  -3.974  1.00 20.00    -0.085 Br
BRANCH   7   9
HETATM    9  C7  UNL     1     -33.324  17.753  -1.647  1.00 20.00     0.009 A 
HETATM   10  C5  UNL     1     -32.188  18.570  -1.091  1.00 20.00     0.011 A 
HETATM   11  C6  UNL     1     -33.564  18.685  -0.488  1.00 20.00    -0.013 A 
HETATM   12  C9  UNL     1     -33.834  18.135   0.869  1.00 20.00     0.010 C 
ENDBRANCH   7   9
ENDBRANCH   4   7
TORSDOF 2
ENDMDL
MODEL 2
REMARK VINA RESULT:      -3.8      1.999      5.415
REMARK  2 active torsions:
REMARK  status: ('A' for Active; 'I' for Inactive)
REMARK    1  A    between atoms: C4_4  and  C10_10 
REMARK    2  A    between atoms: C7_7  and  C10_10 
ROOT
HETATM    1  C1  UNL     1     -33.693  18.166   0.400  1.00 20.00     0.015 A 
HETATM    2  C2  UNL     1     -34.047  17.752  -0.916  1.00 20.00     0.017 A 
HETATM    3  C3  UNL     1     -32.393  18.617   0.469  1.00 20.00    -0.021 A 
HETATM    4  C4  UNL     1     -33.004  17.903  -1.803  1.00 20.00    -0.002 A 
HETATM    5  C8  UNL     1     -31.658  19.128   1.646  1.00 20.00     0.056 C 
HETATM    6  S11 UNL     1     -31.605  18.541  -1.048  1.00 20.00    -0.099 SA
ENDROOT
BRANCH   4   7
HETATM    7  C10 UNL     1     -32.972  17.584  -3.282  1.00 20.00     0.102 C 
HETATM    8 BR12 UNL     1     -33.093  19.254  -4.299  1.00 20.00    -0.085 Br
BRANCH   7   9
HETATM    9  C7  UNL     1     -34.038  16.635  -3.708  1.00 20.00     0.009 A 
HETATM   10  C5  UNL     1     -34.403  16.510  -5.164  1.00 20.00     0.011 A 
HETATM   11  C6  UNL     1     -33.678  15.386  -4.470  1.00 20.00    -0.013 A 
HETATM   12  C9  UNL     1     -34.384  14.107  -4.182  1.00 20.00     0.010 C 
ENDBRANCH   7   9
ENDBRANCH   4   7
TORSDOF 2
ENDMDL
MODEL 3
REMARK VINA RESULT:      -3.8     11.198     13.567
REMARK  2 active torsions:
REMARK  status: ('A' for Active; 'I' for Inactive)
REMARK    1  A    between atoms: C4_4  and  C10_10 
REMARK    2  A    between atoms: C7_7  and  C10_10 
ROOT
HETATM    1  C1  UNL     1     -40.391  15.884   9.310  1.00 20.00     0.015 A 
HETATM    2  C2  UNL     1     -40.363  14.673   8.561  1.00 20.00     0.017 A 
HETATM    3  C3  UNL     1     -41.017  16.902   8.625  1.00 20.00    -0.021 A 
HETATM    4  C4  UNL     1     -40.969  14.811   7.332  1.00 20.00    -0.002 A 
HETATM    5  C8  UNL     1     -41.247  18.298   9.057  1.00 20.00     0.056 C 
HETATM    6  S11 UNL     1     -41.568  16.396   7.085  1.00 20.00    -0.099 SA
ENDROOT
BRANCH   4   7
HETATM    7  C10 UNL     1     -41.148  13.770   6.249  1.00 20.00     0.102 C 
HETATM    8 BR12 UNL     1     -42.422  12.416   6.868  1.00 20.00    -0.085 Br
BRANCH   7   9
HETATM    9  C7  UNL     1     -39.872  13.129   5.824  1.00 20.00     0.009 A 
HETATM   10  C5  UNL     1     -39.465  11.797   6.399  1.00 20.00     0.011 A 
HETATM   11  C6  UNL     1     -39.896  11.896   4.959  1.00 20.00    -0.013 A 
HETATM   12  C9  UNL     1     -38.898  11.730   3.867  1.00 20.00     0.010 C 
ENDBRANCH   7   9
ENDBRANCH   4   7
TORSDOF 2
ENDMDL
MODEL 4
REMARK VINA RESULT:      -3.7      1.609      5.048
REMARK  2 active torsions:
REMARK  status: ('A' for Active; 'I' for Inactive)
REMARK    1  A    between atoms: C4_4  and  C10_10 
REMARK    2  A    between atoms: C7_7  and  C10_10 
ROOT
HETATM    1  C1  UNL     1     -33.370  17.330  -1.478  1.00 20.00     0.015 A 
HETATM    2  C2  UNL     1     -33.331  16.782  -2.792  1.00 20.00     0.017 A 
HETATM    3  C3  UNL     1     -34.251  18.385  -1.383  1.00 20.00    -0.021 A 
HETATM    4  C4  UNL     1     -34.185  17.438  -3.651  1.00 20.00    -0.002 A 
HETATM    5  C8  UNL     1     -34.573  19.211  -0.199  1.00 20.00     0.056 C 
HETATM    6  S11 UNL     1     -35.027  18.711  -2.873  1.00 20.00    -0.099 SA
ENDROOT
BRANCH   4   7
HETATM    7  C10 UNL     1     -34.437  17.166  -5.118  1.00 20.00     0.102 C 
HETATM    8 BR12 UNL     1     -34.941  18.840  -6.001  1.00 20.00    -0.085 Br
BRANCH   7   9
HETATM    9  C7  UNL     1     -35.469  16.118  -5.358  1.00 20.00     0.009 A 
HETATM   10  C5  UNL     1     -35.451  15.317  -6.634  1.00 20.00     0.011 A 
HETATM   11  C6  UNL     1     -35.088  14.660  -5.327  1.00 20.00    -0.013 A 
HETATM   12  C9  UNL     1     -36.006  13.662  -4.711  1.00 20.00     0.010 C 
ENDBRANCH   7   9
ENDBRANCH   4   7
TORSDOF 2
ENDMDL
MODEL 5
REMARK VINA RESULT:      -3.6      2.107      5.482
REMARK  2 active torsions:
REMARK  status: ('A' for Active; 'I' for Inactive)
REMARK    1  A    between atoms: C4_4  and  C10_10 
REMARK    2  A    between atoms: C7_7  and  C10_10 
ROOT
HETATM    1  C1  UNL     1     -33.289  17.015  -1.918  1.00 20.00     0.015 A 
HETATM    2  C2  UNL     1     -33.650  16.725  -3.266  1.00 20.00     0.017 A 
HETATM    3  C3  UNL     1     -34.005  18.075  -1.407  1.00 20.00    -0.021 A 
HETATM    4  C4  UNL     1     -34.629  17.575  -3.733  1.00 20.00    -0.002 A 
HETATM    5  C8  UNL     1     -33.923  18.676  -0.058  1.00 20.00     0.056 C 
HETATM    6  S11 UNL     1     -35.107  18.717  -2.549  1.00 20.00    -0.099 SA
ENDROOT
BRANCH   4   7
HETATM    7  C10 UNL     1     -35.281  17.600  -5.097  1.00 20.00     0.102 C 
HETATM    8 BR12 UNL     1     -37.200  17.932  -4.882  1.00 20.00    -0.085 Br
BRANCH   7   9
HETATM    9  C7  UNL     1     -35.052  16.358  -5.888  1.00 20.00     0.009 A 
HETATM   10  C5  UNL     1     -36.041  15.939  -6.944  1.00 20.00     0.011 A 
HETATM   11  C6  UNL     1     -34.681  16.448  -7.346  1.00 20.00    -0.013 A 
HETATM   12  C9  UNL     1     -33.673  15.513  -7.918  1.00 20.00     0.010 C 
ENDBRANCH   7   9
ENDBRANCH   4   7
TORSDOF 2
ENDMDL
MODEL 6
REMARK VINA RESULT:      -3.4     12.080     14.488
REMARK  2 active torsions:
REMARK  status: ('A' for Active; 'I' for Inactive)
REMARK    1  A    between atoms: C4_4  and  C10_10 
REMARK    2  A    between atoms: C7_7  and  C10_10 
ROOT
HETATM    1  C1  UNL     1     -40.486  15.323  10.891  1.00 20.00     0.015 A 
HETATM    2  C2  UNL     1     -40.321  14.584   9.684  1.00 20.00     0.017 A 
HETATM    3  C3  UNL     1     -41.006  16.578  10.662  1.00 20.00    -0.021 A 
HETATM    4  C4  UNL     1     -40.723  15.301   8.579  1.00 20.00    -0.002 A 
HETATM    5  C8  UNL     1     -41.321  17.637  11.646  1.00 20.00     0.056 C 
HETATM    6  S11 UNL     1     -41.295  16.860   8.999  1.00 20.00    -0.099 SA
ENDROOT
BRANCH   4   7
HETATM    7  C10 UNL     1     -40.711  14.878   7.127  1.00 20.00     0.102 C 
HETATM    8 BR12 UNL     1     -42.410  15.393   6.298  1.00 20.00    -0.085 Br
BRANCH   7   9
HETATM    9  C7  UNL     1     -40.455  13.424   6.934  1.00 20.00     0.009 A 
HETATM   10  C5  UNL     1     -41.519  12.541   6.333  1.00 20.00     0.011 A 
HETATM   11  C6  UNL     1     -40.275  12.866   5.546  1.00 20.00    -0.013 A 
HETATM   12  C9  UNL     1     -39.255  11.811   5.292  1.00 20.00     0.010 C 
ENDBRANCH   7   9
ENDBRANCH   4   7
TORSDOF 2
ENDMDL
MODEL 7
REMARK VINA RESULT:      -3.4      2.972      3.915
REMARK  2 active torsions:
REMARK  status: ('A' for Active; 'I' for Inactive)
REMARK    1  A    between atoms: C4_4  and  C10_10 
REMARK    2  A    between atoms: C7_7  and  C10_10 
ROOT
HETATM    1  C1  UNL     1     -38.388  17.797  -5.226  1.00 20.00     0.015 A 
HETATM    2  C2  UNL     1     -37.056  17.661  -4.739  1.00 20.00     0.017 A 
HETATM    3  C3  UNL     1     -38.533  17.266  -6.489  1.00 20.00    -0.021 A 
HETATM    4  C4  UNL     1     -36.234  17.031  -5.648  1.00 20.00    -0.002 A 
HETATM    5  C8  UNL     1     -39.749  17.210  -7.329  1.00 20.00     0.056 C 
HETATM    6  S11 UNL     1     -37.069  16.607  -7.083  1.00 20.00    -0.099 SA
ENDROOT
BRANCH   4   7
HETATM    7  C10 UNL     1     -34.765  16.698  -5.516  1.00 20.00     0.102 C 
HETATM    8 BR12 UNL     1     -34.265  15.440  -6.932  1.00 20.00    -0.085 Br
BRANCH   7   9
HETATM    9  C7  UNL     1     -34.398  16.151  -4.179  1.00 20.00     0.009 A 
HETATM   10  C5  UNL     1     -33.071  15.466  -3.980  1.00 20.00     0.011 A 
HETATM   11  C6  UNL     1     -33.322  16.816  -3.360  1.00 20.00    -0.013 A 
HETATM   12  C9  UNL     1     -33.479  16.944  -1.885  1.00 20.00     0.010 C 
ENDBRANCH   7   9
ENDBRANCH   4   7
TORSDOF 2
ENDMDL
MODEL 8
REMARK VINA RESULT:      -3.3     25.151     25.964
REMARK  2 active torsions:
REMARK  status: ('A' for Active; 'I' for Inactive)
REMARK    1  A    between atoms: C4_4  and  C10_10 
REMARK    2  A    between atoms: C7_7  and  C10_10 
ROOT
HETATM    1  C1  UNL     1     -28.351  -1.715  10.405  1.00 20.00     0.015 A 
HETATM    2  C2  UNL     1     -26.983  -1.977  10.105  1.00 20.00     0.017 A 
HETATM    3  C3  UNL     1     -28.921  -2.725  11.149  1.00 20.00    -0.021 A 
HETATM    4  C4  UNL     1     -26.560  -3.178  10.631  1.00 20.00    -0.002 A 
HETATM    5  C8  UNL     1     -30.307  -2.825  11.655  1.00 20.00     0.056 C 
HETATM    6  S11 UNL     1     -27.809  -3.984  11.482  1.00 20.00    -0.099 SA
ENDROOT
BRANCH   4   7
HETATM    7  C10 UNL     1     -25.191  -3.816  10.539  1.00 20.00     0.102 C 
HETATM    8 BR12 UNL     1     -24.408  -3.908  12.332  1.00 20.00    -0.085 Br
BRANCH   7   9
HETATM    9  C7  UNL     1     -24.270  -3.113   9.602  1.00 20.00     0.009 A 
HETATM   10  C5  UNL     1     -22.821  -2.920   9.967  1.00 20.00     0.011 A 
HETATM   11  C6  UNL     1     -23.201  -3.884   8.872  1.00 20.00    -0.013 A 
HETATM   12  C9  UNL     1     -22.887  -3.563   7.452  1.00 20.00     0.010 C 
ENDBRANCH   7   9
ENDBRANCH   4   7
TORSDOF 2
ENDMDL
MODEL 9
REMARK VINA RESULT:      -3.2     11.141     12.848
REMARK  2 active torsions:
REMARK  status: ('A' for Active; 'I' for Inactive)
REMARK    1  A    between atoms: C4_4  and  C10_10 
REMARK    2  A    between atoms: C7_7  and  C10_10 
ROOT
HETATM    1  C1  UNL     1     -38.684  11.886   5.980  1.00 20.00     0.015 A 
HETATM    2  C2  UNL     1     -39.249  12.548   7.109  1.00 20.00     0.017 A 
HETATM    3  C3  UNL     1     -39.394  12.136   4.826  1.00 20.00    -0.021 A 
HETATM    4  C4  UNL     1     -40.368  13.279   6.774  1.00 20.00    -0.002 A 
HETATM    5  C8  UNL     1     -39.132  11.637   3.458  1.00 20.00     0.056 C 
HETATM    6  S11 UNL     1     -40.735  13.164   5.105  1.00 20.00    -0.099 SA
ENDROOT
BRANCH   4   7
HETATM    7  C10 UNL     1     -41.248  14.118   7.674  1.00 20.00     0.102 C 
HETATM    8 BR12 UNL     1     -42.184  15.453   6.587  1.00 20.00    -0.085 Br
BRANCH   7   9
HETATM    9  C7  UNL     1     -40.506  14.776   8.784  1.00 20.00     0.009 A 
HETATM   10  C5  UNL     1     -40.941  16.127   9.290  1.00 20.00     0.011 A 
HETATM   11  C6  UNL     1     -41.139  14.903  10.146  1.00 20.00    -0.013 A 
HETATM   12  C9  UNL     1     -40.316  14.708  11.372  1.00 20.00     0.010 C 
ENDBRANCH   7   9
ENDBRANCH   4   7
TORSDOF 2
ENDMDL
