MODEL 1
REMARK VINA RESULT:      -5.0      0.000      0.000
REMARK  1 active torsions:
REMARK  status: ('A' for Active; 'I' for Inactive)
REMARK    1  A    between atoms: C1_1  and  C2_2 
ROOT
HETATM    1  C1  UNL     1     -33.535   7.304   4.709  1.00 20.00     0.384 C 
HETATM    2  F3  UNL     1     -32.958   7.503   5.924  1.00 20.00    -0.181 F 
HETATM    3  F4  UNL     1     -34.376   8.356   4.517  1.00 20.00    -0.181 F 
HETATM    4 CL6  UNL     1     -32.275   7.340   3.459  1.00 20.00    -0.042 Cl
ENDROOT
BRANCH   1   5
HETATM    5  C2  UNL     1     -34.347   6.014   4.745  1.00 20.00     0.336 C 
HETATM    6  F5  UNL     1     -35.621   6.320   4.364  1.00 20.00    -0.199 F 
HETATM    7 CL7  UNL     1     -34.422   5.322   6.385  1.00 20.00    -0.058 Cl
HETATM    8 CL8  UNL     1     -33.716   4.801   3.602  1.00 20.00    -0.058 Cl
ENDBRANCH   1   5
TORSDOF 1
ENDMDL
MODEL 2
REMARK VINA RESULT:      -4.7      1.269      1.669
REMARK  1 active torsions:
REMARK  status: ('A' for Active; 'I' for Inactive)
REMARK    1  A    between atoms: C1_1  and  C2_2 
ROOT
HETATM    1  C1  UNL     1     -33.498   7.236   4.645  1.00 20.00     0.384 C 
HETATM    2  F3  UNL     1     -32.858   7.449   5.825  1.00 20.00    -0.181 F 
HETATM    3  F4  UNL     1     -34.347   8.287   4.484  1.00 20.00    -0.181 F 
HETATM    4 CL6  UNL     1     -32.305   7.255   3.330  1.00 20.00    -0.042 Cl
ENDROOT
BRANCH   1   5
HETATM    5  C2  UNL     1     -34.309   5.948   4.739  1.00 20.00     0.336 C 
HETATM    6  F5  UNL     1     -33.698   5.021   3.946  1.00 20.00    -0.199 F 
HETATM    7 CL7  UNL     1     -35.972   6.165   4.139  1.00 20.00    -0.058 Cl
HETATM    8 CL8  UNL     1     -34.341   5.305   6.401  1.00 20.00    -0.058 Cl
ENDBRANCH   1   5
TORSDOF 1
ENDMDL
MODEL 3
REMARK VINA RESULT:      -4.6      1.304      3.121
REMARK  1 active torsions:
REMARK  status: ('A' for Active; 'I' for Inactive)
REMARK    1  A    between atoms: C1_1  and  C2_2 
ROOT
HETATM    1  C1  UNL     1     -34.533   5.828   4.647  1.00 20.00     0.384 C 
HETATM    2  F3  UNL     1     -33.988   4.925   3.789  1.00 20.00    -0.181 F 
HETATM    3  F4  UNL     1     -35.801   6.046   4.205  1.00 20.00    -0.181 F 
HETATM    4 CL6  UNL     1     -34.606   5.111   6.270  1.00 20.00    -0.042 Cl
ENDROOT
BRANCH   1   5
HETATM    5  C2  UNL     1     -33.745   7.132   4.572  1.00 20.00     0.336 C 
HETATM    6  F5  UNL     1     -34.611   8.112   4.182  1.00 20.00    -0.199 F 
HETATM    7 CL7  UNL     1     -32.439   7.048   3.363  1.00 20.00    -0.058 Cl
HETATM    8 CL8  UNL     1     -33.077   7.595   6.158  1.00 20.00    -0.058 Cl
ENDBRANCH   1   5
TORSDOF 1
ENDMDL
MODEL 4
REMARK VINA RESULT:      -4.6      1.297      3.076
REMARK  1 active torsions:
REMARK  status: ('A' for Active; 'I' for Inactive)
REMARK    1  A    between atoms: C1_1  and  C2_2 
ROOT
HETATM    1  C1  UNL     1     -34.798   5.751   4.887  1.00 20.00     0.384 C 
HETATM    2  F3  UNL     1     -35.973   5.988   4.243  1.00 20.00    -0.181 F 
HETATM    3  F4  UNL     1     -35.125   5.505   6.184  1.00 20.00    -0.181 F 
HETATM    4 CL6  UNL     1     -34.047   4.298   4.198  1.00 20.00    -0.042 Cl
ENDROOT
BRANCH   1   5
HETATM    5  C2  UNL     1     -33.927   7.001   4.818  1.00 20.00     0.336 C 
HETATM    6  F5  UNL     1     -34.734   8.044   4.471  1.00 20.00    -0.199 F 
HETATM    7 CL7  UNL     1     -32.659   6.858   3.575  1.00 20.00    -0.058 Cl
HETATM    8 CL8  UNL     1     -33.192   7.384   6.395  1.00 20.00    -0.058 Cl
ENDBRANCH   1   5
TORSDOF 1
ENDMDL
MODEL 5
REMARK VINA RESULT:      -4.5      1.091      1.758
REMARK  1 active torsions:
REMARK  status: ('A' for Active; 'I' for Inactive)
REMARK    1  A    between atoms: C1_1  and  C2_2 
ROOT
HETATM    1  C1  UNL     1     -33.805   7.266   4.924  1.00 20.00     0.384 C 
HETATM    2  F3  UNL     1     -34.461   8.247   4.248  1.00 20.00    -0.181 F 
HETATM    3  F4  UNL     1     -32.500   7.366   4.558  1.00 20.00    -0.181 F 
HETATM    4 CL6  UNL     1     -33.939   7.579   6.667  1.00 20.00    -0.042 Cl
ENDROOT
BRANCH   1   5
HETATM    5  C2  UNL     1     -34.346   5.909   4.487  1.00 20.00     0.336 C 
HETATM    6  F5  UNL     1     -35.627   6.096   4.058  1.00 20.00    -0.199 F 
HETATM    7 CL7  UNL     1     -34.389   4.746   5.836  1.00 20.00    -0.058 Cl
HETATM    8 CL8  UNL     1     -33.412   5.230   3.129  1.00 20.00    -0.058 Cl
ENDBRANCH   1   5
TORSDOF 1
ENDMDL
MODEL 6
REMARK VINA RESULT:      -4.5      1.307      2.943
REMARK  1 active torsions:
REMARK  status: ('A' for Active; 'I' for Inactive)
REMARK    1  A    between atoms: C1_1  and  C2_2 
ROOT
HETATM    1  C1  UNL     1     -33.899   6.822   6.091  1.00 20.00     0.384 C 
HETATM    2  F3  UNL     1     -34.609   7.738   6.804  1.00 20.00    -0.181 F 
HETATM    3  F4  UNL     1     -32.767   6.586   6.808  1.00 20.00    -0.181 F 
HETATM    4 CL6  UNL     1     -34.837   5.319   5.986  1.00 20.00    -0.042 Cl
ENDROOT
BRANCH   1   5
HETATM    5  C2  UNL     1     -33.519   7.422   4.741  1.00 20.00     0.336 C 
HETATM    6  F5  UNL     1     -34.579   8.164   4.310  1.00 20.00    -0.199 F 
HETATM    7 CL7  UNL     1     -33.205   6.162   3.521  1.00 20.00    -0.058 Cl
HETATM    8 CL8  UNL     1     -32.112   8.508   4.870  1.00 20.00    -0.058 Cl
ENDBRANCH   1   5
TORSDOF 1
ENDMDL
MODEL 7
REMARK VINA RESULT:      -4.5      1.312      1.757
REMARK  1 active torsions:
REMARK  status: ('A' for Active; 'I' for Inactive)
REMARK    1  A    between atoms: C1_1  and  C2_2 
ROOT
HETATM    1  C1  UNL     1     -33.479   7.293   4.803  1.00 20.00     0.384 C 
HETATM    2  F3  UNL     1     -33.045   7.304   6.092  1.00 20.00    -0.181 F 
HETATM    3  F4  UNL     1     -34.425   8.267   4.719  1.00 20.00    -0.181 F 
HETATM    4 CL6  UNL     1     -32.124   7.714   3.736  1.00 20.00    -0.042 Cl
ENDROOT
BRANCH   1   5
HETATM    5  C2  UNL     1     -34.121   5.943   4.501  1.00 20.00     0.336 C 
HETATM    6  F5  UNL     1     -33.952   5.154   5.601  1.00 20.00    -0.199 F 
HETATM    7 CL7  UNL     1     -33.338   5.130   3.122  1.00 20.00    -0.058 Cl
HETATM    8 CL8  UNL     1     -35.872   6.094   4.205  1.00 20.00    -0.058 Cl
ENDBRANCH   1   5
TORSDOF 1
ENDMDL
MODEL 8
REMARK VINA RESULT:      -4.3      1.778      2.467
REMARK  1 active torsions:
REMARK  status: ('A' for Active; 'I' for Inactive)
REMARK    1  A    between atoms: C1_1  and  C2_2 
ROOT
HETATM    1  C1  UNL     1     -34.353   6.005   6.199  1.00 20.00     0.384 C 
HETATM    2  F3  UNL     1     -33.482   5.127   6.765  1.00 20.00    -0.181 F 
HETATM    3  F4  UNL     1     -35.574   5.710   6.721  1.00 20.00    -0.181 F 
HETATM    4 CL6  UNL     1     -33.905   7.654   6.681  1.00 20.00    -0.042 Cl
ENDROOT
BRANCH   1   5
HETATM    5  C2  UNL     1     -34.385   5.779   4.691  1.00 20.00     0.336 C 
HETATM    6  F5  UNL     1     -35.664   6.002   4.270  1.00 20.00    -0.199 F 
HETATM    7 CL7  UNL     1     -33.956   4.103   4.263  1.00 20.00    -0.058 Cl
HETATM    8 CL8  UNL     1     -33.323   6.919   3.827  1.00 20.00    -0.058 Cl
ENDBRANCH   1   5
TORSDOF 1
ENDMDL
MODEL 9
REMARK VINA RESULT:      -4.2      1.683      3.169
REMARK  1 active torsions:
REMARK  status: ('A' for Active; 'I' for Inactive)
REMARK    1  A    between atoms: C1_1  and  C2_2 
ROOT
HETATM    1  C1  UNL     1     -33.499   7.555   4.938  1.00 20.00     0.384 C 
HETATM    2  F3  UNL     1     -34.088   8.761   5.161  1.00 20.00    -0.181 F 
HETATM    3  F4  UNL     1     -32.780   7.277   6.059  1.00 20.00    -0.181 F 
HETATM    4 CL6  UNL     1     -34.763   6.323   4.745  1.00 20.00    -0.042 Cl
ENDROOT
BRANCH   1   5
HETATM    5  C2  UNL     1     -32.549   7.672   3.750  1.00 20.00     0.336 C 
HETATM    6  F5  UNL     1     -31.290   7.835   4.248  1.00 20.00    -0.199 F 
HETATM    7 CL7  UNL     1     -32.923   9.091   2.740  1.00 20.00    -0.058 Cl
HETATM    8 CL8  UNL     1     -32.552   6.196   2.752  1.00 20.00    -0.058 Cl
ENDBRANCH   1   5
TORSDOF 1
ENDMDL
