MODEL 1
REMARK VINA RESULT:      -3.2      0.000      0.000
REMARK  0 active torsions:
REMARK  status: ('A' for Active; 'I' for Inactive)
ROOT
HETATM    1  C1  UNL     1     -32.542   8.534   4.127  1.00 20.00     0.149 A 
HETATM    2  C2  UNL     1     -32.542   7.705   3.024  1.00 20.00     0.094 A 
HETATM    3  C3  UNL     1     -33.606   6.826   4.999  1.00 20.00     0.145 A 
HETATM    4  N4  UNL     1     -33.151   8.032   5.260  1.00 20.00    -0.244 NA
HETATM    5  S5  UNL     1     -33.335   6.235   3.411  1.00 20.00    -0.049 SA
HETATM    6 CL6  UNL     1     -31.892   7.979   1.470  1.00 20.00    -0.075 Cl
HETATM    7 BR7  UNL     1     -34.520   5.787   6.315  1.00 20.00    -0.021 Br
ENDROOT
TORSDOF 0
ENDMDL
MODEL 2
REMARK VINA RESULT:      -3.0     12.431     12.491
REMARK  0 active torsions:
REMARK  status: ('A' for Active; 'I' for Inactive)
ROOT
HETATM    1  C1  UNL     1     -31.843  18.540  -1.119  1.00 20.00     0.149 A 
HETATM    2  C2  UNL     1     -33.065  18.712  -0.503  1.00 20.00     0.094 A 
HETATM    3  C3  UNL     1     -31.134  18.904   0.925  1.00 20.00     0.145 A 
HETATM    4  N4  UNL     1     -30.734  18.649  -0.302  1.00 20.00    -0.244 NA
HETATM    5  S5  UNL     1     -32.829  19.023   1.167  1.00 20.00    -0.049 SA
HETATM    6 CL6  UNL     1     -34.631  18.648  -1.179  1.00 20.00    -0.075 Cl
HETATM    7 BR7  UNL     1     -29.895  19.127   2.361  1.00 20.00    -0.021 Br
ENDROOT
TORSDOF 0
ENDMDL
MODEL 3
REMARK VINA RESULT:      -2.9     15.855     15.984
REMARK  0 active torsions:
REMARK  status: ('A' for Active; 'I' for Inactive)
ROOT
HETATM    1  C1  UNL     1     -24.886  19.263   8.805  1.00 20.00     0.149 A 
HETATM    2  C2  UNL     1     -24.578  18.840  10.082  1.00 20.00     0.094 A 
HETATM    3  C3  UNL     1     -22.877  18.472   8.415  1.00 20.00     0.145 A 
HETATM    4  N4  UNL     1     -23.912  19.053   7.849  1.00 20.00    -0.244 NA
HETATM    5  S5  UNL     1     -23.008  18.150  10.096  1.00 20.00    -0.049 SA
HETATM    6 CL6  UNL     1     -25.518  18.930  11.503  1.00 20.00    -0.075 Cl
HETATM    7 BR7  UNL     1     -21.313  18.011   7.422  1.00 20.00    -0.021 Br
ENDROOT
TORSDOF 0
ENDMDL
MODEL 4
REMARK VINA RESULT:      -2.9     12.557     12.873
REMARK  0 active torsions:
REMARK  status: ('A' for Active; 'I' for Inactive)
ROOT
HETATM    1  C1  UNL     1     -33.209  15.090  -4.175  1.00 20.00     0.149 A 
HETATM    2  C2  UNL     1     -33.619  16.273  -3.596  1.00 20.00     0.094 A 
HETATM    3  C3  UNL     1     -34.511  15.810  -5.786  1.00 20.00     0.145 A 
HETATM    4  N4  UNL     1     -33.720  14.823  -5.430  1.00 20.00    -0.244 NA
HETATM    5  S5  UNL     1     -34.686  17.093  -4.658  1.00 20.00    -0.049 SA
HETATM    6 CL6  UNL     1     -33.203  16.930  -2.077  1.00 20.00    -0.075 Cl
HETATM    7 BR7  UNL     1     -35.417  15.819  -7.467  1.00 20.00    -0.021 Br
ENDROOT
TORSDOF 0
ENDMDL
MODEL 5
REMARK VINA RESULT:      -2.9      3.257      3.556
REMARK  0 active torsions:
REMARK  status: ('A' for Active; 'I' for Inactive)
ROOT
HETATM    1  C1  UNL     1     -33.438   7.642   5.737  1.00 20.00     0.149 A 
HETATM    2  C2  UNL     1     -33.994   6.406   5.480  1.00 20.00     0.094 A 
HETATM    3  C3  UNL     1     -32.868   7.457   3.627  1.00 20.00     0.145 A 
HETATM    4  N4  UNL     1     -32.792   8.245   4.676  1.00 20.00    -0.244 NA
HETATM    5  S5  UNL     1     -33.704   5.974   3.847  1.00 20.00    -0.049 SA
HETATM    6 CL6  UNL     1     -34.859   5.374   6.529  1.00 20.00    -0.075 Cl
HETATM    7 BR7  UNL     1     -32.093   7.935   1.949  1.00 20.00    -0.021 Br
ENDROOT
TORSDOF 0
ENDMDL
MODEL 6
REMARK VINA RESULT:      -2.8     12.471     12.643
REMARK  0 active torsions:
REMARK  status: ('A' for Active; 'I' for Inactive)
ROOT
HETATM    1  C1  UNL     1     -33.820  14.814  -5.172  1.00 20.00     0.149 A 
HETATM    2  C2  UNL     1     -34.654  15.720  -5.793  1.00 20.00     0.094 A 
HETATM    3  C3  UNL     1     -33.737  16.417  -3.677  1.00 20.00     0.145 A 
HETATM    4  N4  UNL     1     -33.293  15.212  -3.959  1.00 20.00    -0.244 NA
HETATM    5  S5  UNL     1     -34.793  17.130  -4.827  1.00 20.00    -0.049 SA
HETATM    6 CL6  UNL     1     -35.479  15.581  -7.281  1.00 20.00    -0.075 Cl
HETATM    7 BR7  UNL     1     -33.237  17.325  -2.073  1.00 20.00    -0.021 Br
ENDROOT
TORSDOF 0
ENDMDL
MODEL 7
REMARK VINA RESULT:      -2.8      9.445      9.530
REMARK  0 active torsions:
REMARK  status: ('A' for Active; 'I' for Inactive)
ROOT
HETATM    1  C1  UNL     1     -39.226  12.202   6.441  1.00 20.00     0.149 A 
HETATM    2  C2  UNL     1     -39.671  12.306   5.139  1.00 20.00     0.094 A 
HETATM    3  C3  UNL     1     -40.973  13.480   6.791  1.00 20.00     0.145 A 
HETATM    4  N4  UNL     1     -39.971  12.875   7.389  1.00 20.00    -0.244 NA
HETATM    5  S5  UNL     1     -41.079  13.282   5.089  1.00 20.00    -0.049 SA
HETATM    6 CL6  UNL     1     -39.018  11.621   3.719  1.00 20.00    -0.075 Cl
HETATM    7 BR7  UNL     1     -42.243  14.524   7.763  1.00 20.00    -0.021 Br
ENDROOT
TORSDOF 0
ENDMDL
MODEL 8
REMARK VINA RESULT:      -2.8     12.714     12.956
REMARK  0 active torsions:
REMARK  status: ('A' for Active; 'I' for Inactive)
ROOT
HETATM    1  C1  UNL     1     -33.129  18.806  -3.858  1.00 20.00     0.149 A 
HETATM    2  C2  UNL     1     -33.796  17.617  -3.650  1.00 20.00     0.094 A 
HETATM    3  C3  UNL     1     -32.452  18.405  -1.811  1.00 20.00     0.145 A 
HETATM    4  N4  UNL     1     -32.358  19.259  -2.806  1.00 20.00    -0.244 NA
HETATM    5  S5  UNL     1     -33.450  17.033  -2.075  1.00 20.00    -0.049 SA
HETATM    6 CL6  UNL     1     -34.826  16.759  -4.706  1.00 20.00    -0.075 Cl
HETATM    7 BR7  UNL     1     -31.528  18.673  -0.162  1.00 20.00    -0.021 Br
ENDROOT
TORSDOF 0
ENDMDL
MODEL 9
REMARK VINA RESULT:      -2.7     12.385     12.656
REMARK  0 active torsions:
REMARK  status: ('A' for Active; 'I' for Inactive)
ROOT
HETATM    1  C1  UNL     1     -34.970  17.309  -4.939  1.00 20.00     0.149 A 
HETATM    2  C2  UNL     1     -34.279  16.131  -5.131  1.00 20.00     0.094 A 
HETATM    3  C3  UNL     1     -33.950  17.206  -3.001  1.00 20.00     0.145 A 
HETATM    4  N4  UNL     1     -34.783  17.927  -3.718  1.00 20.00    -0.244 NA
HETATM    5  S5  UNL     1     -33.353  15.773  -3.733  1.00 20.00    -0.049 SA
HETATM    6 CL6  UNL     1     -34.260  15.102  -6.493  1.00 20.00    -0.075 Cl
HETATM    7 BR7  UNL     1     -33.430  17.726  -1.238  1.00 20.00    -0.021 Br
ENDROOT
TORSDOF 0
ENDMDL
