MODEL 1
REMARK VINA RESULT:      -4.0      0.000      0.000
REMARK  2 active torsions:
REMARK  status: ('A' for Active; 'I' for Inactive)
REMARK    1  A    between atoms: C3_3  and  C5_5 
REMARK    2  A    between atoms: C5_5  and  S6_6 
ROOT
HETATM    1  C1  UNL     1     -34.425   4.875   4.867  1.00 20.00     0.010 A 
HETATM    2  C2  UNL     1     -35.485   5.875   4.504  1.00 20.00     0.010 A 
HETATM    3  C3  UNL     1     -34.147   6.353   5.018  1.00 20.00    -0.036 A 
HETATM    4  C4  UNL     1     -34.087   6.920   6.410  1.00 20.00     0.016 C 
ENDROOT
BRANCH   3   5
HETATM    5  C5  UNL     1     -33.204   6.997   4.039  1.00 20.00     0.079 C 
BRANCH   5   6
HETATM    6  S6  UNL     1     -32.502   8.527   4.724  1.00 20.00    -0.181 SA
HETATM    7  H16 UNL     1     -33.596   9.278   4.535  1.00 20.00     0.101 HD
ENDBRANCH   5   6
ENDBRANCH   3   5
TORSDOF 2
ENDMDL
MODEL 2
REMARK VINA RESULT:      -3.8      0.889      1.760
REMARK  2 active torsions:
REMARK  status: ('A' for Active; 'I' for Inactive)
REMARK    1  A    between atoms: C3_3  and  C5_5 
REMARK    2  A    between atoms: C5_5  and  S6_6 
ROOT
HETATM    1  C1  UNL     1     -35.499   5.822   4.546  1.00 20.00     0.010 A 
HETATM    2  C2  UNL     1     -34.560   5.045   5.423  1.00 20.00     0.010 A 
HETATM    3  C3  UNL     1     -34.021   6.137   4.530  1.00 20.00    -0.036 A 
HETATM    4  C4  UNL     1     -33.227   5.731   3.318  1.00 20.00     0.016 C 
ENDROOT
BRANCH   3   5
HETATM    5  C5  UNL     1     -33.566   7.417   5.176  1.00 20.00     0.079 C 
BRANCH   5   6
HETATM    6  S6  UNL     1     -32.367   8.286   4.122  1.00 20.00    -0.181 SA
HETATM    7  H16 UNL     1     -32.592   7.554   3.023  1.00 20.00     0.101 HD
ENDBRANCH   5   6
ENDBRANCH   3   5
TORSDOF 2
ENDMDL
MODEL 3
REMARK VINA RESULT:      -3.3      1.618      2.351
REMARK  2 active torsions:
REMARK  status: ('A' for Active; 'I' for Inactive)
REMARK    1  A    between atoms: C3_3  and  C5_5 
REMARK    2  A    between atoms: C5_5  and  S6_6 
ROOT
HETATM    1  C1  UNL     1     -34.380   6.889   6.486  1.00 20.00     0.010 A 
HETATM    2  C2  UNL     1     -33.976   5.450   6.341  1.00 20.00     0.010 A 
HETATM    3  C3  UNL     1     -34.329   6.257   5.114  1.00 20.00    -0.036 A 
HETATM    4  C4  UNL     1     -35.634   5.962   4.426  1.00 20.00     0.016 C 
ENDROOT
BRANCH   3   5
HETATM    5  C5  UNL     1     -33.213   6.663   4.191  1.00 20.00     0.079 C 
BRANCH   5   6
HETATM    6  S6  UNL     1     -32.982   5.435   2.872  1.00 20.00    -0.181 SA
HETATM    7  H16 UNL     1     -31.664   5.629   2.730  1.00 20.00     0.101 HD
ENDBRANCH   5   6
ENDBRANCH   3   5
TORSDOF 2
ENDMDL
MODEL 4
REMARK VINA RESULT:      -3.2      2.102      2.958
REMARK  2 active torsions:
REMARK  status: ('A' for Active; 'I' for Inactive)
REMARK    1  A    between atoms: C3_3  and  C5_5 
REMARK    2  A    between atoms: C5_5  and  S6_6 
ROOT
HETATM    1  C1  UNL     1     -33.614   8.783   4.335  1.00 20.00     0.010 A 
HETATM    2  C2  UNL     1     -32.245   8.289   4.705  1.00 20.00     0.010 A 
HETATM    3  C3  UNL     1     -33.448   7.405   4.934  1.00 20.00    -0.036 A 
HETATM    4  C4  UNL     1     -33.909   7.192   6.350  1.00 20.00     0.016 C 
ENDROOT
BRANCH   3   5
HETATM    5  C5  UNL     1     -33.632   6.217   4.030  1.00 20.00     0.079 C 
BRANCH   5   6
HETATM    6  S6  UNL     1     -34.593   4.914   4.858  1.00 20.00    -0.181 SA
HETATM    7  H16 UNL     1     -33.817   4.840   5.947  1.00 20.00     0.101 HD
ENDBRANCH   5   6
ENDBRANCH   3   5
TORSDOF 2
ENDMDL
MODEL 5
REMARK VINA RESULT:      -3.0      2.090      3.368
REMARK  2 active torsions:
REMARK  status: ('A' for Active; 'I' for Inactive)
REMARK    1  A    between atoms: C3_3  and  C5_5 
REMARK    2  A    between atoms: C5_5  and  S6_6 
ROOT
HETATM    1  C1  UNL     1     -31.772   8.026   4.085  1.00 20.00     0.010 A 
HETATM    2  C2  UNL     1     -32.886   8.539   3.219  1.00 20.00     0.010 A 
HETATM    3  C3  UNL     1     -32.979   7.157   3.821  1.00 20.00    -0.036 A 
HETATM    4  C4  UNL     1     -32.809   5.975   2.906  1.00 20.00     0.016 C 
ENDROOT
BRANCH   3   5
HETATM    5  C5  UNL     1     -33.954   6.942   4.947  1.00 20.00     0.079 C 
BRANCH   5   6
HETATM    6  S6  UNL     1     -34.720   5.297   4.838  1.00 20.00    -0.181 SA
HETATM    7  H16 UNL     1     -35.030   5.202   6.137  1.00 20.00     0.101 HD
ENDBRANCH   5   6
ENDBRANCH   3   5
TORSDOF 2
ENDMDL
MODEL 6
REMARK VINA RESULT:      -2.9      1.871      2.703
REMARK  2 active torsions:
REMARK  status: ('A' for Active; 'I' for Inactive)
REMARK    1  A    between atoms: C3_3  and  C5_5 
REMARK    2  A    between atoms: C5_5  and  S6_6 
ROOT
HETATM    1  C1  UNL     1     -33.315   7.234   6.209  1.00 20.00     0.010 A 
HETATM    2  C2  UNL     1     -34.306   8.119   5.510  1.00 20.00     0.010 A 
HETATM    3  C3  UNL     1     -33.424   7.197   4.703  1.00 20.00    -0.036 A 
HETATM    4  C4  UNL     1     -32.309   7.809   3.900  1.00 20.00     0.016 C 
ENDROOT
BRANCH   3   5
HETATM    5  C5  UNL     1     -34.058   5.987   4.072  1.00 20.00     0.079 C 
BRANCH   5   6
HETATM    6  S6  UNL     1     -32.992   5.299   2.771  1.00 20.00    -0.181 SA
HETATM    7  H16 UNL     1     -31.834   5.528   3.405  1.00 20.00     0.101 HD
ENDBRANCH   5   6
ENDBRANCH   3   5
TORSDOF 2
ENDMDL
MODEL 7
REMARK VINA RESULT:      -2.8      8.960      9.506
REMARK  2 active torsions:
REMARK  status: ('A' for Active; 'I' for Inactive)
REMARK    1  A    between atoms: C3_3  and  C5_5 
REMARK    2  A    between atoms: C5_5  and  S6_6 
ROOT
HETATM    1  C1  UNL     1     -40.807   8.355   0.256  1.00 20.00     0.010 A 
HETATM    2  C2  UNL     1     -41.942   8.175  -0.709  1.00 20.00     0.010 A 
HETATM    3  C3  UNL     1     -41.550   7.040   0.207  1.00 20.00    -0.036 A 
HETATM    4  C4  UNL     1     -40.847   5.856  -0.397  1.00 20.00     0.016 C 
ENDROOT
BRANCH   3   5
HETATM    5  C5  UNL     1     -42.469   6.707   1.350  1.00 20.00     0.079 C 
BRANCH   5   6
HETATM    6  S6  UNL     1     -42.767   4.916   1.443  1.00 20.00    -0.181 SA
HETATM    7  H16 UNL     1     -41.804   4.570   0.578  1.00 20.00     0.101 HD
ENDBRANCH   5   6
ENDBRANCH   3   5
TORSDOF 2
ENDMDL
MODEL 8
REMARK VINA RESULT:      -2.8     16.045     16.991
REMARK  2 active torsions:
REMARK  status: ('A' for Active; 'I' for Inactive)
REMARK    1  A    between atoms: C3_3  and  C5_5 
REMARK    2  A    between atoms: C5_5  and  S6_6 
ROOT
HETATM    1  C1  UNL     1     -22.715  19.195   9.566  1.00 20.00     0.010 A 
HETATM    2  C2  UNL     1     -21.643  18.148   9.655  1.00 20.00     0.010 A 
HETATM    3  C3  UNL     1     -22.827  18.091  10.591  1.00 20.00    -0.036 A 
HETATM    4  C4  UNL     1     -22.603  18.445  12.035  1.00 20.00     0.016 C 
ENDROOT
BRANCH   3   5
HETATM    5  C5  UNL     1     -23.856  17.018  10.362  1.00 20.00     0.079 C 
BRANCH   5   6
HETATM    6  S6  UNL     1     -24.474  16.364  11.941  1.00 20.00    -0.181 SA
HETATM    7  H16 UNL     1     -23.662  15.300  11.978  1.00 20.00     0.101 HD
ENDBRANCH   5   6
ENDBRANCH   3   5
TORSDOF 2
ENDMDL
MODEL 9
REMARK VINA RESULT:      -2.6     12.489     12.960
REMARK  2 active torsions:
REMARK  status: ('A' for Active; 'I' for Inactive)
REMARK    1  A    between atoms: C3_3  and  C5_5 
REMARK    2  A    between atoms: C5_5  and  S6_6 
ROOT
HETATM    1  C1  UNL     1     -33.358  17.007  -1.926  1.00 20.00     0.010 A 
HETATM    2  C2  UNL     1     -33.723  18.440  -2.181  1.00 20.00     0.010 A 
HETATM    3  C3  UNL     1     -33.042  18.058  -0.888  1.00 20.00    -0.036 A 
HETATM    4  C4  UNL     1     -33.863  18.072   0.373  1.00 20.00     0.016 C 
ENDROOT
BRANCH   3   5
HETATM    5  C5  UNL     1     -31.604  18.457  -0.703  1.00 20.00     0.079 C 
BRANCH   5   6
HETATM    6  S6  UNL     1     -31.201  18.635   1.060  1.00 20.00    -0.181 SA
HETATM    7  H16 UNL     1     -31.738  19.854   1.204  1.00 20.00     0.101 HD
ENDBRANCH   5   6
ENDBRANCH   3   5
TORSDOF 2
ENDMDL
