MODEL 1
REMARK VINA RESULT:      -3.8      0.000      0.000
REMARK  1 active torsions:
REMARK  status: ('A' for Active; 'I' for Inactive)
REMARK    1  A    between atoms: C2_2  and  C6_6 
ROOT
HETATM    1  C1  UNL     1     -42.039  12.530   6.664  1.00 20.00     0.080 A 
HETATM    2  C2  UNL     1     -40.701  12.743   6.404  1.00 20.00     0.047 A 
HETATM    3  C3  UNL     1     -41.197  14.718   7.218  1.00 20.00     0.144 A 
HETATM    4  N7  UNL     1     -40.216  13.996   6.721  1.00 20.00    -0.238 NA
HETATM    5  S8  UNL     1     -42.728  13.951   7.333  1.00 20.00    -0.073 SA
HETATM    6 BR9  UNL     1     -40.929  16.524   7.781  1.00 20.00    -0.021 Br
ENDROOT
BRANCH   2   7
HETATM    7  C6  UNL     1     -39.796  11.656   5.800  1.00 20.00     0.038 A 
HETATM    8  C4  UNL     1     -38.373  12.017   5.443  1.00 20.00     0.011 A 
HETATM    9  C5  UNL     1     -39.375  11.787   4.355  1.00 20.00     0.011 A 
ENDBRANCH   2   7
TORSDOF 1
ENDMDL
MODEL 2
REMARK VINA RESULT:      -3.7      1.097      1.097
REMARK  1 active torsions:
REMARK  status: ('A' for Active; 'I' for Inactive)
REMARK    1  A    between atoms: C2_2  and  C6_6 
ROOT
HETATM    1  C1  UNL     1     -41.439  13.628   5.655  1.00 20.00     0.080 A 
HETATM    2  C2  UNL     1     -40.426  12.941   6.292  1.00 20.00     0.047 A 
HETATM    3  C3  UNL     1     -40.846  14.429   7.848  1.00 20.00     0.144 A 
HETATM    4  N7  UNL     1     -40.085  13.399   7.549  1.00 20.00    -0.238 NA
HETATM    5  S8  UNL     1     -41.995  14.900   6.662  1.00 20.00    -0.073 SA
HETATM    6 BR9  UNL     1     -40.681  15.350   9.513  1.00 20.00    -0.021 Br
ENDROOT
BRANCH   2   7
HETATM    7  C6  UNL     1     -39.716  11.738   5.650  1.00 20.00     0.038 A 
HETATM    8  C4  UNL     1     -38.248  11.861   5.313  1.00 20.00     0.011 A 
HETATM    9  C5  UNL     1     -39.263  11.848   4.213  1.00 20.00     0.011 A 
ENDBRANCH   2   7
TORSDOF 1
ENDMDL
MODEL 3
REMARK VINA RESULT:      -3.6     11.668     12.306
REMARK  1 active torsions:
REMARK  status: ('A' for Active; 'I' for Inactive)
REMARK    1  A    between atoms: C2_2  and  C6_6 
ROOT
HETATM    1  C1  UNL     1     -33.647  17.812  -3.928  1.00 20.00     0.080 A 
HETATM    2  C2  UNL     1     -33.440  16.605  -3.293  1.00 20.00     0.047 A 
HETATM    3  C3  UNL     1     -33.702  17.870  -1.521  1.00 20.00     0.144 A 
HETATM    4  N7  UNL     1     -33.471  16.636  -1.913  1.00 20.00    -0.238 NA
HETATM    5  S8  UNL     1     -33.895  19.043  -2.759  1.00 20.00    -0.073 SA
HETATM    6 BR9  UNL     1     -33.820  18.330   0.330  1.00 20.00    -0.021 Br
ENDROOT
BRANCH   2   7
HETATM    7  C6  UNL     1     -33.188  15.300  -4.066  1.00 20.00     0.038 A 
HETATM    8  C4  UNL     1     -33.891  15.096  -5.388  1.00 20.00     0.011 A 
HETATM    9  C5  UNL     1     -34.318  14.304  -4.191  1.00 20.00     0.011 A 
ENDBRANCH   2   7
TORSDOF 1
ENDMDL
MODEL 4
REMARK VINA RESULT:      -3.5      2.086      2.092
REMARK  1 active torsions:
REMARK  status: ('A' for Active; 'I' for Inactive)
REMARK    1  A    between atoms: C2_2  and  C6_6 
ROOT
HETATM    1  C1  UNL     1     -41.350  13.248   6.755  1.00 20.00     0.080 A 
HETATM    2  C2  UNL     1     -40.867  12.849   5.526  1.00 20.00     0.047 A 
HETATM    3  C3  UNL     1     -42.201  14.453   4.851  1.00 20.00     0.144 A 
HETATM    4  N7  UNL     1     -41.354  13.538   4.434  1.00 20.00    -0.238 NA
HETATM    5  S8  UNL     1     -42.458  14.541   6.546  1.00 20.00    -0.073 SA
HETATM    6 BR9  UNL     1     -43.096  15.623   3.634  1.00 20.00    -0.021 Br
ENDROOT
BRANCH   2   7
HETATM    7  C6  UNL     1     -39.849  11.707   5.373  1.00 20.00     0.038 A 
HETATM    8  C4  UNL     1     -38.377  12.034   5.466  1.00 20.00     0.011 A 
HETATM    9  C5  UNL     1     -38.975  11.677   4.141  1.00 20.00     0.011 A 
ENDBRANCH   2   7
TORSDOF 1
ENDMDL
MODEL 5
REMARK VINA RESULT:      -3.4      1.599      1.824
REMARK  1 active torsions:
REMARK  status: ('A' for Active; 'I' for Inactive)
REMARK    1  A    between atoms: C2_2  and  C6_6 
ROOT
HETATM    1  C1  UNL     1     -41.510  14.760   6.431  1.00 20.00     0.080 A 
HETATM    2  C2  UNL     1     -40.905  13.606   6.885  1.00 20.00     0.047 A 
HETATM    3  C3  UNL     1     -40.689  14.826   8.694  1.00 20.00     0.144 A 
HETATM    4  N7  UNL     1     -40.434  13.643   8.182  1.00 20.00    -0.238 NA
HETATM    5  S8  UNL     1     -41.495  15.944   7.671  1.00 20.00    -0.073 SA
HETATM    6 BR9  UNL     1     -40.190  15.276  10.483  1.00 20.00    -0.021 Br
ENDROOT
BRANCH   2   7
HETATM    7  C6  UNL     1     -40.760  12.352   6.008  1.00 20.00     0.038 A 
HETATM    8  C4  UNL     1     -39.433  11.631   5.991  1.00 20.00     0.011 A 
HETATM    9  C5  UNL     1     -39.864  12.418   4.793  1.00 20.00     0.011 A 
ENDBRANCH   2   7
TORSDOF 1
ENDMDL
MODEL 6
REMARK VINA RESULT:      -3.3     12.491     13.213
REMARK  1 active torsions:
REMARK  status: ('A' for Active; 'I' for Inactive)
REMARK    1  A    between atoms: C2_2  and  C6_6 
ROOT
HETATM    1  C1  UNL     1     -33.440  15.206  -4.157  1.00 20.00     0.080 A 
HETATM    2  C2  UNL     1     -33.802  16.390  -3.549  1.00 20.00     0.047 A 
HETATM    3  C3  UNL     1     -34.771  16.707  -5.490  1.00 20.00     0.144 A 
HETATM    4  N7  UNL     1     -34.564  17.252  -4.312  1.00 20.00    -0.238 NA
HETATM    5  S8  UNL     1     -34.078  15.158  -5.749  1.00 20.00    -0.073 SA
HETATM    6 BR9  UNL     1     -35.790  17.593  -6.842  1.00 20.00    -0.021 Br
ENDROOT
BRANCH   2   7
HETATM    7  C6  UNL     1     -33.385  16.738  -2.110  1.00 20.00     0.038 A 
HETATM    8  C4  UNL     1     -34.049  17.912  -1.429  1.00 20.00     0.011 A 
HETATM    9  C5  UNL     1     -32.621  18.019  -1.867  1.00 20.00     0.011 A 
ENDBRANCH   2   7
TORSDOF 1
ENDMDL
MODEL 7
REMARK VINA RESULT:      -3.3     12.183     12.827
REMARK  1 active torsions:
REMARK  status: ('A' for Active; 'I' for Inactive)
REMARK    1  A    between atoms: C2_2  and  C6_6 
ROOT
HETATM    1  C1  UNL     1     -34.147  18.918  -3.018  1.00 20.00     0.080 A 
HETATM    2  C2  UNL     1     -33.188  18.317  -2.229  1.00 20.00     0.047 A 
HETATM    3  C3  UNL     1     -33.679  16.607  -3.510  1.00 20.00     0.144 A 
HETATM    4  N7  UNL     1     -32.919  16.993  -2.509  1.00 20.00    -0.238 NA
HETATM    5  S8  UNL     1     -34.741  17.786  -4.163  1.00 20.00    -0.073 SA
HETATM    6 BR9  UNL     1     -33.603  14.827  -4.200  1.00 20.00    -0.021 Br
ENDROOT
BRANCH   2   7
HETATM    7  C6  UNL     1     -32.459  19.070  -1.103  1.00 20.00     0.038 A 
HETATM    8  C4  UNL     1     -31.327  18.374  -0.385  1.00 20.00     0.011 A 
HETATM    9  C5  UNL     1     -32.631  18.588   0.319  1.00 20.00     0.011 A 
ENDBRANCH   2   7
TORSDOF 1
ENDMDL
MODEL 8
REMARK VINA RESULT:      -3.3      9.876     10.283
REMARK  1 active torsions:
REMARK  status: ('A' for Active; 'I' for Inactive)
REMARK    1  A    between atoms: C2_2  and  C6_6 
ROOT
HETATM    1  C1  UNL     1     -33.214   8.030   5.457  1.00 20.00     0.080 A 
HETATM    2  C2  UNL     1     -33.823   7.056   4.693  1.00 20.00     0.047 A 
HETATM    3  C3  UNL     1     -32.630   8.011   3.121  1.00 20.00     0.144 A 
HETATM    4  N7  UNL     1     -33.489   7.043   3.354  1.00 20.00    -0.238 NA
HETATM    5  S8  UNL     1     -32.178   8.974   4.468  1.00 20.00    -0.073 SA
HETATM    6 BR9  UNL     1     -31.922   8.326   1.374  1.00 20.00    -0.021 Br
ENDROOT
BRANCH   2   7
HETATM    7  C6  UNL     1     -34.813   6.042   5.289  1.00 20.00     0.038 A 
HETATM    8  C4  UNL     1     -34.404   5.269   6.521  1.00 20.00     0.011 A 
HETATM    9  C5  UNL     1     -34.483   4.570   5.200  1.00 20.00     0.011 A 
ENDBRANCH   2   7
TORSDOF 1
ENDMDL
MODEL 9
REMARK VINA RESULT:      -3.2     12.305     13.074
REMARK  1 active torsions:
REMARK  status: ('A' for Active; 'I' for Inactive)
REMARK    1  A    between atoms: C2_2  and  C6_6 
ROOT
HETATM    1  C1  UNL     1     -34.957  18.089  -3.521  1.00 20.00     0.080 A 
HETATM    2  C2  UNL     1     -34.053  17.090  -3.223  1.00 20.00     0.047 A 
HETATM    3  C3  UNL     1     -34.477  16.541  -5.303  1.00 20.00     0.144 A 
HETATM    4  N7  UNL     1     -33.778  16.201  -4.243  1.00 20.00    -0.238 NA
HETATM    5  S8  UNL     1     -35.487  17.920  -5.144  1.00 20.00    -0.073 SA
HETATM    6 BR9  UNL     1     -34.373  15.552  -6.935  1.00 20.00    -0.021 Br
ENDROOT
BRANCH   2   7
HETATM    7  C6  UNL     1     -33.390  16.965  -1.842  1.00 20.00     0.038 A 
HETATM    8  C4  UNL     1     -33.811  17.918  -0.748  1.00 20.00     0.011 A 
HETATM    9  C5  UNL     1     -32.463  18.066  -1.382  1.00 20.00     0.011 A 
ENDBRANCH   2   7
TORSDOF 1
ENDMDL
