MODEL 1
REMARK VINA RESULT:      -4.1      0.000      0.000
REMARK  1 active torsions:
REMARK  status: ('A' for Active; 'I' for Inactive)
REMARK    1  A    between atoms: C4_4  and  C7_7 
ROOT
HETATM    1  C1  UNL     1     -31.942  18.361  -0.574  1.00 20.00     0.069 C 
HETATM    2  C6  UNL     1     -34.302  18.867  -0.042  1.00 20.00     0.031 C 
HETATM    3  C7  UNL     1     -33.334  17.839  -0.669  1.00 20.00     0.128 C 
HETATM    4  N8  UNL     1     -30.854  18.764  -0.524  1.00 20.00    -0.197 NA
ENDROOT
BRANCH   3   5
HETATM    5  C4  UNL     1     -33.707  17.448  -2.045  1.00 20.00     0.001 A 
HETATM    6  C2  UNL     1     -33.289  16.354  -2.770  1.00 20.00     0.018 A 
HETATM    7  C3  UNL     1     -33.870  16.319  -4.070  1.00 20.00     0.032 A 
HETATM    8  C5  UNL     1     -34.710  17.389  -4.290  1.00 20.00     0.075 A 
HETATM    9  S9  UNL     1     -34.795  18.430  -2.933  1.00 20.00    -0.081 SA
HETATM   10 CL10 UNL     1     -35.613  17.743  -5.704  1.00 20.00    -0.076 Cl
ENDBRANCH   3   5
TORSDOF 1
ENDMDL
MODEL 2
REMARK VINA RESULT:      -4.0     15.204     15.988
REMARK  1 active torsions:
REMARK  status: ('A' for Active; 'I' for Inactive)
REMARK    1  A    between atoms: C4_4  and  C7_7 
ROOT
HETATM    1  C1  UNL     1     -26.285  18.607  12.046  1.00 20.00     0.069 C 
HETATM    2  C6  UNL     1     -24.965  16.520  12.140  1.00 20.00     0.031 C 
HETATM    3  C7  UNL     1     -24.922  18.037  11.849  1.00 20.00     0.128 C 
HETATM    4  N8  UNL     1     -27.344  19.063  12.178  1.00 20.00    -0.197 NA
ENDROOT
BRANCH   3   5
HETATM    5  C4  UNL     1     -24.352  18.363  10.524  1.00 20.00     0.001 A 
HETATM    6  C2  UNL     1     -24.852  19.208   9.558  1.00 20.00     0.018 A 
HETATM    7  C3  UNL     1     -24.014  19.262   8.408  1.00 20.00     0.032 A 
HETATM    8  C5  UNL     1     -22.904  18.456   8.538  1.00 20.00     0.075 A 
HETATM    9  S9  UNL     1     -22.876  17.638  10.042  1.00 20.00    -0.081 SA
HETATM   10 CL10 UNL     1     -21.640  18.218   7.405  1.00 20.00    -0.076 Cl
ENDBRANCH   3   5
TORSDOF 1
ENDMDL
MODEL 3
REMARK VINA RESULT:      -3.8      4.159      5.667
REMARK  1 active torsions:
REMARK  status: ('A' for Active; 'I' for Inactive)
REMARK    1  A    between atoms: C4_4  and  C7_7 
ROOT
HETATM    1  C1  UNL     1     -35.737  15.367  -7.504  1.00 20.00     0.069 C 
HETATM    2  C6  UNL     1     -35.982  17.766  -6.962  1.00 20.00     0.031 C 
HETATM    3  C7  UNL     1     -35.026  16.552  -6.946  1.00 20.00     0.128 C 
HETATM    4  N8  UNL     1     -36.283  14.431  -7.918  1.00 20.00    -0.197 NA
ENDROOT
BRANCH   3   5
HETATM    5  C4  UNL     1     -34.435  16.292  -5.615  1.00 20.00     0.001 A 
HETATM    6  C2  UNL     1     -33.833  15.142  -5.154  1.00 20.00     0.018 A 
HETATM    7  C3  UNL     1     -33.384  15.276  -3.809  1.00 20.00     0.032 A 
HETATM    8  C5  UNL     1     -33.661  16.523  -3.293  1.00 20.00     0.075 A 
HETATM    9  S9  UNL     1     -34.459  17.526  -4.428  1.00 20.00    -0.081 SA
HETATM   10 CL10 UNL     1     -33.301  17.114  -1.724  1.00 20.00    -0.076 Cl
ENDBRANCH   3   5
TORSDOF 1
ENDMDL
MODEL 4
REMARK VINA RESULT:      -3.7      3.436      4.946
REMARK  1 active torsions:
REMARK  status: ('A' for Active; 'I' for Inactive)
REMARK    1  A    between atoms: C4_4  and  C7_7 
ROOT
HETATM    1  C1  UNL     1     -34.320  15.658  -6.798  1.00 20.00     0.069 C 
HETATM    2  C6  UNL     1     -36.561  15.695  -5.754  1.00 20.00     0.031 C 
HETATM    3  C7  UNL     1     -35.202  16.421  -5.869  1.00 20.00     0.128 C 
HETATM    4  N8  UNL     1     -33.616  15.064  -7.503  1.00 20.00    -0.197 NA
ENDROOT
BRANCH   3   5
HETATM    5  C4  UNL     1     -34.566  16.682  -4.560  1.00 20.00     0.001 A 
HETATM    6  C2  UNL     1     -33.667  15.898  -3.872  1.00 20.00     0.018 A 
HETATM    7  C3  UNL     1     -33.278  16.489  -2.635  1.00 20.00     0.032 A 
HETATM    8  C5  UNL     1     -33.895  17.703  -2.426  1.00 20.00     0.075 A 
HETATM    9  S9  UNL     1     -34.938  18.125  -3.716  1.00 20.00    -0.081 SA
HETATM   10 CL10 UNL     1     -33.721  18.751  -1.081  1.00 20.00    -0.076 Cl
ENDBRANCH   3   5
TORSDOF 1
ENDMDL
MODEL 5
REMARK VINA RESULT:      -3.7      3.650      4.948
REMARK  1 active torsions:
REMARK  status: ('A' for Active; 'I' for Inactive)
REMARK    1  A    between atoms: C4_4  and  C7_7 
ROOT
HETATM    1  C1  UNL     1     -34.111  15.284  -6.393  1.00 20.00     0.069 C 
HETATM    2  C6  UNL     1     -34.354  14.235  -4.168  1.00 20.00     0.031 C 
HETATM    3  C7  UNL     1     -34.622  15.503  -5.010  1.00 20.00     0.128 C 
HETATM    4  N8  UNL     1     -33.701  15.135  -7.468  1.00 20.00    -0.197 NA
ENDROOT
BRANCH   3   5
HETATM    5  C4  UNL     1     -34.093  16.738  -4.393  1.00 20.00     0.001 A 
HETATM    6  C2  UNL     1     -34.117  18.023  -4.888  1.00 20.00     0.018 A 
HETATM    7  C3  UNL     1     -33.503  18.951  -3.998  1.00 20.00     0.032 A 
HETATM    8  C5  UNL     1     -33.033  18.339  -2.857  1.00 20.00     0.075 A 
HETATM    9  S9  UNL     1     -33.332  16.653  -2.861  1.00 20.00    -0.081 SA
HETATM   10 CL10 UNL     1     -32.233  19.069  -1.528  1.00 20.00    -0.076 Cl
ENDBRANCH   3   5
TORSDOF 1
ENDMDL
MODEL 6
REMARK VINA RESULT:      -3.6      2.377      2.797
REMARK  1 active torsions:
REMARK  status: ('A' for Active; 'I' for Inactive)
REMARK    1  A    between atoms: C4_4  and  C7_7 
ROOT
HETATM    1  C1  UNL     1     -34.932  18.724  -2.317  1.00 20.00     0.069 C 
HETATM    2  C6  UNL     1     -32.815  17.707  -1.547  1.00 20.00     0.031 C 
HETATM    3  C7  UNL     1     -33.679  18.061  -2.778  1.00 20.00     0.128 C 
HETATM    4  N8  UNL     1     -35.921  19.224  -1.972  1.00 20.00    -0.197 NA
ENDROOT
BRANCH   3   5
HETATM    5  C4  UNL     1     -33.935  16.906  -3.664  1.00 20.00     0.001 A 
HETATM    6  C2  UNL     1     -33.355  15.657  -3.635  1.00 20.00     0.018 A 
HETATM    7  C3  UNL     1     -33.864  14.806  -4.658  1.00 20.00     0.032 A 
HETATM    8  C5  UNL     1     -34.814  15.438  -5.431  1.00 20.00     0.075 A 
HETATM    9  S9  UNL     1     -35.088  17.050  -4.923  1.00 20.00    -0.081 SA
HETATM   10 CL10 UNL     1     -35.682  14.795  -6.762  1.00 20.00    -0.076 Cl
ENDBRANCH   3   5
TORSDOF 1
ENDMDL
MODEL 7
REMARK VINA RESULT:      -3.6      3.706      5.276
REMARK  1 active torsions:
REMARK  status: ('A' for Active; 'I' for Inactive)
REMARK    1  A    between atoms: C4_4  and  C7_7 
ROOT
HETATM    1  C1  UNL     1     -35.419  14.006  -5.000  1.00 20.00     0.069 C 
HETATM    2  C6  UNL     1     -35.764  15.553  -6.897  1.00 20.00     0.031 C 
HETATM    3  C7  UNL     1     -34.803  15.128  -5.764  1.00 20.00     0.128 C 
HETATM    4  N8  UNL     1     -35.894  13.145  -4.384  1.00 20.00    -0.197 NA
ENDROOT
BRANCH   3   5
HETATM    5  C4  UNL     1     -34.389  16.252  -4.897  1.00 20.00     0.001 A 
HETATM    6  C2  UNL     1     -34.691  17.590  -5.024  1.00 20.00     0.018 A 
HETATM    7  C3  UNL     1     -34.104  18.372  -3.988  1.00 20.00     0.032 A 
HETATM    8  C5  UNL     1     -33.377  17.601  -3.107  1.00 20.00     0.075 A 
HETATM    9  S9  UNL     1     -33.401  15.943  -3.532  1.00 20.00    -0.081 SA
HETATM   10 CL10 UNL     1     -32.510  18.123  -1.723  1.00 20.00    -0.076 Cl
ENDBRANCH   3   5
TORSDOF 1
ENDMDL
MODEL 8
REMARK VINA RESULT:      -3.6      1.518      1.874
REMARK  1 active torsions:
REMARK  status: ('A' for Active; 'I' for Inactive)
REMARK    1  A    between atoms: C4_4  and  C7_7 
ROOT
HETATM    1  C1  UNL     1     -33.798  18.675   0.188  1.00 20.00     0.069 C 
HETATM    2  C6  UNL     1     -31.417  18.498  -0.453  1.00 20.00     0.031 C 
HETATM    3  C7  UNL     1     -32.844  18.830  -0.946  1.00 20.00     0.128 C 
HETATM    4  N8  UNL     1     -34.556  18.539   1.056  1.00 20.00    -0.197 NA
ENDROOT
BRANCH   3   5
HETATM    5  C4  UNL     1     -33.243  18.058  -2.142  1.00 20.00     0.001 A 
HETATM    6  C2  UNL     1     -33.300  16.691  -2.301  1.00 20.00     0.018 A 
HETATM    7  C3  UNL     1     -33.734  16.321  -3.606  1.00 20.00     0.032 A 
HETATM    8  C5  UNL     1     -33.993  17.420  -4.395  1.00 20.00     0.075 A 
HETATM    9  S9  UNL     1     -33.712  18.890  -3.564  1.00 20.00    -0.081 SA
HETATM   10 CL10 UNL     1     -34.534  17.441  -6.022  1.00 20.00    -0.076 Cl
ENDBRANCH   3   5
TORSDOF 1
ENDMDL
MODEL 9
REMARK VINA RESULT:      -3.5      3.693      4.764
REMARK  1 active torsions:
REMARK  status: ('A' for Active; 'I' for Inactive)
REMARK    1  A    between atoms: C4_4  and  C7_7 
ROOT
HETATM    1  C1  UNL     1     -33.284  16.578  -3.364  1.00 20.00     0.069 C 
HETATM    2  C6  UNL     1     -33.884  18.953  -3.695  1.00 20.00     0.031 C 
HETATM    3  C7  UNL     1     -32.968  17.969  -2.933  1.00 20.00     0.128 C 
HETATM    4  N8  UNL     1     -33.531  15.488  -3.676  1.00 20.00    -0.197 NA
ENDROOT
BRANCH   3   5
HETATM    5  C4  UNL     1     -33.021  18.140  -1.465  1.00 20.00     0.001 A 
HETATM    6  C2  UNL     1     -34.108  18.030  -0.627  1.00 20.00     0.018 A 
HETATM    7  C3  UNL     1     -33.761  18.267   0.734  1.00 20.00     0.032 A 
HETATM    8  C5  UNL     1     -32.421  18.549   0.885  1.00 20.00     0.075 A 
HETATM    9  S9  UNL     1     -31.587  18.528  -0.611  1.00 20.00    -0.081 SA
HETATM   10 CL10 UNL     1     -31.576  18.894   2.336  1.00 20.00    -0.076 Cl
ENDBRANCH   3   5
TORSDOF 1
ENDMDL
