MODEL 1
REMARK VINA RESULT:      -3.7      0.000      0.000
REMARK  3 active torsions:
REMARK  status: ('A' for Active; 'I' for Inactive)
REMARK    1  A    between atoms: C6_6  and  C8_8 
REMARK    2  A    between atoms: C7_7  and  N10_10 
REMARK    3  A    between atoms: C8_8  and  N10_10 
ROOT
HETATM    1  C1  UNL     1     -35.254  14.003  -4.770  1.00 20.00     0.095 C 
HETATM    2  C8  UNL     1     -34.491  15.163  -5.285  1.00 20.00     0.330 C 
HETATM    3  N9  UNL     1     -35.859  13.108  -4.346  1.00 20.00    -0.195 NA
ENDROOT
BRANCH   2   4
HETATM    4  C6  UNL     1     -34.892  15.530  -6.671  1.00 20.00     0.033 A 
HETATM    5  C2  UNL     1     -34.526  16.876  -7.234  1.00 20.00     0.008 A 
HETATM    6  C3  UNL     1     -33.856  15.636  -7.757  1.00 20.00     0.008 A 
ENDBRANCH   2   4
BRANCH   2   7
HETATM    7  N10 UNL     1     -34.656  16.274  -4.363  1.00 20.00     0.106 N 
HETATM    8  H22 UNL     1     -34.921  17.111  -4.885  1.00 20.00     0.318 HD
BRANCH   7   9
HETATM    9  C7  UNL     1     -33.423  16.539  -3.635  1.00 20.00     0.222 A 
HETATM   10  C4  UNL     1     -33.125  17.919  -3.117  1.00 20.00     0.038 A 
HETATM   11  C5  UNL     1     -33.451  16.814  -2.156  1.00 20.00     0.038 A 
ENDBRANCH   7   9
ENDBRANCH   2   7
TORSDOF 3
ENDMDL
MODEL 2
REMARK VINA RESULT:      -3.6     11.573     13.028
REMARK  3 active torsions:
REMARK  status: ('A' for Active; 'I' for Inactive)
REMARK    1  A    between atoms: C6_6  and  C8_8 
REMARK    2  A    between atoms: C7_7  and  N10_10 
REMARK    3  A    between atoms: C8_8  and  N10_10 
ROOT
HETATM    1  C1  UNL     1     -41.312  13.562   4.990  1.00 20.00     0.095 C 
HETATM    2  C8  UNL     1     -40.634  12.897   6.126  1.00 20.00     0.330 C 
HETATM    3  N9  UNL     1     -41.833  14.106   4.107  1.00 20.00    -0.195 NA
ENDROOT
BRANCH   2   4
HETATM    4  C6  UNL     1     -39.774  11.765   5.685  1.00 20.00     0.033 A 
HETATM    5  C2  UNL     1     -39.231  11.728   4.283  1.00 20.00     0.008 A 
HETATM    6  C3  UNL     1     -38.305  11.979   5.440  1.00 20.00     0.008 A 
ENDBRANCH   2   4
BRANCH   2   7
HETATM    7  N10 UNL     1     -39.876  13.895   6.863  1.00 20.00     0.106 N 
HETATM    8  H22 UNL     1     -39.140  13.434   7.399  1.00 20.00     0.318 HD
BRANCH   7   9
HETATM    9  C7  UNL     1     -40.735  14.637   7.776  1.00 20.00     0.222 A 
HETATM   10  C4  UNL     1     -40.180  15.200   9.055  1.00 20.00     0.038 A 
HETATM   11  C5  UNL     1     -40.574  16.123   7.940  1.00 20.00     0.038 A 
ENDBRANCH   7   9
ENDBRANCH   2   7
TORSDOF 3
ENDMDL
MODEL 3
REMARK VINA RESULT:      -3.6      1.761      4.162
REMARK  3 active torsions:
REMARK  status: ('A' for Active; 'I' for Inactive)
REMARK    1  A    between atoms: C6_6  and  C8_8 
REMARK    2  A    between atoms: C7_7  and  N10_10 
REMARK    3  A    between atoms: C8_8  and  N10_10 
ROOT
HETATM    1  C1  UNL     1     -33.670  15.304  -3.958  1.00 20.00     0.095 C 
HETATM    2  C8  UNL     1     -33.787  16.704  -3.487  1.00 20.00     0.330 C 
HETATM    3  N9  UNL     1     -33.568  14.216  -4.349  1.00 20.00    -0.195 NA
ENDROOT
BRANCH   2   4
HETATM    4  C6  UNL     1     -33.086  16.923  -2.192  1.00 20.00     0.033 A 
HETATM    5  C2  UNL     1     -32.676  18.309  -1.778  1.00 20.00     0.008 A 
HETATM    6  C3  UNL     1     -33.792  17.608  -1.054  1.00 20.00     0.008 A 
ENDBRANCH   2   4
BRANCH   2   7
HETATM    7  N10 UNL     1     -33.289  17.587  -4.527  1.00 20.00     0.106 N 
HETATM    8  H22 UNL     1     -32.774  18.358  -4.100  1.00 20.00     0.318 HD
BRANCH   7   9
HETATM    9  C7  UNL     1     -34.382  18.129  -5.323  1.00 20.00     0.222 A 
HETATM   10  C4  UNL     1     -34.101  19.078  -6.456  1.00 20.00     0.038 A 
HETATM   11  C5  UNL     1     -34.584  17.687  -6.747  1.00 20.00     0.038 A 
ENDBRANCH   7   9
ENDBRANCH   2   7
TORSDOF 3
ENDMDL
MODEL 4
REMARK VINA RESULT:      -3.6     12.178     13.803
REMARK  3 active torsions:
REMARK  status: ('A' for Active; 'I' for Inactive)
REMARK    1  A    between atoms: C6_6  and  C8_8 
REMARK    2  A    between atoms: C7_7  and  N10_10 
REMARK    3  A    between atoms: C8_8  and  N10_10 
ROOT
HETATM    1  C1  UNL     1     -40.478  14.442   8.530  1.00 20.00     0.095 C 
HETATM    2  C8  UNL     1     -40.925  13.738   7.305  1.00 20.00     0.330 C 
HETATM    3  N9  UNL     1     -40.105  14.995   9.479  1.00 20.00    -0.195 NA
ENDROOT
BRANCH   2   4
HETATM    4  C6  UNL     1     -42.109  14.391   6.681  1.00 20.00     0.033 A 
HETATM    5  C2  UNL     1     -42.399  14.195   5.219  1.00 20.00     0.008 A 
HETATM    6  C3  UNL     1     -43.291  13.565   6.252  1.00 20.00     0.008 A 
ENDBRANCH   2   4
BRANCH   2   7
HETATM    7  N10 UNL     1     -39.805  13.656   6.383  1.00 20.00     0.106 N 
HETATM    8  H22 UNL     1     -40.046  14.134   5.514  1.00 20.00     0.318 HD
BRANCH   7   9
HETATM    9  C7  UNL     1     -39.472  12.269   6.086  1.00 20.00     0.222 A 
HETATM   10  C4  UNL     1     -39.534  11.757   4.674  1.00 20.00     0.038 A 
HETATM   11  C5  UNL     1     -38.205  11.927   5.351  1.00 20.00     0.038 A 
ENDBRANCH   7   9
ENDBRANCH   2   7
TORSDOF 3
ENDMDL
MODEL 5
REMARK VINA RESULT:      -3.5     12.149     13.955
REMARK  3 active torsions:
REMARK  status: ('A' for Active; 'I' for Inactive)
REMARK    1  A    between atoms: C6_6  and  C8_8 
REMARK    2  A    between atoms: C7_7  and  N10_10 
REMARK    3  A    between atoms: C8_8  and  N10_10 
ROOT
HETATM    1  C1  UNL     1     -42.443  12.551   7.006  1.00 20.00     0.095 C 
HETATM    2  C8  UNL     1     -41.591  13.691   6.598  1.00 20.00     0.330 C 
HETATM    3  N9  UNL     1     -43.103  11.644   7.305  1.00 20.00    -0.195 NA
ENDROOT
BRANCH   2   4
HETATM    4  C6  UNL     1     -40.637  14.093   7.668  1.00 20.00     0.033 A 
HETATM    5  C2  UNL     1     -40.326  15.545   7.899  1.00 20.00     0.008 A 
HETATM    6  C3  UNL     1     -41.136  14.782   8.908  1.00 20.00     0.008 A 
ENDBRANCH   2   4
BRANCH   2   7
HETATM    7  N10 UNL     1     -40.905  13.341   5.366  1.00 20.00     0.106 N 
HETATM    8  H22 UNL     1     -41.590  13.211   4.621  1.00 20.00     0.318 HD
BRANCH   7   9
HETATM    9  C7  UNL     1     -40.136  12.113   5.525  1.00 20.00     0.222 A 
HETATM   10  C4  UNL     1     -39.325  11.569   4.382  1.00 20.00     0.038 A 
HETATM   11  C5  UNL     1     -38.634  12.153   5.579  1.00 20.00     0.038 A 
ENDBRANCH   7   9
ENDBRANCH   2   7
TORSDOF 3
ENDMDL
MODEL 6
REMARK VINA RESULT:      -3.5     12.084     13.254
REMARK  3 active torsions:
REMARK  status: ('A' for Active; 'I' for Inactive)
REMARK    1  A    between atoms: C6_6  and  C8_8 
REMARK    2  A    between atoms: C7_7  and  N10_10 
REMARK    3  A    between atoms: C8_8  and  N10_10 
ROOT
HETATM    1  C1  UNL     1     -40.421  13.715   7.775  1.00 20.00     0.095 C 
HETATM    2  C8  UNL     1     -40.393  13.406   6.326  1.00 20.00     0.330 C 
HETATM    3  N9  UNL     1     -40.468  13.960   8.908  1.00 20.00    -0.195 NA
ENDROOT
BRANCH   2   4
HETATM    4  C6  UNL     1     -39.727  12.105   6.041  1.00 20.00     0.033 A 
HETATM    5  C2  UNL     1     -39.427  11.703   4.624  1.00 20.00     0.008 A 
HETATM    6  C3  UNL     1     -38.304  12.074   5.552  1.00 20.00     0.008 A 
ENDBRANCH   2   4
BRANCH   2   7
HETATM    7  N10 UNL     1     -41.754  13.437   5.819  1.00 20.00     0.106 N 
HETATM    8  H22 UNL     1     -41.894  12.658   5.174  1.00 20.00     0.318 HD
BRANCH   7   9
HETATM    9  C7  UNL     1     -42.024  14.687   5.120  1.00 20.00     0.222 A 
HETATM   10  C4  UNL     1     -42.297  14.688   3.641  1.00 20.00     0.038 A 
HETATM   11  C5  UNL     1     -43.404  14.994   4.607  1.00 20.00     0.038 A 
ENDBRANCH   7   9
ENDBRANCH   2   7
TORSDOF 3
ENDMDL
MODEL 7
REMARK VINA RESULT:      -3.4      2.065      5.216
REMARK  3 active torsions:
REMARK  status: ('A' for Active; 'I' for Inactive)
REMARK    1  A    between atoms: C6_6  and  C8_8 
REMARK    2  A    between atoms: C7_7  and  N10_10 
REMARK    3  A    between atoms: C8_8  and  N10_10 
ROOT
HETATM    1  C1  UNL     1     -33.176  18.613  -3.888  1.00 20.00     0.095 C 
HETATM    2  C8  UNL     1     -33.049  17.763  -2.682  1.00 20.00     0.330 C 
HETATM    3  N9  UNL     1     -33.292  19.262  -4.843  1.00 20.00    -0.195 NA
ENDROOT
BRANCH   2   4
HETATM    4  C6  UNL     1     -33.346  18.514  -1.430  1.00 20.00     0.033 A 
HETATM    5  C2  UNL     1     -33.739  17.777  -0.180  1.00 20.00     0.008 A 
HETATM    6  C3  UNL     1     -32.397  18.449  -0.265  1.00 20.00     0.008 A 
ENDBRANCH   2   4
BRANCH   2   7
HETATM    7  N10 UNL     1     -33.916  16.607  -2.835  1.00 20.00     0.106 N 
HETATM    8  H22 UNL     1     -33.997  16.123  -1.940  1.00 20.00     0.318 HD
BRANCH   7   9
HETATM    9  C7  UNL     1     -33.385  15.683  -3.830  1.00 20.00     0.222 A 
HETATM   10  C4  UNL     1     -34.062  14.364  -4.079  1.00 20.00     0.038 A 
HETATM   11  C5  UNL     1     -34.120  15.443  -5.120  1.00 20.00     0.038 A 
ENDBRANCH   7   9
ENDBRANCH   2   7
TORSDOF 3
ENDMDL
MODEL 8
REMARK VINA RESULT:      -3.4      2.256      3.752
REMARK  3 active torsions:
REMARK  status: ('A' for Active; 'I' for Inactive)
REMARK    1  A    between atoms: C6_6  and  C8_8 
REMARK    2  A    between atoms: C7_7  and  N10_10 
REMARK    3  A    between atoms: C8_8  and  N10_10 
ROOT
HETATM    1  C1  UNL     1     -33.281  18.147  -3.763  1.00 20.00     0.095 C 
HETATM    2  C8  UNL     1     -33.858  16.855  -3.326  1.00 20.00     0.330 C 
HETATM    3  N9  UNL     1     -32.819  19.163  -4.082  1.00 20.00    -0.195 NA
ENDROOT
BRANCH   2   4
HETATM    4  C6  UNL     1     -33.348  15.709  -4.128  1.00 20.00     0.033 A 
HETATM    5  C2  UNL     1     -34.056  14.384  -4.092  1.00 20.00     0.008 A 
HETATM    6  C3  UNL     1     -34.110  15.229  -5.333  1.00 20.00     0.008 A 
ENDBRANCH   2   4
BRANCH   2   7
HETATM    7  N10 UNL     1     -33.590  16.682  -1.908  1.00 20.00     0.106 N 
HETATM    8  H22 UNL     1     -34.266  16.029  -1.512  1.00 20.00     0.318 HD
BRANCH   7   9
HETATM    9  C7  UNL     1     -33.684  17.952  -1.199  1.00 20.00     0.222 A 
HETATM   10  C4  UNL     1     -33.905  17.978   0.288  1.00 20.00     0.038 A 
HETATM   11  C5  UNL     1     -32.581  18.397  -0.278  1.00 20.00     0.038 A 
ENDBRANCH   7   9
ENDBRANCH   2   7
TORSDOF 3
ENDMDL
MODEL 9
REMARK VINA RESULT:      -3.4     16.761     18.701
REMARK  3 active torsions:
REMARK  status: ('A' for Active; 'I' for Inactive)
REMARK    1  A    between atoms: C6_6  and  C8_8 
REMARK    2  A    between atoms: C7_7  and  N10_10 
REMARK    3  A    between atoms: C8_8  and  N10_10 
ROOT
HETATM    1  C1  UNL     1     -24.801  18.996   8.506  1.00 20.00     0.095 C 
HETATM    2  C8  UNL     1     -23.854  18.673   9.598  1.00 20.00     0.330 C 
HETATM    3  N9  UNL     1     -25.557  19.263   7.667  1.00 20.00    -0.195 NA
ENDROOT
BRANCH   2   4
HETATM    4  C6  UNL     1     -22.468  19.125   9.295  1.00 20.00     0.033 A 
HETATM    5  C2  UNL     1     -21.295  18.491   9.990  1.00 20.00     0.008 A 
HETATM    6  C3  UNL     1     -21.531  18.233   8.528  1.00 20.00     0.008 A 
ENDBRANCH   2   4
BRANCH   2   7
HETATM    7  N10 UNL     1     -24.354  19.254  10.833  1.00 20.00     0.106 N 
HETATM    8  H22 UNL     1     -23.747  20.025  11.114  1.00 20.00     0.318 HD
BRANCH   7   9
HETATM    9  C7  UNL     1     -24.390  18.264  11.901  1.00 20.00     0.222 A 
HETATM   10  C4  UNL     1     -25.672  17.553  12.235  1.00 20.00     0.038 A 
HETATM   11  C5  UNL     1     -24.548  16.802  11.584  1.00 20.00     0.038 A 
ENDBRANCH   7   9
ENDBRANCH   2   7
TORSDOF 3
ENDMDL
