MODEL 1
REMARK VINA RESULT:      -3.5      0.000      0.000
REMARK  3 active torsions:
REMARK  status: ('A' for Active; 'I' for Inactive)
REMARK    1  A    between atoms: C4_4  and  C7_7 
REMARK    2  A    between atoms: C6_6  and  N9_9 
REMARK    3  A    between atoms: C7_7  and  N9_9 
ROOT
HETATM    1  C1  UNL     1     -33.097   5.587   2.979  1.00 20.00     0.095 C 
HETATM    2  C7  UNL     1     -33.508   6.389   4.154  1.00 20.00     0.330 C 
HETATM    3  N8  UNL     1     -32.798   4.951   2.057  1.00 20.00    -0.195 NA
ENDROOT
BRANCH   2   4
HETATM    4  C4  UNL     1     -33.230   7.842   3.972  1.00 20.00     0.033 A 
HETATM    5  C2  UNL     1     -33.531   8.814   5.077  1.00 20.00     0.008 A 
HETATM    6  C3  UNL     1     -32.105   8.497   4.726  1.00 20.00     0.008 A 
ENDBRANCH   2   4
BRANCH   2   7
HETATM    7  N9  UNL     1     -34.915   6.139   4.418  1.00 20.00     0.101 N 
HETATM    8  H21 UNL     1     -35.373   5.836   3.557  1.00 20.00     0.317 HD
BRANCH   7   9
HETATM    9  C6  UNL     1     -35.082   5.107   5.434  1.00 20.00     0.267 C 
HETATM   10  C5  UNL     1     -34.284   5.420   6.654  1.00 20.00     0.037 C 
ENDBRANCH   7   9
ENDBRANCH   2   7
TORSDOF 3
ENDMDL
MODEL 2
REMARK VINA RESULT:      -3.5     12.195     13.370
REMARK  3 active torsions:
REMARK  status: ('A' for Active; 'I' for Inactive)
REMARK    1  A    between atoms: C4_4  and  C7_7 
REMARK    2  A    between atoms: C6_6  and  N9_9 
REMARK    3  A    between atoms: C7_7  and  N9_9 
ROOT
HETATM    1  C1  UNL     1     -33.662  15.309  -3.955  1.00 20.00     0.095 C 
HETATM    2  C7  UNL     1     -33.793  16.704  -3.475  1.00 20.00     0.330 C 
HETATM    3  N8  UNL     1     -33.549  14.226  -4.353  1.00 20.00    -0.195 NA
ENDROOT
BRANCH   2   4
HETATM    4  C4  UNL     1     -33.079  16.926  -2.186  1.00 20.00     0.033 A 
HETATM    5  C2  UNL     1     -32.676  18.314  -1.774  1.00 20.00     0.008 A 
HETATM    6  C3  UNL     1     -33.779  17.604  -1.041  1.00 20.00     0.008 A 
ENDBRANCH   2   4
BRANCH   2   7
HETATM    7  N9  UNL     1     -33.318  17.600  -4.515  1.00 20.00     0.101 N 
HETATM    8  H21 UNL     1     -32.666  17.101  -5.121  1.00 20.00     0.317 HD
BRANCH   7   9
HETATM    9  C6  UNL     1     -34.426  18.103  -5.319  1.00 20.00     0.267 C 
HETATM   10  C5  UNL     1     -35.557  18.549  -4.456  1.00 20.00     0.037 C 
ENDBRANCH   7   9
ENDBRANCH   2   7
TORSDOF 3
ENDMDL
MODEL 3
REMARK VINA RESULT:      -3.4      1.045      2.959
REMARK  3 active torsions:
REMARK  status: ('A' for Active; 'I' for Inactive)
REMARK    1  A    between atoms: C4_4  and  C7_7 
REMARK    2  A    between atoms: C6_6  and  N9_9 
REMARK    3  A    between atoms: C7_7  and  N9_9 
ROOT
HETATM    1  C1  UNL     1     -33.375   5.548   3.232  1.00 20.00     0.095 C 
HETATM    2  C7  UNL     1     -34.109   6.377   4.215  1.00 20.00     0.330 C 
HETATM    3  N8  UNL     1     -32.790   4.920   2.451  1.00 20.00    -0.195 NA
ENDROOT
BRANCH   2   4
HETATM    4  C4  UNL     1     -33.777   6.011   5.621  1.00 20.00     0.033 A 
HETATM    5  C2  UNL     1     -34.363   6.792   6.764  1.00 20.00     0.008 A 
HETATM    6  C3  UNL     1     -34.817   5.383   6.506  1.00 20.00     0.008 A 
ENDBRANCH   2   4
BRANCH   2   7
HETATM    7  N9  UNL     1     -33.833   7.776   3.942  1.00 20.00     0.101 N 
HETATM    8  H21 UNL     1     -34.299   8.357   4.641  1.00 20.00     0.317 HD
BRANCH   7   9
HETATM    9  C6  UNL     1     -32.401   8.045   3.979  1.00 20.00     0.267 C 
HETATM   10  C5  UNL     1     -32.088   9.165   4.912  1.00 20.00     0.037 C 
ENDBRANCH   7   9
ENDBRANCH   2   7
TORSDOF 3
ENDMDL
MODEL 4
REMARK VINA RESULT:      -3.4      1.849      3.631
REMARK  3 active torsions:
REMARK  status: ('A' for Active; 'I' for Inactive)
REMARK    1  A    between atoms: C4_4  and  C7_7 
REMARK    2  A    between atoms: C6_6  and  N9_9 
REMARK    3  A    between atoms: C7_7  and  N9_9 
ROOT
HETATM    1  C1  UNL     1     -32.538   8.484   5.016  1.00 20.00     0.095 C 
HETATM    2  C7  UNL     1     -33.084   7.133   4.752  1.00 20.00     0.330 C 
HETATM    3  N8  UNL     1     -32.114   9.548   5.199  1.00 20.00    -0.195 NA
ENDROOT
BRANCH   2   4
HETATM    4  C4  UNL     1     -34.249   6.815   5.625  1.00 20.00     0.033 A 
HETATM    5  C2  UNL     1     -35.179   5.690   5.265  1.00 20.00     0.008 A 
HETATM    6  C3  UNL     1     -34.258   5.555   6.445  1.00 20.00     0.008 A 
ENDBRANCH   2   4
BRANCH   2   7
HETATM    7  N9  UNL     1     -33.423   7.037   3.343  1.00 20.00     0.101 N 
HETATM    8  H21 UNL     1     -33.444   7.972   2.935  1.00 20.00     0.317 HD
BRANCH   7   9
HETATM    9  C6  UNL     1     -32.449   6.225   2.624  1.00 20.00     0.267 C 
HETATM   10  C5  UNL     1     -32.904   4.809   2.517  1.00 20.00     0.037 C 
ENDBRANCH   7   9
ENDBRANCH   2   7
TORSDOF 3
ENDMDL
MODEL 5
REMARK VINA RESULT:      -3.4     12.324     13.368
REMARK  3 active torsions:
REMARK  status: ('A' for Active; 'I' for Inactive)
REMARK    1  A    between atoms: C4_4  and  C7_7 
REMARK    2  A    between atoms: C6_6  and  N9_9 
REMARK    3  A    between atoms: C7_7  and  N9_9 
ROOT
HETATM    1  C1  UNL     1     -35.251  14.001  -4.763  1.00 20.00     0.095 C 
HETATM    2  C7  UNL     1     -34.475  15.164  -5.249  1.00 20.00     0.330 C 
HETATM    3  N8  UNL     1     -35.865  13.102  -4.362  1.00 20.00    -0.195 NA
ENDROOT
BRANCH   2   4
HETATM    4  C4  UNL     1     -34.981  15.676  -6.553  1.00 20.00     0.033 A 
HETATM    5  C2  UNL     1     -34.519  17.009  -7.074  1.00 20.00     0.008 A 
HETATM    6  C3  UNL     1     -34.069  15.742  -7.746  1.00 20.00     0.008 A 
ENDBRANCH   2   4
BRANCH   2   7
HETATM    7  N9  UNL     1     -34.489  16.193  -4.223  1.00 20.00     0.101 N 
HETATM    8  H21 UNL     1     -35.319  16.079  -3.640  1.00 20.00     0.317 HD
BRANCH   7   9
HETATM    9  C6  UNL     1     -33.301  16.111  -3.382  1.00 20.00     0.267 C 
HETATM   10  C5  UNL     1     -33.485  16.877  -2.117  1.00 20.00     0.037 C 
ENDBRANCH   7   9
ENDBRANCH   2   7
TORSDOF 3
ENDMDL
MODEL 6
REMARK VINA RESULT:      -3.4      8.903     10.501
REMARK  3 active torsions:
REMARK  status: ('A' for Active; 'I' for Inactive)
REMARK    1  A    between atoms: C4_4  and  C7_7 
REMARK    2  A    between atoms: C6_6  and  N9_9 
REMARK    3  A    between atoms: C7_7  and  N9_9 
ROOT
HETATM    1  C1  UNL     1     -40.386  13.756   7.650  1.00 20.00     0.095 C 
HETATM    2  C7  UNL     1     -40.454  13.384   6.218  1.00 20.00     0.330 C 
HETATM    3  N8  UNL     1     -40.358  14.047   8.772  1.00 20.00    -0.195 NA
ENDROOT
BRANCH   2   4
HETATM    4  C4  UNL     1     -39.783  12.084   5.940  1.00 20.00     0.033 A 
HETATM    5  C2  UNL     1     -39.484  11.674   4.524  1.00 20.00     0.008 A 
HETATM    6  C3  UNL     1     -38.362  12.056   5.448  1.00 20.00     0.008 A 
ENDBRANCH   2   4
BRANCH   2   7
HETATM    7  N9  UNL     1     -41.847  13.371   5.807  1.00 20.00     0.101 N 
HETATM    8  H21 UNL     1     -42.434  13.128   6.607  1.00 20.00     0.317 HD
BRANCH   7   9
HETATM    9  C6  UNL     1     -42.256  14.673   5.295  1.00 20.00     0.267 C 
HETATM   10  C5  UNL     1     -42.306  14.673   3.805  1.00 20.00     0.037 C 
ENDBRANCH   7   9
ENDBRANCH   2   7
TORSDOF 3
ENDMDL
MODEL 7
REMARK VINA RESULT:      -3.3      1.239      3.230
REMARK  3 active torsions:
REMARK  status: ('A' for Active; 'I' for Inactive)
REMARK    1  A    between atoms: C4_4  and  C7_7 
REMARK    2  A    between atoms: C6_6  and  N9_9 
REMARK    3  A    between atoms: C7_7  and  N9_9 
ROOT
HETATM    1  C1  UNL     1     -33.211   5.813   3.274  1.00 20.00     0.095 C 
HETATM    2  C7  UNL     1     -33.720   6.844   4.207  1.00 20.00     0.330 C 
HETATM    3  N8  UNL     1     -32.789   5.010   2.551  1.00 20.00    -0.195 NA
ENDROOT
BRANCH   2   4
HETATM    4  C4  UNL     1     -34.771   6.310   5.118  1.00 20.00     0.033 A 
HETATM    5  C2  UNL     1     -34.549   5.020   5.856  1.00 20.00     0.008 A 
HETATM    6  C3  UNL     1     -34.560   6.322   6.607  1.00 20.00     0.008 A 
ENDBRANCH   2   4
BRANCH   2   7
HETATM    7  N9  UNL     1     -32.598   7.398   4.945  1.00 20.00     0.101 N 
HETATM    8  H21 UNL     1     -31.736   6.939   4.646  1.00 20.00     0.317 HD
BRANCH   7   9
HETATM    9  C6  UNL     1     -32.477   8.832   4.715  1.00 20.00     0.267 C 
HETATM   10  C5  UNL     1     -32.553   9.153   3.261  1.00 20.00     0.037 C 
ENDBRANCH   7   9
ENDBRANCH   2   7
TORSDOF 3
ENDMDL
MODEL 8
REMARK VINA RESULT:      -3.2      9.344     10.903
REMARK  3 active torsions:
REMARK  status: ('A' for Active; 'I' for Inactive)
REMARK    1  A    between atoms: C4_4  and  C7_7 
REMARK    2  A    between atoms: C6_6  and  N9_9 
REMARK    3  A    between atoms: C7_7  and  N9_9 
ROOT
HETATM    1  C1  UNL     1     -40.435  14.375   8.308  1.00 20.00     0.095 C 
HETATM    2  C7  UNL     1     -40.830  13.703   7.049  1.00 20.00     0.330 C 
HETATM    3  N8  UNL     1     -40.102  14.900   9.287  1.00 20.00    -0.195 NA
ENDROOT
BRANCH   2   4
HETATM    4  C4  UNL     1     -41.799  14.512   6.257  1.00 20.00     0.033 A 
HETATM    5  C2  UNL     1     -42.049  14.190   4.810  1.00 20.00     0.008 A 
HETATM    6  C3  UNL     1     -43.115  13.919   5.836  1.00 20.00     0.008 A 
ENDBRANCH   2   4
BRANCH   2   7
HETATM    7  N9  UNL     1     -39.631  13.401   6.288  1.00 20.00     0.101 N 
HETATM    8  H21 UNL     1     -38.810  13.704   6.814  1.00 20.00     0.317 HD
BRANCH   7   9
HETATM    9  C6  UNL     1     -39.525  11.972   6.022  1.00 20.00     0.267 C 
HETATM   10  C5  UNL     1     -39.202  11.714   4.589  1.00 20.00     0.037 C 
ENDBRANCH   7   9
ENDBRANCH   2   7
TORSDOF 3
ENDMDL
MODEL 9
REMARK VINA RESULT:      -3.2      8.701     10.135
REMARK  3 active torsions:
REMARK  status: ('A' for Active; 'I' for Inactive)
REMARK    1  A    between atoms: C4_4  and  C7_7 
REMARK    2  A    between atoms: C6_6  and  N9_9 
REMARK    3  A    between atoms: C7_7  and  N9_9 
ROOT
HETATM    1  C1  UNL     1     -41.364  13.654   4.946  1.00 20.00     0.095 C 
HETATM    2  C7  UNL     1     -40.738  13.033   6.136  1.00 20.00     0.330 C 
HETATM    3  N8  UNL     1     -41.843  14.162   4.020  1.00 20.00    -0.195 NA
ENDROOT
BRANCH   2   4
HETATM    4  C4  UNL     1     -39.881  11.868   5.779  1.00 20.00     0.033 A 
HETATM    5  C2  UNL     1     -39.317  11.739   4.392  1.00 20.00     0.008 A 
HETATM    6  C3  UNL     1     -38.407  12.056   5.545  1.00 20.00     0.008 A 
ENDBRANCH   2   4
BRANCH   2   7
HETATM    7  N9  UNL     1     -39.992  14.052   6.853  1.00 20.00     0.101 N 
HETATM    8  H21 UNL     1     -40.103  14.950   6.380  1.00 20.00     0.317 HD
BRANCH   7   9
HETATM    9  C6  UNL     1     -40.462  14.177   8.227  1.00 20.00     0.267 C 
HETATM   10  C5  UNL     1     -40.316  15.576   8.720  1.00 20.00     0.037 C 
ENDBRANCH   7   9
ENDBRANCH   2   7
TORSDOF 3
ENDMDL
