MODEL 1
REMARK VINA RESULT:      -4.4      0.000      0.000
REMARK  0 active torsions:
REMARK  status: ('A' for Active; 'I' for Inactive)
ROOT
HETATM    1  C1  UNL     1     -36.973  16.312  -5.798  1.00 20.00     0.068 C 
HETATM    2  C2  UNL     1     -33.250  15.989  -3.255  1.00 20.00     0.009 A 
HETATM    3  C3  UNL     1     -33.438  17.001  -2.310  1.00 20.00     0.024 A 
HETATM    4  C4  UNL     1     -35.116  18.064  -3.714  1.00 20.00     0.033 A 
HETATM    5  C5  UNL     1     -33.994  16.035  -4.422  1.00 20.00    -0.050 A 
HETATM    6  C6  UNL     1     -34.924  17.059  -4.650  1.00 20.00    -0.033 A 
HETATM    7  C7  UNL     1     -34.363  18.031  -2.539  1.00 20.00     0.034 A 
HETATM    8  C8  UNL     1     -33.991  15.056  -5.552  1.00 20.00     0.041 C 
HETATM    9  C9  UNL     1     -34.675  15.876  -6.660  1.00 20.00     0.028 C 
HETATM   10  C10 UNL     1     -35.626  16.873  -5.964  1.00 20.00     0.126 C 
HETATM   11  N11 UNL     1     -38.036  15.870  -5.666  1.00 20.00    -0.197 NA
HETATM   12 CL12 UNL     1     -34.577  19.262  -1.353  1.00 20.00    -0.084 Cl
ENDROOT
TORSDOF 0
ENDMDL
MODEL 2
REMARK VINA RESULT:      -4.1     12.758     14.046
REMARK  0 active torsions:
REMARK  status: ('A' for Active; 'I' for Inactive)
ROOT
HETATM    1  C1  UNL     1     -40.853  14.252   9.859  1.00 20.00     0.068 C 
HETATM    2  C2  UNL     1     -42.091  14.718   5.537  1.00 20.00     0.009 A 
HETATM    3  C3  UNL     1     -41.473  13.626   4.924  1.00 20.00     0.024 A 
HETATM    4  C4  UNL     1     -39.965  13.358   6.814  1.00 20.00     0.033 A 
HETATM    5  C5  UNL     1     -41.629  15.121   6.779  1.00 20.00    -0.050 A 
HETATM    6  C6  UNL     1     -40.580  14.445   7.417  1.00 20.00    -0.033 A 
HETATM    7  C7  UNL     1     -40.417  12.952   5.557  1.00 20.00     0.034 A 
HETATM    8  C8  UNL     1     -42.150  16.229   7.637  1.00 20.00     0.041 C 
HETATM    9  C9  UNL     1     -40.986  16.414   8.625  1.00 20.00     0.028 C 
HETATM   10  C10 UNL     1     -40.285  15.045   8.761  1.00 20.00     0.126 C 
HETATM   11  N11 UNL     1     -41.301  13.625  10.725  1.00 20.00    -0.197 NA
HETATM   12 CL12 UNL     1     -39.677  11.605   4.778  1.00 20.00    -0.084 Cl
ENDROOT
TORSDOF 0
ENDMDL
MODEL 3
REMARK VINA RESULT:      -4.1      2.238      3.230
REMARK  0 active torsions:
REMARK  status: ('A' for Active; 'I' for Inactive)
ROOT
HETATM    1  C1  UNL     1     -35.122  13.993  -4.729  1.00 20.00     0.068 C 
HETATM    2  C2  UNL     1     -34.676  18.362  -3.660  1.00 20.00     0.009 A 
HETATM    3  C3  UNL     1     -35.552  18.985  -4.553  1.00 20.00     0.024 A 
HETATM    4  C4  UNL     1     -35.584  17.009  -5.972  1.00 20.00     0.033 A 
HETATM    5  C5  UNL     1     -34.259  17.072  -3.943  1.00 20.00    -0.050 A 
HETATM    6  C6  UNL     1     -34.712  16.397  -5.085  1.00 20.00    -0.033 A 
HETATM    7  C7  UNL     1     -36.001  18.314  -5.700  1.00 20.00     0.034 A 
HETATM    8  C8  UNL     1     -33.360  16.198  -3.127  1.00 20.00     0.041 C 
HETATM    9  C9  UNL     1     -32.974  15.123  -4.157  1.00 20.00     0.028 C 
HETATM   10  C10 UNL     1     -34.148  15.007  -5.153  1.00 20.00     0.126 C 
HETATM   11  N11 UNL     1     -35.892  13.193  -4.394  1.00 20.00    -0.197 NA
HETATM   12 CL12 UNL     1     -37.085  19.105  -6.780  1.00 20.00    -0.084 Cl
ENDROOT
TORSDOF 0
ENDMDL
MODEL 4
REMARK VINA RESULT:      -3.8      2.940      4.170
REMARK  0 active torsions:
REMARK  status: ('A' for Active; 'I' for Inactive)
ROOT
HETATM    1  C1  UNL     1     -33.257  18.381  -3.812  1.00 20.00     0.068 C 
HETATM    2  C2  UNL     1     -34.752  14.768  -6.079  1.00 20.00     0.009 A 
HETATM    3  C3  UNL     1     -35.882  15.266  -6.733  1.00 20.00     0.024 A 
HETATM    4  C4  UNL     1     -35.977  17.169  -5.220  1.00 20.00     0.033 A 
HETATM    5  C5  UNL     1     -34.256  15.476  -4.996  1.00 20.00    -0.050 A 
HETATM    6  C6  UNL     1     -34.858  16.669  -4.573  1.00 20.00    -0.033 A 
HETATM    7  C7  UNL     1     -36.490  16.455  -6.306  1.00 20.00     0.034 A 
HETATM    8  C8  UNL     1     -33.050  15.162  -4.169  1.00 20.00     0.041 C 
HETATM    9  C9  UNL     1     -33.297  16.048  -2.935  1.00 20.00     0.028 C 
HETATM   10  C10 UNL     1     -34.121  17.265  -3.408  1.00 20.00     0.126 C 
HETATM   11  N11 UNL     1     -32.575  19.263  -4.131  1.00 20.00    -0.197 NA
HETATM   12 CL12 UNL     1     -37.879  17.047  -7.135  1.00 20.00    -0.084 Cl
ENDROOT
TORSDOF 0
ENDMDL
MODEL 5
REMARK VINA RESULT:      -3.8     12.158     13.381
REMARK  0 active torsions:
REMARK  status: ('A' for Active; 'I' for Inactive)
ROOT
HETATM    1  C1  UNL     1     -36.009   5.845   4.209  1.00 20.00     0.068 C 
HETATM    2  C2  UNL     1     -32.527   8.607   5.031  1.00 20.00     0.009 A 
HETATM    3  C3  UNL     1     -31.972   8.783   3.761  1.00 20.00     0.024 A 
HETATM    4  C4  UNL     1     -33.130   6.812   2.930  1.00 20.00     0.033 A 
HETATM    5  C5  UNL     1     -33.371   7.528   5.234  1.00 20.00    -0.050 A 
HETATM    6  C6  UNL     1     -33.676   6.640   4.193  1.00 20.00    -0.033 A 
HETATM    7  C7  UNL     1     -32.270   7.891   2.720  1.00 20.00     0.034 A 
HETATM    8  C8  UNL     1     -34.103   7.157   6.484  1.00 20.00     0.041 C 
HETATM    9  C9  UNL     1     -34.492   5.700   6.181  1.00 20.00     0.028 C 
HETATM   10  C10 UNL     1     -34.634   5.578   4.649  1.00 20.00     0.126 C 
HETATM   11  N11 UNL     1     -37.095   6.058   3.860  1.00 20.00    -0.197 NA
HETATM   12 CL12 UNL     1     -31.574   8.136   1.163  1.00 20.00    -0.084 Cl
ENDROOT
TORSDOF 0
ENDMDL
MODEL 6
REMARK VINA RESULT:      -3.6     12.561     13.591
REMARK  0 active torsions:
REMARK  status: ('A' for Active; 'I' for Inactive)
ROOT
HETATM    1  C1  UNL     1     -39.793  12.509   5.974  1.00 20.00     0.068 C 
HETATM    2  C2  UNL     1     -41.318  16.464   7.542  1.00 20.00     0.009 A 
HETATM    3  C3  UNL     1     -40.811  16.491   8.843  1.00 20.00     0.024 A 
HETATM    4  C4  UNL     1     -40.427  14.090   8.795  1.00 20.00     0.033 A 
HETATM    5  C5  UNL     1     -41.381  15.244   6.888  1.00 20.00    -0.050 A 
HETATM    6  C6  UNL     1     -40.935  14.067   7.504  1.00 20.00    -0.033 A 
HETATM    7  C7  UNL     1     -40.371  15.314   9.465  1.00 20.00     0.034 A 
HETATM    8  C8  UNL     1     -41.848  14.973   5.494  1.00 20.00     0.041 C 
HETATM    9  C9  UNL     1     -42.060  13.450   5.541  1.00 20.00     0.028 C 
HETATM   10  C10 UNL     1     -41.073  12.888   6.586  1.00 20.00     0.126 C 
HETATM   11  N11 UNL     1     -38.781  12.210   5.492  1.00 20.00    -0.197 NA
HETATM   12 CL12 UNL     1     -39.745  15.379  11.069  1.00 20.00    -0.084 Cl
ENDROOT
TORSDOF 0
ENDMDL
MODEL 7
REMARK VINA RESULT:      -3.5      2.449      3.748
REMARK  0 active torsions:
REMARK  status: ('A' for Active; 'I' for Inactive)
ROOT
HETATM    1  C1  UNL     1     -33.900  15.088  -3.994  1.00 20.00     0.068 C 
HETATM    2  C2  UNL     1     -35.847  18.881  -2.495  1.00 20.00     0.009 A 
HETATM    3  C3  UNL     1     -36.647  19.261  -3.576  1.00 20.00     0.024 A 
HETATM    4  C4  UNL     1     -35.380  17.825  -5.077  1.00 20.00     0.033 A 
HETATM    5  C5  UNL     1     -34.817  17.984  -2.724  1.00 20.00    -0.050 A 
HETATM    6  C6  UNL     1     -34.587  17.455  -4.001  1.00 20.00    -0.033 A 
HETATM    7  C7  UNL     1     -36.414  18.738  -4.857  1.00 20.00     0.034 A 
HETATM    8  C8  UNL     1     -33.861  17.410  -1.728  1.00 20.00     0.041 C 
HETATM    9  C9  UNL     1     -32.764  16.856  -2.653  1.00 20.00     0.028 C 
HETATM   10  C10 UNL     1     -33.443  16.483  -3.988  1.00 20.00     0.126 C 
HETATM   11  N11 UNL     1     -34.262  13.986  -3.998  1.00 20.00    -0.197 NA
HETATM   12 CL12 UNL     1     -37.419  19.220  -6.170  1.00 20.00    -0.084 Cl
ENDROOT
TORSDOF 0
ENDMDL
MODEL 8
REMARK VINA RESULT:      -3.5     11.855     12.859
REMARK  0 active torsions:
REMARK  status: ('A' for Active; 'I' for Inactive)
ROOT
HETATM    1  C1  UNL     1     -42.697  16.216   4.869  1.00 20.00     0.068 C 
HETATM    2  C2  UNL     1     -40.164  13.496   7.440  1.00 20.00     0.009 A 
HETATM    3  C3  UNL     1     -39.519  12.696   6.494  1.00 20.00     0.024 A 
HETATM    4  C4  UNL     1     -41.151  13.308   4.796  1.00 20.00     0.033 A 
HETATM    5  C5  UNL     1     -41.302  14.184   7.052  1.00 20.00    -0.050 A 
HETATM    6  C6  UNL     1     -41.790  14.097   5.740  1.00 20.00    -0.033 A 
HETATM    7  C7  UNL     1     -40.010  12.602   5.183  1.00 20.00     0.034 A 
HETATM    8  C8  UNL     1     -42.134  15.119   7.870  1.00 20.00     0.041 C 
HETATM    9  C9  UNL     1     -43.417  15.193   7.025  1.00 20.00     0.028 C 
HETATM   10  C10 UNL     1     -43.007  14.956   5.556  1.00 20.00     0.126 C 
HETATM   11  N11 UNL     1     -42.452  17.211   4.326  1.00 20.00    -0.197 NA
HETATM   12 CL12 UNL     1     -39.190  11.612   4.036  1.00 20.00    -0.084 Cl
ENDROOT
TORSDOF 0
ENDMDL
MODEL 9
REMARK VINA RESULT:      -3.4     25.709     27.055
REMARK  0 active torsions:
REMARK  status: ('A' for Active; 'I' for Inactive)
ROOT
HETATM    1  C1  UNL     1     -23.370  -3.246   8.581  1.00 20.00     0.068 C 
HETATM    2  C2  UNL     1     -26.166  -4.730  11.807  1.00 20.00     0.009 A 
HETATM    3  C3  UNL     1     -27.370  -4.103  11.479  1.00 20.00     0.024 A 
HETATM    4  C4  UNL     1     -26.203  -2.487  10.084  1.00 20.00     0.033 A 
HETATM    5  C5  UNL     1     -24.994  -4.219  11.275  1.00 20.00    -0.050 A 
HETATM    6  C6  UNL     1     -25.010  -3.112  10.417  1.00 20.00    -0.033 A 
HETATM    7  C7  UNL     1     -27.388  -2.989  10.625  1.00 20.00     0.034 A 
HETATM    8  C8  UNL     1     -23.603  -4.737  11.454  1.00 20.00     0.041 C 
HETATM    9  C9  UNL     1     -22.773  -3.530  10.984  1.00 20.00     0.028 C 
HETATM   10  C10 UNL     1     -23.626  -2.769   9.946  1.00 20.00     0.126 C 
HETATM   11  N11 UNL     1     -23.170  -3.623   7.503  1.00 20.00    -0.197 NA
HETATM   12 CL12 UNL     1     -28.889  -2.240  10.234  1.00 20.00    -0.084 Cl
ENDROOT
TORSDOF 0
ENDMDL
