MODEL 1
REMARK VINA RESULT:      -4.2      0.000      0.000
REMARK  2 active torsions:
REMARK  status: ('A' for Active; 'I' for Inactive)
REMARK    1  A    between atoms: C5_5  and  N8_8 
REMARK    2  A    between atoms: C7_7  and  N8_8 
ROOT
HETATM    1  C1  UNL     1     -32.867   4.816   2.474  1.00 20.00     0.013 C 
HETATM    2  C2  UNL     1     -32.747   5.976   2.762  1.00 20.00    -0.087 C 
HETATM    3  C7  UNL     1     -32.601   7.392   3.108  1.00 20.00     0.364 C 
ENDROOT
BRANCH   3   4
HETATM    4  N8  UNL     1     -32.661   7.578   4.557  1.00 20.00     0.099 N 
HETATM    5  C6  UNL     1     -32.223   8.926   4.918  1.00 20.00     0.311 C 
BRANCH   4   6
HETATM    6  C5  UNL     1     -34.016   7.332   5.048  1.00 20.00     0.223 A 
HETATM    7  C3  UNL     1     -34.438   5.947   5.457  1.00 20.00     0.038 A 
HETATM    8  C4  UNL     1     -34.257   7.013   6.499  1.00 20.00     0.038 A 
ENDBRANCH   4   6
ENDBRANCH   3   4
TORSDOF 2
ENDMDL
MODEL 2
REMARK VINA RESULT:      -4.1      1.153      3.280
REMARK  2 active torsions:
REMARK  status: ('A' for Active; 'I' for Inactive)
REMARK    1  A    between atoms: C5_5  and  N8_8 
REMARK    2  A    between atoms: C7_7  and  N8_8 
ROOT
HETATM    1  C1  UNL     1     -34.767   5.319   6.783  1.00 20.00     0.013 C 
HETATM    2  C2  UNL     1     -34.686   5.513   5.601  1.00 20.00    -0.087 C 
HETATM    3  C7  UNL     1     -34.593   5.750   4.158  1.00 20.00     0.364 C 
ENDROOT
BRANCH   3   4
HETATM    4  N8  UNL     1     -33.215   6.049   3.772  1.00 20.00     0.099 N 
HETATM    5  C6  UNL     1     -32.858   5.327   2.551  1.00 20.00     0.311 C 
BRANCH   4   6
HETATM    6  C5  UNL     1     -33.037   7.488   3.585  1.00 20.00     0.223 A 
HETATM    7  C3  UNL     1     -33.531   8.457   4.624  1.00 20.00     0.038 A 
HETATM    8  C4  UNL     1     -32.057   8.253   4.432  1.00 20.00     0.038 A 
ENDBRANCH   4   6
ENDBRANCH   3   4
TORSDOF 2
ENDMDL
MODEL 3
REMARK VINA RESULT:      -3.9      0.978      1.589
REMARK  2 active torsions:
REMARK  status: ('A' for Active; 'I' for Inactive)
REMARK    1  A    between atoms: C5_5  and  N8_8 
REMARK    2  A    between atoms: C7_7  and  N8_8 
ROOT
HETATM    1  C1  UNL     1     -32.165   8.424   1.277  1.00 20.00     0.013 C 
HETATM    2  C2  UNL     1     -32.360   7.620   2.147  1.00 20.00    -0.087 C 
HETATM    3  C7  UNL     1     -32.596   6.636   3.206  1.00 20.00     0.364 C 
ENDROOT
BRANCH   3   4
HETATM    4  N8  UNL     1     -32.749   7.298   4.501  1.00 20.00     0.099 N 
HETATM    5  C6  UNL     1     -32.407   8.716   4.393  1.00 20.00     0.311 C 
BRANCH   4   6
HETATM    6  C5  UNL     1     -34.114   7.137   4.999  1.00 20.00     0.223 A 
HETATM    7  C3  UNL     1     -34.798   5.799   4.926  1.00 20.00     0.038 A 
HETATM    8  C4  UNL     1     -34.381   6.356   6.257  1.00 20.00     0.038 A 
ENDBRANCH   4   6
ENDBRANCH   3   4
TORSDOF 2
ENDMDL
MODEL 4
REMARK VINA RESULT:      -3.9      1.506      2.714
REMARK  2 active torsions:
REMARK  status: ('A' for Active; 'I' for Inactive)
REMARK    1  A    between atoms: C5_5  and  N8_8 
REMARK    2  A    between atoms: C7_7  and  N8_8 
ROOT
HETATM    1  C1  UNL     1     -33.918   4.063   4.438  1.00 20.00     0.013 C 
HETATM    2  C2  UNL     1     -34.393   5.166   4.447  1.00 20.00    -0.087 C 
HETATM    3  C7  UNL     1     -34.976   6.510   4.455  1.00 20.00     0.364 C 
ENDROOT
BRANCH   3   4
HETATM    4  N8  UNL     1     -34.233   7.389   5.356  1.00 20.00     0.099 N 
HETATM    5  C6  UNL     1     -34.214   6.835   6.710  1.00 20.00     0.311 C 
BRANCH   4   6
HETATM    6  C5  UNL     1     -32.869   7.589   4.867  1.00 20.00     0.223 A 
HETATM    7  C3  UNL     1     -32.629   8.196   3.512  1.00 20.00     0.038 A 
HETATM    8  C4  UNL     1     -32.294   8.974   4.751  1.00 20.00     0.038 A 
ENDBRANCH   4   6
ENDBRANCH   3   4
TORSDOF 2
ENDMDL
MODEL 5
REMARK VINA RESULT:      -3.8     12.079     12.766
REMARK  2 active torsions:
REMARK  status: ('A' for Active; 'I' for Inactive)
REMARK    1  A    between atoms: C5_5  and  N8_8 
REMARK    2  A    between atoms: C7_7  and  N8_8 
ROOT
HETATM    1  C1  UNL     1     -33.340  15.525  -3.798  1.00 20.00     0.013 C 
HETATM    2  C2  UNL     1     -33.398  16.329  -2.908  1.00 20.00    -0.087 C 
HETATM    3  C7  UNL     1     -33.472  17.307  -1.819  1.00 20.00     0.364 C 
ENDROOT
BRANCH   3   4
HETATM    4  N8  UNL     1     -32.504  18.384  -2.027  1.00 20.00     0.099 N 
HETATM    5  C6  UNL     1     -32.941  19.262  -3.113  1.00 20.00     0.311 C 
BRANCH   4   6
HETATM    6  C5  UNL     1     -32.319  19.149  -0.795  1.00 20.00     0.223 A 
HETATM    7  C3  UNL     1     -32.475  18.483   0.545  1.00 20.00     0.038 A 
HETATM    8  C4  UNL     1     -31.115  18.913   0.077  1.00 20.00     0.038 A 
ENDBRANCH   4   6
ENDBRANCH   3   4
TORSDOF 2
ENDMDL
MODEL 6
REMARK VINA RESULT:      -3.8      1.157      2.396
REMARK  2 active torsions:
REMARK  status: ('A' for Active; 'I' for Inactive)
REMARK    1  A    between atoms: C5_5  and  N8_8 
REMARK    2  A    between atoms: C7_7  and  N8_8 
ROOT
HETATM    1  C1  UNL     1     -32.142   8.383   1.176  1.00 20.00     0.013 C 
HETATM    2  C2  UNL     1     -32.284   8.006   2.307  1.00 20.00    -0.087 C 
HETATM    3  C7  UNL     1     -32.454   7.551   3.690  1.00 20.00     0.364 C 
ENDROOT
BRANCH   3   4
HETATM    4  N8  UNL     1     -33.426   6.461   3.757  1.00 20.00     0.099 N 
HETATM    5  C6  UNL     1     -33.018   5.358   2.887  1.00 20.00     0.311 C 
BRANCH   4   6
HETATM    6  C5  UNL     1     -33.578   5.996   5.135  1.00 20.00     0.223 A 
HETATM    7  C3  UNL     1     -34.023   6.945   6.214  1.00 20.00     0.038 A 
HETATM    8  C4  UNL     1     -34.944   5.855   5.748  1.00 20.00     0.038 A 
ENDBRANCH   4   6
ENDBRANCH   3   4
TORSDOF 2
ENDMDL
MODEL 7
REMARK VINA RESULT:      -3.8      0.833      2.974
REMARK  2 active torsions:
REMARK  status: ('A' for Active; 'I' for Inactive)
REMARK    1  A    between atoms: C5_5  and  N8_8 
REMARK    2  A    between atoms: C7_7  and  N8_8 
ROOT
HETATM    1  C1  UNL     1     -35.216   5.379   5.233  1.00 20.00     0.013 C 
HETATM    2  C2  UNL     1     -34.365   6.198   5.448  1.00 20.00    -0.087 C 
HETATM    3  C7  UNL     1     -33.325   7.196   5.715  1.00 20.00     0.364 C 
ENDROOT
BRANCH   3   4
HETATM    4  N8  UNL     1     -33.057   7.994   4.519  1.00 20.00     0.099 N 
HETATM    5  C6  UNL     1     -32.466   9.281   4.886  1.00 20.00     0.311 C 
BRANCH   4   6
HETATM    6  C5  UNL     1     -32.175   7.268   3.607  1.00 20.00     0.223 A 
HETATM    7  C3  UNL     1     -32.730   6.209   2.693  1.00 20.00     0.038 A 
HETATM    8  C4  UNL     1     -32.243   7.510   2.124  1.00 20.00     0.038 A 
ENDBRANCH   4   6
ENDBRANCH   3   4
TORSDOF 2
ENDMDL
MODEL 8
REMARK VINA RESULT:      -3.7      9.340     10.252
REMARK  2 active torsions:
REMARK  status: ('A' for Active; 'I' for Inactive)
REMARK    1  A    between atoms: C5_5  and  N8_8 
REMARK    2  A    between atoms: C7_7  and  N8_8 
ROOT
HETATM    1  C1  UNL     1     -38.995  11.630   4.151  1.00 20.00     0.013 C 
HETATM    2  C2  UNL     1     -39.667  12.024   5.066  1.00 20.00    -0.087 C 
HETATM    3  C7  UNL     1     -40.485  12.500   6.184  1.00 20.00     0.364 C 
ENDROOT
BRANCH   3   4
HETATM    4  N8  UNL     1     -40.833  13.909   6.005  1.00 20.00     0.099 N 
HETATM    5  C6  UNL     1     -41.925  14.047   5.042  1.00 20.00     0.311 C 
BRANCH   4   6
HETATM    6  C5  UNL     1     -41.203  14.510   7.286  1.00 20.00     0.223 A 
HETATM    7  C3  UNL     1     -40.322  14.332   8.492  1.00 20.00     0.038 A 
HETATM    8  C4  UNL     1     -40.427  15.677   7.834  1.00 20.00     0.038 A 
ENDBRANCH   4   6
ENDBRANCH   3   4
TORSDOF 2
ENDMDL
MODEL 9
REMARK VINA RESULT:      -3.7      9.002     10.218
REMARK  2 active torsions:
REMARK  status: ('A' for Active; 'I' for Inactive)
REMARK    1  A    between atoms: C5_5  and  N8_8 
REMARK    2  A    between atoms: C7_7  and  N8_8 
ROOT
HETATM    1  C1  UNL     1     -43.309  12.016   7.352  1.00 20.00     0.013 C 
HETATM    2  C2  UNL     1     -42.621  12.731   6.676  1.00 20.00    -0.087 C 
HETATM    3  C7  UNL     1     -41.785  13.606   5.849  1.00 20.00     0.364 C 
ENDROOT
BRANCH   3   4
HETATM    4  N8  UNL     1     -40.400  13.587   6.316  1.00 20.00     0.099 N 
HETATM    5  C6  UNL     1     -40.326  14.001   7.717  1.00 20.00     0.311 C 
BRANCH   4   6
HETATM    6  C5  UNL     1     -39.821  12.255   6.145  1.00 20.00     0.223 A 
HETATM    7  C3  UNL     1     -39.608  11.688   4.768  1.00 20.00     0.038 A 
HETATM    8  C4  UNL     1     -38.427  12.091   5.603  1.00 20.00     0.038 A 
ENDBRANCH   4   6
ENDBRANCH   3   4
TORSDOF 2
ENDMDL
