MODEL 1
REMARK VINA RESULT:      -3.9      0.000      0.000
REMARK  1 active torsions:
REMARK  status: ('A' for Active; 'I' for Inactive)
REMARK    1  A    between atoms: C6_6  and  N8_8 
ROOT
HETATM    1  C1  UNL     1     -32.785   9.533   0.672  1.00 20.00     0.014 C 
HETATM    2  C2  UNL     1     -32.432   8.605   1.348  1.00 20.00    -0.096 C 
HETATM    3  C6  UNL     1     -32.000   7.470   2.169  1.00 20.00     0.243 C 
ENDROOT
BRANCH   3   4
HETATM    4  N8  UNL     1     -32.605   7.490   3.479  1.00 20.00    -0.269 N 
HETATM    5  C4  UNL     1     -33.390   6.517   4.023  1.00 20.00     0.138 A 
HETATM    6  C5  UNL     1     -33.736   6.969   5.274  1.00 20.00     0.070 A 
HETATM    7  C3  UNL     1     -33.105   8.223   5.380  1.00 20.00     0.164 A 
HETATM    8 CL9  UNL     1     -34.696   6.216   6.443  1.00 20.00    -0.081 Cl
HETATM    9  N7  UNL     1     -32.413   8.547   4.286  1.00 20.00    -0.183 NA
ENDBRANCH   3   4
TORSDOF 1
ENDMDL
MODEL 2
REMARK VINA RESULT:      -3.9      2.492      4.196
REMARK  1 active torsions:
REMARK  status: ('A' for Active; 'I' for Inactive)
REMARK    1  A    between atoms: C6_6  and  N8_8 
ROOT
HETATM    1  C1  UNL     1     -35.009   4.984   5.954  1.00 20.00     0.014 C 
HETATM    2  C2  UNL     1     -34.400   6.000   6.149  1.00 20.00    -0.096 C 
HETATM    3  C6  UNL     1     -33.658   7.241   6.392  1.00 20.00     0.243 C 
ENDROOT
BRANCH   3   4
HETATM    4  N8  UNL     1     -33.097   7.780   5.177  1.00 20.00    -0.269 N 
HETATM    5  C4  UNL     1     -33.041   7.159   3.964  1.00 20.00     0.138 A 
HETATM    6  C5  UNL     1     -32.425   8.046   3.115  1.00 20.00     0.070 A 
HETATM    7  C3  UNL     1     -32.153   9.169   3.919  1.00 20.00     0.164 A 
HETATM    8 CL9  UNL     1     -32.064   7.863   1.475  1.00 20.00    -0.081 Cl
HETATM    9  N7  UNL     1     -32.561   9.012   5.180  1.00 20.00    -0.183 NA
ENDBRANCH   3   4
TORSDOF 1
ENDMDL
MODEL 3
REMARK VINA RESULT:      -3.9     11.059     11.440
REMARK  1 active torsions:
REMARK  status: ('A' for Active; 'I' for Inactive)
REMARK    1  A    between atoms: C6_6  and  N8_8 
ROOT
HETATM    1  C1  UNL     1     -33.332  16.183  -3.081  1.00 20.00     0.014 C 
HETATM    2  C2  UNL     1     -33.574  17.106  -2.353  1.00 20.00    -0.096 C 
HETATM    3  C6  UNL     1     -33.872  18.235  -1.467  1.00 20.00     0.243 C 
ENDROOT
BRANCH   3   4
HETATM    4  N8  UNL     1     -32.832  18.443  -0.488  1.00 20.00    -0.269 N 
HETATM    5  C4  UNL     1     -32.984  18.446   0.867  1.00 20.00     0.138 A 
HETATM    6  C5  UNL     1     -31.734  18.682   1.385  1.00 20.00     0.070 A 
HETATM    7  C3  UNL     1     -30.904  18.806   0.255  1.00 20.00     0.164 A 
HETATM    8 CL9  UNL     1     -31.265  18.802   3.004  1.00 20.00    -0.081 Cl
HETATM    9  N7  UNL     1     -31.570  18.660  -0.893  1.00 20.00    -0.183 NA
ENDBRANCH   3   4
TORSDOF 1
ENDMDL
MODEL 4
REMARK VINA RESULT:      -3.7     11.389     11.892
REMARK  1 active torsions:
REMARK  status: ('A' for Active; 'I' for Inactive)
REMARK    1  A    between atoms: C6_6  and  N8_8 
ROOT
HETATM    1  C1  UNL     1     -28.708  18.612   3.446  1.00 20.00     0.014 C 
HETATM    2  C2  UNL     1     -29.841  18.905   3.179  1.00 20.00    -0.096 C 
HETATM    3  C6  UNL     1     -31.226  19.263   2.856  1.00 20.00     0.243 C 
ENDROOT
BRANCH   3   4
HETATM    4  N8  UNL     1     -31.579  18.891   1.507  1.00 20.00    -0.269 N 
HETATM    5  C4  UNL     1     -32.809  18.495   1.072  1.00 20.00     0.138 A 
HETATM    6  C5  UNL     1     -32.669  18.244  -0.272  1.00 20.00     0.070 A 
HETATM    7  C3  UNL     1     -31.316  18.521  -0.541  1.00 20.00     0.164 A 
HETATM    8 CL9  UNL     1     -33.836  17.721  -1.377  1.00 20.00    -0.081 Cl
HETATM    9  N7  UNL     1     -30.644  18.916   0.542  1.00 20.00    -0.183 NA
ENDBRANCH   3   4
TORSDOF 1
ENDMDL
MODEL 5
REMARK VINA RESULT:      -3.6     10.082     10.799
REMARK  1 active torsions:
REMARK  status: ('A' for Active; 'I' for Inactive)
REMARK    1  A    between atoms: C6_6  and  N8_8 
ROOT
HETATM    1  C1  UNL     1     -39.102  11.827   4.889  1.00 20.00     0.014 C 
HETATM    2  C2  UNL     1     -40.043  12.163   5.554  1.00 20.00    -0.096 C 
HETATM    3  C6  UNL     1     -41.195  12.571   6.364  1.00 20.00     0.243 C 
ENDROOT
BRANCH   3   4
HETATM    4  N8  UNL     1     -40.900  13.724   7.180  1.00 20.00    -0.269 N 
HETATM    5  C4  UNL     1     -41.127  15.028   6.853  1.00 20.00     0.138 A 
HETATM    6  C5  UNL     1     -40.689  15.766   7.926  1.00 20.00     0.070 A 
HETATM    7  C3  UNL     1     -40.217  14.807   8.843  1.00 20.00     0.164 A 
HETATM    8 CL9  UNL     1     -40.700  17.443   8.131  1.00 20.00    -0.081 Cl
HETATM    9  N7  UNL     1     -40.344  13.557   8.392  1.00 20.00    -0.183 NA
ENDBRANCH   3   4
TORSDOF 1
ENDMDL
MODEL 6
REMARK VINA RESULT:      -3.6     11.819     12.868
REMARK  1 active torsions:
REMARK  status: ('A' for Active; 'I' for Inactive)
REMARK    1  A    between atoms: C6_6  and  N8_8 
ROOT
HETATM    1  C1  UNL     1     -33.333  16.680  -2.534  1.00 20.00     0.014 C 
HETATM    2  C2  UNL     1     -33.369  15.869  -3.419  1.00 20.00    -0.096 C 
HETATM    3  C6  UNL     1     -33.409  14.878  -4.498  1.00 20.00     0.243 C 
ENDROOT
BRANCH   3   4
HETATM    4  N8  UNL     1     -34.312  15.266  -5.555  1.00 20.00    -0.269 N 
HETATM    5  C4  UNL     1     -35.518  15.883  -5.403  1.00 20.00     0.138 A 
HETATM    6  C5  UNL     1     -36.016  16.052  -6.672  1.00 20.00     0.070 A 
HETATM    7  C3  UNL     1     -35.030  15.501  -7.512  1.00 20.00     0.164 A 
HETATM    8 CL9  UNL     1     -37.476  16.756  -7.151  1.00 20.00    -0.081 Cl
HETATM    9  N7  UNL     1     -33.986  15.019  -6.834  1.00 20.00    -0.183 NA
ENDBRANCH   3   4
TORSDOF 1
ENDMDL
MODEL 7
REMARK VINA RESULT:      -3.6      1.003      1.626
REMARK  1 active torsions:
REMARK  status: ('A' for Active; 'I' for Inactive)
REMARK    1  A    between atoms: C6_6  and  N8_8 
ROOT
HETATM    1  C1  UNL     1     -32.917   9.441   0.924  1.00 20.00     0.014 C 
HETATM    2  C2  UNL     1     -32.625   9.151   2.051  1.00 20.00    -0.096 C 
HETATM    3  C6  UNL     1     -32.265   8.801   3.429  1.00 20.00     0.243 C 
ENDROOT
BRANCH   3   4
HETATM    4  N8  UNL     1     -32.919   7.591   3.866  1.00 20.00    -0.269 N 
HETATM    5  C4  UNL     1     -33.650   7.431   5.005  1.00 20.00     0.138 A 
HETATM    6  C5  UNL     1     -34.071   6.123   5.002  1.00 20.00     0.070 A 
HETATM    7  C3  UNL     1     -33.537   5.586   3.816  1.00 20.00     0.164 A 
HETATM    8 CL9  UNL     1     -35.015   5.313   6.146  1.00 20.00    -0.081 Cl
HETATM    9  N7  UNL     1     -32.832   6.479   3.117  1.00 20.00    -0.183 NA
ENDBRANCH   3   4
TORSDOF 1
ENDMDL
MODEL 8
REMARK VINA RESULT:      -3.5      9.546     10.074
REMARK  1 active torsions:
REMARK  status: ('A' for Active; 'I' for Inactive)
REMARK    1  A    between atoms: C6_6  and  N8_8 
ROOT
HETATM    1  C1  UNL     1     -38.943  11.721   3.541  1.00 20.00     0.014 C 
HETATM    2  C2  UNL     1     -39.248  11.741   4.701  1.00 20.00    -0.096 C 
HETATM    3  C6  UNL     1     -39.619  11.763   6.120  1.00 20.00     0.243 C 
ENDROOT
BRANCH   3   4
HETATM    4  N8  UNL     1     -40.371  12.946   6.463  1.00 20.00    -0.269 N 
HETATM    5  C4  UNL     1     -41.221  13.631   5.646  1.00 20.00     0.138 A 
HETATM    6  C5  UNL     1     -41.702  14.677   6.396  1.00 20.00     0.070 A 
HETATM    7  C3  UNL     1     -41.077  14.526   7.648  1.00 20.00     0.164 A 
HETATM    8 CL9  UNL     1     -42.795  15.885   5.948  1.00 20.00    -0.081 Cl
HETATM    9  N7  UNL     1     -40.263  13.470   7.695  1.00 20.00    -0.183 NA
ENDBRANCH   3   4
TORSDOF 1
ENDMDL
MODEL 9
REMARK VINA RESULT:      -3.5     11.118     12.016
REMARK  1 active torsions:
REMARK  status: ('A' for Active; 'I' for Inactive)
REMARK    1  A    between atoms: C6_6  and  N8_8 
ROOT
HETATM    1  C1  UNL     1     -33.676  17.676  -0.676  1.00 20.00     0.014 C 
HETATM    2  C2  UNL     1     -33.484  17.755  -1.858  1.00 20.00    -0.096 C 
HETATM    3  C6  UNL     1     -33.249  17.856  -3.301  1.00 20.00     0.243 C 
ENDROOT
BRANCH   3   4
HETATM    4  N8  UNL     1     -33.680  16.671  -4.003  1.00 20.00    -0.269 N 
HETATM    5  C4  UNL     1     -34.715  16.583  -4.886  1.00 20.00     0.138 A 
HETATM    6  C5  UNL     1     -34.751  15.272  -5.294  1.00 20.00     0.070 A 
HETATM    7  C3  UNL     1     -33.694  14.658  -4.596  1.00 20.00     0.164 A 
HETATM    8 CL9  UNL     1     -35.809  14.532  -6.385  1.00 20.00    -0.081 Cl
HETATM    9  N7  UNL     1     -33.035  15.508  -3.805  1.00 20.00    -0.183 NA
ENDBRANCH   3   4
TORSDOF 1
ENDMDL
