MODEL 1
REMARK VINA RESULT:      -4.3      0.000      0.000
REMARK  3 active torsions:
REMARK  status: ('A' for Active; 'I' for Inactive)
REMARK    1  A    between atoms: C6_6  and  N11_11 
REMARK    2  A    between atoms: C8_8  and  C9_9 
REMARK    3  A    between atoms: C9_9  and  N11_11 
ROOT
HETATM    1  C1  UNL     1     -33.978  14.975  -5.356  1.00 20.00     0.060 C 
HETATM    2  C8  UNL     1     -33.631  15.015  -3.928  1.00 20.00     0.153 C 
HETATM    3  N10 UNL     1     -34.251  14.942  -6.483  1.00 20.00    -0.197 NA
ENDROOT
BRANCH   2   4
HETATM    4  C9  UNL     1     -33.293  16.427  -3.462  1.00 20.00     0.284 C 
BRANCH   4   5
HETATM    5  N11 UNL     1     -33.618  16.601  -2.056  1.00 20.00     0.093 N 
HETATM    6  H27 UNL     1     -32.843  16.279  -1.484  1.00 20.00     0.316 HD
BRANCH   5   7
HETATM    7  C6  UNL     1     -33.864  18.000  -1.760  1.00 20.00     0.154 C 
HETATM    8  C4  UNL     1     -32.610  18.839  -2.032  1.00 20.00     0.041 C 
HETATM    9  C2  UNL     1     -31.713  18.598  -0.819  1.00 20.00     0.003 C 
HETATM   10  C3  UNL     1     -32.642  18.189   0.323  1.00 20.00     0.003 C 
HETATM   11  C5  UNL     1     -34.057  18.205  -0.253  1.00 20.00     0.041 C 
HETATM   12  C7  UNL     1     -35.067  18.481  -2.566  1.00 20.00     0.049 C 
ENDBRANCH   5   7
ENDBRANCH   4   5
ENDBRANCH   2   4
TORSDOF 3
ENDMDL
MODEL 2
REMARK VINA RESULT:      -4.1     11.331     12.248
REMARK  3 active torsions:
REMARK  status: ('A' for Active; 'I' for Inactive)
REMARK    1  A    between atoms: C6_6  and  N11_11 
REMARK    2  A    between atoms: C8_8  and  C9_9 
REMARK    3  A    between atoms: C9_9  and  N11_11 
ROOT
HETATM    1  C1  UNL     1     -32.466   8.677   1.268  1.00 20.00     0.060 C 
HETATM    2  C8  UNL     1     -32.138   7.562   2.168  1.00 20.00     0.153 C 
HETATM    3  N10 UNL     1     -32.724   9.556   0.555  1.00 20.00    -0.197 NA
ENDROOT
BRANCH   2   4
HETATM    4  C9  UNL     1     -32.125   7.995   3.631  1.00 20.00     0.284 C 
BRANCH   4   5
HETATM    5  N11 UNL     1     -32.593   6.924   4.494  1.00 20.00     0.093 N 
HETATM    6  H27 UNL     1     -31.908   6.747   5.222  1.00 20.00     0.316 HD
BRANCH   5   7
HETATM    7  C6  UNL     1     -33.851   7.287   5.118  1.00 20.00     0.154 C 
HETATM    8  C4  UNL     1     -33.965   6.653   6.510  1.00 20.00     0.041 C 
HETATM    9  C2  UNL     1     -34.358   5.201   6.243  1.00 20.00     0.003 C 
HETATM   10  C3  UNL     1     -35.038   5.189   4.875  1.00 20.00     0.003 C 
HETATM   11  C5  UNL     1     -35.027   6.635   4.381  1.00 20.00     0.041 C 
HETATM   12  C7  UNL     1     -33.971   8.807   5.165  1.00 20.00     0.049 C 
ENDBRANCH   5   7
ENDBRANCH   4   5
ENDBRANCH   2   4
TORSDOF 3
ENDMDL
MODEL 3
REMARK VINA RESULT:      -4.1     11.993     12.869
REMARK  3 active torsions:
REMARK  status: ('A' for Active; 'I' for Inactive)
REMARK    1  A    between atoms: C6_6  and  N11_11 
REMARK    2  A    between atoms: C8_8  and  C9_9 
REMARK    3  A    between atoms: C9_9  and  N11_11 
ROOT
HETATM    1  C1  UNL     1     -32.535   6.041   2.430  1.00 20.00     0.060 C 
HETATM    2  C8  UNL     1     -32.193   7.471   2.415  1.00 20.00     0.153 C 
HETATM    3  N10 UNL     1     -32.805   4.912   2.441  1.00 20.00    -0.197 NA
ENDROOT
BRANCH   2   4
HETATM    4  C9  UNL     1     -32.381   8.116   3.784  1.00 20.00     0.284 C 
BRANCH   4   5
HETATM    5  N11 UNL     1     -32.680   7.115   4.793  1.00 20.00     0.093 N 
HETATM    6  H27 UNL     1     -31.948   7.110   5.498  1.00 20.00     0.316 HD
BRANCH   5   7
HETATM    7  C6  UNL     1     -33.945   7.406   5.441  1.00 20.00     0.154 C 
HETATM    8  C4  UNL     1     -34.070   6.628   6.756  1.00 20.00     0.041 C 
HETATM    9  C2  UNL     1     -34.455   5.211   6.333  1.00 20.00     0.003 C 
HETATM   10  C3  UNL     1     -35.122   5.342   4.965  1.00 20.00     0.003 C 
HETATM   11  C5  UNL     1     -35.111   6.832   4.627  1.00 20.00     0.041 C 
HETATM   12  C7  UNL     1     -34.071   8.912   5.647  1.00 20.00     0.049 C 
ENDBRANCH   5   7
ENDBRANCH   4   5
ENDBRANCH   2   4
TORSDOF 3
ENDMDL
MODEL 4
REMARK VINA RESULT:      -4.0      1.668      4.687
REMARK  3 active torsions:
REMARK  status: ('A' for Active; 'I' for Inactive)
REMARK    1  A    between atoms: C6_6  and  N11_11 
REMARK    2  A    between atoms: C8_8  and  C9_9 
REMARK    3  A    between atoms: C9_9  and  N11_11 
ROOT
HETATM    1  C1  UNL     1     -32.151  18.331  -0.640  1.00 20.00     0.060 C 
HETATM    2  C8  UNL     1     -33.560  17.913  -0.681  1.00 20.00     0.153 C 
HETATM    3  N10 UNL     1     -31.039  18.660  -0.605  1.00 20.00    -0.197 NA
ENDROOT
BRANCH   2   4
HETATM    4  C9  UNL     1     -34.293  18.497  -1.884  1.00 20.00     0.284 C 
BRANCH   4   5
HETATM    5  N11 UNL     1     -34.785  17.443  -2.755  1.00 20.00     0.093 N 
HETATM    6  H27 UNL     1     -35.725  17.667  -3.068  1.00 20.00     0.316 HD
BRANCH   5   7
HETATM    7  C6  UNL     1     -33.929  17.302  -3.918  1.00 20.00     0.154 C 
HETATM    8  C4  UNL     1     -34.749  16.881  -5.143  1.00 20.00     0.041 C 
HETATM    9  C2  UNL     1     -34.978  15.382  -4.959  1.00 20.00     0.003 C 
HETATM   10  C3  UNL     1     -33.844  14.885  -4.063  1.00 20.00     0.003 C 
HETATM   11  C5  UNL     1     -32.983  16.108  -3.750  1.00 20.00     0.041 C 
HETATM   12  C7  UNL     1     -33.176  18.608  -4.150  1.00 20.00     0.049 C 
ENDBRANCH   5   7
ENDBRANCH   4   5
ENDBRANCH   2   4
TORSDOF 3
ENDMDL
MODEL 5
REMARK VINA RESULT:      -4.0      1.698      5.397
REMARK  3 active torsions:
REMARK  status: ('A' for Active; 'I' for Inactive)
REMARK    1  A    between atoms: C6_6  and  N11_11 
REMARK    2  A    between atoms: C8_8  and  C9_9 
REMARK    3  A    between atoms: C9_9  and  N11_11 
ROOT
HETATM    1  C1  UNL     1     -32.357  18.137  -1.328  1.00 20.00     0.060 C 
HETATM    2  C8  UNL     1     -33.470  17.332  -1.853  1.00 20.00     0.153 C 
HETATM    3  N10 UNL     1     -31.480  18.772  -0.913  1.00 20.00    -0.197 NA
ENDROOT
BRANCH   2   4
HETATM    4  C9  UNL     1     -33.273  16.976  -3.323  1.00 20.00     0.284 C 
BRANCH   4   5
HETATM    5  N11 UNL     1     -34.447  16.306  -3.857  1.00 20.00     0.093 N 
HETATM    6  H27 UNL     1     -34.967  16.947  -4.449  1.00 20.00     0.316 HD
BRANCH   5   7
HETATM    7  C6  UNL     1     -34.061  15.153  -4.647  1.00 20.00     0.154 C 
HETATM    8  C4  UNL     1     -34.210  15.450  -6.144  1.00 20.00     0.041 C 
HETATM    9  C2  UNL     1     -35.706  15.309  -6.419  1.00 20.00     0.003 C 
HETATM   10  C3  UNL     1     -36.253  14.384  -5.332  1.00 20.00     0.003 C 
HETATM   11  C5  UNL     1     -35.061  14.008  -4.454  1.00 20.00     0.041 C 
HETATM   12  C7  UNL     1     -32.637  14.745  -4.279  1.00 20.00     0.049 C 
ENDBRANCH   5   7
ENDBRANCH   4   5
ENDBRANCH   2   4
TORSDOF 3
ENDMDL
MODEL 6
REMARK VINA RESULT:      -3.8     11.070     12.361
REMARK  3 active torsions:
REMARK  status: ('A' for Active; 'I' for Inactive)
REMARK    1  A    between atoms: C6_6  and  N11_11 
REMARK    2  A    between atoms: C8_8  and  C9_9 
REMARK    3  A    between atoms: C9_9  and  N11_11 
ROOT
HETATM    1  C1  UNL     1     -39.319  11.751   4.396  1.00 20.00     0.060 C 
HETATM    2  C8  UNL     1     -39.564  11.705   5.845  1.00 20.00     0.153 C 
HETATM    3  N10 UNL     1     -39.123  11.787   3.253  1.00 20.00    -0.197 NA
ENDROOT
BRANCH   2   4
HETATM    4  C9  UNL     1     -40.634  12.703   6.274  1.00 20.00     0.284 C 
BRANCH   4   5
HETATM    5  N11 UNL     1     -40.049  13.800   7.027  1.00 20.00     0.093 N 
HETATM    6  H27 UNL     1     -39.395  14.308   6.439  1.00 20.00     0.316 HD
BRANCH   5   7
HETATM    7  C6  UNL     1     -41.080  14.718   7.475  1.00 20.00     0.154 C 
HETATM    8  C4  UNL     1     -40.456  15.923   8.188  1.00 20.00     0.041 C 
HETATM    9  C2  UNL     1     -40.111  15.411   9.586  1.00 20.00     0.003 C 
HETATM   10  C3  UNL     1     -41.046  14.230   9.848  1.00 20.00     0.003 C 
HETATM   11  C5  UNL     1     -41.912  14.087   8.597  1.00 20.00     0.041 C 
HETATM   12  C7  UNL     1     -41.937  15.133   6.284  1.00 20.00     0.049 C 
ENDBRANCH   5   7
ENDBRANCH   4   5
ENDBRANCH   2   4
TORSDOF 3
ENDMDL
MODEL 7
REMARK VINA RESULT:      -3.7      1.944      5.138
REMARK  3 active torsions:
REMARK  status: ('A' for Active; 'I' for Inactive)
REMARK    1  A    between atoms: C6_6  and  N11_11 
REMARK    2  A    between atoms: C8_8  and  C9_9 
REMARK    3  A    between atoms: C9_9  and  N11_11 
ROOT
HETATM    1  C1  UNL     1     -34.469  18.040  -2.528  1.00 20.00     0.060 C 
HETATM    2  C8  UNL     1     -33.401  17.084  -2.200  1.00 20.00     0.153 C 
HETATM    3  N10 UNL     1     -35.313  18.794  -2.785  1.00 20.00    -0.197 NA
ENDROOT
BRANCH   2   4
HETATM    4  C9  UNL     1     -33.168  16.080  -3.324  1.00 20.00     0.284 C 
BRANCH   4   5
HETATM    5  N11 UNL     1     -33.708  16.574  -4.580  1.00 20.00     0.093 N 
HETATM    6  H27 UNL     1     -32.947  16.829  -5.203  1.00 20.00     0.316 HD
BRANCH   5   7
HETATM    7  C6  UNL     1     -34.513  15.553  -5.225  1.00 20.00     0.154 C 
HETATM    8  C4  UNL     1     -34.008  15.287  -6.648  1.00 20.00     0.041 C 
HETATM    9  C2  UNL     1     -34.563  16.443  -7.478  1.00 20.00     0.003 C 
HETATM   10  C3  UNL     1     -35.797  16.949  -6.732  1.00 20.00     0.003 C 
HETATM   11  C5  UNL     1     -35.931  16.072  -5.488  1.00 20.00     0.041 C 
HETATM   12  C7  UNL     1     -34.510  14.292  -4.366  1.00 20.00     0.049 C 
ENDBRANCH   5   7
ENDBRANCH   4   5
ENDBRANCH   2   4
TORSDOF 3
ENDMDL
MODEL 8
REMARK VINA RESULT:      -3.7      3.082      4.745
REMARK  3 active torsions:
REMARK  status: ('A' for Active; 'I' for Inactive)
REMARK    1  A    between atoms: C6_6  and  N11_11 
REMARK    2  A    between atoms: C8_8  and  C9_9 
REMARK    3  A    between atoms: C9_9  and  N11_11 
ROOT
HETATM    1  C1  UNL     1     -38.691  15.448  -4.537  1.00 20.00     0.060 C 
HETATM    2  C8  UNL     1     -38.549  16.827  -5.026  1.00 20.00     0.153 C 
HETATM    3  N10 UNL     1     -38.804  14.360  -4.151  1.00 20.00    -0.197 NA
ENDROOT
BRANCH   2   4
HETATM    4  C9  UNL     1     -37.100  17.169  -5.357  1.00 20.00     0.284 C 
BRANCH   4   5
HETATM    5  N11 UNL     1     -36.202  16.123  -4.896  1.00 20.00     0.093 N 
HETATM    6  H27 UNL     1     -36.529  15.220  -5.227  1.00 20.00     0.316 HD
BRANCH   5   7
HETATM    7  C6  UNL     1     -34.860  16.345  -5.401  1.00 20.00     0.154 C 
HETATM    8  C4  UNL     1     -34.143  15.009  -5.633  1.00 20.00     0.041 C 
HETATM    9  C2  UNL     1     -33.695  14.564  -4.242  1.00 20.00     0.003 C 
HETATM   10  C3  UNL     1     -33.591  15.835  -3.401  1.00 20.00     0.003 C 
HETATM   11  C5  UNL     1     -33.979  16.989  -4.325  1.00 20.00     0.041 C 
HETATM   12  C7  UNL     1     -34.932  17.189  -6.670  1.00 20.00     0.049 C 
ENDBRANCH   5   7
ENDBRANCH   4   5
ENDBRANCH   2   4
TORSDOF 3
ENDMDL
MODEL 9
REMARK VINA RESULT:      -3.7     23.971     24.845
REMARK  3 active torsions:
REMARK  status: ('A' for Active; 'I' for Inactive)
REMARK    1  A    between atoms: C6_6  and  N11_11 
REMARK    2  A    between atoms: C8_8  and  C9_9 
REMARK    3  A    between atoms: C9_9  and  N11_11 
ROOT
HETATM    1  C1  UNL     1     -22.747  -3.259   8.545  1.00 20.00     0.060 C 
HETATM    2  C8  UNL     1     -23.231  -2.890   9.884  1.00 20.00     0.153 C 
HETATM    3  N10 UNL     1     -22.364  -3.548   7.489  1.00 20.00    -0.197 NA
ENDROOT
BRANCH   2   4
HETATM    4  C9  UNL     1     -24.591  -3.508  10.188  1.00 20.00     0.284 C 
BRANCH   4   5
HETATM    5  N11 UNL     1     -25.667  -2.645   9.732  1.00 20.00     0.093 N 
HETATM    6  H27 UNL     1     -25.984  -2.948   8.816  1.00 20.00     0.316 HD
BRANCH   5   7
HETATM    7  C6  UNL     1     -26.788  -2.696  10.652  1.00 20.00     0.154 C 
HETATM    8  C4  UNL     1     -28.003  -1.969  10.063  1.00 20.00     0.041 C 
HETATM    9  C2  UNL     1     -27.712  -0.486  10.286  1.00 20.00     0.003 C 
HETATM   10  C3  UNL     1     -26.743  -0.415  11.466  1.00 20.00     0.003 C 
HETATM   11  C5  UNL     1     -26.497  -1.858  11.902  1.00 20.00     0.041 C 
HETATM   12  C7  UNL     1     -27.095  -4.152  10.990  1.00 20.00     0.049 C 
ENDBRANCH   5   7
ENDBRANCH   4   5
ENDBRANCH   2   4
TORSDOF 3
ENDMDL
