MODEL 1
REMARK VINA RESULT:      -4.2      0.000      0.000
REMARK  4 active torsions:
REMARK  status: ('A' for Active; 'I' for Inactive)
REMARK    1  A    between atoms: C6_6  and  N10_10 
REMARK    2  A    between atoms: C7_7  and  C8_8 
REMARK    3  A    between atoms: C7_7  and  C9_9 
REMARK    4  A    between atoms: C8_8  and  N10_10 
ROOT
HETATM    1  C1  UNL     1     -32.208   8.447   0.799  1.00 20.00     0.013 C 
HETATM    2  C2  UNL     1     -32.233   7.991   1.909  1.00 20.00    -0.087 C 
HETATM    3  C6  UNL     1     -32.260   7.430   3.262  1.00 20.00     0.364 C 
ENDROOT
BRANCH   3   4
HETATM    4  N10 UNL     1     -32.982   8.325   4.181  1.00 20.00     0.095 N 
HETATM    5  C5  UNL     1     -32.018   9.203   4.865  1.00 20.00     0.310 C 
BRANCH   4   6
HETATM    6  C8  UNL     1     -33.775   7.584   5.121  1.00 20.00     0.273 C 
BRANCH   6   7
HETATM    7  C7  UNL     1     -34.766   6.646   4.437  1.00 20.00     0.034 C 
BRANCH   7   8
HETATM    8  C9  UNL     1     -34.828   5.222   5.024  1.00 20.00    -0.021 C 
HETATM    9  C3  UNL     1     -34.452   5.258   6.507  1.00 20.00     0.009 C 
HETATM   10  C4  UNL     1     -33.914   4.244   4.284  1.00 20.00     0.009 C 
ENDBRANCH   7   8
ENDBRANCH   6   7
ENDBRANCH   4   6
ENDBRANCH   3   4
TORSDOF 4
ENDMDL
MODEL 2
REMARK VINA RESULT:      -4.0      1.291      1.830
REMARK  4 active torsions:
REMARK  status: ('A' for Active; 'I' for Inactive)
REMARK    1  A    between atoms: C6_6  and  N10_10 
REMARK    2  A    between atoms: C7_7  and  C8_8 
REMARK    3  A    between atoms: C7_7  and  C9_9 
REMARK    4  A    between atoms: C8_8  and  N10_10 
ROOT
HETATM    1  C1  UNL     1     -32.951   4.905   2.579  1.00 20.00     0.013 C 
HETATM    2  C2  UNL     1     -32.564   6.025   2.769  1.00 20.00    -0.087 C 
HETATM    3  C6  UNL     1     -32.088   7.392   2.996  1.00 20.00     0.364 C 
ENDROOT
BRANCH   3   4
HETATM    4  N10 UNL     1     -32.914   8.067   4.011  1.00 20.00     0.095 N 
HETATM    5  C5  UNL     1     -32.491   9.472   4.130  1.00 20.00     0.310 C 
BRANCH   4   6
HETATM    6  C8  UNL     1     -32.847   7.391   5.276  1.00 20.00     0.273 C 
BRANCH   6   7
HETATM    7  C7  UNL     1     -34.189   7.385   6.006  1.00 20.00     0.034 C 
BRANCH   7   8
HETATM    8  C9  UNL     1     -34.943   6.041   5.974  1.00 20.00    -0.021 C 
HETATM    9  C3  UNL     1     -33.983   4.901   6.324  1.00 20.00     0.009 C 
HETATM   10  C4  UNL     1     -35.593   5.768   4.616  1.00 20.00     0.009 C 
ENDBRANCH   7   8
ENDBRANCH   6   7
ENDBRANCH   4   6
ENDBRANCH   3   4
TORSDOF 4
ENDMDL
MODEL 3
REMARK VINA RESULT:      -3.8      0.956      1.363
REMARK  4 active torsions:
REMARK  status: ('A' for Active; 'I' for Inactive)
REMARK    1  A    between atoms: C6_6  and  N10_10 
REMARK    2  A    between atoms: C7_7  and  C8_8 
REMARK    3  A    between atoms: C7_7  and  C9_9 
REMARK    4  A    between atoms: C8_8  and  N10_10 
ROOT
HETATM    1  C1  UNL     1     -32.617   9.244   0.513  1.00 20.00     0.013 C 
HETATM    2  C2  UNL     1     -32.708   9.249   1.710  1.00 20.00    -0.087 C 
HETATM    3  C6  UNL     1     -32.821   9.260   3.171  1.00 20.00     0.364 C 
ENDROOT
BRANCH   3   4
HETATM    4  N10 UNL     1     -32.274   8.019   3.743  1.00 20.00     0.095 N 
HETATM    5  C5  UNL     1     -32.234   6.977   2.704  1.00 20.00     0.310 C 
BRANCH   4   6
HETATM    6  C8  UNL     1     -33.030   7.591   4.886  1.00 20.00     0.273 C 
BRANCH   6   7
HETATM    7  C7  UNL     1     -34.429   7.106   4.513  1.00 20.00     0.034 C 
BRANCH   7   8
HETATM    8  C9  UNL     1     -34.843   5.762   5.142  1.00 20.00    -0.021 C 
HETATM    9  C3  UNL     1     -34.464   5.747   6.625  1.00 20.00     0.009 C 
HETATM   10  C4  UNL     1     -34.206   4.565   4.436  1.00 20.00     0.009 C 
ENDBRANCH   7   8
ENDBRANCH   6   7
ENDBRANCH   4   6
ENDBRANCH   3   4
TORSDOF 4
ENDMDL
MODEL 4
REMARK VINA RESULT:      -3.7     11.685     12.596
REMARK  4 active torsions:
REMARK  status: ('A' for Active; 'I' for Inactive)
REMARK    1  A    between atoms: C6_6  and  N10_10 
REMARK    2  A    between atoms: C7_7  and  C8_8 
REMARK    3  A    between atoms: C7_7  and  C9_9 
REMARK    4  A    between atoms: C8_8  and  N10_10 
ROOT
HETATM    1  C1  UNL     1     -33.723  14.523  -4.492  1.00 20.00     0.013 C 
HETATM    2  C2  UNL     1     -33.534  15.412  -3.708  1.00 20.00    -0.087 C 
HETATM    3  C6  UNL     1     -33.300  16.494  -2.748  1.00 20.00     0.364 C 
ENDROOT
BRANCH   3   4
HETATM    4  N10 UNL     1     -34.175  17.641  -3.036  1.00 20.00     0.095 N 
HETATM    5  C5  UNL     1     -33.546  18.492  -4.059  1.00 20.00     0.310 C 
BRANCH   4   6
HETATM    6  C8  UNL     1     -34.471  18.387  -1.845  1.00 20.00     0.273 C 
BRANCH   6   7
HETATM    7  C7  UNL     1     -33.660  17.912  -0.641  1.00 20.00     0.034 C 
BRANCH   7   8
HETATM    8  C9  UNL     1     -32.702  18.962  -0.045  1.00 20.00    -0.021 C 
HETATM    9  C3  UNL     1     -31.252  18.526  -0.270  1.00 20.00     0.009 C 
HETATM   10  C4  UNL     1     -32.944  19.193   1.447  1.00 20.00     0.009 C 
ENDBRANCH   7   8
ENDBRANCH   6   7
ENDBRANCH   4   6
ENDBRANCH   3   4
TORSDOF 4
ENDMDL
MODEL 5
REMARK VINA RESULT:      -3.6      1.435      2.599
REMARK  4 active torsions:
REMARK  status: ('A' for Active; 'I' for Inactive)
REMARK    1  A    between atoms: C6_6  and  N10_10 
REMARK    2  A    between atoms: C7_7  and  C8_8 
REMARK    3  A    between atoms: C7_7  and  C9_9 
REMARK    4  A    between atoms: C8_8  and  N10_10 
ROOT
HETATM    1  C1  UNL     1     -32.236   9.175   4.913  1.00 20.00     0.013 C 
HETATM    2  C2  UNL     1     -32.228   8.310   4.080  1.00 20.00    -0.087 C 
HETATM    3  C6  UNL     1     -32.215   7.258   3.061  1.00 20.00     0.364 C 
ENDROOT
BRANCH   3   4
HETATM    4  N10 UNL     1     -32.996   6.094   3.506  1.00 20.00     0.095 N 
HETATM    5  C5  UNL     1     -32.972   5.059   2.459  1.00 20.00     0.310 C 
BRANCH   4   6
HETATM    6  C8  UNL     1     -34.341   6.463   3.847  1.00 20.00     0.273 C 
BRANCH   6   7
HETATM    7  C7  UNL     1     -35.015   5.440   4.758  1.00 20.00     0.034 C 
BRANCH   7   8
HETATM    8  C9  UNL     1     -34.690   5.588   6.258  1.00 20.00    -0.021 C 
HETATM    9  C3  UNL     1     -34.418   7.058   6.585  1.00 20.00     0.009 C 
HETATM   10  C4  UNL     1     -33.493   4.736   6.683  1.00 20.00     0.009 C 
ENDBRANCH   7   8
ENDBRANCH   6   7
ENDBRANCH   4   6
ENDBRANCH   3   4
TORSDOF 4
ENDMDL
MODEL 6
REMARK VINA RESULT:      -3.6      1.601      3.810
REMARK  4 active torsions:
REMARK  status: ('A' for Active; 'I' for Inactive)
REMARK    1  A    between atoms: C6_6  and  N10_10 
REMARK    2  A    between atoms: C7_7  and  C8_8 
REMARK    3  A    between atoms: C7_7  and  C9_9 
REMARK    4  A    between atoms: C8_8  and  N10_10 
ROOT
HETATM    1  C1  UNL     1     -32.984   5.041   2.555  1.00 20.00     0.013 C 
HETATM    2  C2  UNL     1     -33.500   4.799   3.611  1.00 20.00    -0.087 C 
HETATM    3  C6  UNL     1     -34.128   4.499   4.900  1.00 20.00     0.364 C 
ENDROOT
BRANCH   3   4
HETATM    4  N10 UNL     1     -34.887   5.661   5.391  1.00 20.00     0.095 N 
HETATM    5  C5  UNL     1     -35.689   6.221   4.291  1.00 20.00     0.310 C 
BRANCH   4   6
HETATM    6  C8  UNL     1     -34.018   6.651   5.963  1.00 20.00     0.273 C 
BRANCH   6   7
HETATM    7  C7  UNL     1     -33.952   7.925   5.123  1.00 20.00     0.034 C 
BRANCH   7   8
HETATM    8  C9  UNL     1     -32.573   8.229   4.508  1.00 20.00    -0.021 C 
HETATM    9  C3  UNL     1     -31.941   9.426   5.222  1.00 20.00     0.009 C 
HETATM   10  C4  UNL     1     -32.652   8.510   3.006  1.00 20.00     0.009 C 
ENDBRANCH   7   8
ENDBRANCH   6   7
ENDBRANCH   4   6
ENDBRANCH   3   4
TORSDOF 4
ENDMDL
MODEL 7
REMARK VINA RESULT:      -3.6     11.499     12.507
REMARK  4 active torsions:
REMARK  status: ('A' for Active; 'I' for Inactive)
REMARK    1  A    between atoms: C6_6  and  N10_10 
REMARK    2  A    between atoms: C7_7  and  C8_8 
REMARK    3  A    between atoms: C7_7  and  C9_9 
REMARK    4  A    between atoms: C8_8  and  N10_10 
ROOT
HETATM    1  C1  UNL     1     -30.786  18.621   2.209  1.00 20.00     0.013 C 
HETATM    2  C2  UNL     1     -31.025  18.507   1.038  1.00 20.00    -0.087 C 
HETATM    3  C6  UNL     1     -31.312  18.365  -0.391  1.00 20.00     0.364 C 
ENDROOT
BRANCH   3   4
HETATM    4  N10 UNL     1     -32.698  18.761  -0.684  1.00 20.00     0.095 N 
HETATM    5  C5  UNL     1     -33.604  18.124   0.286  1.00 20.00     0.310 C 
BRANCH   4   6
HETATM    6  C8  UNL     1     -33.063  18.434  -2.034  1.00 20.00     0.273 C 
BRANCH   6   7
HETATM    7  C7  UNL     1     -33.311  16.940  -2.227  1.00 20.00     0.034 C 
BRANCH   7   8
HETATM    8  C9  UNL     1     -33.360  16.471  -3.694  1.00 20.00    -0.021 C 
HETATM    9  C3  UNL     1     -34.351  17.332  -4.480  1.00 20.00     0.009 C 
HETATM   10  C4  UNL     1     -33.743  14.996  -3.824  1.00 20.00     0.009 C 
ENDBRANCH   7   8
ENDBRANCH   6   7
ENDBRANCH   4   6
ENDBRANCH   3   4
TORSDOF 4
ENDMDL
MODEL 8
REMARK VINA RESULT:      -3.4      9.708     10.879
REMARK  4 active torsions:
REMARK  status: ('A' for Active; 'I' for Inactive)
REMARK    1  A    between atoms: C6_6  and  N10_10 
REMARK    2  A    between atoms: C7_7  and  C8_8 
REMARK    3  A    between atoms: C7_7  and  C9_9 
REMARK    4  A    between atoms: C8_8  and  N10_10 
ROOT
HETATM    1  C1  UNL     1     -40.112  14.926   9.462  1.00 20.00     0.013 C 
HETATM    2  C2  UNL     1     -40.513  15.185   8.361  1.00 20.00    -0.087 C 
HETATM    3  C6  UNL     1     -40.998  15.504   7.016  1.00 20.00     0.364 C 
ENDROOT
BRANCH   3   4
HETATM    4  N10 UNL     1     -42.129  14.636   6.652  1.00 20.00     0.095 N 
HETATM    5  C5  UNL     1     -43.183  14.753   7.674  1.00 20.00     0.310 C 
BRANCH   4   6
HETATM    6  C8  UNL     1     -41.711  13.273   6.484  1.00 20.00     0.273 C 
BRANCH   6   7
HETATM    7  C7  UNL     1     -40.819  13.082   5.260  1.00 20.00     0.034 C 
BRANCH   7   8
HETATM    8  C9  UNL     1     -39.866  11.872   5.329  1.00 20.00    -0.021 C 
HETATM    9  C3  UNL     1     -38.931  12.019   6.531  1.00 20.00     0.009 C 
HETATM   10  C4  UNL     1     -39.041  11.704   4.052  1.00 20.00     0.009 C 
ENDBRANCH   7   8
ENDBRANCH   6   7
ENDBRANCH   4   6
ENDBRANCH   3   4
TORSDOF 4
ENDMDL
MODEL 9
REMARK VINA RESULT:      -3.4     11.610     12.655
REMARK  4 active torsions:
REMARK  status: ('A' for Active; 'I' for Inactive)
REMARK    1  A    between atoms: C6_6  and  N10_10 
REMARK    2  A    between atoms: C7_7  and  C8_8 
REMARK    3  A    between atoms: C7_7  and  C9_9 
REMARK    4  A    between atoms: C8_8  and  N10_10 
ROOT
HETATM    1  C1  UNL     1     -31.348  18.620  -0.320  1.00 20.00     0.013 C 
HETATM    2  C2  UNL     1     -32.215  18.120  -0.985  1.00 20.00    -0.087 C 
HETATM    3  C6  UNL     1     -33.274  17.509  -1.791  1.00 20.00     0.364 C 
ENDROOT
BRANCH   3   4
HETATM    4  N10 UNL     1     -33.079  17.811  -3.218  1.00 20.00     0.095 N 
HETATM    5  C5  UNL     1     -33.405  19.225  -3.468  1.00 20.00     0.310 C 
BRANCH   4   6
HETATM    6  C8  UNL     1     -33.860  16.939  -4.050  1.00 20.00     0.273 C 
BRANCH   6   7
HETATM    7  C7  UNL     1     -33.555  15.464  -3.799  1.00 20.00     0.034 C 
BRANCH   7   8
HETATM    8  C9  UNL     1     -34.070  14.497  -4.883  1.00 20.00    -0.021 C 
HETATM    9  C3  UNL     1     -34.074  15.199  -6.242  1.00 20.00     0.009 C 
HETATM   10  C4  UNL     1     -35.471  13.966  -4.574  1.00 20.00     0.009 C 
ENDBRANCH   7   8
ENDBRANCH   6   7
ENDBRANCH   4   6
ENDBRANCH   3   4
TORSDOF 4
ENDMDL
