MODEL 1
REMARK VINA RESULT:      -5.2      0.000      0.000
REMARK  1 active torsions:
REMARK  status: ('A' for Active; 'I' for Inactive)
REMARK    1  A    between atoms: C7_7  and  C8_8 
ROOT
HETATM    1  C1  UNL     1     -32.067   8.017   1.720  1.00 20.00     0.012 C 
HETATM    2  C2  UNL     1     -32.372   7.982   2.881  1.00 20.00    -0.117 C 
HETATM    3  C8  UNL     1     -32.744   7.942   4.302  1.00 20.00     0.105 C 
ENDROOT
BRANCH   3   4
HETATM    4  C7  UNL     1     -33.953   7.058   4.533  1.00 20.00     0.066 C 
HETATM    5  C3  UNL     1     -34.200   6.765   5.998  1.00 20.00     0.132 C 
HETATM    6  C4  UNL     1     -34.516   5.311   6.238  1.00 20.00     0.079 C 
HETATM    7  O9  UNL     1     -34.150   7.603   6.891  1.00 20.00    -0.298 OA
HETATM    8  C5  UNL     1     -34.710   4.791   4.819  1.00 20.00     0.008 C 
HETATM    9  C6  UNL     1     -33.777   5.647   3.972  1.00 20.00     0.013 C 
ENDBRANCH   3   4
TORSDOF 1
ENDMDL
MODEL 2
REMARK VINA RESULT:      -4.7      1.993      4.024
REMARK  1 active torsions:
REMARK  status: ('A' for Active; 'I' for Inactive)
REMARK    1  A    between atoms: C7_7  and  C8_8 
ROOT
HETATM    1  C1  UNL     1     -34.108   5.031   6.739  1.00 20.00     0.012 C 
HETATM    2  C2  UNL     1     -34.494   5.514   5.710  1.00 20.00    -0.117 C 
HETATM    3  C8  UNL     1     -34.968   6.104   4.450  1.00 20.00     0.105 C 
ENDROOT
BRANCH   3   4
HETATM    4  C7  UNL     1     -34.161   7.331   4.075  1.00 20.00     0.066 C 
HETATM    5  C3  UNL     1     -32.822   6.991   3.454  1.00 20.00     0.132 C 
HETATM    6  C4  UNL     1     -31.708   7.836   4.018  1.00 20.00     0.079 C 
HETATM    7  O9  UNL     1     -32.654   6.133   2.596  1.00 20.00    -0.298 OA
HETATM    8  C5  UNL     1     -32.476   8.883   4.814  1.00 20.00     0.008 C 
HETATM    9  C6  UNL     1     -33.728   8.155   5.288  1.00 20.00     0.013 C 
ENDBRANCH   3   4
TORSDOF 1
ENDMDL
MODEL 3
REMARK VINA RESULT:      -4.5      1.505      2.097
REMARK  1 active torsions:
REMARK  status: ('A' for Active; 'I' for Inactive)
REMARK    1  A    between atoms: C7_7  and  C8_8 
ROOT
HETATM    1  C1  UNL     1     -32.869   4.234   1.904  1.00 20.00     0.012 C 
HETATM    2  C2  UNL     1     -32.826   5.283   2.487  1.00 20.00    -0.117 C 
HETATM    3  C8  UNL     1     -32.773   6.567   3.200  1.00 20.00     0.105 C 
ENDROOT
BRANCH   3   4
HETATM    4  C7  UNL     1     -33.924   6.706   4.177  1.00 20.00     0.066 C 
HETATM    5  C3  UNL     1     -33.586   7.577   5.369  1.00 20.00     0.132 C 
HETATM    6  C4  UNL     1     -34.057   6.968   6.665  1.00 20.00     0.079 C 
HETATM    7  O9  UNL     1     -32.999   8.650   5.299  1.00 20.00    -0.298 OA
HETATM    8  C5  UNL     1     -34.929   5.818   6.176  1.00 20.00     0.008 C 
HETATM    9  C6  UNL     1     -34.287   5.389   4.863  1.00 20.00     0.013 C 
ENDBRANCH   3   4
TORSDOF 1
ENDMDL
MODEL 4
REMARK VINA RESULT:      -4.5      1.509      2.005
REMARK  1 active torsions:
REMARK  status: ('A' for Active; 'I' for Inactive)
REMARK    1  A    between atoms: C7_7  and  C8_8 
ROOT
HETATM    1  C1  UNL     1     -31.913   8.087   2.027  1.00 20.00     0.012 C 
HETATM    2  C2  UNL     1     -32.544   8.181   3.045  1.00 20.00    -0.117 C 
HETATM    3  C8  UNL     1     -33.316   8.296   4.290  1.00 20.00     0.105 C 
ENDROOT
BRANCH   3   4
HETATM    4  C7  UNL     1     -33.293   7.001   5.078  1.00 20.00     0.066 C 
HETATM    5  C3  UNL     1     -33.892   5.836   4.319  1.00 20.00     0.132 C 
HETATM    6  C4  UNL     1     -34.815   5.014   5.182  1.00 20.00     0.079 C 
HETATM    7  O9  UNL     1     -33.662   5.583   3.142  1.00 20.00    -0.298 OA
HETATM    8  C5  UNL     1     -34.540   5.580   6.569  1.00 20.00     0.008 C 
HETATM    9  C6  UNL     1     -34.188   7.041   6.318  1.00 20.00     0.013 C 
ENDBRANCH   3   4
TORSDOF 1
ENDMDL
MODEL 5
REMARK VINA RESULT:      -4.4      1.671      2.318
REMARK  1 active torsions:
REMARK  status: ('A' for Active; 'I' for Inactive)
REMARK    1  A    between atoms: C7_7  and  C8_8 
ROOT
HETATM    1  C1  UNL     1     -32.030   9.293   4.863  1.00 20.00     0.012 C 
HETATM    2  C2  UNL     1     -32.859   8.489   5.193  1.00 20.00    -0.117 C 
HETATM    3  C8  UNL     1     -33.875   7.508   5.598  1.00 20.00     0.105 C 
ENDROOT
BRANCH   3   4
HETATM    4  C7  UNL     1     -34.218   6.564   4.463  1.00 20.00     0.066 C 
HETATM    5  C3  UNL     1     -34.423   5.136   4.922  1.00 20.00     0.132 C 
HETATM    6  C4  UNL     1     -33.733   4.147   4.018  1.00 20.00     0.079 C 
HETATM    7  O9  UNL     1     -35.071   4.812   5.910  1.00 20.00    -0.298 OA
HETATM    8  C5  UNL     1     -33.323   5.025   2.843  1.00 20.00     0.008 C 
HETATM    9  C6  UNL     1     -33.074   6.394   3.462  1.00 20.00     0.013 C 
ENDBRANCH   3   4
TORSDOF 1
ENDMDL
MODEL 6
REMARK VINA RESULT:      -4.2      1.886      2.810
REMARK  1 active torsions:
REMARK  status: ('A' for Active; 'I' for Inactive)
REMARK    1  A    between atoms: C7_7  and  C8_8 
ROOT
HETATM    1  C1  UNL     1     -32.907   9.840   1.010  1.00 20.00     0.012 C 
HETATM    2  C2  UNL     1     -32.537   8.766   1.398  1.00 20.00    -0.117 C 
HETATM    3  C8  UNL     1     -32.082   7.450   1.871  1.00 20.00     0.105 C 
ENDROOT
BRANCH   3   4
HETATM    4  C7  UNL     1     -32.214   7.327   3.375  1.00 20.00     0.066 C 
HETATM    5  C3  UNL     1     -33.313   6.374   3.796  1.00 20.00     0.132 C 
HETATM    6  C4  UNL     1     -34.153   6.937   4.914  1.00 20.00     0.079 C 
HETATM    7  O9  UNL     1     -33.506   5.273   3.294  1.00 20.00    -0.298 OA
HETATM    8  C5  UNL     1     -33.347   8.162   5.329  1.00 20.00     0.008 C 
HETATM    9  C6  UNL     1     -32.673   8.624   4.043  1.00 20.00     0.013 C 
ENDBRANCH   3   4
TORSDOF 1
ENDMDL
MODEL 7
REMARK VINA RESULT:      -4.2      1.550      3.844
REMARK  1 active torsions:
REMARK  status: ('A' for Active; 'I' for Inactive)
REMARK    1  A    between atoms: C7_7  and  C8_8 
ROOT
HETATM    1  C1  UNL     1     -34.792   5.066   6.670  1.00 20.00     0.012 C 
HETATM    2  C2  UNL     1     -34.378   6.135   6.312  1.00 20.00    -0.117 C 
HETATM    3  C8  UNL     1     -33.871   7.444   5.876  1.00 20.00     0.105 C 
ENDROOT
BRANCH   3   4
HETATM    4  C7  UNL     1     -32.798   7.297   4.815  1.00 20.00     0.066 C 
HETATM    5  C3  UNL     1     -32.364   8.622   4.226  1.00 20.00     0.132 C 
HETATM    6  C4  UNL     1     -32.250   8.563   2.724  1.00 20.00     0.079 C 
HETATM    7  O9  UNL     1     -32.131   9.630   4.883  1.00 20.00    -0.298 OA
HETATM    8  C5  UNL     1     -32.378   7.069   2.456  1.00 20.00     0.008 C 
HETATM    9  C6  UNL     1     -33.289   6.562   3.567  1.00 20.00     0.013 C 
ENDBRANCH   3   4
TORSDOF 1
ENDMDL
MODEL 8
REMARK VINA RESULT:      -4.1      9.285      9.974
REMARK  1 active torsions:
REMARK  status: ('A' for Active; 'I' for Inactive)
REMARK    1  A    between atoms: C7_7  and  C8_8 
ROOT
HETATM    1  C1  UNL     1     -38.920  11.553   3.716  1.00 20.00     0.012 C 
HETATM    2  C2  UNL     1     -39.275  11.833   4.828  1.00 20.00    -0.117 C 
HETATM    3  C8  UNL     1     -39.707  12.175   6.191  1.00 20.00     0.105 C 
ENDROOT
BRANCH   3   4
HETATM    4  C7  UNL     1     -40.289  13.573   6.253  1.00 20.00     0.066 C 
HETATM    5  C3  UNL     1     -40.771  13.952   7.637  1.00 20.00     0.132 C 
HETATM    6  C4  UNL     1     -42.120  14.625   7.601  1.00 20.00     0.079 C 
HETATM    7  O9  UNL     1     -40.148  13.741   8.670  1.00 20.00    -0.298 OA
HETATM    8  C5  UNL     1     -42.310  14.874   6.110  1.00 20.00     0.008 C 
HETATM    9  C6  UNL     1     -41.575  13.721   5.438  1.00 20.00     0.013 C 
ENDBRANCH   3   4
TORSDOF 1
ENDMDL
MODEL 9
REMARK VINA RESULT:      -3.9     12.339     13.294
REMARK  1 active torsions:
REMARK  status: ('A' for Active; 'I' for Inactive)
REMARK    1  A    between atoms: C7_7  and  C8_8 
ROOT
HETATM    1  C1  UNL     1     -31.719  18.533  -0.807  1.00 20.00     0.012 C 
HETATM    2  C2  UNL     1     -32.569  17.834  -1.287  1.00 20.00    -0.117 C 
HETATM    3  C8  UNL     1     -33.611  16.979  -1.873  1.00 20.00     0.105 C 
ENDROOT
BRANCH   3   4
HETATM    4  C7  UNL     1     -33.309  16.652  -3.322  1.00 20.00     0.066 C 
HETATM    5  C3  UNL     1     -34.190  17.407  -4.295  1.00 20.00     0.132 C 
HETATM    6  C4  UNL     1     -34.713  16.516  -5.392  1.00 20.00     0.079 C 
HETATM    7  O9  UNL     1     -34.453  18.601  -4.209  1.00 20.00    -0.298 OA
HETATM    8  C5  UNL     1     -33.894  15.248  -5.187  1.00 20.00     0.008 C 
HETATM    9  C6  UNL     1     -33.635  15.203  -3.687  1.00 20.00     0.013 C 
ENDBRANCH   3   4
TORSDOF 1
ENDMDL
