MODEL 1
REMARK VINA RESULT:      -5.0      0.000      0.000
REMARK  0 active torsions:
REMARK  status: ('A' for Active; 'I' for Inactive)
ROOT
HETATM    1  C1  UNL     1     -33.666   7.237   4.917  1.00 20.00     0.225 C 
HETATM    2  C2  UNL     1     -33.159   5.423   2.666  1.00 20.00     0.021 C 
HETATM    3  C3  UNL     1     -33.583   4.850   4.011  1.00 20.00     0.020 C 
HETATM    4  C4  UNL     1     -32.291   6.642   2.896  1.00 20.00     0.122 C 
HETATM    5  C5  UNL     1     -34.372   5.875   4.847  1.00 20.00     0.034 C 
HETATM    6  C6  UNL     1     -34.546   5.320   6.271  1.00 20.00     0.025 C 
HETATM    7  C7  UNL     1     -35.767   6.119   4.242  1.00 20.00     0.025 C 
HETATM    8  N8  UNL     1     -32.848   7.573   3.858  1.00 20.00    -0.360 N 
HETATM    9  O9  UNL     1     -33.897   8.038   5.827  1.00 20.00    -0.273 OA
HETATM   10  H22 UNL     1     -32.617   8.555   3.741  1.00 20.00     0.162 HD
ENDROOT
TORSDOF 0
ENDMDL
MODEL 2
REMARK VINA RESULT:      -4.3      1.767      2.692
REMARK  0 active torsions:
REMARK  status: ('A' for Active; 'I' for Inactive)
ROOT
HETATM    1  C1  UNL     1     -33.275   6.080   3.644  1.00 20.00     0.225 C 
HETATM    2  C2  UNL     1     -32.922   8.585   5.133  1.00 20.00     0.021 C 
HETATM    3  C3  UNL     1     -34.301   7.947   5.055  1.00 20.00     0.020 C 
HETATM    4  C4  UNL     1     -32.185   8.340   3.833  1.00 20.00     0.122 C 
HETATM    5  C5  UNL     1     -34.217   6.429   4.806  1.00 20.00     0.034 C 
HETATM    6  C6  UNL     1     -35.628   5.902   4.492  1.00 20.00     0.025 C 
HETATM    7  C7  UNL     1     -33.687   5.698   6.053  1.00 20.00     0.025 C 
HETATM    8  N8  UNL     1     -32.244   6.961   3.388  1.00 20.00    -0.360 N 
HETATM    9  O9  UNL     1     -33.372   5.013   3.033  1.00 20.00    -0.273 OA
HETATM   10  H22 UNL     1     -31.461   6.615   2.843  1.00 20.00     0.162 HD
ENDROOT
TORSDOF 0
ENDMDL
MODEL 3
REMARK VINA RESULT:      -4.2      1.877      3.101
REMARK  0 active torsions:
REMARK  status: ('A' for Active; 'I' for Inactive)
ROOT
HETATM    1  C1  UNL     1     -33.176   6.458   3.727  1.00 20.00     0.225 C 
HETATM    2  C2  UNL     1     -34.836   5.895   6.082  1.00 20.00     0.021 C 
HETATM    3  C3  UNL     1     -33.735   6.941   6.173  1.00 20.00     0.020 C 
HETATM    4  C4  UNL     1     -34.389   4.782   5.158  1.00 20.00     0.122 C 
HETATM    5  C5  UNL     1     -33.398   7.540   4.795  1.00 20.00     0.034 C 
HETATM    6  C6  UNL     1     -32.124   8.393   4.926  1.00 20.00     0.025 C 
HETATM    7  C7  UNL     1     -34.542   8.442   4.295  1.00 20.00     0.025 C 
HETATM    8  N8  UNL     1     -33.834   5.259   3.906  1.00 20.00    -0.360 N 
HETATM    9  O9  UNL     1     -32.523   6.684   2.706  1.00 20.00    -0.273 OA
HETATM   10  H22 UNL     1     -33.940   4.660   3.093  1.00 20.00     0.162 HD
ENDROOT
TORSDOF 0
ENDMDL
MODEL 4
REMARK VINA RESULT:      -4.0     16.103     17.108
REMARK  0 active torsions:
REMARK  status: ('A' for Active; 'I' for Inactive)
ROOT
HETATM    1  C1  UNL     1     -22.855  17.093   9.625  1.00 20.00     0.225 C 
HETATM    2  C2  UNL     1     -24.135  18.129  12.055  1.00 20.00     0.021 C 
HETATM    3  C3  UNL     1     -22.955  18.877  11.452  1.00 20.00     0.020 C 
HETATM    4  C4  UNL     1     -23.940  16.642  11.849  1.00 20.00     0.122 C 
HETATM    5  C5  UNL     1     -22.808  18.595   9.944  1.00 20.00     0.034 C 
HETATM    6  C6  UNL     1     -21.467  19.175   9.463  1.00 20.00     0.025 C 
HETATM    7  C7  UNL     1     -23.945  19.263   9.149  1.00 20.00     0.025 C 
HETATM    8  N8  UNL     1     -23.567  16.291  10.492  1.00 20.00    -0.360 N 
HETATM    9  O9  UNL     1     -22.367  16.639   8.587  1.00 20.00    -0.273 OA
HETATM   10  H22 UNL     1     -23.854  15.379  10.153  1.00 20.00     0.162 HD
ENDROOT
TORSDOF 0
ENDMDL
MODEL 5
REMARK VINA RESULT:      -3.8     13.030     14.136
REMARK  0 active torsions:
REMARK  status: ('A' for Active; 'I' for Inactive)
ROOT
HETATM    1  C1  UNL     1     -34.058  15.323  -6.449  1.00 20.00     0.225 C 
HETATM    2  C2  UNL     1     -33.803  15.925  -3.588  1.00 20.00     0.021 C 
HETATM    3  C3  UNL     1     -34.193  17.033  -4.556  1.00 20.00     0.020 C 
HETATM    4  C4  UNL     1     -32.841  14.979  -4.275  1.00 20.00     0.122 C 
HETATM    5  C5  UNL     1     -34.861  16.474  -5.827  1.00 20.00     0.034 C 
HETATM    6  C6  UNL     1     -34.996  17.613  -6.853  1.00 20.00     0.025 C 
HETATM    7  C7  UNL     1     -36.266  15.929  -5.512  1.00 20.00     0.025 C 
HETATM    8  N8  UNL     1     -33.278  14.571  -5.596  1.00 20.00    -0.360 N 
HETATM    9  O9  UNL     1     -34.183  15.019  -7.639  1.00 20.00    -0.273 OA
HETATM   10  H22 UNL     1     -32.985  13.654  -5.919  1.00 20.00     0.162 HD
ENDROOT
TORSDOF 0
ENDMDL
MODEL 6
REMARK VINA RESULT:      -3.5     12.449     13.575
REMARK  0 active torsions:
REMARK  status: ('A' for Active; 'I' for Inactive)
ROOT
HETATM    1  C1  UNL     1     -33.865  15.140  -4.288  1.00 20.00     0.225 C 
HETATM    2  C2  UNL     1     -34.959  17.860  -4.151  1.00 20.00     0.021 C 
HETATM    3  C3  UNL     1     -34.565  17.277  -5.500  1.00 20.00     0.020 C 
HETATM    4  C4  UNL     1     -34.009  17.347  -3.090  1.00 20.00     0.122 C 
HETATM    5  C5  UNL     1     -34.606  15.737  -5.493  1.00 20.00     0.034 C 
HETATM    6  C6  UNL     1     -33.962  15.222  -6.792  1.00 20.00     0.025 C 
HETATM    7  C7  UNL     1     -36.058  15.228  -5.430  1.00 20.00     0.025 C 
HETATM    8  N8  UNL     1     -33.799  15.913  -3.148  1.00 20.00    -0.360 N 
HETATM    9  O9  UNL     1     -33.437  13.982  -4.303  1.00 20.00    -0.273 OA
HETATM   10  H22 UNL     1     -33.586  15.440  -2.276  1.00 20.00     0.162 HD
ENDROOT
TORSDOF 0
ENDMDL
MODEL 7
REMARK VINA RESULT:      -3.5      8.694      9.537
REMARK  0 active torsions:
REMARK  status: ('A' for Active; 'I' for Inactive)
ROOT
HETATM    1  C1  UNL     1     -41.272   5.754   0.041  1.00 20.00     0.225 C 
HETATM    2  C2  UNL     1     -43.417   5.960   2.034  1.00 20.00     0.021 C 
HETATM    3  C3  UNL     1     -42.471   7.133   1.828  1.00 20.00     0.020 C 
HETATM    4  C4  UNL     1     -42.657   4.666   1.837  1.00 20.00     0.122 C 
HETATM    5  C5  UNL     1     -41.850   7.127   0.418  1.00 20.00     0.034 C 
HETATM    6  C6  UNL     1     -40.729   8.180   0.369  1.00 20.00     0.025 C 
HETATM    7  C7  UNL     1     -42.904   7.483  -0.646  1.00 20.00     0.025 C 
HETATM    8  N8  UNL     1     -41.848   4.650   0.634  1.00 20.00    -0.360 N 
HETATM    9  O9  UNL     1     -40.404   5.636  -0.827  1.00 20.00    -0.273 OA
HETATM   10  H22 UNL     1     -41.692   3.750   0.191  1.00 20.00     0.162 HD
ENDROOT
TORSDOF 0
ENDMDL
MODEL 8
REMARK VINA RESULT:      -3.5     12.647     13.543
REMARK  0 active torsions:
REMARK  status: ('A' for Active; 'I' for Inactive)
ROOT
HETATM    1  C1  UNL     1     -35.276  16.690  -5.056  1.00 20.00     0.225 C 
HETATM    2  C2  UNL     1     -32.880  15.576  -3.777  1.00 20.00     0.021 C 
HETATM    3  C3  UNL     1     -34.010  14.645  -4.193  1.00 20.00     0.020 C 
HETATM    4  C4  UNL     1     -33.464  16.896  -3.322  1.00 20.00     0.122 C 
HETATM    5  C5  UNL     1     -34.851  15.241  -5.338  1.00 20.00     0.034 C 
HETATM    6  C6  UNL     1     -36.106  14.372  -5.531  1.00 20.00     0.025 C 
HETATM    7  C7  UNL     1     -34.054  15.251  -6.655  1.00 20.00     0.025 C 
HETATM    8  N8  UNL     1     -34.454  17.434  -4.236  1.00 20.00    -0.360 N 
HETATM    9  O9  UNL     1     -36.251  17.197  -5.616  1.00 20.00    -0.273 OA
HETATM   10  H22 UNL     1     -34.548  18.444  -4.276  1.00 20.00     0.162 HD
ENDROOT
TORSDOF 0
ENDMDL
MODEL 9
REMARK VINA RESULT:      -3.4     10.122     11.226
REMARK  0 active torsions:
REMARK  status: ('A' for Active; 'I' for Inactive)
ROOT
HETATM    1  C1  UNL     1     -40.835  13.993   7.481  1.00 20.00     0.225 C 
HETATM    2  C2  UNL     1     -42.680  15.099   5.485  1.00 20.00     0.021 C 
HETATM    3  C3  UNL     1     -41.787  13.925   5.111  1.00 20.00     0.020 C 
HETATM    4  C4  UNL     1     -41.939  16.003   6.446  1.00 20.00     0.122 C 
HETATM    5  C5  UNL     1     -41.371  13.106   6.348  1.00 20.00     0.034 C 
HETATM    6  C6  UNL     1     -40.283  12.102   5.931  1.00 20.00     0.025 C 
HETATM    7  C7  UNL     1     -42.570  12.322   6.915  1.00 20.00     0.025 C 
HETATM    8  N8  UNL     1     -41.306  15.288   7.538  1.00 20.00    -0.360 N 
HETATM    9  O9  UNL     1     -40.096  13.541   8.360  1.00 20.00    -0.273 OA
HETATM   10  H22 UNL     1     -41.203  15.783   8.418  1.00 20.00     0.162 HD
ENDROOT
TORSDOF 0
ENDMDL
