MODEL 1
REMARK VINA RESULT:      -4.6      0.000      0.000
REMARK  3 active torsions:
REMARK  status: ('A' for Active; 'I' for Inactive)
REMARK    1  A    between atoms: C5_5  and  C8_8 
REMARK    2  A    between atoms: C8_8  and  C9_9 
REMARK    3  A    between atoms: C9_9  and  C10_10 
ROOT
HETATM    1  C1  UNL     1     -34.344   5.388   4.931  1.00 20.00     0.131 C 
HETATM    2  C2  UNL     1     -34.357   5.746   6.395  1.00 20.00     0.079 C 
HETATM    3  C3  UNL     1     -33.718   7.127   6.388  1.00 20.00     0.008 C 
HETATM    4  C4  UNL     1     -34.138   7.736   5.056  1.00 20.00     0.013 C 
HETATM    5  C5  UNL     1     -34.059   6.585   4.049  1.00 20.00     0.055 C 
HETATM    6  O11 UNL     1     -34.549   4.259   4.507  1.00 20.00    -0.298 OA
ENDROOT
BRANCH   5   7
HETATM    7  C8  UNL     1     -32.691   6.454   3.398  1.00 20.00     0.012 C 
BRANCH   7   8
HETATM    8  C9  UNL     1     -32.122   7.821   3.015  1.00 20.00     0.005 C 
BRANCH   8   9
HETATM    9  C10 UNL     1     -32.735   8.401   1.727  1.00 20.00    -0.023 C 
HETATM   10  C6  UNL     1     -31.837   8.072   0.531  1.00 20.00     0.009 C 
HETATM   11  C7  UNL     1     -32.947   9.914   1.810  1.00 20.00     0.009 C 
ENDBRANCH   8   9
ENDBRANCH   7   8
ENDBRANCH   5   7
TORSDOF 3
ENDMDL
MODEL 2
REMARK VINA RESULT:      -4.5      1.295      4.417
REMARK  3 active torsions:
REMARK  status: ('A' for Active; 'I' for Inactive)
REMARK    1  A    between atoms: C5_5  and  C8_8 
REMARK    2  A    between atoms: C8_8  and  C9_9 
REMARK    3  A    between atoms: C9_9  and  C10_10 
ROOT
HETATM    1  C1  UNL     1     -32.478   7.093   3.029  1.00 20.00     0.131 C 
HETATM    2  C2  UNL     1     -32.305   7.873   1.752  1.00 20.00     0.079 C 
HETATM    3  C3  UNL     1     -32.642   9.289   2.199  1.00 20.00     0.008 C 
HETATM    4  C4  UNL     1     -32.182   9.350   3.651  1.00 20.00     0.013 C 
HETATM    5  C5  UNL     1     -32.558   7.991   4.246  1.00 20.00     0.055 C 
HETATM    6  O11 UNL     1     -32.538   5.871   3.075  1.00 20.00    -0.298 OA
ENDROOT
BRANCH   5   7
HETATM    7  C8  UNL     1     -33.958   7.964   4.837  1.00 20.00     0.012 C 
BRANCH   7   8
HETATM    8  C9  UNL     1     -34.001   7.155   6.135  1.00 20.00     0.005 C 
BRANCH   8   9
HETATM    9  C10 UNL     1     -34.796   5.843   6.014  1.00 20.00    -0.023 C 
HETATM   10  C6  UNL     1     -33.865   4.649   6.239  1.00 20.00     0.009 C 
HETATM   11  C7  UNL     1     -35.492   5.704   4.659  1.00 20.00     0.009 C 
ENDBRANCH   8   9
ENDBRANCH   7   8
ENDBRANCH   5   7
TORSDOF 3
ENDMDL
MODEL 3
REMARK VINA RESULT:      -4.2     11.583     12.206
REMARK  3 active torsions:
REMARK  status: ('A' for Active; 'I' for Inactive)
REMARK    1  A    between atoms: C5_5  and  C8_8 
REMARK    2  A    between atoms: C8_8  and  C9_9 
REMARK    3  A    between atoms: C9_9  and  C10_10 
ROOT
HETATM    1  C1  UNL     1     -33.425  18.771   0.695  1.00 20.00     0.131 C 
HETATM    2  C2  UNL     1     -32.093  18.858   1.394  1.00 20.00     0.079 C 
HETATM    3  C3  UNL     1     -31.131  18.426   0.296  1.00 20.00     0.008 C 
HETATM    4  C4  UNL     1     -31.782  18.910  -0.994  1.00 20.00     0.013 C 
HETATM    5  C5  UNL     1     -33.280  18.650  -0.807  1.00 20.00     0.055 C 
HETATM    6  O11 UNL     1     -34.500  18.803   1.279  1.00 20.00    -0.298 OA
ENDROOT
BRANCH   5   7
HETATM    7  C8  UNL     1     -33.708  17.269  -1.274  1.00 20.00     0.012 C 
BRANCH   7   8
HETATM    8  C9  UNL     1     -32.970  16.857  -2.550  1.00 20.00     0.005 C 
BRANCH   8   9
HETATM    9  C10 UNL     1     -33.861  16.114  -3.562  1.00 20.00    -0.023 C 
HETATM   10  C6  UNL     1     -33.059  15.000  -4.240  1.00 20.00     0.009 C 
HETATM   11  C7  UNL     1     -34.444  17.048  -4.624  1.00 20.00     0.009 C 
ENDBRANCH   8   9
ENDBRANCH   7   8
ENDBRANCH   5   7
TORSDOF 3
ENDMDL
MODEL 4
REMARK VINA RESULT:      -4.2      1.080      1.273
REMARK  3 active torsions:
REMARK  status: ('A' for Active; 'I' for Inactive)
REMARK    1  A    between atoms: C5_5  and  C8_8 
REMARK    2  A    between atoms: C8_8  and  C9_9 
REMARK    3  A    between atoms: C9_9  and  C10_10 
ROOT
HETATM    1  C1  UNL     1     -34.122   5.805   4.326  1.00 20.00     0.131 C 
HETATM    2  C2  UNL     1     -34.401   4.863   5.468  1.00 20.00     0.079 C 
HETATM    3  C3  UNL     1     -34.070   5.725   6.678  1.00 20.00     0.008 C 
HETATM    4  C4  UNL     1     -34.430   7.142   6.247  1.00 20.00     0.013 C 
HETATM    5  C5  UNL     1     -33.981   7.241   4.786  1.00 20.00     0.055 C 
HETATM    6  O11 UNL     1     -34.029   5.448   3.160  1.00 20.00    -0.298 OA
ENDROOT
BRANCH   5   7
HETATM    7  C8  UNL     1     -32.543   7.710   4.635  1.00 20.00     0.012 C 
BRANCH   7   8
HETATM    8  C9  UNL     1     -32.452   8.954   3.749  1.00 20.00     0.005 C 
BRANCH   8   9
HETATM    9  C10 UNL     1     -32.890   8.705   2.294  1.00 20.00    -0.023 C 
HETATM   10  C6  UNL     1     -31.981   7.655   1.651  1.00 20.00     0.009 C 
HETATM   11  C7  UNL     1     -32.876   9.983   1.453  1.00 20.00     0.009 C 
ENDBRANCH   8   9
ENDBRANCH   7   8
ENDBRANCH   5   7
TORSDOF 3
ENDMDL
MODEL 5
REMARK VINA RESULT:      -4.1      2.084      4.363
REMARK  3 active torsions:
REMARK  status: ('A' for Active; 'I' for Inactive)
REMARK    1  A    between atoms: C5_5  and  C8_8 
REMARK    2  A    between atoms: C8_8  and  C9_9 
REMARK    3  A    between atoms: C9_9  and  C10_10 
ROOT
HETATM    1  C1  UNL     1     -32.335   8.074   2.141  1.00 20.00     0.131 C 
HETATM    2  C2  UNL     1     -32.730   9.366   2.807  1.00 20.00     0.079 C 
HETATM    3  C3  UNL     1     -33.219   8.885   4.166  1.00 20.00     0.008 C 
HETATM    4  C4  UNL     1     -32.369   7.655   4.463  1.00 20.00     0.013 C 
HETATM    5  C5  UNL     1     -32.241   6.926   3.123  1.00 20.00     0.055 C 
HETATM    6  O11 UNL     1     -32.110   7.970   0.943  1.00 20.00    -0.298 OA
ENDROOT
BRANCH   5   7
HETATM    7  C8  UNL     1     -33.357   5.923   2.880  1.00 20.00     0.012 C 
BRANCH   7   8
HETATM    8  C9  UNL     1     -33.435   4.890   4.006  1.00 20.00     0.005 C 
BRANCH   8   9
HETATM    9  C10 UNL     1     -34.718   4.998   4.850  1.00 20.00    -0.023 C 
HETATM   10  C6  UNL     1     -35.651   6.050   4.244  1.00 20.00     0.009 C 
HETATM   11  C7  UNL     1     -34.429   5.347   6.311  1.00 20.00     0.009 C 
ENDBRANCH   8   9
ENDBRANCH   7   8
ENDBRANCH   5   7
TORSDOF 3
ENDMDL
MODEL 6
REMARK VINA RESULT:      -4.1     11.773     12.581
REMARK  3 active torsions:
REMARK  status: ('A' for Active; 'I' for Inactive)
REMARK    1  A    between atoms: C5_5  and  C8_8 
REMARK    2  A    between atoms: C8_8  and  C9_9 
REMARK    3  A    between atoms: C9_9  and  C10_10 
ROOT
HETATM    1  C1  UNL     1     -31.649  18.559  -0.141  1.00 20.00     0.131 C 
HETATM    2  C2  UNL     1     -32.124  19.013   1.215  1.00 20.00     0.079 C 
HETATM    3  C3  UNL     1     -33.634  19.047   1.026  1.00 20.00     0.008 C 
HETATM    4  C4  UNL     1     -33.918  17.933   0.025  1.00 20.00     0.013 C 
HETATM    5  C5  UNL     1     -32.774  18.007  -0.990  1.00 20.00     0.055 C 
HETATM    6  O11 UNL     1     -30.483  18.624  -0.508  1.00 20.00    -0.298 OA
ENDROOT
BRANCH   5   7
HETATM    7  C8  UNL     1     -33.069  18.938  -2.155  1.00 20.00     0.012 C 
BRANCH   7   8
HETATM    8  C9  UNL     1     -33.018  18.195  -3.491  1.00 20.00     0.005 C 
BRANCH   8   9
HETATM    9  C10 UNL     1     -34.019  17.029  -3.583  1.00 20.00    -0.023 C 
HETATM   10  C6  UNL     1     -33.264  15.709  -3.761  1.00 20.00     0.009 C 
HETATM   11  C7  UNL     1     -35.020  17.207  -4.726  1.00 20.00     0.009 C 
ENDBRANCH   8   9
ENDBRANCH   7   8
ENDBRANCH   5   7
TORSDOF 3
ENDMDL
MODEL 7
REMARK VINA RESULT:      -4.0     11.414     12.531
REMARK  3 active torsions:
REMARK  status: ('A' for Active; 'I' for Inactive)
REMARK    1  A    between atoms: C5_5  and  C8_8 
REMARK    2  A    between atoms: C8_8  and  C9_9 
REMARK    3  A    between atoms: C9_9  and  C10_10 
ROOT
HETATM    1  C1  UNL     1     -33.960  15.206  -4.401  1.00 20.00     0.131 C 
HETATM    2  C2  UNL     1     -35.142  15.545  -5.271  1.00 20.00     0.079 C 
HETATM    3  C3  UNL     1     -35.412  16.993  -4.888  1.00 20.00     0.008 C 
HETATM    4  C4  UNL     1     -34.039  17.560  -4.547  1.00 20.00     0.013 C 
HETATM    5  C5  UNL     1     -33.319  16.437  -3.796  1.00 20.00     0.055 C 
HETATM    6  O11 UNL     1     -33.562  14.064  -4.212  1.00 20.00    -0.298 OA
ENDROOT
BRANCH   5   7
HETATM    7  C8  UNL     1     -33.553  16.477  -2.295  1.00 20.00     0.012 C 
BRANCH   7   8
HETATM    8  C9  UNL     1     -33.552  17.914  -1.768  1.00 20.00     0.005 C 
BRANCH   8   9
HETATM    9  C10 UNL     1     -32.900  18.058  -0.380  1.00 20.00    -0.023 C 
HETATM   10  C6  UNL     1     -33.899  18.677   0.601  1.00 20.00     0.009 C 
HETATM   11  C7  UNL     1     -31.625  18.902  -0.419  1.00 20.00     0.009 C 
ENDBRANCH   8   9
ENDBRANCH   7   8
ENDBRANCH   5   7
TORSDOF 3
ENDMDL
MODEL 8
REMARK VINA RESULT:      -3.9      9.538     10.658
REMARK  3 active torsions:
REMARK  status: ('A' for Active; 'I' for Inactive)
REMARK    1  A    between atoms: C5_5  and  C8_8 
REMARK    2  A    between atoms: C8_8  and  C9_9 
REMARK    3  A    between atoms: C9_9  and  C10_10 
ROOT
HETATM    1  C1  UNL     1     -42.095  13.818   8.689  1.00 20.00     0.131 C 
HETATM    2  C2  UNL     1     -41.016  14.748   9.176  1.00 20.00     0.079 C 
HETATM    3  C3  UNL     1     -40.307  15.117   7.880  1.00 20.00     0.008 C 
HETATM    4  C4  UNL     1     -41.405  15.088   6.823  1.00 20.00     0.013 C 
HETATM    5  C5  UNL     1     -42.277  13.883   7.187  1.00 20.00     0.055 C 
HETATM    6  O11 UNL     1     -42.753  13.097   9.427  1.00 20.00    -0.298 OA
ENDROOT
BRANCH   5   7
HETATM    7  C8  UNL     1     -41.811  12.591   6.537  1.00 20.00     0.012 C 
BRANCH   7   8
HETATM    8  C9  UNL     1     -40.803  12.860   5.418  1.00 20.00     0.005 C 
BRANCH   8   9
HETATM    9  C10 UNL     1     -39.690  11.801   5.326  1.00 20.00    -0.023 C 
HETATM   10  C6  UNL     1     -38.606  12.095   6.366  1.00 20.00     0.009 C 
HETATM   11  C7  UNL     1     -39.062  11.731   3.933  1.00 20.00     0.009 C 
ENDBRANCH   8   9
ENDBRANCH   7   8
ENDBRANCH   5   7
TORSDOF 3
ENDMDL
MODEL 9
REMARK VINA RESULT:      -3.9     11.649     13.131
REMARK  3 active torsions:
REMARK  status: ('A' for Active; 'I' for Inactive)
REMARK    1  A    between atoms: C5_5  and  C8_8 
REMARK    2  A    between atoms: C8_8  and  C9_9 
REMARK    3  A    between atoms: C9_9  and  C10_10 
ROOT
HETATM    1  C1  UNL     1     -35.885  14.852  -5.987  1.00 20.00     0.131 C 
HETATM    2  C2  UNL     1     -36.021  15.186  -7.450  1.00 20.00     0.079 C 
HETATM    3  C3  UNL     1     -34.710  15.907  -7.732  1.00 20.00     0.008 C 
HETATM    4  C4  UNL     1     -33.704  15.251  -6.794  1.00 20.00     0.013 C 
HETATM    5  C5  UNL     1     -34.467  15.022  -5.487  1.00 20.00     0.055 C 
HETATM    6  O11 UNL     1     -36.818  14.477  -5.288  1.00 20.00    -0.298 OA
ENDROOT
BRANCH   5   7
HETATM    7  C8  UNL     1     -34.377  16.200  -4.530  1.00 20.00     0.012 C 
BRANCH   7   8
HETATM    8  C9  UNL     1     -33.370  15.935  -3.410  1.00 20.00     0.005 C 
BRANCH   8   9
HETATM    9  C10 UNL     1     -32.948  17.205  -2.650  1.00 20.00    -0.023 C 
HETATM   10  C6  UNL     1     -33.725  17.307  -1.335  1.00 20.00     0.009 C 
HETATM   11  C7  UNL     1     -33.161  18.477  -3.473  1.00 20.00     0.009 C 
ENDBRANCH   8   9
ENDBRANCH   7   8
ENDBRANCH   5   7
TORSDOF 3
ENDMDL
