MODEL 1
REMARK VINA RESULT:      -4.7      0.000      0.000
REMARK  3 active torsions:
REMARK  status: ('A' for Active; 'I' for Inactive)
REMARK    1  A    between atoms: C5_5  and  C8_8 
REMARK    2  A    between atoms: C8_8  and  C9_9 
REMARK    3  A    between atoms: C9_9  and  C10_10 
ROOT
HETATM    1  C1  UNL     1     -34.185   6.778   5.985  1.00 20.00     0.131 C 
HETATM    2  C2  UNL     1     -34.470   5.319   6.229  1.00 20.00     0.079 C 
HETATM    3  C3  UNL     1     -34.696   4.800   4.814  1.00 20.00     0.008 C 
HETATM    4  C4  UNL     1     -33.803   5.674   3.943  1.00 20.00     0.013 C 
HETATM    5  C5  UNL     1     -33.987   7.081   4.514  1.00 20.00     0.055 C 
HETATM    6  O11 UNL     1     -34.124   7.615   6.878  1.00 20.00    -0.298 OA
ENDROOT
BRANCH   5   7
HETATM    7  C8  UNL     1     -32.800   7.985   4.251  1.00 20.00     0.012 C 
BRANCH   7   8
HETATM    8  C9  UNL     1     -32.114   7.635   2.928  1.00 20.00     0.005 C 
BRANCH   8   9
HETATM    9  C10 UNL     1     -32.726   8.353   1.710  1.00 20.00    -0.023 C 
HETATM   10  C6  UNL     1     -31.814   8.176   0.492  1.00 20.00     0.009 C 
HETATM   11  C7  UNL     1     -32.961   9.842   1.967  1.00 20.00     0.009 C 
ENDBRANCH   8   9
ENDBRANCH   7   8
ENDBRANCH   5   7
TORSDOF 3
ENDMDL
MODEL 2
REMARK VINA RESULT:      -4.4      1.391      1.834
REMARK  3 active torsions:
REMARK  status: ('A' for Active; 'I' for Inactive)
REMARK    1  A    between atoms: C5_5  and  C8_8 
REMARK    2  A    between atoms: C8_8  and  C9_9 
REMARK    3  A    between atoms: C9_9  and  C10_10 
ROOT
HETATM    1  C1  UNL     1     -33.886   5.813   4.312  1.00 20.00     0.131 C 
HETATM    2  C2  UNL     1     -34.807   4.956   5.142  1.00 20.00     0.079 C 
HETATM    3  C3  UNL     1     -34.570   5.503   6.545  1.00 20.00     0.008 C 
HETATM    4  C4  UNL     1     -34.244   6.974   6.328  1.00 20.00     0.013 C 
HETATM    5  C5  UNL     1     -33.325   6.977   5.104  1.00 20.00     0.055 C 
HETATM    6  O11 UNL     1     -33.627   5.588   3.136  1.00 20.00    -0.298 OA
ENDROOT
BRANCH   5   7
HETATM    7  C8  UNL     1     -33.361   8.285   4.340  1.00 20.00     0.012 C 
BRANCH   7   8
HETATM    8  C9  UNL     1     -32.254   8.344   3.284  1.00 20.00     0.005 C 
BRANCH   8   9
HETATM    9  C10 UNL     1     -32.770   8.679   1.872  1.00 20.00    -0.023 C 
HETATM   10  C6  UNL     1     -31.795   8.139   0.822  1.00 20.00     0.009 C 
HETATM   11  C7  UNL     1     -32.972  10.180   1.664  1.00 20.00     0.009 C 
ENDBRANCH   8   9
ENDBRANCH   7   8
ENDBRANCH   5   7
TORSDOF 3
ENDMDL
MODEL 3
REMARK VINA RESULT:      -4.4     11.582     12.317
REMARK  3 active torsions:
REMARK  status: ('A' for Active; 'I' for Inactive)
REMARK    1  A    between atoms: C5_5  and  C8_8 
REMARK    2  A    between atoms: C8_8  and  C9_9 
REMARK    3  A    between atoms: C9_9  and  C10_10 
ROOT
HETATM    1  C1  UNL     1     -31.836  18.687  -0.352  1.00 20.00     0.131 C 
HETATM    2  C2  UNL     1     -32.272  18.511   1.080  1.00 20.00     0.079 C 
HETATM    3  C3  UNL     1     -33.739  18.920   1.016  1.00 20.00     0.008 C 
HETATM    4  C4  UNL     1     -34.183  18.521  -0.385  1.00 20.00     0.013 C 
HETATM    5  C5  UNL     1     -33.010  18.929  -1.279  1.00 20.00     0.055 C 
HETATM    6  O11 UNL     1     -30.667  18.640  -0.716  1.00 20.00    -0.298 OA
ENDROOT
BRANCH   5   7
HETATM    7  C8  UNL     1     -32.932  18.121  -2.557  1.00 20.00     0.012 C 
BRANCH   7   8
HETATM    8  C9  UNL     1     -33.293  16.653  -2.311  1.00 20.00     0.005 C 
BRANCH   8   9
HETATM    9  C10 UNL     1     -33.928  15.963  -3.534  1.00 20.00    -0.023 C 
HETATM   10  C6  UNL     1     -32.919  15.001  -4.168  1.00 20.00     0.009 C 
HETATM   11  C7  UNL     1     -34.414  16.964  -4.582  1.00 20.00     0.009 C 
ENDBRANCH   8   9
ENDBRANCH   7   8
ENDBRANCH   5   7
TORSDOF 3
ENDMDL
MODEL 4
REMARK VINA RESULT:      -4.1     11.619     12.669
REMARK  3 active torsions:
REMARK  status: ('A' for Active; 'I' for Inactive)
REMARK    1  A    between atoms: C5_5  and  C8_8 
REMARK    2  A    between atoms: C8_8  and  C9_9 
REMARK    3  A    between atoms: C9_9  and  C10_10 
ROOT
HETATM    1  C1  UNL     1     -34.295  17.294  -4.392  1.00 20.00     0.131 C 
HETATM    2  C2  UNL     1     -34.926  16.350  -5.383  1.00 20.00     0.079 C 
HETATM    3  C3  UNL     1     -34.088  15.090  -5.196  1.00 20.00     0.008 C 
HETATM    4  C4  UNL     1     -33.678  15.122  -3.730  1.00 20.00     0.013 C 
HETATM    5  C5  UNL     1     -33.318  16.587  -3.474  1.00 20.00     0.055 C 
HETATM    6  O11 UNL     1     -34.549  18.492  -4.341  1.00 20.00    -0.298 OA
ENDROOT
BRANCH   5   7
HETATM    7  C8  UNL     1     -33.473  16.990  -2.022  1.00 20.00     0.012 C 
BRANCH   7   8
HETATM    8  C9  UNL     1     -32.368  17.958  -1.591  1.00 20.00     0.005 C 
BRANCH   8   9
HETATM    9  C10 UNL     1     -32.655  18.659  -0.249  1.00 20.00    -0.023 C 
HETATM   10  C6  UNL     1     -31.431  18.550   0.664  1.00 20.00     0.009 C 
HETATM   11  C7  UNL     1     -33.881  18.084   0.460  1.00 20.00     0.009 C 
ENDBRANCH   8   9
ENDBRANCH   7   8
ENDBRANCH   5   7
TORSDOF 3
ENDMDL
MODEL 5
REMARK VINA RESULT:      -4.1     11.509     12.717
REMARK  3 active torsions:
REMARK  status: ('A' for Active; 'I' for Inactive)
REMARK    1  A    between atoms: C5_5  and  C8_8 
REMARK    2  A    between atoms: C8_8  and  C9_9 
REMARK    3  A    between atoms: C9_9  and  C10_10 
ROOT
HETATM    1  C1  UNL     1     -33.796  15.052  -4.903  1.00 20.00     0.131 C 
HETATM    2  C2  UNL     1     -34.157  15.183  -6.360  1.00 20.00     0.079 C 
HETATM    3  C3  UNL     1     -35.005  16.450  -6.363  1.00 20.00     0.008 C 
HETATM    4  C4  UNL     1     -34.429  17.294  -5.234  1.00 20.00     0.013 C 
HETATM    5  C5  UNL     1     -34.169  16.288  -4.110  1.00 20.00     0.055 C 
HETATM    6  O11 UNL     1     -33.264  14.058  -4.423  1.00 20.00    -0.298 OA
ENDROOT
BRANCH   5   7
HETATM    7  C8  UNL     1     -33.077  16.733  -3.159  1.00 20.00     0.012 C 
BRANCH   7   8
HETATM    8  C9  UNL     1     -33.596  16.830  -1.722  1.00 20.00     0.005 C 
BRANCH   8   9
HETATM    9  C10 UNL     1     -33.305  18.187  -1.054  1.00 20.00    -0.023 C 
HETATM   10  C6  UNL     1     -31.792  18.383  -0.913  1.00 20.00     0.009 C 
HETATM   11  C7  UNL     1     -33.972  18.320   0.315  1.00 20.00     0.009 C 
ENDBRANCH   8   9
ENDBRANCH   7   8
ENDBRANCH   5   7
TORSDOF 3
ENDMDL
MODEL 6
REMARK VINA RESULT:      -4.1      1.760      4.773
REMARK  3 active torsions:
REMARK  status: ('A' for Active; 'I' for Inactive)
REMARK    1  A    between atoms: C5_5  and  C8_8 
REMARK    2  A    between atoms: C8_8  and  C9_9 
REMARK    3  A    between atoms: C9_9  and  C10_10 
ROOT
HETATM    1  C1  UNL     1     -32.442   7.397   2.376  1.00 20.00     0.131 C 
HETATM    2  C2  UNL     1     -32.008   8.144   1.141  1.00 20.00     0.079 C 
HETATM    3  C3  UNL     1     -32.722   9.480   1.313  1.00 20.00     0.008 C 
HETATM    4  C4  UNL     1     -32.793   9.681   2.821  1.00 20.00     0.013 C 
HETATM    5  C5  UNL     1     -33.153   8.297   3.366  1.00 20.00     0.055 C 
HETATM    6  O11 UNL     1     -32.239   6.201   2.551  1.00 20.00    -0.298 OA
ENDROOT
BRANCH   5   7
HETATM    7  C8  UNL     1     -32.694   8.086   4.794  1.00 20.00     0.012 C 
BRANCH   7   8
HETATM    8  C9  UNL     1     -33.827   7.544   5.669  1.00 20.00     0.005 C 
BRANCH   8   9
HETATM    9  C10 UNL     1     -34.190   6.077   5.366  1.00 20.00    -0.023 C 
HETATM   10  C6  UNL     1     -35.438   6.024   4.479  1.00 20.00     0.009 C 
HETATM   11  C7  UNL     1     -34.425   5.259   6.636  1.00 20.00     0.009 C 
ENDBRANCH   8   9
ENDBRANCH   7   8
ENDBRANCH   5   7
TORSDOF 3
ENDMDL
MODEL 7
REMARK VINA RESULT:      -4.0      9.419     10.543
REMARK  3 active torsions:
REMARK  status: ('A' for Active; 'I' for Inactive)
REMARK    1  A    between atoms: C5_5  and  C8_8 
REMARK    2  A    between atoms: C8_8  and  C9_9 
REMARK    3  A    between atoms: C9_9  and  C10_10 
ROOT
HETATM    1  C1  UNL     1     -40.408  13.008   4.675  1.00 20.00     0.131 C 
HETATM    2  C2  UNL     1     -39.373  12.076   4.098  1.00 20.00     0.079 C 
HETATM    3  C3  UNL     1     -38.422  11.893   5.275  1.00 20.00     0.008 C 
HETATM    4  C4  UNL     1     -39.313  12.012   6.505  1.00 20.00     0.013 C 
HETATM    5  C5  UNL     1     -40.253  13.173   6.173  1.00 20.00     0.055 C 
HETATM    6  O11 UNL     1     -41.270  13.562   4.003  1.00 20.00    -0.298 OA
ENDROOT
BRANCH   5   7
HETATM    7  C8  UNL     1     -41.571  13.098   6.916  1.00 20.00     0.012 C 
BRANCH   7   8
HETATM    8  C9  UNL     1     -41.793  14.340   7.784  1.00 20.00     0.005 C 
BRANCH   8   9
HETATM    9  C10 UNL     1     -40.522  15.185   7.984  1.00 20.00    -0.023 C 
HETATM   10  C6  UNL     1     -40.094  15.140   9.454  1.00 20.00     0.009 C 
HETATM   11  C7  UNL     1     -40.711  16.638   7.546  1.00 20.00     0.009 C 
ENDBRANCH   8   9
ENDBRANCH   7   8
ENDBRANCH   5   7
TORSDOF 3
ENDMDL
MODEL 8
REMARK VINA RESULT:      -3.8     11.642     12.969
REMARK  3 active torsions:
REMARK  status: ('A' for Active; 'I' for Inactive)
REMARK    1  A    between atoms: C5_5  and  C8_8 
REMARK    2  A    between atoms: C8_8  and  C9_9 
REMARK    3  A    between atoms: C9_9  and  C10_10 
ROOT
HETATM    1  C1  UNL     1     -33.618  18.154  -3.903  1.00 20.00     0.131 C 
HETATM    2  C2  UNL     1     -33.109  19.263  -3.018  1.00 20.00     0.079 C 
HETATM    3  C3  UNL     1     -33.196  18.628  -1.635  1.00 20.00     0.008 C 
HETATM    4  C4  UNL     1     -32.957  17.145  -1.882  1.00 20.00     0.013 C 
HETATM    5  C5  UNL     1     -33.755  16.845  -3.153  1.00 20.00     0.055 C 
HETATM    6  O11 UNL     1     -33.886  18.303  -5.089  1.00 20.00    -0.298 OA
ENDROOT
BRANCH   5   7
HETATM    7  C8  UNL     1     -33.213  15.660  -3.925  1.00 20.00     0.012 C 
BRANCH   7   8
HETATM    8  C9  UNL     1     -34.288  14.589  -4.131  1.00 20.00     0.005 C 
BRANCH   8   9
HETATM    9  C10 UNL     1     -34.967  14.659  -5.512  1.00 20.00    -0.023 C 
HETATM   10  C6  UNL     1     -33.967  15.159  -6.558  1.00 20.00     0.009 C 
HETATM   11  C7  UNL     1     -36.204  15.558  -5.511  1.00 20.00     0.009 C 
ENDBRANCH   8   9
ENDBRANCH   7   8
ENDBRANCH   5   7
TORSDOF 3
ENDMDL
MODEL 9
REMARK VINA RESULT:      -3.7      1.547      4.585
REMARK  3 active torsions:
REMARK  status: ('A' for Active; 'I' for Inactive)
REMARK    1  A    between atoms: C5_5  and  C8_8 
REMARK    2  A    between atoms: C8_8  and  C9_9 
REMARK    3  A    between atoms: C9_9  and  C10_10 
ROOT
HETATM    1  C1  UNL     1     -32.394   9.062   3.238  1.00 20.00     0.131 C 
HETATM    2  C2  UNL     1     -32.534   9.116   1.738  1.00 20.00     0.079 C 
HETATM    3  C3  UNL     1     -32.133   7.703   1.333  1.00 20.00     0.008 C 
HETATM    4  C4  UNL     1     -32.571   6.833   2.504  1.00 20.00     0.013 C 
HETATM    5  C5  UNL     1     -32.182   7.648   3.739  1.00 20.00     0.055 C 
HETATM    6  O11 UNL     1     -32.447  10.051   3.960  1.00 20.00    -0.298 OA
ENDROOT
BRANCH   5   7
HETATM    7  C8  UNL     1     -33.024   7.318   4.954  1.00 20.00     0.012 C 
BRANCH   7   8
HETATM    8  C9  UNL     1     -34.439   6.892   4.553  1.00 20.00     0.005 C 
BRANCH   8   9
HETATM    9  C10 UNL     1     -34.848   5.516   5.113  1.00 20.00    -0.023 C 
HETATM   10  C6  UNL     1     -34.562   5.462   6.616  1.00 20.00     0.009 C 
HETATM   11  C7  UNL     1     -34.132   4.363   4.410  1.00 20.00     0.009 C 
ENDBRANCH   8   9
ENDBRANCH   7   8
ENDBRANCH   5   7
TORSDOF 3
ENDMDL
