MODEL 1
REMARK VINA RESULT:      -3.9      0.000      0.000
REMARK  1 active torsions:
REMARK  status: ('A' for Active; 'I' for Inactive)
REMARK    1  A    between atoms: C7_7  and  N9_9 
ROOT
HETATM    1  C1  UNL     1     -31.765  18.597  -0.722  1.00 20.00     0.089 C 
HETATM    2  C7  UNL     1     -33.142  18.539  -1.208  1.00 20.00     0.395 C 
HETATM    3  N8  UNL     1     -30.673  18.646  -0.334  1.00 20.00    -0.195 NA
ENDROOT
BRANCH   2   4
HETATM    4  N9  UNL     1     -33.199  17.956  -2.554  1.00 20.00     0.102 N 
HETATM    5  C3  UNL     1     -33.504  16.521  -2.461  1.00 20.00     0.274 C 
HETATM    6  C2  UNL     1     -33.131  15.753  -3.732  1.00 20.00     0.040 C 
HETATM    7  C5  UNL     1     -34.257  15.539  -4.736  1.00 20.00     0.075 C 
HETATM    8  S10 UNL     1     -35.303  16.955  -5.182  1.00 20.00    -0.167 SA
HETATM    9  C6  UNL     1     -34.180  18.341  -4.856  1.00 20.00     0.104 C 
HETATM   10  C4  UNL     1     -34.149  18.719  -3.375  1.00 20.00     0.283 C 
ENDBRANCH   2   4
TORSDOF 1
ENDMDL
MODEL 2
REMARK VINA RESULT:      -3.7      2.631      4.791
REMARK  1 active torsions:
REMARK  status: ('A' for Active; 'I' for Inactive)
REMARK    1  A    between atoms: C7_7  and  N9_9 
ROOT
HETATM    1  C1  UNL     1     -35.292  14.795  -6.377  1.00 20.00     0.089 C 
HETATM    2  C7  UNL     1     -34.139  14.878  -5.483  1.00 20.00     0.395 C 
HETATM    3  N8  UNL     1     -36.206  14.728  -7.089  1.00 20.00    -0.195 NA
ENDROOT
BRANCH   2   4
HETATM    4  N9  UNL     1     -34.291  15.987  -4.533  1.00 20.00     0.102 N 
HETATM    5  C3  UNL     1     -33.172  15.979  -3.579  1.00 20.00     0.274 C 
HETATM    6  C2  UNL     1     -33.474  16.775  -2.307  1.00 20.00     0.040 C 
HETATM    7  C5  UNL     1     -32.980  18.217  -2.290  1.00 20.00     0.075 C 
HETATM    8  S10 UNL     1     -33.307  19.263  -3.737  1.00 20.00    -0.167 SA
HETATM    9  C6  UNL     1     -34.785  18.467  -4.423  1.00 20.00     0.104 C 
HETATM   10  C4  UNL     1     -34.437  17.246  -5.275  1.00 20.00     0.283 C 
ENDBRANCH   2   4
TORSDOF 1
ENDMDL
MODEL 3
REMARK VINA RESULT:      -3.5      1.166      1.438
REMARK  1 active torsions:
REMARK  status: ('A' for Active; 'I' for Inactive)
REMARK    1  A    between atoms: C7_7  and  N9_9 
ROOT
HETATM    1  C1  UNL     1     -32.515  18.217  -1.699  1.00 20.00     0.089 C 
HETATM    2  C7  UNL     1     -33.321  17.022  -1.945  1.00 20.00     0.395 C 
HETATM    3  N8  UNL     1     -31.876  19.165  -1.501  1.00 20.00    -0.195 NA
ENDROOT
BRANCH   2   4
HETATM    4  N9  UNL     1     -33.486  16.788  -3.384  1.00 20.00     0.102 N 
HETATM    5  C3  UNL     1     -33.830  15.379  -3.621  1.00 20.00     0.274 C 
HETATM    6  C2  UNL     1     -33.568  14.941  -5.065  1.00 20.00     0.040 C 
HETATM    7  C5  UNL     1     -34.765  14.996  -6.006  1.00 20.00     0.075 C 
HETATM    8  S10 UNL     1     -35.792  16.493  -6.016  1.00 20.00    -0.167 SA
HETATM    9  C6  UNL     1     -34.606  17.740  -5.445  1.00 20.00     0.104 C 
HETATM   10  C4  UNL     1     -34.464  17.743  -3.923  1.00 20.00     0.283 C 
ENDBRANCH   2   4
TORSDOF 1
ENDMDL
MODEL 4
REMARK VINA RESULT:      -3.3      1.680      2.639
REMARK  1 active torsions:
REMARK  status: ('A' for Active; 'I' for Inactive)
REMARK    1  A    between atoms: C7_7  and  N9_9 
ROOT
HETATM    1  C1  UNL     1     -33.507  17.716  -1.012  1.00 20.00     0.089 C 
HETATM    2  C7  UNL     1     -32.893  17.426  -2.306  1.00 20.00     0.395 C 
HETATM    3  N8  UNL     1     -33.991  17.946   0.017  1.00 20.00    -0.195 NA
ENDROOT
BRANCH   2   4
HETATM    4  N9  UNL     1     -33.851  16.774  -3.207  1.00 20.00     0.102 N 
HETATM    5  C3  UNL     1     -34.358  17.751  -4.182  1.00 20.00     0.274 C 
HETATM    6  C2  UNL     1     -35.667  17.306  -4.840  1.00 20.00     0.040 C 
HETATM    7  C5  UNL     1     -35.531  16.604  -6.185  1.00 20.00     0.075 C 
HETATM    8  S10 UNL     1     -34.302  15.279  -6.353  1.00 20.00    -0.167 SA
HETATM    9  C6  UNL     1     -34.160  14.708  -4.637  1.00 20.00     0.104 C 
HETATM   10  C4  UNL     1     -33.223  15.593  -3.814  1.00 20.00     0.283 C 
ENDBRANCH   2   4
TORSDOF 1
ENDMDL
MODEL 5
REMARK VINA RESULT:      -3.3      2.557      4.760
REMARK  1 active torsions:
REMARK  status: ('A' for Active; 'I' for Inactive)
REMARK    1  A    between atoms: C7_7  and  N9_9 
ROOT
HETATM    1  C1  UNL     1     -34.040  15.108  -6.406  1.00 20.00     0.089 C 
HETATM    2  C7  UNL     1     -34.010  15.048  -4.946  1.00 20.00     0.395 C 
HETATM    3  N8  UNL     1     -34.063  15.151  -7.565  1.00 20.00    -0.195 NA
ENDROOT
BRANCH   2   4
HETATM    4  N9  UNL     1     -33.841  16.388  -4.371  1.00 20.00     0.102 N 
HETATM    5  C3  UNL     1     -35.078  17.163  -4.544  1.00 20.00     0.274 C 
HETATM    6  C2  UNL     1     -34.856  18.671  -4.407  1.00 20.00     0.040 C 
HETATM    7  C5  UNL     1     -35.130  19.263  -3.030  1.00 20.00     0.075 C 
HETATM    8  S10 UNL     1     -34.440  18.427  -1.574  1.00 20.00    -0.167 SA
HETATM    9  C6  UNL     1     -33.008  17.579  -2.297  1.00 20.00     0.104 C 
HETATM   10  C4  UNL     1     -33.401  16.265  -2.974  1.00 20.00     0.283 C 
ENDBRANCH   2   4
TORSDOF 1
ENDMDL
MODEL 6
REMARK VINA RESULT:      -3.3      2.072      3.513
REMARK  1 active torsions:
REMARK  status: ('A' for Active; 'I' for Inactive)
REMARK    1  A    between atoms: C7_7  and  N9_9 
ROOT
HETATM    1  C1  UNL     1     -33.409  16.640  -2.437  1.00 20.00     0.089 C 
HETATM    2  C7  UNL     1     -33.228  15.914  -3.693  1.00 20.00     0.395 C 
HETATM    3  N8  UNL     1     -33.551  17.216  -1.440  1.00 20.00    -0.195 NA
ENDROOT
BRANCH   2   4
HETATM    4  N9  UNL     1     -34.453  15.951  -4.501  1.00 20.00     0.102 N 
HETATM    5  C3  UNL     1     -34.728  17.333  -4.921  1.00 20.00     0.274 C 
HETATM    6  C2  UNL     1     -36.182  17.541  -5.353  1.00 20.00     0.040 C 
HETATM    7  C5  UNL     1     -36.455  17.436  -6.848  1.00 20.00     0.075 C 
HETATM    8  S10 UNL     1     -35.760  16.028  -7.760  1.00 20.00    -0.167 SA
HETATM    9  C6  UNL     1     -35.600  14.795  -6.440  1.00 20.00     0.104 C 
HETATM   10  C4  UNL     1     -34.329  15.000  -5.614  1.00 20.00     0.283 C 
ENDBRANCH   2   4
TORSDOF 1
ENDMDL
MODEL 7
REMARK VINA RESULT:      -3.3      2.888      5.198
REMARK  1 active torsions:
REMARK  status: ('A' for Active; 'I' for Inactive)
REMARK    1  A    between atoms: C7_7  and  N9_9 
ROOT
HETATM    1  C1  UNL     1     -35.888  15.492  -6.839  1.00 20.00     0.089 C 
HETATM    2  C7  UNL     1     -35.832  16.861  -6.329  1.00 20.00     0.395 C 
HETATM    3  N8  UNL     1     -35.936  14.406  -7.244  1.00 20.00    -0.195 NA
ENDROOT
BRANCH   2   4
HETATM    4  N9  UNL     1     -34.638  17.062  -5.499  1.00 20.00     0.102 N 
HETATM    5  C3  UNL     1     -34.672  18.404  -4.900  1.00 20.00     0.274 C 
HETATM    6  C2  UNL     1     -33.296  18.871  -4.417  1.00 20.00     0.040 C 
HETATM    7  C5  UNL     1     -32.992  18.635  -2.942  1.00 20.00     0.075 C 
HETATM    8  S10 UNL     1     -33.348  17.002  -2.233  1.00 20.00    -0.167 SA
HETATM    9  C6  UNL     1     -33.244  15.947  -3.704  1.00 20.00     0.104 C 
HETATM   10  C4  UNL     1     -34.537  15.971  -4.520  1.00 20.00     0.283 C 
ENDBRANCH   2   4
TORSDOF 1
ENDMDL
MODEL 8
REMARK VINA RESULT:      -3.1     11.982     12.885
REMARK  1 active torsions:
REMARK  status: ('A' for Active; 'I' for Inactive)
REMARK    1  A    between atoms: C7_7  and  N9_9 
ROOT
HETATM    1  C1  UNL     1     -32.306   8.350   1.287  1.00 20.00     0.089 C 
HETATM    2  C7  UNL     1     -31.972   7.357   2.306  1.00 20.00     0.395 C 
HETATM    3  N8  UNL     1     -32.567   9.138   0.476  1.00 20.00    -0.195 NA
ENDROOT
BRANCH   2   4
HETATM    4  N9  UNL     1     -33.065   7.216   3.277  1.00 20.00     0.102 N 
HETATM    5  C3  UNL     1     -33.299   5.792   3.557  1.00 20.00     0.274 C 
HETATM    6  C2  UNL     1     -34.676   5.529   4.171  1.00 20.00     0.040 C 
HETATM    7  C5  UNL     1     -34.723   5.444   5.692  1.00 20.00     0.075 C 
HETATM    8  S10 UNL     1     -33.877   6.727   6.659  1.00 20.00    -0.167 SA
HETATM    9  C6  UNL     1     -33.893   8.117   5.493  1.00 20.00     0.104 C 
HETATM   10  C4  UNL     1     -32.762   8.020   4.469  1.00 20.00     0.283 C 
ENDBRANCH   2   4
TORSDOF 1
ENDMDL
MODEL 9
REMARK VINA RESULT:      -3.1      2.005      3.057
REMARK  1 active torsions:
REMARK  status: ('A' for Active; 'I' for Inactive)
REMARK    1  A    between atoms: C7_7  and  N9_9 
ROOT
HETATM    1  C1  UNL     1     -33.278  16.803  -2.629  1.00 20.00     0.089 C 
HETATM    2  C7  UNL     1     -33.582  15.698  -3.537  1.00 20.00     0.395 C 
HETATM    3  N8  UNL     1     -33.038  17.677  -1.906  1.00 20.00    -0.195 NA
ENDROOT
BRANCH   2   4
HETATM    4  N9  UNL     1     -33.985  16.199  -4.856  1.00 20.00     0.102 N 
HETATM    5  C3  UNL     1     -34.217  15.069  -5.766  1.00 20.00     0.274 C 
HETATM    6  C2  UNL     1     -34.182  15.480  -7.241  1.00 20.00     0.040 C 
HETATM    7  C5  UNL     1     -35.532  15.780  -7.881  1.00 20.00     0.075 C 
HETATM    8  S10 UNL     1     -36.694  16.855  -6.993  1.00 20.00    -0.167 SA
HETATM    9  C6  UNL     1     -35.560  17.837  -5.973  1.00 20.00     0.104 C 
HETATM   10  C4  UNL     1     -35.140  17.094  -4.704  1.00 20.00     0.283 C 
ENDBRANCH   2   4
TORSDOF 1
ENDMDL
