MODEL 1
REMARK VINA RESULT:      -4.3      0.000      0.000
REMARK  3 active torsions:
REMARK  status: ('A' for Active; 'I' for Inactive)
REMARK    1  A    between atoms: C6_6  and  C9_9 
REMARK    2  A    between atoms: C7_7  and  C10_10 
REMARK    3  A    between atoms: C10_10  and  N11_11 
ROOT
HETATM    1  C1  UNL     1     -34.703  18.539  -2.449  1.00 20.00     0.032 C 
HETATM    2  C2  UNL     1     -33.301  16.447  -2.467  1.00 20.00     0.032 C 
HETATM    3  C3  UNL     1     -35.107  18.274  -3.892  1.00 20.00     0.235 C 
HETATM    4  C4  UNL     1     -33.712  16.192  -3.911  1.00 20.00     0.235 C 
HETATM    5  C6  UNL     1     -33.330  17.941  -2.123  1.00 20.00    -0.012 C 
HETATM    6  N11 UNL     1     -35.077  16.788  -4.157  1.00 20.00    -0.069 N 
HETATM    7  H32 UNL     1     -35.728  16.345  -3.495  1.00 20.00     0.280 HD
ENDROOT
BRANCH   6   8
HETATM    8  C10 UNL     1     -35.585  16.459  -5.534  1.00 20.00     0.268 C 
BRANCH   8   9
HETATM    9  C7  UNL     1     -34.611  15.522  -6.214  1.00 20.00     0.171 A 
HETATM   10  C5  UNL     1     -34.198  15.733  -7.644  1.00 20.00     0.201 A 
HETATM   11  O12 UNL     1     -35.177  14.747  -7.277  1.00 20.00    -0.380 OA
ENDBRANCH   8   9
ENDBRANCH   6   8
BRANCH   5  12
HETATM   12  C9  UNL     1     -32.974  18.166  -0.656  1.00 20.00     0.000 C 
HETATM   13  C8  UNL     1     -31.529  18.503  -0.483  1.00 20.00     0.005 C 
ENDBRANCH   5  12
TORSDOF 3
ENDMDL
MODEL 2
REMARK VINA RESULT:      -4.2      2.934      5.565
REMARK  3 active torsions:
REMARK  status: ('A' for Active; 'I' for Inactive)
REMARK    1  A    between atoms: C6_6  and  C9_9 
REMARK    2  A    between atoms: C7_7  and  C10_10 
REMARK    3  A    between atoms: C10_10  and  N11_11 
ROOT
HETATM    1  C1  UNL     1     -34.158  17.765  -4.988  1.00 20.00     0.032 C 
HETATM    2  C2  UNL     1     -33.403  15.888  -3.488  1.00 20.00     0.032 C 
HETATM    3  C3  UNL     1     -33.985  18.746  -3.837  1.00 20.00     0.235 C 
HETATM    4  C4  UNL     1     -33.235  16.878  -2.344  1.00 20.00     0.235 C 
HETATM    5  C6  UNL     1     -34.470  16.349  -4.488  1.00 20.00    -0.012 C 
HETATM    6  N11 UNL     1     -32.911  18.242  -2.904  1.00 20.00    -0.069 N 
HETATM    7  H32 UNL     1     -32.046  18.149  -3.455  1.00 20.00     0.280 HD
ENDROOT
BRANCH   6   8
HETATM    8  C10 UNL     1     -32.614  19.233  -1.813  1.00 20.00     0.268 C 
BRANCH   8   9
HETATM    9  C7  UNL     1     -32.009  18.508  -0.631  1.00 20.00     0.171 A 
HETATM   10  C5  UNL     1     -31.331  19.260   0.479  1.00 20.00     0.201 A 
HETATM   11  O12 UNL     1     -30.582  18.592  -0.550  1.00 20.00    -0.380 OA
ENDBRANCH   8   9
ENDBRANCH   6   8
BRANCH   5  12
HETATM   12  C9  UNL     1     -34.577  15.373  -5.656  1.00 20.00     0.000 C 
HETATM   13  C8  UNL     1     -35.842  14.580  -5.599  1.00 20.00     0.005 C 
ENDBRANCH   5  12
TORSDOF 3
ENDMDL
MODEL 3
REMARK VINA RESULT:      -4.0      0.555      1.545
REMARK  3 active torsions:
REMARK  status: ('A' for Active; 'I' for Inactive)
REMARK    1  A    between atoms: C6_6  and  C9_9 
REMARK    2  A    between atoms: C7_7  and  C10_10 
REMARK    3  A    between atoms: C10_10  and  N11_11 
ROOT
HETATM    1  C1  UNL     1     -33.032  16.913  -2.373  1.00 20.00     0.032 C 
HETATM    2  C2  UNL     1     -34.733  18.769  -2.289  1.00 20.00     0.032 C 
HETATM    3  C3  UNL     1     -33.753  16.315  -3.572  1.00 20.00     0.235 C 
HETATM    4  C4  UNL     1     -35.446  18.161  -3.489  1.00 20.00     0.235 C 
HETATM    5  C6  UNL     1     -33.986  17.707  -1.473  1.00 20.00    -0.012 C 
HETATM    6  N11 UNL     1     -34.448  17.413  -4.340  1.00 20.00    -0.069 N 
HETATM    7  H32 UNL     1     -33.727  18.088  -4.630  1.00 20.00     0.280 HD
ENDROOT
BRANCH   6   8
HETATM    8  C10 UNL     1     -35.076  16.894  -5.604  1.00 20.00     0.268 C 
BRANCH   8   9
HETATM    9  C7  UNL     1     -34.355  15.637  -6.040  1.00 20.00     0.171 A 
HETATM   10  C5  UNL     1     -33.927  15.441  -7.467  1.00 20.00     0.201 A 
HETATM   11  O12 UNL     1     -35.101  14.805  -6.935  1.00 20.00    -0.380 OA
ENDBRANCH   8   9
ENDBRANCH   6   8
BRANCH   5  12
HETATM   12  C9  UNL     1     -33.230  18.348  -0.313  1.00 20.00     0.000 C 
HETATM   13  C8  UNL     1     -31.762  18.414  -0.579  1.00 20.00     0.005 C 
ENDBRANCH   5  12
TORSDOF 3
ENDMDL
MODEL 4
REMARK VINA RESULT:      -4.0      2.512      5.452
REMARK  3 active torsions:
REMARK  status: ('A' for Active; 'I' for Inactive)
REMARK    1  A    between atoms: C6_6  and  C9_9 
REMARK    2  A    between atoms: C7_7  and  C10_10 
REMARK    3  A    between atoms: C10_10  and  N11_11 
ROOT
HETATM    1  C1  UNL     1     -33.765  15.437  -4.100  1.00 20.00     0.032 C 
HETATM    2  C2  UNL     1     -35.134  17.379  -4.935  1.00 20.00     0.032 C 
HETATM    3  C3  UNL     1     -33.264  16.295  -2.946  1.00 20.00     0.235 C 
HETATM    4  C4  UNL     1     -34.627  18.227  -3.778  1.00 20.00     0.235 C 
HETATM    5  C6  UNL     1     -34.130  16.286  -5.323  1.00 20.00    -0.012 C 
HETATM    6  N11 UNL     1     -34.305  17.333  -2.604  1.00 20.00    -0.069 N 
HETATM    7  H32 UNL     1     -35.168  16.831  -2.356  1.00 20.00     0.280 HD
ENDROOT
BRANCH   6   8
HETATM    8  C10 UNL     1     -33.915  18.131  -1.390  1.00 20.00     0.268 C 
BRANCH   8   9
HETATM    9  C7  UNL     1     -32.411  18.081  -1.223  1.00 20.00     0.171 A 
HETATM   10  C5  UNL     1     -31.708  18.980  -0.246  1.00 20.00     0.201 A 
HETATM   11  O12 UNL     1     -31.727  19.262  -1.655  1.00 20.00    -0.380 OA
ENDBRANCH   8   9
ENDBRANCH   6   8
BRANCH   5  12
HETATM   12  C9  UNL     1     -34.687  15.412  -6.443  1.00 20.00     0.000 C 
HETATM   13  C8  UNL     1     -35.950  14.727  -6.034  1.00 20.00     0.005 C 
ENDBRANCH   5  12
TORSDOF 3
ENDMDL
MODEL 5
REMARK VINA RESULT:      -4.0      4.665      7.520
REMARK  3 active torsions:
REMARK  status: ('A' for Active; 'I' for Inactive)
REMARK    1  A    between atoms: C6_6  and  C9_9 
REMARK    2  A    between atoms: C7_7  and  C10_10 
REMARK    3  A    between atoms: C10_10  and  N11_11 
ROOT
HETATM    1  C1  UNL     1     -31.967  17.985  -0.986  1.00 20.00     0.032 C 
HETATM    2  C2  UNL     1     -34.166  18.364   0.182  1.00 20.00     0.032 C 
HETATM    3  C3  UNL     1     -31.252  18.732   0.132  1.00 20.00     0.235 C 
HETATM    4  C4  UNL     1     -33.440  19.109   1.294  1.00 20.00     0.235 C 
HETATM    5  C6  UNL     1     -33.415  18.460  -1.151  1.00 20.00    -0.012 C 
HETATM    6  N11 UNL     1     -32.031  18.580   1.416  1.00 20.00    -0.069 N 
HETATM    7  H32 UNL     1     -32.099  17.573   1.616  1.00 20.00     0.280 HD
ENDROOT
BRANCH   6   8
HETATM    8  C10 UNL     1     -31.307  19.197   2.580  1.00 20.00     0.268 C 
BRANCH   8   9
HETATM    9  C7  UNL     1     -29.997  18.470   2.795  1.00 20.00     0.171 A 
HETATM   10  C5  UNL     1     -29.065  18.859   3.907  1.00 20.00     0.201 A 
HETATM   11  O12 UNL     1     -28.831  19.263   2.548  1.00 20.00    -0.380 OA
ENDBRANCH   8   9
ENDBRANCH   6   8
BRANCH   5  12
HETATM   12  C9  UNL     1     -34.129  17.656  -2.234  1.00 20.00     0.000 C 
HETATM   13  C8  UNL     1     -33.215  16.666  -2.880  1.00 20.00     0.005 C 
ENDBRANCH   5  12
TORSDOF 3
ENDMDL
MODEL 6
REMARK VINA RESULT:      -3.8      1.363      1.930
REMARK  3 active torsions:
REMARK  status: ('A' for Active; 'I' for Inactive)
REMARK    1  A    between atoms: C6_6  and  C9_9 
REMARK    2  A    between atoms: C7_7  and  C10_10 
REMARK    3  A    between atoms: C10_10  and  N11_11 
ROOT
HETATM    1  C1  UNL     1     -34.842  18.444  -2.376  1.00 20.00     0.032 C 
HETATM    2  C2  UNL     1     -33.331  16.442  -2.607  1.00 20.00     0.032 C 
HETATM    3  C3  UNL     1     -35.310  18.248  -3.811  1.00 20.00     0.235 C 
HETATM    4  C4  UNL     1     -33.806  16.256  -4.041  1.00 20.00     0.235 C 
HETATM    5  C6  UNL     1     -33.422  17.906  -2.162  1.00 20.00    -0.012 C 
HETATM    6  N11 UNL     1     -35.213  16.786  -4.176  1.00 20.00    -0.069 N 
HETATM    7  H32 UNL     1     -35.801  16.265  -3.512  1.00 20.00     0.280 HD
ENDROOT
BRANCH   6   8
HETATM    8  C10 UNL     1     -35.777  16.518  -5.544  1.00 20.00     0.268 C 
BRANCH   8   9
HETATM    9  C7  UNL     1     -37.205  17.018  -5.602  1.00 20.00     0.171 A 
HETATM   10  C5  UNL     1     -38.344  16.177  -5.097  1.00 20.00     0.201 A 
HETATM   11  O12 UNL     1     -38.052  16.292  -6.499  1.00 20.00    -0.380 OA
ENDBRANCH   8   9
ENDBRANCH   6   8
BRANCH   5  12
HETATM   12  C9  UNL     1     -32.999  18.057  -0.704  1.00 20.00     0.000 C 
HETATM   13  C8  UNL     1     -31.578  18.505  -0.584  1.00 20.00     0.005 C 
ENDBRANCH   5  12
TORSDOF 3
ENDMDL
MODEL 7
REMARK VINA RESULT:      -3.6      2.650      5.683
REMARK  3 active torsions:
REMARK  status: ('A' for Active; 'I' for Inactive)
REMARK    1  A    between atoms: C6_6  and  C9_9 
REMARK    2  A    between atoms: C7_7  and  C10_10 
REMARK    3  A    between atoms: C10_10  and  N11_11 
ROOT
HETATM    1  C1  UNL     1     -34.215  14.733  -4.889  1.00 20.00     0.032 C 
HETATM    2  C2  UNL     1     -35.415  16.934  -5.130  1.00 20.00     0.032 C 
HETATM    3  C3  UNL     1     -33.286  15.359  -3.859  1.00 20.00     0.235 C 
HETATM    4  C4  UNL     1     -34.480  17.550  -4.099  1.00 20.00     0.235 C 
HETATM    5  C6  UNL     1     -34.750  15.773  -5.880  1.00 20.00    -0.012 C 
HETATM    6  N11 UNL     1     -34.007  16.478  -3.147  1.00 20.00    -0.069 N 
HETATM    7  H32 UNL     1     -34.843  16.071  -2.705  1.00 20.00     0.280 HD
ENDROOT
BRANCH   6   8
HETATM    8  C10 UNL     1     -33.176  17.053  -2.033  1.00 20.00     0.268 C 
BRANCH   8   9
HETATM    9  C7  UNL     1     -34.023  18.010  -1.222  1.00 20.00     0.171 A 
HETATM   10  C5  UNL     1     -33.393  19.085  -0.382  1.00 20.00     0.201 A 
HETATM   11  O12 UNL     1     -33.887  17.866   0.196  1.00 20.00    -0.380 OA
ENDBRANCH   8   9
ENDBRANCH   6   8
BRANCH   5  12
HETATM   12  C9  UNL     1     -35.726  15.133  -6.864  1.00 20.00     0.000 C 
HETATM   13  C8  UNL     1     -36.620  16.150  -7.496  1.00 20.00     0.005 C 
ENDBRANCH   5  12
TORSDOF 3
ENDMDL
MODEL 8
REMARK VINA RESULT:      -3.5      1.650      2.174
REMARK  3 active torsions:
REMARK  status: ('A' for Active; 'I' for Inactive)
REMARK    1  A    between atoms: C6_6  and  C9_9 
REMARK    2  A    between atoms: C7_7  and  C10_10 
REMARK    3  A    between atoms: C10_10  and  N11_11 
ROOT
HETATM    1  C1  UNL     1     -33.481  16.054  -3.348  1.00 20.00     0.032 C 
HETATM    2  C2  UNL     1     -33.396  18.551  -3.665  1.00 20.00     0.032 C 
HETATM    3  C3  UNL     1     -34.262  15.922  -4.648  1.00 20.00     0.235 C 
HETATM    4  C4  UNL     1     -34.177  18.407  -4.963  1.00 20.00     0.235 C 
HETATM    5  C6  UNL     1     -33.710  17.416  -2.683  1.00 20.00    -0.012 C 
HETATM    6  N11 UNL     1     -33.892  17.055  -5.574  1.00 20.00    -0.069 N 
HETATM    7  H32 UNL     1     -32.877  17.001  -5.734  1.00 20.00     0.280 HD
ENDROOT
BRANCH   6   8
HETATM    8  C10 UNL     1     -34.543  16.907  -6.921  1.00 20.00     0.268 C 
BRANCH   8   9
HETATM    9  C7  UNL     1     -35.890  16.238  -6.752  1.00 20.00     0.171 A 
HETATM   10  C5  UNL     1     -36.923  16.283  -7.843  1.00 20.00     0.201 A 
HETATM   11  O12 UNL     1     -36.999  17.142  -6.693  1.00 20.00    -0.380 OA
ENDBRANCH   8   9
ENDBRANCH   6   8
BRANCH   5  12
HETATM   12  C9  UNL     1     -32.870  17.548  -1.415  1.00 20.00     0.000 C 
HETATM   13  C8  UNL     1     -32.210  18.886  -1.327  1.00 20.00     0.005 C 
ENDBRANCH   5  12
TORSDOF 3
ENDMDL
MODEL 9
REMARK VINA RESULT:      -3.4     14.377     15.768
REMARK  3 active torsions:
REMARK  status: ('A' for Active; 'I' for Inactive)
REMARK    1  A    between atoms: C6_6  and  C9_9 
REMARK    2  A    between atoms: C7_7  and  C10_10 
REMARK    3  A    between atoms: C10_10  and  N11_11 
ROOT
HETATM    1  C1  UNL     1     -40.424  13.991   7.332  1.00 20.00     0.032 C 
HETATM    2  C2  UNL     1     -42.351  12.476   6.751  1.00 20.00     0.032 C 
HETATM    3  C3  UNL     1     -41.275  14.649   8.409  1.00 20.00     0.235 C 
HETATM    4  C4  UNL     1     -43.192  13.143   7.831  1.00 20.00     0.235 C 
HETATM    5  C6  UNL     1     -41.284  13.426   6.195  1.00 20.00    -0.012 C 
HETATM    6  N11 UNL     1     -42.288  13.657   8.926  1.00 20.00    -0.069 N 
HETATM    7  H32 UNL     1     -41.767  12.851   9.296  1.00 20.00     0.280 HD
ENDROOT
BRANCH   6   8
HETATM    8  C10 UNL     1     -43.076  14.217  10.077  1.00 20.00     0.268 C 
BRANCH   8   9
HETATM    9  C7  UNL     1     -43.341  13.117  11.082  1.00 20.00     0.171 A 
HETATM   10  C5  UNL     1     -42.516  12.990  12.332  1.00 20.00     0.201 A 
HETATM   11  O12 UNL     1     -42.294  12.147  11.190  1.00 20.00    -0.380 OA
ENDBRANCH   8   9
ENDBRANCH   6   8
BRANCH   5  12
HETATM   12  C9  UNL     1     -40.415  12.717   5.159  1.00 20.00     0.000 C 
HETATM   13  C8  UNL     1     -39.448  11.775   5.800  1.00 20.00     0.005 C 
ENDBRANCH   5  12
TORSDOF 3
ENDMDL
