MODEL 1
REMARK VINA RESULT:      -4.7      0.000      0.000
REMARK  3 active torsions:
REMARK  status: ('A' for Active; 'I' for Inactive)
REMARK    1  A    between atoms: C3_3  and  C4_4 
REMARK    2  A    between atoms: C3_3  and  C5_5 
REMARK    3  A    between atoms: C4_4  and  N6_6 
ROOT
HETATM    1  C3  UNL     1     -33.721   6.725   5.769  1.00 20.00     0.152 C 
ENDROOT
BRANCH   1   2
HETATM    2  C4  UNL     1     -33.399   7.548   4.511  1.00 20.00     0.224 C 
HETATM    3  C1  UNL     1     -32.491   8.726   4.860  1.00 20.00     0.043 C 
BRANCH   2   4
HETATM    4  N6  UNL     1     -32.736   6.730   3.495  1.00 20.00     0.083 N 
HETATM    5  C2  UNL     1     -32.215   7.564   2.424  1.00 20.00     0.307 C 
HETATM    6  H19 UNL     1     -33.410   6.069   3.113  1.00 20.00     0.315 HD
ENDBRANCH   2   4
ENDBRANCH   1   2
BRANCH   1   7
HETATM    7  C5  UNL     1     -34.727   5.613   5.539  1.00 20.00     0.389 C 
HETATM    8  F7  UNL     1     -35.702   5.983   4.684  1.00 20.00    -0.171 F 
HETATM    9  F8  UNL     1     -35.320   5.269   6.705  1.00 20.00    -0.171 F 
HETATM   10  F9  UNL     1     -34.132   4.508   5.043  1.00 20.00    -0.171 F 
ENDBRANCH   1   7
TORSDOF 3
ENDMDL
MODEL 2
REMARK VINA RESULT:      -4.7      0.060      1.260
REMARK  3 active torsions:
REMARK  status: ('A' for Active; 'I' for Inactive)
REMARK    1  A    between atoms: C3_3  and  C4_4 
REMARK    2  A    between atoms: C3_3  and  C5_5 
REMARK    3  A    between atoms: C4_4  and  N6_6 
ROOT
HETATM    1  C3  UNL     1     -33.714   6.709   5.804  1.00 20.00     0.152 C 
ENDROOT
BRANCH   1   2
HETATM    2  C4  UNL     1     -33.435   7.540   4.542  1.00 20.00     0.224 C 
HETATM    3  C1  UNL     1     -32.521   8.721   4.870  1.00 20.00     0.043 C 
BRANCH   2   4
HETATM    4  N6  UNL     1     -32.800   6.732   3.502  1.00 20.00     0.083 N 
HETATM    5  C2  UNL     1     -32.157   7.580   2.511  1.00 20.00     0.307 C 
HETATM    6  H19 UNL     1     -33.510   6.160   3.049  1.00 20.00     0.315 HD
ENDBRANCH   2   4
ENDBRANCH   1   2
BRANCH   1   7
HETATM    7  C5  UNL     1     -34.720   5.592   5.598  1.00 20.00     0.389 C 
HETATM    8  F7  UNL     1     -34.148   4.483   5.088  1.00 20.00    -0.171 F 
HETATM    9  F8  UNL     1     -35.685   5.985   4.736  1.00 20.00    -0.171 F 
HETATM   10  F9  UNL     1     -35.323   5.256   6.758  1.00 20.00    -0.171 F 
ENDBRANCH   1   7
TORSDOF 3
ENDMDL
MODEL 3
REMARK VINA RESULT:      -4.6      2.991      3.928
REMARK  3 active torsions:
REMARK  status: ('A' for Active; 'I' for Inactive)
REMARK    1  A    between atoms: C3_3  and  C4_4 
REMARK    2  A    between atoms: C3_3  and  C5_5 
REMARK    3  A    between atoms: C4_4  and  N6_6 
ROOT
HETATM    1  C3  UNL     1     -33.351   7.285   5.167  1.00 20.00     0.152 C 
ENDROOT
BRANCH   1   2
HETATM    2  C4  UNL     1     -34.251   6.415   4.275  1.00 20.00     0.224 C 
HETATM    3  C1  UNL     1     -33.405   5.508   3.383  1.00 20.00     0.043 C 
BRANCH   2   4
HETATM    4  N6  UNL     1     -35.149   5.582   5.074  1.00 20.00     0.083 N 
HETATM    5  C2  UNL     1     -34.641   5.431   6.429  1.00 20.00     0.307 C 
HETATM    6  H19 UNL     1     -35.225   4.665   4.637  1.00 20.00     0.315 HD
ENDBRANCH   2   4
ENDBRANCH   1   2
BRANCH   1   7
HETATM    7  C5  UNL     1     -32.541   8.318   4.408  1.00 20.00     0.389 C 
HETATM    8  F7  UNL     1     -31.350   7.831   4.005  1.00 20.00    -0.171 F 
HETATM    9  F8  UNL     1     -32.295   9.391   5.194  1.00 20.00    -0.171 F 
HETATM   10  F9  UNL     1     -33.205   8.756   3.317  1.00 20.00    -0.171 F 
ENDBRANCH   1   7
TORSDOF 3
ENDMDL
MODEL 4
REMARK VINA RESULT:      -4.6      1.491      2.199
REMARK  3 active torsions:
REMARK  status: ('A' for Active; 'I' for Inactive)
REMARK    1  A    between atoms: C3_3  and  C4_4 
REMARK    2  A    between atoms: C3_3  and  C5_5 
REMARK    3  A    between atoms: C4_4  and  N6_6 
ROOT
HETATM    1  C3  UNL     1     -34.415   6.567   4.729  1.00 20.00     0.152 C 
ENDROOT
BRANCH   1   2
HETATM    2  C4  UNL     1     -33.047   6.553   4.028  1.00 20.00     0.224 C 
HETATM    3  C1  UNL     1     -33.060   5.585   2.847  1.00 20.00     0.043 C 
BRANCH   2   4
HETATM    4  N6  UNL     1     -32.685   7.884   3.540  1.00 20.00     0.083 N 
HETATM    5  C2  UNL     1     -32.265   8.739   4.638  1.00 20.00     0.307 C 
HETATM    6  H19 UNL     1     -33.494   8.297   3.079  1.00 20.00     0.315 HD
ENDBRANCH   2   4
ENDBRANCH   1   2
BRANCH   1   7
HETATM    7  C5  UNL     1     -34.351   6.271   6.215  1.00 20.00     0.389 C 
HETATM    8  F7  UNL     1     -34.596   7.367   6.960  1.00 20.00    -0.171 F 
HETATM    9  F8  UNL     1     -33.120   5.820   6.550  1.00 20.00    -0.171 F 
HETATM   10  F9  UNL     1     -35.242   5.319   6.564  1.00 20.00    -0.171 F 
ENDBRANCH   1   7
TORSDOF 3
ENDMDL
MODEL 5
REMARK VINA RESULT:      -4.6      2.970      3.679
REMARK  3 active torsions:
REMARK  status: ('A' for Active; 'I' for Inactive)
REMARK    1  A    between atoms: C3_3  and  C4_4 
REMARK    2  A    between atoms: C3_3  and  C5_5 
REMARK    3  A    between atoms: C4_4  and  N6_6 
ROOT
HETATM    1  C3  UNL     1     -33.847   7.908   4.523  1.00 20.00     0.152 C 
ENDROOT
BRANCH   1   2
HETATM    2  C4  UNL     1     -33.657   6.463   5.012  1.00 20.00     0.224 C 
HETATM    3  C1  UNL     1     -34.345   6.259   6.361  1.00 20.00     0.043 C 
BRANCH   2   4
HETATM    4  N6  UNL     1     -34.207   5.502   4.056  1.00 20.00     0.083 N 
HETATM    5  C2  UNL     1     -33.240   5.203   3.012  1.00 20.00     0.307 C 
HETATM    6  H19 UNL     1     -35.047   5.896   3.637  1.00 20.00     0.315 HD
ENDBRANCH   2   4
ENDBRANCH   1   2
BRANCH   1   7
HETATM    7  C5  UNL     1     -32.551   8.622   4.189  1.00 20.00     0.389 C 
HETATM    8  F7  UNL     1     -32.643   9.326   3.043  1.00 20.00    -0.171 F 
HETATM    9  F8  UNL     1     -31.549   7.727   4.035  1.00 20.00    -0.171 F 
HETATM   10  F9  UNL     1     -32.191   9.471   5.175  1.00 20.00    -0.171 F 
ENDBRANCH   1   7
TORSDOF 3
ENDMDL
MODEL 6
REMARK VINA RESULT:      -4.5      2.883      3.784
REMARK  3 active torsions:
REMARK  status: ('A' for Active; 'I' for Inactive)
REMARK    1  A    between atoms: C3_3  and  C4_4 
REMARK    2  A    between atoms: C3_3  and  C5_5 
REMARK    3  A    between atoms: C4_4  and  N6_6 
ROOT
HETATM    1  C3  UNL     1     -33.862   7.939   4.483  1.00 20.00     0.152 C 
ENDROOT
BRANCH   1   2
HETATM    2  C4  UNL     1     -33.891   6.603   5.244  1.00 20.00     0.224 C 
HETATM    3  C1  UNL     1     -34.341   6.819   6.688  1.00 20.00     0.043 C 
BRANCH   2   4
HETATM    4  N6  UNL     1     -34.798   5.648   4.608  1.00 20.00     0.083 N 
HETATM    5  C2  UNL     1     -34.083   4.447   4.208  1.00 20.00     0.307 C 
HETATM    6  H19 UNL     1     -35.215   6.084   3.788  1.00 20.00     0.315 HD
ENDBRANCH   2   4
ENDBRANCH   1   2
BRANCH   1   7
HETATM    7  C5  UNL     1     -32.522   8.260   3.850  1.00 20.00     0.389 C 
HETATM    8  F7  UNL     1     -31.670   8.826   4.728  1.00 20.00    -0.171 F 
HETATM    9  F8  UNL     1     -32.684   9.127   2.825  1.00 20.00    -0.171 F 
HETATM   10  F9  UNL     1     -31.936   7.149   3.354  1.00 20.00    -0.171 F 
ENDBRANCH   1   7
TORSDOF 3
ENDMDL
MODEL 7
REMARK VINA RESULT:      -4.1      2.518      3.220
REMARK  3 active torsions:
REMARK  status: ('A' for Active; 'I' for Inactive)
REMARK    1  A    between atoms: C3_3  and  C4_4 
REMARK    2  A    between atoms: C3_3  and  C5_5 
REMARK    3  A    between atoms: C4_4  and  N6_6 
ROOT
HETATM    1  C3  UNL     1     -33.519   7.114   4.171  1.00 20.00     0.152 C 
ENDROOT
BRANCH   1   2
HETATM    2  C4  UNL     1     -34.079   5.731   4.540  1.00 20.00     0.224 C 
HETATM    3  C1  UNL     1     -35.603   5.776   4.626  1.00 20.00     0.043 C 
BRANCH   2   4
HETATM    4  N6  UNL     1     -33.695   4.721   3.554  1.00 20.00     0.083 N 
HETATM    5  C2  UNL     1     -32.825   5.295   2.540  1.00 20.00     0.307 C 
HETATM    6  H19 UNL     1     -34.536   4.355   3.111  1.00 20.00     0.315 HD
ENDBRANCH   2   4
ENDBRANCH   1   2
BRANCH   1   7
HETATM    7  C5  UNL     1     -33.136   7.965   5.367  1.00 20.00     0.389 C 
HETATM    8  F7  UNL     1     -31.963   8.602   5.179  1.00 20.00    -0.171 F 
HETATM    9  F8  UNL     1     -33.005   7.192   6.469  1.00 20.00    -0.171 F 
HETATM   10  F9  UNL     1     -34.080   8.893   5.630  1.00 20.00    -0.171 F 
ENDBRANCH   1   7
TORSDOF 3
ENDMDL
MODEL 8
REMARK VINA RESULT:      -4.1      1.358      1.930
REMARK  3 active torsions:
REMARK  status: ('A' for Active; 'I' for Inactive)
REMARK    1  A    between atoms: C3_3  and  C4_4 
REMARK    2  A    between atoms: C3_3  and  C5_5 
REMARK    3  A    between atoms: C4_4  and  N6_6 
ROOT
HETATM    1  C3  UNL     1     -33.447   6.061   4.215  1.00 20.00     0.152 C 
ENDROOT
BRANCH   1   2
HETATM    2  C4  UNL     1     -33.883   7.485   4.596  1.00 20.00     0.224 C 
HETATM    3  C1  UNL     1     -33.792   7.687   6.108  1.00 20.00     0.043 C 
BRANCH   2   4
HETATM    4  N6  UNL     1     -33.050   8.491   3.938  1.00 20.00     0.083 N 
HETATM    5  C2  UNL     1     -32.084   9.050   4.870  1.00 20.00     0.307 C 
HETATM    6  H19 UNL     1     -33.648   9.235   3.583  1.00 20.00     0.315 HD
ENDBRANCH   2   4
ENDBRANCH   1   2
BRANCH   1   7
HETATM    7  C5  UNL     1     -34.379   4.975   4.716  1.00 20.00     0.389 C 
HETATM    8  F7  UNL     1     -34.202   3.812   4.057  1.00 20.00    -0.171 F 
HETATM    9  F8  UNL     1     -35.668   5.347   4.543  1.00 20.00    -0.171 F 
HETATM   10  F9  UNL     1     -34.197   4.741   6.033  1.00 20.00    -0.171 F 
ENDBRANCH   1   7
TORSDOF 3
ENDMDL
MODEL 9
REMARK VINA RESULT:      -4.0      3.005      4.125
REMARK  3 active torsions:
REMARK  status: ('A' for Active; 'I' for Inactive)
REMARK    1  A    between atoms: C3_3  and  C4_4 
REMARK    2  A    between atoms: C3_3  and  C5_5 
REMARK    3  A    between atoms: C4_4  and  N6_6 
ROOT
HETATM    1  C3  UNL     1     -32.953   6.321   3.370  1.00 20.00     0.152 C 
ENDROOT
BRANCH   1   2
HETATM    2  C4  UNL     1     -34.091   6.497   4.389  1.00 20.00     0.224 C 
HETATM    3  C1  UNL     1     -34.721   5.147   4.727  1.00 20.00     0.043 C 
BRANCH   2   4
HETATM    4  N6  UNL     1     -33.608   7.112   5.625  1.00 20.00     0.083 N 
HETATM    5  C2  UNL     1     -34.395   6.665   6.764  1.00 20.00     0.307 C 
HETATM    6  H19 UNL     1     -33.679   8.124   5.540  1.00 20.00     0.315 HD
ENDBRANCH   2   4
ENDBRANCH   1   2
BRANCH   1   7
HETATM    7  C5  UNL     1     -32.264   7.616   2.984  1.00 20.00     0.389 C 
HETATM    8  F7  UNL     1     -31.928   7.640   1.678  1.00 20.00    -0.171 F 
HETATM    9  F8  UNL     1     -31.126   7.772   3.698  1.00 20.00    -0.171 F 
HETATM   10  F9  UNL     1     -33.052   8.683   3.233  1.00 20.00    -0.171 F 
ENDBRANCH   1   7
TORSDOF 3
ENDMDL
