MODEL 1
REMARK VINA RESULT:      -3.4      0.000      0.000
REMARK  1 active torsions:
REMARK  status: ('A' for Active; 'I' for Inactive)
REMARK    1  A    between atoms: C5_5  and  N7_7 
ROOT
HETATM    1  C1  UNL     1     -32.917  17.505  -1.673  1.00 20.00     0.158 C 
HETATM    2  N7  UNL     1     -33.510  16.636  -2.196  1.00 20.00    -0.268 NA
HETATM    3  S9  UNL     1     -32.124  18.675  -0.939  1.00 20.00    -0.055 SA
ENDROOT
BRANCH   2   4
HETATM    4  C5  UNL     1     -33.335  16.554  -3.646  1.00 20.00     0.139 C 
HETATM    5  C2  UNL     1     -33.208  15.094  -4.078  1.00 20.00     0.059 C 
HETATM    6  C3  UNL     1     -34.484  14.811  -4.855  1.00 20.00     0.274 C 
HETATM    7  N8  UNL     1     -34.789  16.117  -5.437  1.00 20.00     0.086 N 
HETATM    8  C4  UNL     1     -34.587  17.076  -4.348  1.00 20.00     0.299 C 
HETATM    9  C6  UNL     1     -36.135  16.179  -5.989  1.00 20.00     0.310 C 
ENDBRANCH   2   4
TORSDOF 1
ENDMDL
MODEL 2
REMARK VINA RESULT:      -3.2      1.932      3.144
REMARK  1 active torsions:
REMARK  status: ('A' for Active; 'I' for Inactive)
REMARK    1  A    between atoms: C5_5  and  N7_7 
ROOT
HETATM    1  C1  UNL     1     -31.485  18.876  -0.167  1.00 20.00     0.158 C 
HETATM    2  N7  UNL     1     -31.789  19.149  -1.269  1.00 20.00    -0.268 NA
HETATM    3  S9  UNL     1     -31.047  18.520   1.322  1.00 20.00    -0.055 SA
ENDROOT
BRANCH   2   4
HETATM    4  C5  UNL     1     -33.101  18.655  -1.687  1.00 20.00     0.139 C 
HETATM    5  C2  UNL     1     -33.486  19.263  -3.035  1.00 20.00     0.059 C 
HETATM    6  C3  UNL     1     -33.442  18.096  -4.009  1.00 20.00     0.274 C 
HETATM    7  N8  UNL     1     -33.810  16.967  -3.157  1.00 20.00     0.086 N 
HETATM    8  C4  UNL     1     -33.034  17.149  -1.927  1.00 20.00     0.299 C 
HETATM    9  C6  UNL     1     -33.551  15.683  -3.792  1.00 20.00     0.310 C 
ENDBRANCH   2   4
TORSDOF 1
ENDMDL
MODEL 3
REMARK VINA RESULT:      -3.2     16.697     17.257
REMARK  1 active torsions:
REMARK  status: ('A' for Active; 'I' for Inactive)
REMARK    1  A    between atoms: C5_5  and  N7_7 
ROOT
HETATM    1  C1  UNL     1     -25.343  18.946  10.842  1.00 20.00     0.158 C 
HETATM    2  N7  UNL     1     -24.874  18.911   9.765  1.00 20.00    -0.268 NA
HETATM    3  S9  UNL     1     -26.003  18.989  12.291  1.00 20.00    -0.055 SA
ENDROOT
BRANCH   2   4
HETATM    4  C5  UNL     1     -23.431  19.142   9.712  1.00 20.00     0.139 C 
HETATM    5  C2  UNL     1     -22.689  17.990  10.387  1.00 20.00     0.059 C 
HETATM    6  C3  UNL     1     -21.974  17.275   9.251  1.00 20.00     0.274 C 
HETATM    7  N8  UNL     1     -21.710  18.367   8.315  1.00 20.00     0.086 N 
HETATM    8  C4  UNL     1     -22.959  19.131   8.260  1.00 20.00     0.299 C 
HETATM    9  C6  UNL     1     -21.294  17.887   7.005  1.00 20.00     0.310 C 
ENDBRANCH   2   4
TORSDOF 1
ENDMDL
MODEL 4
REMARK VINA RESULT:      -3.1     12.896     13.876
REMARK  1 active torsions:
REMARK  status: ('A' for Active; 'I' for Inactive)
REMARK    1  A    between atoms: C5_5  and  N7_7 
ROOT
HETATM    1  C1  UNL     1     -39.425  12.080   5.634  1.00 20.00     0.158 C 
HETATM    2  N7  UNL     1     -39.712  12.398   6.729  1.00 20.00    -0.268 NA
HETATM    3  S9  UNL     1     -39.020  11.628   4.162  1.00 20.00    -0.055 SA
ENDROOT
BRANCH   2   4
HETATM    4  C5  UNL     1     -40.607  13.551   6.822  1.00 20.00     0.139 C 
HETATM    5  C2  UNL     1     -42.059  13.103   6.670  1.00 20.00     0.059 C 
HETATM    6  C3  UNL     1     -42.674  13.319   8.044  1.00 20.00     0.274 C 
HETATM    7  N8  UNL     1     -41.913  14.461   8.548  1.00 20.00     0.086 N 
HETATM    8  C4  UNL     1     -40.517  14.165   8.217  1.00 20.00     0.299 C 
HETATM    9  C6  UNL     1     -42.113  14.677   9.973  1.00 20.00     0.310 C 
ENDBRANCH   2   4
TORSDOF 1
ENDMDL
MODEL 5
REMARK VINA RESULT:      -3.1     17.570     18.143
REMARK  1 active torsions:
REMARK  status: ('A' for Active; 'I' for Inactive)
REMARK    1  A    between atoms: C5_5  and  N7_7 
ROOT
HETATM    1  C1  UNL     1     -26.940  18.803  12.159  1.00 20.00     0.158 C 
HETATM    2  N7  UNL     1     -25.865  19.259  12.026  1.00 20.00    -0.268 NA
HETATM    3  S9  UNL     1     -28.408  18.210  12.332  1.00 20.00    -0.055 SA
ENDROOT
BRANCH   2   4
HETATM    4  C5  UNL     1     -24.765  18.334  12.295  1.00 20.00     0.139 C 
HETATM    5  C2  UNL     1     -24.986  17.022  11.544  1.00 20.00     0.059 C 
HETATM    6  C3  UNL     1     -23.902  17.001  10.478  1.00 20.00     0.274 C 
HETATM    7  N8  UNL     1     -22.817  17.739  11.125  1.00 20.00     0.086 N 
HETATM    8  C4  UNL     1     -23.462  18.903  11.738  1.00 20.00     0.299 C 
HETATM    9  C6  UNL     1     -21.765  18.113  10.191  1.00 20.00     0.310 C 
ENDBRANCH   2   4
TORSDOF 1
ENDMDL
MODEL 6
REMARK VINA RESULT:      -3.0      2.800      5.539
REMARK  1 active torsions:
REMARK  status: ('A' for Active; 'I' for Inactive)
REMARK    1  A    between atoms: C5_5  and  N7_7 
ROOT
HETATM    1  C1  UNL     1     -33.630  16.898  -3.039  1.00 20.00     0.158 C 
HETATM    2  N7  UNL     1     -33.143  16.947  -1.971  1.00 20.00    -0.268 NA
HETATM    3  S9  UNL     1     -34.287  16.804  -4.487  1.00 20.00    -0.055 SA
ENDROOT
BRANCH   2   4
HETATM    4  C5  UNL     1     -32.996  18.293  -1.420  1.00 20.00     0.139 C 
HETATM    5  C2  UNL     1     -33.968  18.495  -0.259  1.00 20.00     0.059 C 
HETATM    6  C3  UNL     1     -33.082  18.582   0.974  1.00 20.00     0.274 C 
HETATM    7  N8  UNL     1     -31.859  19.177   0.435  1.00 20.00     0.086 N 
HETATM    8  C4  UNL     1     -31.604  18.456  -0.815  1.00 20.00     0.299 C 
HETATM    9  C6  UNL     1     -30.742  19.091   1.364  1.00 20.00     0.310 C 
ENDBRANCH   2   4
TORSDOF 1
ENDMDL
MODEL 7
REMARK VINA RESULT:      -3.0      1.041      1.120
REMARK  1 active torsions:
REMARK  status: ('A' for Active; 'I' for Inactive)
REMARK    1  A    between atoms: C5_5  and  N7_7 
ROOT
HETATM    1  C1  UNL     1     -33.264  16.835  -2.455  1.00 20.00     0.158 C 
HETATM    2  N7  UNL     1     -33.570  15.900  -3.097  1.00 20.00    -0.268 NA
HETATM    3  S9  UNL     1     -32.847  18.086  -1.561  1.00 20.00    -0.055 SA
ENDROOT
BRANCH   2   4
HETATM    4  C5  UNL     1     -33.803  16.175  -4.514  1.00 20.00     0.139 C 
HETATM    5  C2  UNL     1     -33.971  14.864  -5.282  1.00 20.00     0.059 C 
HETATM    6  C3  UNL     1     -35.433  14.847  -5.699  1.00 20.00     0.274 C 
HETATM    7  N8  UNL     1     -35.727  16.271  -5.858  1.00 20.00     0.086 N 
HETATM    8  C4  UNL     1     -35.126  16.916  -4.688  1.00 20.00     0.299 C 
HETATM    9  C6  UNL     1     -37.154  16.536  -5.967  1.00 20.00     0.310 C 
ENDBRANCH   2   4
TORSDOF 1
ENDMDL
MODEL 8
REMARK VINA RESULT:      -3.0     12.870     13.785
REMARK  1 active torsions:
REMARK  status: ('A' for Active; 'I' for Inactive)
REMARK    1  A    between atoms: C5_5  and  N7_7 
ROOT
HETATM    1  C1  UNL     1     -33.854   4.665   3.687  1.00 20.00     0.158 C 
HETATM    2  N7  UNL     1     -34.594   4.708   4.599  1.00 20.00    -0.268 NA
HETATM    3  S9  UNL     1     -32.853   4.579   2.451  1.00 20.00    -0.055 SA
ENDROOT
BRANCH   2   4
HETATM    4  C5  UNL     1     -34.912   6.054   5.073  1.00 20.00     0.139 C 
HETATM    5  C2  UNL     1     -34.499   6.206   6.537  1.00 20.00     0.059 C 
HETATM    6  C3  UNL     1     -33.331   7.180   6.508  1.00 20.00     0.274 C 
HETATM    7  N8  UNL     1     -33.656   8.018   5.354  1.00 20.00     0.086 N 
HETATM    8  C4  UNL     1     -34.080   7.082   4.310  1.00 20.00     0.299 C 
HETATM    9  C6  UNL     1     -32.534   8.846   4.935  1.00 20.00     0.310 C 
ENDBRANCH   2   4
TORSDOF 1
ENDMDL
MODEL 9
REMARK VINA RESULT:      -2.9      2.707      4.325
REMARK  1 active torsions:
REMARK  status: ('A' for Active; 'I' for Inactive)
REMARK    1  A    between atoms: C5_5  and  N7_7 
ROOT
HETATM    1  C1  UNL     1     -33.882  15.503  -4.590  1.00 20.00     0.158 C 
HETATM    2  N7  UNL     1     -33.591  15.745  -3.478  1.00 20.00    -0.268 NA
HETATM    3  S9  UNL     1     -34.278  15.147  -6.091  1.00 20.00    -0.055 SA
ENDROOT
BRANCH   2   4
HETATM    4  C5  UNL     1     -33.313  17.155  -3.206  1.00 20.00     0.139 C 
HETATM    5  C2  UNL     1     -34.498  18.017  -3.639  1.00 20.00     0.059 C 
HETATM    6  C3  UNL     1     -35.090  18.539  -2.339  1.00 20.00     0.274 C 
HETATM    7  N8  UNL     1     -33.912  18.626  -1.476  1.00 20.00     0.086 N 
HETATM    8  C4  UNL     1     -33.183  17.376  -1.701  1.00 20.00     0.299 C 
HETATM    9  C6  UNL     1     -34.262  18.822  -0.077  1.00 20.00     0.310 C 
ENDBRANCH   2   4
TORSDOF 1
ENDMDL
