MODEL 1
REMARK VINA RESULT:      -4.2      0.000      0.000
REMARK  2 active torsions:
REMARK  status: ('A' for Active; 'I' for Inactive)
REMARK    1  A    between atoms: C6_6  and  C9_9 
REMARK    2  A    between atoms: C7_7  and  N10_10 
ROOT
HETATM    1  C1  UNL     1     -33.539  16.669  -2.269  1.00 20.00     0.158 C 
HETATM    2  N10 UNL     1     -33.711  17.142  -1.210  1.00 20.00    -0.270 NA
HETATM    3  S11 UNL     1     -33.316  15.994  -3.694  1.00 20.00    -0.055 SA
ENDROOT
BRANCH   2   4
HETATM    4  C7  UNL     1     -33.462  18.589  -1.138  1.00 20.00     0.109 C 
HETATM    5  C4  UNL     1     -31.982  18.873  -1.400  1.00 20.00     0.028 C 
HETATM    6  C2  UNL     1     -31.079  18.467  -0.237  1.00 20.00     0.007 C 
HETATM    7  C6  UNL     1     -31.548  19.079   1.089  1.00 20.00    -0.015 C 
HETATM    8  C3  UNL     1     -33.012  18.719   1.370  1.00 20.00     0.007 C 
HETATM    9  C5  UNL     1     -33.927  19.127   0.216  1.00 20.00     0.028 C 
BRANCH   7  10
HETATM   10  C9  UNL     1     -30.651  18.624   2.240  1.00 20.00     0.000 C 
HETATM   11  C8  UNL     1     -31.215  19.015   3.566  1.00 20.00     0.005 C 
ENDBRANCH   7  10
ENDBRANCH   2   4
TORSDOF 2
ENDMDL
MODEL 2
REMARK VINA RESULT:      -4.1      2.679      5.269
REMARK  2 active torsions:
REMARK  status: ('A' for Active; 'I' for Inactive)
REMARK    1  A    between atoms: C6_6  and  C9_9 
REMARK    2  A    between atoms: C7_7  and  N10_10 
ROOT
HETATM    1  C1  UNL     1     -31.389  18.753  -0.272  1.00 20.00     0.158 C 
HETATM    2  N10 UNL     1     -31.767  18.776  -1.382  1.00 20.00    -0.270 NA
HETATM    3  S11 UNL     1     -30.841  18.722   1.222  1.00 20.00    -0.055 SA
ENDROOT
BRANCH   2   4
HETATM    4  C7  UNL     1     -33.229  18.798  -1.531  1.00 20.00     0.109 C 
HETATM    5  C4  UNL     1     -33.804  17.419  -1.203  1.00 20.00     0.028 C 
HETATM    6  C2  UNL     1     -33.518  16.379  -2.286  1.00 20.00     0.007 C 
HETATM    7  C6  UNL     1     -33.962  16.863  -3.672  1.00 20.00    -0.015 C 
HETATM    8  C3  UNL     1     -33.315  18.211  -4.012  1.00 20.00     0.007 C 
HETATM    9  C5  UNL     1     -33.598  19.263  -2.940  1.00 20.00     0.028 C 
BRANCH   7  10
HETATM   10  C9  UNL     1     -33.628  15.821  -4.739  1.00 20.00     0.000 C 
HETATM   11  C8  UNL     1     -33.934  14.436  -4.271  1.00 20.00     0.005 C 
ENDBRANCH   7  10
ENDBRANCH   2   4
TORSDOF 2
ENDMDL
MODEL 3
REMARK VINA RESULT:      -3.9      2.412      3.587
REMARK  2 active torsions:
REMARK  status: ('A' for Active; 'I' for Inactive)
REMARK    1  A    between atoms: C6_6  and  C9_9 
REMARK    2  A    between atoms: C7_7  and  N10_10 
ROOT
HETATM    1  C1  UNL     1     -36.048  17.390  -4.821  1.00 20.00     0.158 C 
HETATM    2  N10 UNL     1     -35.326  17.994  -4.121  1.00 20.00    -0.270 NA
HETATM    3  S11 UNL     1     -37.056  16.588  -5.756  1.00 20.00    -0.055 SA
ENDROOT
BRANCH   2   4
HETATM    4  C7  UNL     1     -33.901  17.682  -4.294  1.00 20.00     0.109 C 
HETATM    5  C4  UNL     1     -33.520  16.493  -3.411  1.00 20.00     0.028 C 
HETATM    6  C2  UNL     1     -33.457  16.848  -1.925  1.00 20.00     0.007 C 
HETATM    7  C6  UNL     1     -32.552  18.060  -1.667  1.00 20.00    -0.015 C 
HETATM    8  C3  UNL     1     -32.998  19.263  -2.508  1.00 20.00     0.007 C 
HETATM    9  C5  UNL     1     -33.059  18.922  -3.997  1.00 20.00     0.028 C 
BRANCH   7  10
HETATM   10  C9  UNL     1     -32.541  18.416  -0.181  1.00 20.00     0.000 C 
HETATM   11  C8  UNL     1     -31.149  18.595   0.331  1.00 20.00     0.005 C 
ENDBRANCH   7  10
ENDBRANCH   2   4
TORSDOF 2
ENDMDL
MODEL 4
REMARK VINA RESULT:      -3.8      3.630      5.596
REMARK  2 active torsions:
REMARK  status: ('A' for Active; 'I' for Inactive)
REMARK    1  A    between atoms: C6_6  and  C9_9 
REMARK    2  A    between atoms: C7_7  and  N10_10 
ROOT
HETATM    1  C1  UNL     1     -36.971  16.255  -6.319  1.00 20.00     0.158 C 
HETATM    2  N10 UNL     1     -36.179  15.646  -5.704  1.00 20.00    -0.270 NA
HETATM    3  S11 UNL     1     -38.072  17.062  -7.137  1.00 20.00    -0.055 SA
ENDROOT
BRANCH   2   4
HETATM    4  C7  UNL     1     -34.780  15.993  -5.993  1.00 20.00     0.109 C 
HETATM    5  C4  UNL     1     -33.847  15.005  -5.292  1.00 20.00     0.028 C 
HETATM    6  C2  UNL     1     -33.784  15.211  -3.779  1.00 20.00     0.007 C 
HETATM    7  C6  UNL     1     -33.450  16.664  -3.415  1.00 20.00    -0.015 C 
HETATM    8  C3  UNL     1     -34.443  17.632  -4.067  1.00 20.00     0.007 C 
HETATM    9  C5  UNL     1     -34.510  17.441  -5.583  1.00 20.00     0.028 C 
BRANCH   7  10
HETATM   10  C9  UNL     1     -33.434  16.848  -1.898  1.00 20.00     0.000 C 
HETATM   11  C8  UNL     1     -32.623  18.036  -1.497  1.00 20.00     0.005 C 
ENDBRANCH   7  10
ENDBRANCH   2   4
TORSDOF 2
ENDMDL
MODEL 5
REMARK VINA RESULT:      -3.8     11.027     11.627
REMARK  2 active torsions:
REMARK  status: ('A' for Active; 'I' for Inactive)
REMARK    1  A    between atoms: C6_6  and  C9_9 
REMARK    2  A    between atoms: C7_7  and  N10_10 
ROOT
HETATM    1  C1  UNL     1     -32.847   9.285   1.401  1.00 20.00     0.158 C 
HETATM    2  N10 UNL     1     -32.997   9.371   2.561  1.00 20.00    -0.270 NA
HETATM    3  S11 UNL     1     -32.672   9.191  -0.178  1.00 20.00    -0.055 SA
ENDROOT
BRANCH   2   4
HETATM    4  C7  UNL     1     -32.048   8.583   3.361  1.00 20.00     0.109 C 
HETATM    5  C4  UNL     1     -32.062   7.127   2.895  1.00 20.00     0.028 C 
HETATM    6  C2  UNL     1     -33.328   6.378   3.310  1.00 20.00     0.007 C 
HETATM    7  C6  UNL     1     -33.590   6.494   4.817  1.00 20.00    -0.015 C 
HETATM    8  C3  UNL     1     -33.647   7.964   5.250  1.00 20.00     0.007 C 
HETATM    9  C5  UNL     1     -32.383   8.723   4.846  1.00 20.00     0.028 C 
BRANCH   7  10
HETATM   10  C9  UNL     1     -34.882   5.771   5.197  1.00 20.00     0.000 C 
HETATM   11  C8  UNL     1     -34.860   5.314   6.618  1.00 20.00     0.005 C 
ENDBRANCH   7  10
ENDBRANCH   2   4
TORSDOF 2
ENDMDL
MODEL 6
REMARK VINA RESULT:      -3.7     12.291     13.333
REMARK  2 active torsions:
REMARK  status: ('A' for Active; 'I' for Inactive)
REMARK    1  A    between atoms: C6_6  and  C9_9 
REMARK    2  A    between atoms: C7_7  and  N10_10 
ROOT
HETATM    1  C1  UNL     1     -41.150  14.182  10.430  1.00 20.00     0.158 C 
HETATM    2  N10 UNL     1     -41.699  13.556   9.605  1.00 20.00    -0.270 NA
HETATM    3  S11 UNL     1     -40.399  15.002  11.570  1.00 20.00    -0.055 SA
ENDROOT
BRANCH   2   4
HETATM    4  C7  UNL     1     -42.149  14.335   8.443  1.00 20.00     0.109 C 
HETATM    5  C4  UNL     1     -42.994  13.452   7.523  1.00 20.00     0.028 C 
HETATM    6  C2  UNL     1     -42.164  12.424   6.753  1.00 20.00     0.007 C 
HETATM    7  C6  UNL     1     -41.002  13.081   5.998  1.00 20.00    -0.015 C 
HETATM    8  C3  UNL     1     -40.125  13.900   6.952  1.00 20.00     0.007 C 
HETATM    9  C5  UNL     1     -40.942  14.937   7.724  1.00 20.00     0.028 C 
BRANCH   7  10
HETATM   10  C9  UNL     1     -40.168  12.026   5.271  1.00 20.00     0.000 C 
HETATM   11  C8  UNL     1     -38.718  12.143   5.608  1.00 20.00     0.005 C 
ENDBRANCH   7  10
ENDBRANCH   2   4
TORSDOF 2
ENDMDL
MODEL 7
REMARK VINA RESULT:      -3.6      3.176      6.500
REMARK  2 active torsions:
REMARK  status: ('A' for Active; 'I' for Inactive)
REMARK    1  A    between atoms: C6_6  and  C9_9 
REMARK    2  A    between atoms: C7_7  and  N10_10 
ROOT
HETATM    1  C1  UNL     1     -33.441  17.506  -1.247  1.00 20.00     0.158 C 
HETATM    2  N10 UNL     1     -33.665  16.629  -1.993  1.00 20.00    -0.270 NA
HETATM    3  S11 UNL     1     -33.157  18.679  -0.210  1.00 20.00    -0.055 SA
ENDROOT
BRANCH   2   4
HETATM    4  C7  UNL     1     -33.042  16.774  -3.315  1.00 20.00     0.109 C 
HETATM    5  C4  UNL     1     -33.846  17.763  -4.161  1.00 20.00     0.028 C 
HETATM    6  C2  UNL     1     -35.181  17.192  -4.642  1.00 20.00     0.007 C 
HETATM    7  C6  UNL     1     -34.999  15.848  -5.358  1.00 20.00    -0.015 C 
HETATM    8  C3  UNL     1     -34.256  14.847  -4.465  1.00 20.00     0.007 C 
HETATM    9  C5  UNL     1     -32.917  15.404  -3.982  1.00 20.00     0.028 C 
BRANCH   7  10
HETATM   10  C9  UNL     1     -36.351  15.282  -5.792  1.00 20.00     0.000 C 
HETATM   11  C8  UNL     1     -37.463  16.241  -5.517  1.00 20.00     0.005 C 
ENDBRANCH   7  10
ENDBRANCH   2   4
TORSDOF 2
ENDMDL
MODEL 8
REMARK VINA RESULT:      -3.6      4.619      6.668
REMARK  2 active torsions:
REMARK  status: ('A' for Active; 'I' for Inactive)
REMARK    1  A    between atoms: C6_6  and  C9_9 
REMARK    2  A    between atoms: C7_7  and  N10_10 
ROOT
HETATM    1  C1  UNL     1     -38.603  16.450  -5.294  1.00 20.00     0.158 C 
HETATM    2  N10 UNL     1     -37.714  15.687  -5.259  1.00 20.00    -0.270 NA
HETATM    3  S11 UNL     1     -39.828  17.468  -5.314  1.00 20.00    -0.055 SA
ENDROOT
BRANCH   2   4
HETATM    4  C7  UNL     1     -36.624  15.973  -6.203  1.00 20.00     0.109 C 
HETATM    5  C4  UNL     1     -35.648  14.797  -6.240  1.00 20.00     0.028 C 
HETATM    6  C2  UNL     1     -34.787  14.694  -4.981  1.00 20.00     0.007 C 
HETATM    7  C6  UNL     1     -34.072  16.015  -4.671  1.00 20.00    -0.015 C 
HETATM    8  C3  UNL     1     -35.076  17.169  -4.565  1.00 20.00     0.007 C 
HETATM    9  C5  UNL     1     -35.940  17.286  -5.821  1.00 20.00     0.028 C 
BRANCH   7  10
HETATM   10  C9  UNL     1     -33.251  15.895  -3.387  1.00 20.00     0.000 C 
HETATM   11  C8  UNL     1     -33.548  17.009  -2.438  1.00 20.00     0.005 C 
ENDBRANCH   7  10
ENDBRANCH   2   4
TORSDOF 2
ENDMDL
MODEL 9
REMARK VINA RESULT:      -3.5      3.284      6.281
REMARK  2 active torsions:
REMARK  status: ('A' for Active; 'I' for Inactive)
REMARK    1  A    between atoms: C6_6  and  C9_9 
REMARK    2  A    between atoms: C7_7  and  N10_10 
ROOT
HETATM    1  C1  UNL     1     -34.018  18.117  -1.210  1.00 20.00     0.158 C 
HETATM    2  N10 UNL     1     -34.466  17.902  -2.272  1.00 20.00    -0.270 NA
HETATM    3  S11 UNL     1     -33.444  18.410   0.246  1.00 20.00    -0.055 SA
ENDROOT
BRANCH   2   4
HETATM    4  C7  UNL     1     -33.465  17.726  -3.334  1.00 20.00     0.109 C 
HETATM    5  C4  UNL     1     -34.067  18.122  -4.683  1.00 20.00     0.028 C 
HETATM    6  C2  UNL     1     -35.081  17.106  -5.208  1.00 20.00     0.007 C 
HETATM    7  C6  UNL     1     -34.499  15.686  -5.240  1.00 20.00    -0.015 C 
HETATM    8  C3  UNL     1     -33.969  15.281  -3.860  1.00 20.00     0.007 C 
HETATM    9  C5  UNL     1     -32.949  16.287  -3.327  1.00 20.00     0.028 C 
BRANCH   7  10
HETATM   10  C9  UNL     1     -35.547  14.687  -5.730  1.00 20.00     0.000 C 
HETATM   11  C8  UNL     1     -35.894  13.691  -4.673  1.00 20.00     0.005 C 
ENDBRANCH   7  10
ENDBRANCH   2   4
TORSDOF 2
ENDMDL
