MODEL 1
REMARK VINA RESULT:      -4.0      0.000      0.000
REMARK  3 active torsions:
REMARK  status: ('A' for Active; 'I' for Inactive)
REMARK    1  A    between atoms: C4_4  and  N11_11 
REMARK    2  A    between atoms: C8_8  and  C9_9 
REMARK    3  A    between atoms: C8_8  and  N11_11 
ROOT
HETATM    1  C1  UNL     1     -34.732  14.227  -4.293  1.00 20.00     0.067 C 
HETATM    2  C2  UNL     1     -35.917  14.150  -5.240  1.00 20.00     0.274 C 
HETATM    3  C3  UNL     1     -34.355  15.494  -6.333  1.00 20.00     0.307 C 
HETATM    4  C4  UNL     1     -33.641  14.900  -5.116  1.00 20.00     0.250 C 
HETATM    5  C7  UNL     1     -36.379  16.519  -5.480  1.00 20.00     0.310 C 
HETATM    6  N10 UNL     1     -35.801  15.331  -6.107  1.00 20.00     0.086 N 
ENDROOT
BRANCH   4   7
HETATM    7  N11 UNL     1     -32.932  15.893  -4.354  1.00 20.00     0.090 N 
HETATM    8  H31 UNL     1     -32.959  16.782  -4.853  1.00 20.00     0.316 HD
BRANCH   7   9
HETATM    9  C8  UNL     1     -33.531  16.065  -3.037  1.00 20.00     0.274 C 
BRANCH   9  10
HETATM   10  C9  UNL     1     -33.003  17.320  -2.331  1.00 20.00     0.005 C 
HETATM   11  C5  UNL     1     -33.071  18.560  -3.224  1.00 20.00     0.011 C 
HETATM   12  C6  UNL     1     -33.716  17.575  -1.002  1.00 20.00     0.011 C 
ENDBRANCH   9  10
ENDBRANCH   7   9
ENDBRANCH   4   7
TORSDOF 3
ENDMDL
MODEL 2
REMARK VINA RESULT:      -3.9      1.507      2.149
REMARK  3 active torsions:
REMARK  status: ('A' for Active; 'I' for Inactive)
REMARK    1  A    between atoms: C4_4  and  N11_11 
REMARK    2  A    between atoms: C8_8  and  C9_9 
REMARK    3  A    between atoms: C8_8  and  N11_11 
ROOT
HETATM    1  C1  UNL     1     -33.575  15.332  -4.019  1.00 20.00     0.067 C 
HETATM    2  C2  UNL     1     -33.932  14.941  -5.442  1.00 20.00     0.274 C 
HETATM    3  C3  UNL     1     -34.467  17.206  -5.285  1.00 20.00     0.307 C 
HETATM    4  C4  UNL     1     -33.702  16.851  -4.007  1.00 20.00     0.250 C 
HETATM    5  C7  UNL     1     -36.268  15.593  -5.451  1.00 20.00     0.310 C 
HETATM    6  N10 UNL     1     -34.915  15.939  -5.886  1.00 20.00     0.086 N 
ENDROOT
BRANCH   4   7
HETATM    7  N11 UNL     1     -34.364  17.322  -2.820  1.00 20.00     0.090 N 
HETATM    8  H31 UNL     1     -35.284  16.886  -2.752  1.00 20.00     0.316 HD
BRANCH   7   9
HETATM    9  C8  UNL     1     -33.592  16.997  -1.628  1.00 20.00     0.274 C 
BRANCH   9  10
HETATM   10  C9  UNL     1     -33.232  18.253  -0.824  1.00 20.00     0.005 C 
HETATM   11  C5  UNL     1     -33.880  18.262   0.560  1.00 20.00     0.011 C 
HETATM   12  C6  UNL     1     -31.719  18.448  -0.711  1.00 20.00     0.011 C 
ENDBRANCH   9  10
ENDBRANCH   7   9
ENDBRANCH   4   7
TORSDOF 3
ENDMDL
MODEL 3
REMARK VINA RESULT:      -3.4      2.204      5.413
REMARK  3 active torsions:
REMARK  status: ('A' for Active; 'I' for Inactive)
REMARK    1  A    between atoms: C4_4  and  N11_11 
REMARK    2  A    between atoms: C8_8  and  C9_9 
REMARK    3  A    between atoms: C8_8  and  N11_11 
ROOT
HETATM    1  C1  UNL     1     -34.029  17.825   0.011  1.00 20.00     0.067 C 
HETATM    2  C2  UNL     1     -33.240  19.026   0.503  1.00 20.00     0.274 C 
HETATM    3  C3  UNL     1     -32.873  18.964  -1.800  1.00 20.00     0.307 C 
HETATM    4  C4  UNL     1     -33.974  17.942  -1.507  1.00 20.00     0.250 C 
HETATM    5  C7  UNL     1     -31.041  18.410  -0.313  1.00 20.00     0.310 C 
HETATM    6  N10 UNL     1     -32.211  19.263  -0.518  1.00 20.00     0.086 N 
ENDROOT
BRANCH   4   7
HETATM    7  N11 UNL     1     -33.724  16.670  -2.132  1.00 20.00     0.090 N 
HETATM    8  H31 UNL     1     -34.538  16.068  -2.007  1.00 20.00     0.316 HD
BRANCH   7   9
HETATM    9  C8  UNL     1     -33.460  16.830  -3.556  1.00 20.00     0.274 C 
BRANCH   9  10
HETATM   10  C9  UNL     1     -34.102  15.708  -4.382  1.00 20.00     0.005 C 
HETATM   11  C5  UNL     1     -34.411  16.146  -5.814  1.00 20.00     0.011 C 
HETATM   12  C6  UNL     1     -33.251  14.436  -4.380  1.00 20.00     0.011 C 
ENDBRANCH   9  10
ENDBRANCH   7   9
ENDBRANCH   4   7
TORSDOF 3
ENDMDL
MODEL 4
REMARK VINA RESULT:      -3.4     11.778     13.482
REMARK  3 active torsions:
REMARK  status: ('A' for Active; 'I' for Inactive)
REMARK    1  A    between atoms: C4_4  and  N11_11 
REMARK    2  A    between atoms: C8_8  and  C9_9 
REMARK    3  A    between atoms: C8_8  and  N11_11 
ROOT
HETATM    1  C1  UNL     1     -40.282  14.484   8.851  1.00 20.00     0.067 C 
HETATM    2  C2  UNL     1     -41.136  15.621   9.383  1.00 20.00     0.274 C 
HETATM    3  C3  UNL     1     -41.937  15.221   7.229  1.00 20.00     0.307 C 
HETATM    4  C4  UNL     1     -40.969  14.080   7.552  1.00 20.00     0.250 C 
HETATM    5  C7  UNL     1     -40.712  17.270   7.655  1.00 20.00     0.310 C 
HETATM    6  N10 UNL     1     -41.667  16.301   8.194  1.00 20.00     0.086 N 
ENDROOT
BRANCH   4   7
HETATM    7  N11 UNL     1     -40.020  13.847   6.496  1.00 20.00     0.090 N 
HETATM    8  H31 UNL     1     -39.125  13.576   6.902  1.00 20.00     0.316 HD
BRANCH   7   9
HETATM    9  C8  UNL     1     -40.481  12.790   5.604  1.00 20.00     0.274 C 
BRANCH   9  10
HETATM   10  C9  UNL     1     -39.358  11.801   5.267  1.00 20.00     0.005 C 
HETATM   11  C5  UNL     1     -39.116  11.687   3.762  1.00 20.00     0.011 C 
HETATM   12  C6  UNL     1     -38.057  12.139   5.997  1.00 20.00     0.011 C 
ENDBRANCH   9  10
ENDBRANCH   7   9
ENDBRANCH   4   7
TORSDOF 3
ENDMDL
MODEL 5
REMARK VINA RESULT:      -3.4      1.538      2.804
REMARK  3 active torsions:
REMARK  status: ('A' for Active; 'I' for Inactive)
REMARK    1  A    between atoms: C4_4  and  N11_11 
REMARK    2  A    between atoms: C8_8  and  C9_9 
REMARK    3  A    between atoms: C8_8  and  N11_11 
ROOT
HETATM    1  C1  UNL     1     -34.924  17.743  -6.162  1.00 20.00     0.067 C 
HETATM    2  C2  UNL     1     -35.474  16.881  -7.284  1.00 20.00     0.274 C 
HETATM    3  C3  UNL     1     -37.027  16.685  -5.554  1.00 20.00     0.307 C 
HETATM    4  C4  UNL     1     -36.057  17.796  -5.144  1.00 20.00     0.250 C 
HETATM    5  C7  UNL     1     -35.647  14.769  -6.103  1.00 20.00     0.310 C 
HETATM    6  N10 UNL     1     -36.376  15.922  -6.633  1.00 20.00     0.086 N 
ENDROOT
BRANCH   4   7
HETATM    7  N11 UNL     1     -35.573  17.636  -3.799  1.00 20.00     0.090 N 
HETATM    8  H31 UNL     1     -35.554  16.643  -3.564  1.00 20.00     0.316 HD
BRANCH   7   9
HETATM    9  C8  UNL     1     -34.232  18.188  -3.656  1.00 20.00     0.274 C 
BRANCH   9  10
HETATM   10  C9  UNL     1     -33.317  17.257  -2.851  1.00 20.00     0.005 C 
HETATM   11  C5  UNL     1     -33.637  17.279  -1.356  1.00 20.00     0.011 C 
HETATM   12  C6  UNL     1     -33.341  15.825  -3.386  1.00 20.00     0.011 C 
ENDBRANCH   9  10
ENDBRANCH   7   9
ENDBRANCH   4   7
TORSDOF 3
ENDMDL
MODEL 6
REMARK VINA RESULT:      -3.4      1.542      4.684
REMARK  3 active torsions:
REMARK  status: ('A' for Active; 'I' for Inactive)
REMARK    1  A    between atoms: C4_4  and  N11_11 
REMARK    2  A    between atoms: C8_8  and  C9_9 
REMARK    3  A    between atoms: C8_8  and  N11_11 
ROOT
HETATM    1  C1  UNL     1     -33.319  18.124  -4.042  1.00 20.00     0.067 C 
HETATM    2  C2  UNL     1     -32.940  19.097  -2.939  1.00 20.00     0.274 C 
HETATM    3  C3  UNL     1     -33.354  17.077  -1.848  1.00 20.00     0.307 C 
HETATM    4  C4  UNL     1     -33.350  16.768  -3.348  1.00 20.00     0.250 C 
HETATM    5  C7  UNL     1     -34.920  18.903  -1.551  1.00 20.00     0.310 C 
HETATM    6  N10 UNL     1     -33.513  18.534  -1.709  1.00 20.00     0.086 N 
ENDROOT
BRANCH   4   7
HETATM    7  N11 UNL     1     -34.489  15.987  -3.753  1.00 20.00     0.090 N 
HETATM    8  H31 UNL     1     -35.137  16.581  -4.270  1.00 20.00     0.316 HD
BRANCH   7   9
HETATM    9  C8  UNL     1     -34.083  14.871  -4.597  1.00 20.00     0.274 C 
BRANCH   9  10
HETATM   10  C9  UNL     1     -34.879  14.831  -5.907  1.00 20.00     0.005 C 
HETATM   11  C5  UNL     1     -36.275  15.435  -5.758  1.00 20.00     0.011 C 
HETATM   12  C6  UNL     1     -34.124  15.499  -7.058  1.00 20.00     0.011 C 
ENDBRANCH   9  10
ENDBRANCH   7   9
ENDBRANCH   4   7
TORSDOF 3
ENDMDL
MODEL 7
REMARK VINA RESULT:      -3.4     12.002     13.432
REMARK  3 active torsions:
REMARK  status: ('A' for Active; 'I' for Inactive)
REMARK    1  A    between atoms: C4_4  and  N11_11 
REMARK    2  A    between atoms: C8_8  and  C9_9 
REMARK    3  A    between atoms: C8_8  and  N11_11 
ROOT
HETATM    1  C1  UNL     1     -42.001  14.666   5.992  1.00 20.00     0.067 C 
HETATM    2  C2  UNL     1     -43.225  14.914   6.856  1.00 20.00     0.274 C 
HETATM    3  C3  UNL     1     -41.482  14.558   8.365  1.00 20.00     0.307 C 
HETATM    4  C4  UNL     1     -40.841  14.675   6.980  1.00 20.00     0.250 C 
HETATM    5  C7  UNL     1     -43.206  12.866   8.157  1.00 20.00     0.310 C 
HETATM    6  N10 UNL     1     -42.917  14.301   8.155  1.00 20.00     0.086 N 
ENDROOT
BRANCH   4   7
HETATM    7  N11 UNL     1     -39.905  13.616   6.714  1.00 20.00     0.090 N 
HETATM    8  H31 UNL     1     -39.829  13.019   7.538  1.00 20.00     0.316 HD
BRANCH   7   9
HETATM    9  C8  UNL     1     -40.336  12.811   5.579  1.00 20.00     0.274 C 
BRANCH   9  10
HETATM   10  C9  UNL     1     -39.265  11.794   5.163  1.00 20.00     0.005 C 
HETATM   11  C5  UNL     1     -39.088  11.725   3.646  1.00 20.00     0.011 C 
HETATM   12  C6  UNL     1     -37.925  12.060   5.850  1.00 20.00     0.011 C 
ENDBRANCH   9  10
ENDBRANCH   7   9
ENDBRANCH   4   7
TORSDOF 3
ENDMDL
MODEL 8
REMARK VINA RESULT:      -3.3     12.320     13.807
REMARK  3 active torsions:
REMARK  status: ('A' for Active; 'I' for Inactive)
REMARK    1  A    between atoms: C4_4  and  N11_11 
REMARK    2  A    between atoms: C8_8  and  C9_9 
REMARK    3  A    between atoms: C8_8  and  N11_11 
ROOT
HETATM    1  C1  UNL     1     -42.890  12.974   8.312  1.00 20.00     0.067 C 
HETATM    2  C2  UNL     1     -42.818  14.345   8.961  1.00 20.00     0.274 C 
HETATM    3  C3  UNL     1     -41.757  14.596   6.898  1.00 20.00     0.307 C 
HETATM    4  C4  UNL     1     -42.414  13.213   6.884  1.00 20.00     0.250 C 
HETATM    5  C7  UNL     1     -40.415  14.673   8.915  1.00 20.00     0.310 C 
HETATM    6  N10 UNL     1     -41.696  15.029   8.304  1.00 20.00     0.086 N 
ENDROOT
BRANCH   4   7
HETATM    7  N11 UNL     1     -41.515  12.181   6.441  1.00 20.00     0.090 N 
HETATM    8  H31 UNL     1     -42.055  11.399   6.073  1.00 20.00     0.316 HD
BRANCH   7   9
HETATM    9  C8  UNL     1     -40.622  12.677   5.402  1.00 20.00     0.274 C 
BRANCH   9  10
HETATM   10  C9  UNL     1     -39.423  11.744   5.189  1.00 20.00     0.005 C 
HETATM   11  C5  UNL     1     -39.024  11.637   3.718  1.00 20.00     0.011 C 
HETATM   12  C6  UNL     1     -38.222  12.150   6.045  1.00 20.00     0.011 C 
ENDBRANCH   9  10
ENDBRANCH   7   9
ENDBRANCH   4   7
TORSDOF 3
ENDMDL
MODEL 9
REMARK VINA RESULT:      -3.3      1.782      4.508
REMARK  3 active torsions:
REMARK  status: ('A' for Active; 'I' for Inactive)
REMARK    1  A    between atoms: C4_4  and  N11_11 
REMARK    2  A    between atoms: C8_8  and  C9_9 
REMARK    3  A    between atoms: C8_8  and  N11_11 
ROOT
HETATM    1  C1  UNL     1     -35.383  18.431  -3.624  1.00 20.00     0.067 C 
HETATM    2  C2  UNL     1     -35.115  18.952  -2.223  1.00 20.00     0.274 C 
HETATM    3  C3  UNL     1     -33.012  18.793  -3.221  1.00 20.00     0.307 C 
HETATM    4  C4  UNL     1     -34.040  18.562  -4.332  1.00 20.00     0.250 C 
HETATM    5  C7  UNL     1     -33.584  17.234  -1.454  1.00 20.00     0.310 C 
HETATM    6  N10 UNL     1     -33.715  18.608  -1.940  1.00 20.00     0.086 N 
ENDROOT
BRANCH   4   7
HETATM    7  N11 UNL     1     -33.740  17.401  -5.127  1.00 20.00     0.090 N 
HETATM    8  H31 UNL     1     -33.066  16.818  -4.630  1.00 20.00     0.316 HD
BRANCH   7   9
HETATM    9  C8  UNL     1     -34.943  16.622  -5.389  1.00 20.00     0.274 C 
BRANCH   9  10
HETATM   10  C9  UNL     1     -34.666  15.115  -5.350  1.00 20.00     0.005 C 
HETATM   11  C5  UNL     1     -33.751  14.722  -4.190  1.00 20.00     0.011 C 
HETATM   12  C6  UNL     1     -35.957  14.294  -5.318  1.00 20.00     0.011 C 
ENDBRANCH   9  10
ENDBRANCH   7   9
ENDBRANCH   4   7
TORSDOF 3
ENDMDL
