MODEL 1
REMARK VINA RESULT:      -4.6      0.000      0.000
REMARK  2 active torsions:
REMARK  status: ('A' for Active; 'I' for Inactive)
REMARK    1  A    between atoms: C6_6  and  C7_7 
REMARK    2  A    between atoms: C7_7  and  N8_8 
ROOT
HETATM    1  C1  UNL     1     -32.346   8.191   1.591  1.00 20.00     0.157 C 
HETATM    2  N8  UNL     1     -32.161   7.504   2.527  1.00 20.00    -0.273 NA
HETATM    3  S10 UNL     1     -32.590   9.103   0.308  1.00 20.00    -0.055 SA
ENDROOT
BRANCH   2   4
HETATM    4  C7  UNL     1     -32.428   8.133   3.819  1.00 20.00     0.182 C 
BRANCH   4   5
HETATM    5  C6  UNL     1     -33.583   7.403   4.489  1.00 20.00     0.141 C 
HETATM    6  C4  UNL     1     -33.421   7.397   6.011  1.00 20.00     0.034 C 
HETATM    7  C2  UNL     1     -34.521   6.567   6.665  1.00 20.00     0.005 C 
HETATM    8  C3  UNL     1     -34.609   5.189   6.021  1.00 20.00     0.026 C 
HETATM    9  C5  UNL     1     -34.700   5.308   4.505  1.00 20.00     0.168 C 
HETATM   10  O9  UNL     1     -33.604   6.062   3.989  1.00 20.00    -0.384 OA
ENDBRANCH   4   5
ENDBRANCH   2   4
TORSDOF 2
ENDMDL
MODEL 2
REMARK VINA RESULT:      -3.7     12.226     12.660
REMARK  2 active torsions:
REMARK  status: ('A' for Active; 'I' for Inactive)
REMARK    1  A    between atoms: C6_6  and  C7_7 
REMARK    2  A    between atoms: C7_7  and  N8_8 
ROOT
HETATM    1  C1  UNL     1     -29.615  18.623   3.036  1.00 20.00     0.157 C 
HETATM    2  N8  UNL     1     -30.512  18.525   2.282  1.00 20.00    -0.273 NA
HETATM    3  S10 UNL     1     -28.411  18.739   4.072  1.00 20.00    -0.055 SA
ENDROOT
BRANCH   2   4
HETATM    4  C7  UNL     1     -30.351  19.262   1.030  1.00 20.00     0.182 C 
BRANCH   4   5
HETATM    5  C6  UNL     1     -31.658  19.195   0.253  1.00 20.00     0.141 C 
HETATM    6  C4  UNL     1     -32.725  18.425   1.035  1.00 20.00     0.034 C 
HETATM    7  C2  UNL     1     -33.992  18.266   0.200  1.00 20.00     0.005 C 
HETATM    8  C3  UNL     1     -33.662  17.694  -1.173  1.00 20.00     0.026 C 
HETATM    9  C5  UNL     1     -32.546  18.492  -1.835  1.00 20.00     0.168 C 
HETATM   10  O9  UNL     1     -31.393  18.544  -0.994  1.00 20.00    -0.384 OA
ENDBRANCH   4   5
ENDBRANCH   2   4
TORSDOF 2
ENDMDL
MODEL 3
REMARK VINA RESULT:      -3.7     11.747     12.200
REMARK  2 active torsions:
REMARK  status: ('A' for Active; 'I' for Inactive)
REMARK    1  A    between atoms: C6_6  and  C7_7 
REMARK    2  A    between atoms: C7_7  and  N8_8 
ROOT
HETATM    1  C1  UNL     1     -33.454  15.873  -3.479  1.00 20.00     0.157 C 
HETATM    2  N8  UNL     1     -33.040  16.675  -2.726  1.00 20.00    -0.273 NA
HETATM    3  S10 UNL     1     -33.993  14.775  -4.499  1.00 20.00    -0.055 SA
ENDROOT
BRANCH   2   4
HETATM    4  C7  UNL     1     -34.015  17.665  -2.277  1.00 20.00     0.182 C 
BRANCH   4   5
HETATM    5  C6  UNL     1     -33.395  18.494  -1.162  1.00 20.00     0.141 C 
HETATM    6  C4  UNL     1     -31.879  18.286  -1.100  1.00 20.00     0.034 C 
HETATM    7  C2  UNL     1     -31.283  19.030   0.090  1.00 20.00     0.005 C 
HETATM    8  C3  UNL     1     -32.033  18.683   1.371  1.00 20.00     0.026 C 
HETATM    9  C5  UNL     1     -33.534  18.861   1.180  1.00 20.00     0.168 C 
HETATM   10  O9  UNL     1     -33.999  18.091   0.072  1.00 20.00    -0.384 OA
ENDBRANCH   4   5
ENDBRANCH   2   4
TORSDOF 2
ENDMDL
MODEL 4
REMARK VINA RESULT:      -3.6     12.186     12.923
REMARK  2 active torsions:
REMARK  status: ('A' for Active; 'I' for Inactive)
REMARK    1  A    between atoms: C6_6  and  C7_7 
REMARK    2  A    between atoms: C7_7  and  N8_8 
ROOT
HETATM    1  C1  UNL     1     -32.416  18.153  -0.903  1.00 20.00     0.157 C 
HETATM    2  N8  UNL     1     -33.235  17.613  -1.552  1.00 20.00    -0.273 NA
HETATM    3  S10 UNL     1     -31.314  18.871  -0.005  1.00 20.00    -0.055 SA
ENDROOT
BRANCH   2   4
HETATM    4  C7  UNL     1     -33.277  18.016  -2.956  1.00 20.00     0.182 C 
BRANCH   4   5
HETATM    5  C6  UNL     1     -33.997  16.937  -3.753  1.00 20.00     0.141 C 
HETATM    6  C4  UNL     1     -33.215  15.621  -3.729  1.00 20.00     0.034 C 
HETATM    7  C2  UNL     1     -33.885  14.582  -4.622  1.00 20.00     0.005 C 
HETATM    8  C3  UNL     1     -34.141  15.154  -6.011  1.00 20.00     0.026 C 
HETATM    9  C5  UNL     1     -34.863  16.492  -5.918  1.00 20.00     0.168 C 
HETATM   10  O9  UNL     1     -34.134  17.405  -5.098  1.00 20.00    -0.384 OA
ENDBRANCH   4   5
ENDBRANCH   2   4
TORSDOF 2
ENDMDL
MODEL 5
REMARK VINA RESULT:      -3.5     12.077     12.993
REMARK  2 active torsions:
REMARK  status: ('A' for Active; 'I' for Inactive)
REMARK    1  A    between atoms: C6_6  and  C7_7 
REMARK    2  A    between atoms: C7_7  and  N8_8 
ROOT
HETATM    1  C1  UNL     1     -30.652  18.802   1.018  1.00 20.00     0.157 C 
HETATM    2  N8  UNL     1     -30.944  18.871  -0.119  1.00 20.00    -0.273 NA
HETATM    3  S10 UNL     1     -30.233  18.713   2.552  1.00 20.00    -0.055 SA
ENDROOT
BRANCH   2   4
HETATM    4  C7  UNL     1     -32.360  18.658  -0.408  1.00 20.00     0.182 C 
BRANCH   4   5
HETATM    5  C6  UNL     1     -32.491  18.086  -1.813  1.00 20.00     0.141 C 
HETATM    6  C4  UNL     1     -33.110  19.110  -2.768  1.00 20.00     0.034 C 
HETATM    7  C2  UNL     1     -33.342  18.491  -4.143  1.00 20.00     0.005 C 
HETATM    8  C3  UNL     1     -34.109  17.180  -4.018  1.00 20.00     0.026 C 
HETATM    9  C5  UNL     1     -33.448  16.264  -2.997  1.00 20.00     0.168 C 
HETATM   10  O9  UNL     1     -33.317  16.920  -1.736  1.00 20.00    -0.384 OA
ENDBRANCH   4   5
ENDBRANCH   2   4
TORSDOF 2
ENDMDL
MODEL 6
REMARK VINA RESULT:      -3.5     15.815     16.405
REMARK  2 active torsions:
REMARK  status: ('A' for Active; 'I' for Inactive)
REMARK    1  A    between atoms: C6_6  and  C7_7 
REMARK    2  A    between atoms: C7_7  and  N8_8 
ROOT
HETATM    1  C1  UNL     1     -27.086  18.800  12.303  1.00 20.00     0.157 C 
HETATM    2  N8  UNL     1     -25.928  19.004  12.292  1.00 20.00    -0.273 NA
HETATM    3  S10 UNL     1     -28.658  18.546  12.326  1.00 20.00    -0.055 SA
ENDROOT
BRANCH   2   4
HETATM    4  C7  UNL     1     -25.110  17.902  11.793  1.00 20.00     0.182 C 
BRANCH   4   5
HETATM    5  C6  UNL     1     -24.079  18.458  10.823  1.00 20.00     0.141 C 
HETATM    6  C4  UNL     1     -24.722  18.814   9.480  1.00 20.00     0.034 C 
HETATM    7  C2  UNL     1     -23.663  19.263   8.478  1.00 20.00     0.005 C 
HETATM    8  C3  UNL     1     -22.532  18.244   8.400  1.00 20.00     0.026 C 
HETATM    9  C5  UNL     1     -22.010  17.912   9.792  1.00 20.00     0.168 C 
HETATM   10  O9  UNL     1     -23.069  17.461  10.637  1.00 20.00    -0.384 OA
ENDBRANCH   4   5
ENDBRANCH   2   4
TORSDOF 2
ENDMDL
MODEL 7
REMARK VINA RESULT:      -3.4     10.319     10.930
REMARK  2 active torsions:
REMARK  status: ('A' for Active; 'I' for Inactive)
REMARK    1  A    between atoms: C6_6  and  C7_7 
REMARK    2  A    between atoms: C7_7  and  N8_8 
ROOT
HETATM    1  C1  UNL     1     -40.128  11.998   5.591  1.00 20.00     0.157 C 
HETATM    2  N8  UNL     1     -40.855  12.195   6.494  1.00 20.00    -0.273 NA
HETATM    3  S10 UNL     1     -39.135  11.712   4.380  1.00 20.00    -0.055 SA
ENDROOT
BRANCH   2   4
HETATM    4  C7  UNL     1     -41.790  13.302   6.307  1.00 20.00     0.182 C 
BRANCH   4   5
HETATM    5  C6  UNL     1     -41.723  14.210   7.526  1.00 20.00     0.141 C 
HETATM    6  C4  UNL     1     -40.524  15.159   7.440  1.00 20.00     0.034 C 
HETATM    7  C2  UNL     1     -40.399  15.984   8.717  1.00 20.00     0.005 C 
HETATM    8  C3  UNL     1     -40.420  15.081   9.944  1.00 20.00     0.026 C 
HETATM    9  C5  UNL     1     -41.613  14.136   9.897  1.00 20.00     0.168 C 
HETATM   10  O9  UNL     1     -41.613  13.379   8.686  1.00 20.00    -0.384 OA
ENDBRANCH   4   5
ENDBRANCH   2   4
TORSDOF 2
ENDMDL
MODEL 8
REMARK VINA RESULT:      -3.4     14.815     15.772
REMARK  2 active torsions:
REMARK  status: ('A' for Active; 'I' for Inactive)
REMARK    1  A    between atoms: C6_6  and  C7_7 
REMARK    2  A    between atoms: C7_7  and  N8_8 
ROOT
HETATM    1  C1  UNL     1     -26.432  19.165   6.835  1.00 20.00     0.157 C 
HETATM    2  N8  UNL     1     -25.924  19.261   7.891  1.00 20.00    -0.273 NA
HETATM    3  S10 UNL     1     -27.143  19.037   5.416  1.00 20.00    -0.055 SA
ENDROOT
BRANCH   2   4
HETATM    4  C7  UNL     1     -24.463  19.263   7.876  1.00 20.00     0.182 C 
BRANCH   4   5
HETATM    5  C6  UNL     1     -23.959  19.244   9.312  1.00 20.00     0.141 C 
HETATM    6  C4  UNL     1     -22.555  18.639   9.396  1.00 20.00     0.034 C 
HETATM    7  C2  UNL     1     -22.107  18.520  10.849  1.00 20.00     0.005 C 
HETATM    8  C3  UNL     1     -23.166  17.808  11.681  1.00 20.00     0.026 C 
HETATM    9  C5  UNL     1     -24.534  18.446  11.474  1.00 20.00     0.168 C 
HETATM   10  O9  UNL     1     -24.878  18.469  10.089  1.00 20.00    -0.384 OA
ENDBRANCH   4   5
ENDBRANCH   2   4
TORSDOF 2
ENDMDL
MODEL 9
REMARK VINA RESULT:      -3.4     10.221     11.083
REMARK  2 active torsions:
REMARK  status: ('A' for Active; 'I' for Inactive)
REMARK    1  A    between atoms: C6_6  and  C7_7 
REMARK    2  A    between atoms: C7_7  and  N8_8 
ROOT
HETATM    1  C1  UNL     1     -43.108   2.978  -2.795  1.00 20.00     0.157 C 
HETATM    2  N8  UNL     1     -43.021   4.095  -2.438  1.00 20.00    -0.273 NA
HETATM    3  S10 UNL     1     -43.217   1.472  -3.300  1.00 20.00    -0.055 SA
ENDROOT
BRANCH   2   4
HETATM    4  C7  UNL     1     -43.366   4.326  -1.037  1.00 20.00     0.182 C 
BRANCH   4   5
HETATM    5  C6  UNL     1     -42.840   5.693  -0.623  1.00 20.00     0.141 C 
HETATM    6  C4  UNL     1     -41.318   5.766  -0.769  1.00 20.00     0.034 C 
HETATM    7  C2  UNL     1     -40.790   7.098  -0.245  1.00 20.00     0.005 C 
HETATM    8  C3  UNL     1     -41.316   7.368   1.159  1.00 20.00     0.026 C 
HETATM    9  C5  UNL     1     -42.830   7.205   1.208  1.00 20.00     0.168 C 
HETATM   10  O9  UNL     1     -43.217   5.913   0.740  1.00 20.00    -0.384 OA
ENDBRANCH   4   5
ENDBRANCH   2   4
TORSDOF 2
ENDMDL
