MODEL 1
REMARK VINA RESULT:      -4.0      0.000      0.000
REMARK  1 active torsions:
REMARK  status: ('A' for Active; 'I' for Inactive)
REMARK    1  A    between atoms: C3_3  and  O8_8 
ROOT
HETATM    1  C1  UNL     1     -33.967   7.411   5.791  1.00 20.00     0.040 C 
HETATM    2  C2  UNL     1     -33.370   8.266   4.688  1.00 20.00     0.172 C 
HETATM    3  C3  UNL     1     -33.116   6.023   4.105  1.00 20.00     0.264 C 
HETATM    4  C4  UNL     1     -34.309   6.116   5.067  1.00 20.00     0.004 C 
HETATM    5  C5  UNL     1     -35.653   6.243   4.326  1.00 20.00     0.020 C 
HETATM    6  C6  UNL     1     -34.375   4.919   6.016  1.00 20.00     0.020 C 
HETATM    7  O7  UNL     1     -32.812   7.371   3.715  1.00 20.00    -0.361 OA
ENDROOT
BRANCH   3   8
HETATM    8  O8  UNL     1     -33.403   5.195   2.989  1.00 20.00    -0.371 OA
HETATM    9  H20 UNL     1     -33.376   5.767   2.206  1.00 20.00     0.212 HD
ENDBRANCH   3   8
TORSDOF 1
ENDMDL
MODEL 2
REMARK VINA RESULT:      -3.8     15.854     16.806
REMARK  1 active torsions:
REMARK  status: ('A' for Active; 'I' for Inactive)
REMARK    1  A    between atoms: C3_3  and  O8_8 
ROOT
HETATM    1  C1  UNL     1     -23.795  19.251   9.819  1.00 20.00     0.040 C 
HETATM    2  C2  UNL     1     -23.919  19.001   8.328  1.00 20.00     0.172 C 
HETATM    3  C3  UNL     1     -22.013  17.905   9.105  1.00 20.00     0.264 C 
HETATM    4  C4  UNL     1     -22.971  18.061  10.294  1.00 20.00     0.004 C 
HETATM    5  C5  UNL     1     -23.866  16.824  10.494  1.00 20.00     0.020 C 
HETATM    6  C6  UNL     1     -22.226  18.352  11.597  1.00 20.00     0.020 C 
HETATM    7  O7  UNL     1     -22.777  18.227   7.932  1.00 20.00    -0.361 OA
ENDROOT
BRANCH   3   8
HETATM    8  O8  UNL     1     -21.460  16.601   9.042  1.00 20.00    -0.371 OA
HETATM    9  H20 UNL     1     -20.577  16.655   9.440  1.00 20.00     0.212 HD
ENDBRANCH   3   8
TORSDOF 1
ENDMDL
MODEL 3
REMARK VINA RESULT:      -3.7     12.067     13.122
REMARK  1 active torsions:
REMARK  status: ('A' for Active; 'I' for Inactive)
REMARK    1  A    between atoms: C3_3  and  O8_8 
ROOT
HETATM    1  C1  UNL     1     -35.048  16.662  -4.791  1.00 20.00     0.040 C 
HETATM    2  C2  UNL     1     -33.736  17.092  -4.161  1.00 20.00     0.172 C 
HETATM    3  C3  UNL     1     -33.832  14.761  -4.154  1.00 20.00     0.264 C 
HETATM    4  C4  UNL     1     -34.740  15.256  -5.289  1.00 20.00     0.004 C 
HETATM    5  C5  UNL     1     -34.012  15.306  -6.646  1.00 20.00     0.020 C 
HETATM    6  C6  UNL     1     -35.999  14.400  -5.431  1.00 20.00     0.020 C 
HETATM    7  O7  UNL     1     -33.060  15.899  -3.736  1.00 20.00    -0.361 OA
ENDROOT
BRANCH   3   8
HETATM    8  O8  UNL     1     -33.012  13.681  -4.569  1.00 20.00    -0.371 OA
HETATM    9  H20 UNL     1     -33.300  13.443  -5.464  1.00 20.00     0.212 HD
ENDBRANCH   3   8
TORSDOF 1
ENDMDL
MODEL 4
REMARK VINA RESULT:      -3.7      1.575      2.600
REMARK  1 active torsions:
REMARK  status: ('A' for Active; 'I' for Inactive)
REMARK    1  A    between atoms: C3_3  and  O8_8 
ROOT
HETATM    1  C1  UNL     1     -34.265   4.773   5.430  1.00 20.00     0.040 C 
HETATM    2  C2  UNL     1     -34.542   5.553   6.702  1.00 20.00     0.172 C 
HETATM    3  C3  UNL     1     -33.561   6.992   5.151  1.00 20.00     0.264 C 
HETATM    4  C4  UNL     1     -34.240   5.861   4.365  1.00 20.00     0.004 C 
HETATM    5  C5  UNL     1     -35.670   6.227   3.925  1.00 20.00     0.020 C 
HETATM    6  C6  UNL     1     -33.431   5.452   3.134  1.00 20.00     0.020 C 
HETATM    7  O7  UNL     1     -34.039   6.882   6.501  1.00 20.00    -0.361 OA
ENDROOT
BRANCH   3   8
HETATM    8  O8  UNL     1     -33.836   8.263   4.587  1.00 20.00    -0.371 OA
HETATM    9  H20 UNL     1     -34.499   8.122   3.894  1.00 20.00     0.212 HD
ENDBRANCH   3   8
TORSDOF 1
ENDMDL
MODEL 5
REMARK VINA RESULT:      -3.6      8.492      9.194
REMARK  1 active torsions:
REMARK  status: ('A' for Active; 'I' for Inactive)
REMARK    1  A    between atoms: C3_3  and  O8_8 
ROOT
HETATM    1  C1  UNL     1     -42.739   7.264   0.709  1.00 20.00     0.040 C 
HETATM    2  C2  UNL     1     -42.021   8.137  -0.303  1.00 20.00     0.172 C 
HETATM    3  C3  UNL     1     -40.805   6.165  -0.033  1.00 20.00     0.264 C 
HETATM    4  C4  UNL     1     -42.262   5.863   0.347  1.00 20.00     0.004 C 
HETATM    5  C5  UNL     1     -43.074   5.300  -0.835  1.00 20.00     0.020 C 
HETATM    6  C6  UNL     1     -42.359   4.892   1.524  1.00 20.00     0.020 C 
HETATM    7  O7  UNL     1     -40.819   7.448  -0.678  1.00 20.00    -0.361 OA
ENDROOT
BRANCH   3   8
HETATM    8  O8  UNL     1     -40.258   5.154  -0.864  1.00 20.00    -0.371 OA
HETATM    9  H20 UNL     1     -40.438   4.308  -0.425  1.00 20.00     0.212 HD
ENDBRANCH   3   8
TORSDOF 1
ENDMDL
MODEL 6
REMARK VINA RESULT:      -3.6      8.113      9.541
REMARK  1 active torsions:
REMARK  status: ('A' for Active; 'I' for Inactive)
REMARK    1  A    between atoms: C3_3  and  O8_8 
ROOT
HETATM    1  C1  UNL     1     -43.223   7.103   1.441  1.00 20.00     0.040 C 
HETATM    2  C2  UNL     1     -43.151   5.690   1.988  1.00 20.00     0.172 C 
HETATM    3  C3  UNL     1     -42.142   5.722  -0.114  1.00 20.00     0.264 C 
HETATM    4  C4  UNL     1     -42.062   7.145   0.457  1.00 20.00     0.004 C 
HETATM    5  C5  UNL     1     -40.734   7.411   1.191  1.00 20.00     0.020 C 
HETATM    6  C6  UNL     1     -42.254   8.209  -0.625  1.00 20.00     0.020 C 
HETATM    7  O7  UNL     1     -42.537   4.876   0.977  1.00 20.00    -0.361 OA
ENDROOT
BRANCH   3   8
HETATM    8  O8  UNL     1     -40.910   5.315  -0.687  1.00 20.00    -0.371 OA
HETATM    9  H20 UNL     1     -40.894   5.668  -1.590  1.00 20.00     0.212 HD
ENDBRANCH   3   8
TORSDOF 1
ENDMDL
MODEL 7
REMARK VINA RESULT:      -3.5      1.818      2.313
REMARK  1 active torsions:
REMARK  status: ('A' for Active; 'I' for Inactive)
REMARK    1  A    between atoms: C3_3  and  O8_8 
ROOT
HETATM    1  C1  UNL     1     -34.024   7.774   4.293  1.00 20.00     0.040 C 
HETATM    2  C2  UNL     1     -32.893   7.963   5.288  1.00 20.00     0.172 C 
HETATM    3  C3  UNL     1     -34.333   6.321   6.107  1.00 20.00     0.264 C 
HETATM    4  C4  UNL     1     -34.494   6.354   4.580  1.00 20.00     0.004 C 
HETATM    5  C5  UNL     1     -33.591   5.327   3.871  1.00 20.00     0.020 C 
HETATM    6  C6  UNL     1     -35.943   6.123   4.151  1.00 20.00     0.020 C 
HETATM    7  O7  UNL     1     -33.161   7.098   6.402  1.00 20.00    -0.361 OA
ENDROOT
BRANCH   3   8
HETATM    8  O8  UNL     1     -34.232   4.994   6.596  1.00 20.00    -0.371 OA
HETATM    9  H20 UNL     1     -34.635   4.420   5.926  1.00 20.00     0.212 HD
ENDBRANCH   3   8
TORSDOF 1
ENDMDL
MODEL 8
REMARK VINA RESULT:      -3.4     12.786     13.860
REMARK  1 active torsions:
REMARK  status: ('A' for Active; 'I' for Inactive)
REMARK    1  A    between atoms: C3_3  and  O8_8 
ROOT
HETATM    1  C1  UNL     1     -34.031  15.317  -6.712  1.00 20.00     0.040 C 
HETATM    2  C2  UNL     1     -35.177  15.420  -7.702  1.00 20.00     0.172 C 
HETATM    3  C3  UNL     1     -35.971  14.416  -5.752  1.00 20.00     0.264 C 
HETATM    4  C4  UNL     1     -34.747  15.262  -5.369  1.00 20.00     0.004 C 
HETATM    5  C5  UNL     1     -35.134  16.676  -4.898  1.00 20.00     0.020 C 
HETATM    6  C6  UNL     1     -33.902  14.590  -4.286  1.00 20.00     0.020 C 
HETATM    7  O7  UNL     1     -36.319  14.803  -7.091  1.00 20.00    -0.361 OA
ENDROOT
BRANCH   3   8
HETATM    8  O8  UNL     1     -37.044  14.603  -4.844  1.00 20.00    -0.371 OA
HETATM    9  H20 UNL     1     -37.851  14.665  -5.379  1.00 20.00     0.212 HD
ENDBRANCH   3   8
TORSDOF 1
ENDMDL
MODEL 9
REMARK VINA RESULT:      -3.4     10.005     10.741
REMARK  1 active torsions:
REMARK  status: ('A' for Active; 'I' for Inactive)
REMARK    1  A    between atoms: C3_3  and  O8_8 
ROOT
HETATM    1  C1  UNL     1     -40.509  14.729   7.058  1.00 20.00     0.040 C 
HETATM    2  C2  UNL     1     -40.559  14.299   8.513  1.00 20.00     0.172 C 
HETATM    3  C3  UNL     1     -42.173  13.100   7.331  1.00 20.00     0.264 C 
HETATM    4  C4  UNL     1     -41.089  13.525   6.329  1.00 20.00     0.004 C 
HETATM    5  C5  UNL     1     -40.015  12.439   6.129  1.00 20.00     0.020 C 
HETATM    6  C6  UNL     1     -41.680  13.897   4.968  1.00 20.00     0.020 C 
HETATM    7  O7  UNL     1     -41.629  13.350   8.636  1.00 20.00    -0.361 OA
ENDROOT
BRANCH   3   8
HETATM    8  O8  UNL     1     -42.546  11.743   7.158  1.00 20.00    -0.371 OA
HETATM    9  H20 UNL     1     -41.787  11.296   6.752  1.00 20.00     0.212 HD
ENDBRANCH   3   8
TORSDOF 1
ENDMDL
