MODEL 1
REMARK VINA RESULT:      -4.7      0.000      0.000
REMARK  1 active torsions:
REMARK  status: ('A' for Active; 'I' for Inactive)
REMARK    1  A    between atoms: C1_1  and  O10_10 
ROOT
HETATM    1  C1  UNL     1     -33.330   7.523   4.461  1.00 20.00     0.099 C 
HETATM    2  C2  UNL     1     -34.457   7.312   5.175  1.00 20.00     0.026 C 
HETATM    3  C3  UNL     1     -33.307   6.282   3.630  1.00 20.00     0.183 C 
HETATM    4  C4  UNL     1     -34.324   6.851   6.604  1.00 20.00     0.018 C 
HETATM    5  C5  UNL     1     -35.446   6.470   4.409  1.00 20.00     0.030 C 
HETATM    6  C6  UNL     1     -33.706   5.429   6.549  1.00 20.00     0.002 C 
HETATM    7  C7  UNL     1     -34.119   4.569   5.310  1.00 20.00     0.013 C 
HETATM    8  C8  UNL     1     -34.462   5.382   4.034  1.00 20.00     0.063 C 
HETATM    9  O9  UNL     1     -32.425   6.002   2.835  1.00 20.00    -0.290 OA
ENDROOT
BRANCH   1  10
HETATM   10  O10 UNL     1     -32.149   8.055   4.891  1.00 20.00    -0.360 OA
HETATM   11  H20 UNL     1     -31.894   8.806   4.338  1.00 20.00     0.217 HD
ENDBRANCH   1  10
TORSDOF 1
ENDMDL
MODEL 2
REMARK VINA RESULT:      -4.3      1.308      2.102
REMARK  1 active torsions:
REMARK  status: ('A' for Active; 'I' for Inactive)
REMARK    1  A    between atoms: C1_1  and  O10_10 
ROOT
HETATM    1  C1  UNL     1     -33.682   5.697   3.451  1.00 20.00     0.099 C 
HETATM    2  C2  UNL     1     -34.427   6.742   3.874  1.00 20.00     0.026 C 
HETATM    3  C3  UNL     1     -34.121   4.650   4.421  1.00 20.00     0.183 C 
HETATM    4  C4  UNL     1     -33.759   7.811   4.700  1.00 20.00     0.018 C 
HETATM    5  C5  UNL     1     -35.718   6.280   4.501  1.00 20.00     0.030 C 
HETATM    6  C6  UNL     1     -33.354   7.140   6.039  1.00 20.00     0.002 C 
HETATM    7  C7  UNL     1     -34.321   6.019   6.543  1.00 20.00     0.013 C 
HETATM    8  C8  UNL     1     -35.084   5.261   5.424  1.00 20.00     0.063 C 
HETATM    9  O9  UNL     1     -33.676   3.514   4.455  1.00 20.00    -0.290 OA
ENDROOT
BRANCH   1  10
HETATM   10  O10 UNL     1     -32.385   5.707   3.026  1.00 20.00    -0.360 OA
HETATM   11  H20 UNL     1     -32.192   4.913   2.508  1.00 20.00     0.217 HD
ENDBRANCH   1  10
TORSDOF 1
ENDMDL
MODEL 3
REMARK VINA RESULT:      -4.2     12.977     13.925
REMARK  1 active torsions:
REMARK  status: ('A' for Active; 'I' for Inactive)
REMARK    1  A    between atoms: C1_1  and  O10_10 
ROOT
HETATM    1  C1  UNL     1     -34.303  15.591  -6.809  1.00 20.00     0.099 C 
HETATM    2  C2  UNL     1     -34.401  16.122  -5.571  1.00 20.00     0.026 C 
HETATM    3  C3  UNL     1     -35.649  14.955  -6.931  1.00 20.00     0.183 C 
HETATM    4  C4  UNL     1     -33.715  15.414  -4.431  1.00 20.00     0.018 C 
HETATM    5  C5  UNL     1     -35.828  16.469  -5.231  1.00 20.00     0.030 C 
HETATM    6  C6  UNL     1     -34.443  14.055  -4.258  1.00 20.00     0.002 C 
HETATM    7  C7  UNL     1     -35.974  14.073  -4.579  1.00 20.00     0.013 C 
HETATM    8  C8  UNL     1     -36.410  15.129  -5.629  1.00 20.00     0.063 C 
HETATM    9  O9  UNL     1     -36.017  14.303  -7.895  1.00 20.00    -0.290 OA
ENDROOT
BRANCH   1  10
HETATM   10  O10 UNL     1     -33.225  14.977  -7.378  1.00 20.00    -0.360 OA
HETATM   11  H20 UNL     1     -33.349  14.018  -7.393  1.00 20.00     0.217 HD
ENDBRANCH   1  10
TORSDOF 1
ENDMDL
MODEL 4
REMARK VINA RESULT:      -4.2      8.639      9.425
REMARK  1 active torsions:
REMARK  status: ('A' for Active; 'I' for Inactive)
REMARK    1  A    between atoms: C1_1  and  O10_10 
ROOT
HETATM    1  C1  UNL     1     -41.366   7.237   0.628  1.00 20.00     0.099 C 
HETATM    2  C2  UNL     1     -42.709   7.324   0.756  1.00 20.00     0.026 C 
HETATM    3  C3  UNL     1     -41.264   6.061  -0.287  1.00 20.00     0.183 C 
HETATM    4  C4  UNL     1     -43.343   6.806   2.021  1.00 20.00     0.018 C 
HETATM    5  C5  UNL     1     -43.414   6.807  -0.472  1.00 20.00     0.030 C 
HETATM    6  C6  UNL     1     -43.117   5.271   2.027  1.00 20.00     0.002 C 
HETATM    7  C7  UNL     1     -43.118   4.591   0.619  1.00 20.00     0.013 C 
HETATM    8  C8  UNL     1     -42.651   5.502  -0.548  1.00 20.00     0.063 C 
HETATM    9  O9  UNL     1     -40.211   5.571  -0.662  1.00 20.00    -0.290 OA
ENDROOT
BRANCH   1  10
HETATM   10  O10 UNL     1     -40.416   7.413   1.592  1.00 20.00    -0.360 OA
HETATM   11  H20 UNL     1     -40.319   8.352   1.805  1.00 20.00     0.217 HD
ENDBRANCH   1  10
TORSDOF 1
ENDMDL
MODEL 5
REMARK VINA RESULT:      -4.2     12.584     13.700
REMARK  1 active torsions:
REMARK  status: ('A' for Active; 'I' for Inactive)
REMARK    1  A    between atoms: C1_1  and  O10_10 
ROOT
HETATM    1  C1  UNL     1     -35.449  14.103  -5.302  1.00 20.00     0.099 C 
HETATM    2  C2  UNL     1     -34.227  14.607  -5.585  1.00 20.00     0.026 C 
HETATM    3  C3  UNL     1     -36.286  15.328  -5.473  1.00 20.00     0.183 C 
HETATM    4  C4  UNL     1     -33.292  14.906  -4.442  1.00 20.00     0.018 C 
HETATM    5  C5  UNL     1     -34.318  15.764  -6.547  1.00 20.00     0.030 C 
HETATM    6  C6  UNL     1     -33.941  16.064  -3.638  1.00 20.00     0.002 C 
HETATM    7  C7  UNL     1     -34.757  17.092  -4.489  1.00 20.00     0.013 C 
HETATM    8  C8  UNL     1     -35.390  16.514  -5.783  1.00 20.00     0.063 C 
HETATM    9  O9  UNL     1     -37.490  15.371  -5.278  1.00 20.00    -0.290 OA
ENDROOT
BRANCH   1  10
HETATM   10  O10 UNL     1     -35.782  13.201  -4.333  1.00 20.00    -0.360 OA
HETATM   11  H20 UNL     1     -34.991  12.892  -3.871  1.00 20.00     0.217 HD
ENDBRANCH   1  10
TORSDOF 1
ENDMDL
MODEL 6
REMARK VINA RESULT:      -4.1     15.590     16.855
REMARK  1 active torsions:
REMARK  status: ('A' for Active; 'I' for Inactive)
REMARK    1  A    between atoms: C1_1  and  O10_10 
ROOT
HETATM    1  C1  UNL     1     -23.261  17.192   9.498  1.00 20.00     0.099 C 
HETATM    2  C2  UNL     1     -23.128  18.535   9.572  1.00 20.00     0.026 C 
HETATM    3  C3  UNL     1     -24.016  16.931  10.760  1.00 20.00     0.183 C 
HETATM    4  C4  UNL     1     -21.799  19.101   9.999  1.00 20.00     0.018 C 
HETATM    5  C5  UNL     1     -24.269  19.160  10.333  1.00 20.00     0.030 C 
HETATM    6  C6  UNL     1     -21.596  18.674  11.477  1.00 20.00     0.002 C 
HETATM    7  C7  UNL     1     -22.903  18.579  12.330  1.00 20.00     0.013 C 
HETATM    8  C8  UNL     1     -24.185  18.231  11.526  1.00 20.00     0.063 C 
HETATM    9  O9  UNL     1     -24.337  15.821  11.152  1.00 20.00    -0.290 OA
ENDROOT
BRANCH   1  10
HETATM   10  O10 UNL     1     -22.340  16.279   9.074  1.00 20.00    -0.360 OA
HETATM   11  H20 UNL     1     -22.769  15.573   8.571  1.00 20.00     0.217 HD
ENDBRANCH   1  10
TORSDOF 1
ENDMDL
MODEL 7
REMARK VINA RESULT:      -4.1      8.333      9.552
REMARK  1 active torsions:
REMARK  status: ('A' for Active; 'I' for Inactive)
REMARK    1  A    between atoms: C1_1  and  O10_10 
ROOT
HETATM    1  C1  UNL     1     -41.671   5.479   0.902  1.00 20.00     0.099 C 
HETATM    2  C2  UNL     1     -41.908   6.633   1.563  1.00 20.00     0.026 C 
HETATM    3  C3  UNL     1     -40.879   5.994  -0.255  1.00 20.00     0.183 C 
HETATM    4  C4  UNL     1     -43.272   7.263   1.438  1.00 20.00     0.018 C 
HETATM    5  C5  UNL     1     -40.809   7.638   1.330  1.00 20.00     0.030 C 
HETATM    6  C6  UNL     1     -43.417   7.703  -0.042  1.00 20.00     0.002 C 
HETATM    7  C7  UNL     1     -42.094   8.165  -0.735  1.00 20.00     0.013 C 
HETATM    8  C8  UNL     1     -40.801   7.509  -0.179  1.00 20.00     0.063 C 
HETATM    9  O9  UNL     1     -40.464   5.300  -1.168  1.00 20.00    -0.290 OA
ENDROOT
BRANCH   1  10
HETATM   10  O10 UNL     1     -42.523   4.431   0.708  1.00 20.00    -0.360 OA
HETATM   11  H20 UNL     1     -43.072   4.290   1.492  1.00 20.00     0.217 HD
ENDBRANCH   1  10
TORSDOF 1
ENDMDL
MODEL 8
REMARK VINA RESULT:      -3.9      8.914     10.266
REMARK  1 active torsions:
REMARK  status: ('A' for Active; 'I' for Inactive)
REMARK    1  A    between atoms: C1_1  and  O10_10 
ROOT
HETATM    1  C1  UNL     1     -43.417   5.129   0.416  1.00 20.00     0.099 C 
HETATM    2  C2  UNL     1     -43.042   6.047  -0.502  1.00 20.00     0.026 C 
HETATM    3  C3  UNL     1     -43.233   5.918   1.670  1.00 20.00     0.183 C 
HETATM    4  C4  UNL     1     -41.672   5.928  -1.117  1.00 20.00     0.018 C 
HETATM    5  C5  UNL     1     -43.316   7.450  -0.022  1.00 20.00     0.030 C 
HETATM    6  C6  UNL     1     -40.655   6.181   0.028  1.00 20.00     0.002 C 
HETATM    7  C7  UNL     1     -41.119   7.202   1.119  1.00 20.00     0.013 C 
HETATM    8  C8  UNL     1     -42.655   7.281   1.330  1.00 20.00     0.063 C 
HETATM    9  O9  UNL     1     -43.416   5.478   2.793  1.00 20.00    -0.290 OA
ENDROOT
BRANCH   1  10
HETATM   10  O10 UNL     1     -43.145   3.792   0.426  1.00 20.00    -0.360 OA
HETATM   11  H20 UNL     1     -43.870   3.295   0.024  1.00 20.00     0.217 HD
ENDBRANCH   1  10
TORSDOF 1
ENDMDL
MODEL 9
REMARK VINA RESULT:      -3.8     12.662     13.703
REMARK  1 active torsions:
REMARK  status: ('A' for Active; 'I' for Inactive)
REMARK    1  A    between atoms: C1_1  and  O10_10 
ROOT
HETATM    1  C1  UNL     1     -34.180  14.905  -4.486  1.00 20.00     0.099 C 
HETATM    2  C2  UNL     1     -34.085  15.807  -5.488  1.00 20.00     0.026 C 
HETATM    3  C3  UNL     1     -35.337  14.094  -4.969  1.00 20.00     0.183 C 
HETATM    4  C4  UNL     1     -34.626  17.194  -5.257  1.00 20.00     0.018 C 
HETATM    5  C5  UNL     1     -34.570  15.231  -6.795  1.00 20.00     0.030 C 
HETATM    6  C6  UNL     1     -36.162  17.045  -5.101  1.00 20.00     0.002 C 
HETATM    7  C7  UNL     1     -36.812  15.905  -5.952  1.00 20.00     0.013 C 
HETATM    8  C8  UNL     1     -35.880  14.700  -6.251  1.00 20.00     0.063 C 
HETATM    9  O9  UNL     1     -35.827  13.160  -4.355  1.00 20.00    -0.290 OA
ENDROOT
BRANCH   1  10
HETATM   10  O10 UNL     1     -34.032  15.119  -3.146  1.00 20.00    -0.360 OA
HETATM   11  H20 UNL     1     -34.772  15.638  -2.802  1.00 20.00     0.217 HD
ENDBRANCH   1  10
TORSDOF 1
ENDMDL
