MODEL 1
REMARK VINA RESULT:      -5.2      0.000      0.000
REMARK  3 active torsions:
REMARK  status: ('A' for Active; 'I' for Inactive)
REMARK    1  A    between atoms: C3_3  and  C4_4 
REMARK    2  A    between atoms: C4_4  and  C5_5 
REMARK    3  A    between atoms: C4_4  and  O6_6 
ROOT
HETATM    1  C4  UNL     1     -34.270   7.130   5.270  1.00 20.00     0.229 C 
ENDROOT
BRANCH   1   2
HETATM    2  C3  UNL     1     -32.891   7.439   4.801  1.00 20.00     0.023 A 
HETATM    3  C1  UNL     1     -32.678   8.201   3.523  1.00 20.00     0.008 A 
HETATM    4  C2  UNL     1     -32.375   8.850   4.845  1.00 20.00     0.008 A 
ENDBRANCH   1   2
BRANCH   1   5
HETATM    5  C5  UNL     1     -34.779   5.802   4.739  1.00 20.00     0.413 C 
HETATM    6  F7  UNL     1     -34.836   4.876   5.722  1.00 20.00    -0.168 F 
HETATM    7  F8  UNL     1     -36.025   5.929   4.232  1.00 20.00    -0.168 F 
HETATM    8  F9  UNL     1     -33.981   5.317   3.763  1.00 20.00    -0.168 F 
ENDBRANCH   1   5
BRANCH   1   9
HETATM    9  O6  UNL     1     -34.296   7.069   6.697  1.00 20.00    -0.386 OA
HETATM   10  H16 UNL     1     -33.576   6.476   6.958  1.00 20.00     0.210 HD
ENDBRANCH   1   9
TORSDOF 3
ENDMDL
MODEL 2
REMARK VINA RESULT:      -5.2      0.014      1.258
REMARK  3 active torsions:
REMARK  status: ('A' for Active; 'I' for Inactive)
REMARK    1  A    between atoms: C3_3  and  C4_4 
REMARK    2  A    between atoms: C4_4  and  C5_5 
REMARK    3  A    between atoms: C4_4  and  O6_6 
ROOT
HETATM    1  C4  UNL     1     -34.274   7.137   5.274  1.00 20.00     0.229 C 
ENDROOT
BRANCH   1   2
HETATM    2  C3  UNL     1     -32.890   7.440   4.816  1.00 20.00     0.023 A 
HETATM    3  C1  UNL     1     -32.664   8.188   3.531  1.00 20.00     0.008 A 
HETATM    4  C2  UNL     1     -32.374   8.852   4.848  1.00 20.00     0.008 A 
ENDBRANCH   1   2
BRANCH   1   5
HETATM    5  C5  UNL     1     -34.780   5.806   4.746  1.00 20.00     0.413 C 
HETATM    6  F7  UNL     1     -36.023   5.930   4.230  1.00 20.00    -0.168 F 
HETATM    7  F8  UNL     1     -33.980   5.339   3.763  1.00 20.00    -0.168 F 
HETATM    8  F9  UNL     1     -34.830   4.872   5.719  1.00 20.00    -0.168 F 
ENDBRANCH   1   5
BRANCH   1   9
HETATM    9  O6  UNL     1     -34.313   7.084   6.701  1.00 20.00    -0.386 OA
HETATM   10  H16 UNL     1     -33.854   6.270   6.957  1.00 20.00     0.210 HD
ENDBRANCH   1   9
TORSDOF 3
ENDMDL
MODEL 3
REMARK VINA RESULT:      -5.1      1.784      2.219
REMARK  3 active torsions:
REMARK  status: ('A' for Active; 'I' for Inactive)
REMARK    1  A    between atoms: C3_3  and  C4_4 
REMARK    2  A    between atoms: C4_4  and  C5_5 
REMARK    3  A    between atoms: C4_4  and  O6_6 
ROOT
HETATM    1  C4  UNL     1     -34.069   6.433   4.865  1.00 20.00     0.229 C 
ENDROOT
BRANCH   1   2
HETATM    2  C3  UNL     1     -33.719   7.833   4.502  1.00 20.00     0.023 A 
HETATM    3  C1  UNL     1     -32.425   8.437   4.973  1.00 20.00     0.008 A 
HETATM    4  C2  UNL     1     -32.615   8.106   3.519  1.00 20.00     0.008 A 
ENDBRANCH   1   2
BRANCH   1   5
HETATM    5  C5  UNL     1     -34.234   6.246   6.363  1.00 20.00     0.413 C 
HETATM    6  F7  UNL     1     -33.077   5.841   6.932  1.00 20.00    -0.168 F 
HETATM    7  F8  UNL     1     -34.592   7.404   6.958  1.00 20.00    -0.168 F 
HETATM    8  F9  UNL     1     -35.177   5.323   6.649  1.00 20.00    -0.168 F 
ENDBRANCH   1   5
BRANCH   1   9
HETATM    9  O6  UNL     1     -35.300   6.062   4.241  1.00 20.00    -0.386 OA
HETATM   10  H16 UNL     1     -35.138   6.076   3.287  1.00 20.00     0.210 HD
ENDBRANCH   1   9
TORSDOF 3
ENDMDL
MODEL 4
REMARK VINA RESULT:      -5.0      1.642      2.134
REMARK  3 active torsions:
REMARK  status: ('A' for Active; 'I' for Inactive)
REMARK    1  A    between atoms: C3_3  and  C4_4 
REMARK    2  A    between atoms: C4_4  and  C5_5 
REMARK    3  A    between atoms: C4_4  and  O6_6 
ROOT
HETATM    1  C4  UNL     1     -33.435   6.223   4.352  1.00 20.00     0.229 C 
ENDROOT
BRANCH   1   2
HETATM    2  C3  UNL     1     -33.591   7.703   4.329  1.00 20.00     0.023 A 
HETATM    3  C1  UNL     1     -33.564   8.488   5.611  1.00 20.00     0.008 A 
HETATM    4  C2  UNL     1     -32.420   8.593   4.640  1.00 20.00     0.008 A 
ENDBRANCH   1   2
BRANCH   1   5
HETATM    5  C5  UNL     1     -34.669   5.518   4.886  1.00 20.00     0.413 C 
HETATM    6  F7  UNL     1     -35.795   6.038   4.349  1.00 20.00    -0.168 F 
HETATM    7  F8  UNL     1     -34.646   4.203   4.578  1.00 20.00    -0.168 F 
HETATM    8  F9  UNL     1     -34.764   5.629   6.228  1.00 20.00    -0.168 F 
ENDBRANCH   1   5
BRANCH   1   9
HETATM    9  O6  UNL     1     -33.193   5.738   3.029  1.00 20.00    -0.386 OA
HETATM   10  H16 UNL     1     -34.047   5.432   2.691  1.00 20.00     0.210 HD
ENDBRANCH   1   9
TORSDOF 3
ENDMDL
MODEL 5
REMARK VINA RESULT:      -5.0      2.237      2.770
REMARK  3 active torsions:
REMARK  status: ('A' for Active; 'I' for Inactive)
REMARK    1  A    between atoms: C3_3  and  C4_4 
REMARK    2  A    between atoms: C4_4  and  C5_5 
REMARK    3  A    between atoms: C4_4  and  O6_6 
ROOT
HETATM    1  C4  UNL     1     -34.096   5.521   5.036  1.00 20.00     0.229 C 
ENDROOT
BRANCH   1   2
HETATM    2  C3  UNL     1     -33.901   5.954   3.626  1.00 20.00     0.023 A 
HETATM    3  C1  UNL     1     -32.603   6.580   3.198  1.00 20.00     0.008 A 
HETATM    4  C2  UNL     1     -32.962   5.199   2.725  1.00 20.00     0.008 A 
ENDBRANCH   1   2
BRANCH   1   5
HETATM    5  C5  UNL     1     -34.123   6.692   6.003  1.00 20.00     0.413 C 
HETATM    6  F7  UNL     1     -35.068   6.516   6.953  1.00 20.00    -0.168 F 
HETATM    7  F8  UNL     1     -32.936   6.824   6.635  1.00 20.00    -0.168 F 
HETATM    8  F9  UNL     1     -34.388   7.854   5.370  1.00 20.00    -0.168 F 
ENDBRANCH   1   5
BRANCH   1   9
HETATM    9  O6  UNL     1     -35.336   4.822   5.164  1.00 20.00    -0.386 OA
HETATM   10  H16 UNL     1     -35.174   4.087   5.773  1.00 20.00     0.210 HD
ENDBRANCH   1   9
TORSDOF 3
ENDMDL
MODEL 6
REMARK VINA RESULT:      -5.0      2.160      3.436
REMARK  3 active torsions:
REMARK  status: ('A' for Active; 'I' for Inactive)
REMARK    1  A    between atoms: C3_3  and  C4_4 
REMARK    2  A    between atoms: C4_4  and  C5_5 
REMARK    3  A    between atoms: C4_4  and  O6_6 
ROOT
HETATM    1  C4  UNL     1     -33.274   7.337   5.043  1.00 20.00     0.229 C 
ENDROOT
BRANCH   1   2
HETATM    2  C3  UNL     1     -34.452   6.447   4.851  1.00 20.00     0.023 A 
HETATM    3  C1  UNL     1     -34.261   4.968   4.659  1.00 20.00     0.008 A 
HETATM    4  C2  UNL     1     -34.862   5.489   5.935  1.00 20.00     0.008 A 
ENDBRANCH   1   2
BRANCH   1   5
HETATM    5  C5  UNL     1     -32.538   7.612   3.744  1.00 20.00     0.413 C 
HETATM    6  F7  UNL     1     -33.009   8.729   3.146  1.00 20.00    -0.168 F 
HETATM    7  F8  UNL     1     -31.219   7.799   3.966  1.00 20.00    -0.168 F 
HETATM    8  F9  UNL     1     -32.671   6.591   2.870  1.00 20.00    -0.168 F 
ENDBRANCH   1   5
BRANCH   1   9
HETATM    9  O6  UNL     1     -33.695   8.592   5.581  1.00 20.00    -0.386 OA
HETATM   10  H16 UNL     1     -34.143   9.061   4.861  1.00 20.00     0.210 HD
ENDBRANCH   1   9
TORSDOF 3
ENDMDL
MODEL 7
REMARK VINA RESULT:      -5.0      2.156      3.364
REMARK  3 active torsions:
REMARK  status: ('A' for Active; 'I' for Inactive)
REMARK    1  A    between atoms: C3_3  and  C4_4 
REMARK    2  A    between atoms: C4_4  and  C5_5 
REMARK    3  A    between atoms: C4_4  and  O6_6 
ROOT
HETATM    1  C4  UNL     1     -33.274   7.335   5.035  1.00 20.00     0.229 C 
ENDROOT
BRANCH   1   2
HETATM    2  C3  UNL     1     -34.452   6.446   4.843  1.00 20.00     0.023 A 
HETATM    3  C1  UNL     1     -34.263   4.966   4.659  1.00 20.00     0.008 A 
HETATM    4  C2  UNL     1     -34.867   5.494   5.931  1.00 20.00     0.008 A 
ENDBRANCH   1   2
BRANCH   1   5
HETATM    5  C5  UNL     1     -32.541   7.614   3.735  1.00 20.00     0.413 C 
HETATM    6  F7  UNL     1     -31.219   7.793   3.951  1.00 20.00    -0.168 F 
HETATM    7  F8  UNL     1     -32.673   6.582   2.874  1.00 20.00    -0.168 F 
HETATM    8  F9  UNL     1     -33.011   8.724   3.127  1.00 20.00    -0.168 F 
ENDBRANCH   1   5
BRANCH   1   9
HETATM    9  O6  UNL     1     -33.693   8.589   5.577  1.00 20.00    -0.386 OA
HETATM   10  H16 UNL     1     -33.777   9.197   4.827  1.00 20.00     0.210 HD
ENDBRANCH   1   9
TORSDOF 3
ENDMDL
MODEL 8
REMARK VINA RESULT:      -4.7      2.905      3.718
REMARK  3 active torsions:
REMARK  status: ('A' for Active; 'I' for Inactive)
REMARK    1  A    between atoms: C3_3  and  C4_4 
REMARK    2  A    between atoms: C4_4  and  C5_5 
REMARK    3  A    between atoms: C4_4  and  O6_6 
ROOT
HETATM    1  C4  UNL     1     -33.457   6.984   4.179  1.00 20.00     0.229 C 
ENDROOT
BRANCH   1   2
HETATM    2  C3  UNL     1     -33.477   6.405   5.550  1.00 20.00     0.023 A 
HETATM    3  C1  UNL     1     -34.392   6.973   6.600  1.00 20.00     0.008 A 
HETATM    4  C2  UNL     1     -34.666   5.613   6.020  1.00 20.00     0.008 A 
ENDBRANCH   1   2
BRANCH   1   5
HETATM    5  C5  UNL     1     -32.470   8.130   4.049  1.00 20.00     0.413 C 
HETATM    6  F7  UNL     1     -32.839   8.979   3.064  1.00 20.00    -0.168 F 
HETATM    7  F8  UNL     1     -32.404   8.844   5.193  1.00 20.00    -0.168 F 
HETATM    8  F9  UNL     1     -31.227   7.686   3.764  1.00 20.00    -0.168 F 
ENDBRANCH   1   5
BRANCH   1   9
HETATM    9  O6  UNL     1     -33.088   5.979   3.232  1.00 20.00    -0.386 OA
HETATM   10  H16 UNL     1     -33.907   5.532   2.975  1.00 20.00     0.210 HD
ENDBRANCH   1   9
TORSDOF 3
ENDMDL
MODEL 9
REMARK VINA RESULT:      -4.5      2.640      3.605
REMARK  3 active torsions:
REMARK  status: ('A' for Active; 'I' for Inactive)
REMARK    1  A    between atoms: C3_3  and  C4_4 
REMARK    2  A    between atoms: C4_4  and  C5_5 
REMARK    3  A    between atoms: C4_4  and  O6_6 
ROOT
HETATM    1  C4  UNL     1     -33.514   7.230   4.162  1.00 20.00     0.229 C 
ENDROOT
BRANCH   1   2
HETATM    2  C3  UNL     1     -34.025   5.893   4.568  1.00 20.00     0.023 A 
HETATM    3  C1  UNL     1     -34.790   5.732   5.853  1.00 20.00     0.008 A 
HETATM    4  C2  UNL     1     -35.500   5.604   4.534  1.00 20.00     0.008 A 
ENDBRANCH   1   2
BRANCH   1   5
HETATM    5  C5  UNL     1     -33.090   8.075   5.351  1.00 20.00     0.413 C 
HETATM    6  F7  UNL     1     -32.022   8.844   5.044  1.00 20.00    -0.168 F 
HETATM    7  F8  UNL     1     -34.086   8.902   5.736  1.00 20.00    -0.168 F 
HETATM    8  F9  UNL     1     -32.754   7.308   6.411  1.00 20.00    -0.168 F 
ENDBRANCH   1   5
BRANCH   1   9
HETATM    9  O6  UNL     1     -32.378   7.078   3.308  1.00 20.00    -0.386 OA
HETATM   10  H16 UNL     1     -31.613   7.390   3.813  1.00 20.00     0.210 HD
ENDBRANCH   1   9
TORSDOF 3
ENDMDL
