MODEL 1
REMARK VINA RESULT:      -4.2      0.000      0.000
REMARK  0 active torsions:
REMARK  status: ('A' for Active; 'I' for Inactive)
ROOT
HETATM    1  C1  UNL     1     -33.764   6.876   4.523  1.00 20.00     0.137 C 
HETATM    2  C2  UNL     1     -34.658   5.479   6.366  1.00 20.00     0.108 C 
HETATM    3  C3  UNL     1     -34.604   5.736   4.877  1.00 20.00     0.326 C 
HETATM    4  N4  UNL     1     -33.097   7.782   4.239  1.00 20.00    -0.191 NA
HETATM    5  F5  UNL     1     -35.861   5.952   4.413  1.00 20.00    -0.190 F 
HETATM    6  F6  UNL     1     -34.139   4.629   4.246  1.00 20.00    -0.190 F 
ENDROOT
TORSDOF 0
ENDMDL
MODEL 2
REMARK VINA RESULT:      -4.1      1.164      1.617
REMARK  0 active torsions:
REMARK  status: ('A' for Active; 'I' for Inactive)
ROOT
HETATM    1  C1  UNL     1     -33.956   6.959   5.059  1.00 20.00     0.137 C 
HETATM    2  C2  UNL     1     -34.131   4.556   4.473  1.00 20.00     0.108 C 
HETATM    3  C3  UNL     1     -34.796   5.766   5.088  1.00 20.00     0.326 C 
HETATM    4  N4  UNL     1     -33.289   7.909   5.036  1.00 20.00    -0.191 NA
HETATM    5  F5  UNL     1     -35.129   5.491   6.374  1.00 20.00    -0.190 F 
HETATM    6  F6  UNL     1     -35.956   6.023   4.431  1.00 20.00    -0.190 F 
ENDROOT
TORSDOF 0
ENDMDL
MODEL 3
REMARK VINA RESULT:      -4.0      1.531      1.586
REMARK  0 active torsions:
REMARK  status: ('A' for Active; 'I' for Inactive)
ROOT
HETATM    1  C1  UNL     1     -33.717   5.508   3.693  1.00 20.00     0.137 C 
HETATM    2  C2  UNL     1     -34.121   6.825   5.754  1.00 20.00     0.108 C 
HETATM    3  C3  UNL     1     -34.582   5.702   4.853  1.00 20.00     0.326 C 
HETATM    4  N4  UNL     1     -33.031   5.351   2.770  1.00 20.00    -0.191 NA
HETATM    5  F5  UNL     1     -35.844   5.958   4.425  1.00 20.00    -0.190 F 
HETATM    6  F6  UNL     1     -34.637   4.548   5.564  1.00 20.00    -0.190 F 
ENDROOT
TORSDOF 0
ENDMDL
MODEL 4
REMARK VINA RESULT:      -4.0      1.626      1.876
REMARK  0 active torsions:
REMARK  status: ('A' for Active; 'I' for Inactive)
ROOT
HETATM    1  C1  UNL     1     -33.795   5.538   3.715  1.00 20.00     0.137 C 
HETATM    2  C2  UNL     1     -34.556   5.281   6.061  1.00 20.00     0.108 C 
HETATM    3  C3  UNL     1     -34.678   6.044   4.762  1.00 20.00     0.326 C 
HETATM    4  N4  UNL     1     -33.093   5.137   2.882  1.00 20.00    -0.191 NA
HETATM    5  F5  UNL     1     -34.399   7.353   4.981  1.00 20.00    -0.190 F 
HETATM    6  F6  UNL     1     -35.962   5.986   4.325  1.00 20.00    -0.190 F 
ENDROOT
TORSDOF 0
ENDMDL
MODEL 5
REMARK VINA RESULT:      -3.8      1.864      2.330
REMARK  0 active torsions:
REMARK  status: ('A' for Active; 'I' for Inactive)
ROOT
HETATM    1  C1  UNL     1     -33.234   7.494   5.387  1.00 20.00     0.137 C 
HETATM    2  C2  UNL     1     -35.054   5.835   5.096  1.00 20.00     0.108 C 
HETATM    3  C3  UNL     1     -34.101   6.523   6.047  1.00 20.00     0.326 C 
HETATM    4  N4  UNL     1     -32.544   8.267   4.864  1.00 20.00    -0.191 NA
HETATM    5  F5  UNL     1     -33.331   5.591   6.663  1.00 20.00    -0.190 F 
HETATM    6  F6  UNL     1     -34.810   7.149   7.019  1.00 20.00    -0.190 F 
ENDROOT
TORSDOF 0
ENDMDL
MODEL 6
REMARK VINA RESULT:      -3.8      2.548      2.863
REMARK  0 active torsions:
REMARK  status: ('A' for Active; 'I' for Inactive)
ROOT
HETATM    1  C1  UNL     1     -34.447   5.705   5.423  1.00 20.00     0.137 C 
HETATM    2  C2  UNL     1     -33.642   8.038   5.190  1.00 20.00     0.108 C 
HETATM    3  C3  UNL     1     -33.927   6.879   6.117  1.00 20.00     0.326 C 
HETATM    4  N4  UNL     1     -34.861   4.770   4.873  1.00 20.00    -0.191 NA
HETATM    5  F5  UNL     1     -34.821   7.268   7.060  1.00 20.00    -0.190 F 
HETATM    6  F6  UNL     1     -32.789   6.539   6.774  1.00 20.00    -0.190 F 
ENDROOT
TORSDOF 0
ENDMDL
MODEL 7
REMARK VINA RESULT:      -3.7      2.521      2.986
REMARK  0 active torsions:
REMARK  status: ('A' for Active; 'I' for Inactive)
ROOT
HETATM    1  C1  UNL     1     -34.461   6.531   4.939  1.00 20.00     0.137 C 
HETATM    2  C2  UNL     1     -32.496   7.947   4.410  1.00 20.00     0.108 C 
HETATM    3  C3  UNL     1     -33.540   7.552   5.429  1.00 20.00     0.326 C 
HETATM    4  N4  UNL     1     -35.194   5.719   4.551  1.00 20.00    -0.191 NA
HETATM    5  F5  UNL     1     -34.249   8.648   5.795  1.00 20.00    -0.190 F 
HETATM    6  F6  UNL     1     -32.924   7.093   6.548  1.00 20.00    -0.190 F 
ENDROOT
TORSDOF 0
ENDMDL
MODEL 8
REMARK VINA RESULT:      -3.7      2.121      2.536
REMARK  0 active torsions:
REMARK  status: ('A' for Active; 'I' for Inactive)
ROOT
HETATM    1  C1  UNL     1     -32.907   7.487   4.489  1.00 20.00     0.137 C 
HETATM    2  C2  UNL     1     -34.787   6.139   5.379  1.00 20.00     0.108 C 
HETATM    3  C3  UNL     1     -33.772   7.229   5.635  1.00 20.00     0.326 C 
HETATM    4  N4  UNL     1     -32.218   7.694   3.578  1.00 20.00    -0.191 NA
HETATM    5  F5  UNL     1     -33.004   6.887   6.700  1.00 20.00    -0.190 F 
HETATM    6  F6  UNL     1     -34.417   8.374   5.971  1.00 20.00    -0.190 F 
ENDROOT
TORSDOF 0
ENDMDL
MODEL 9
REMARK VINA RESULT:      -3.5      2.850      3.406
REMARK  0 active torsions:
REMARK  status: ('A' for Active; 'I' for Inactive)
ROOT
HETATM    1  C1  UNL     1     -33.599   7.232   5.641  1.00 20.00     0.137 C 
HETATM    2  C2  UNL     1     -32.325   7.428   3.523  1.00 20.00     0.108 C 
HETATM    3  C3  UNL     1     -33.084   8.138   4.620  1.00 20.00     0.326 C 
HETATM    4  N4  UNL     1     -34.009   6.512   6.454  1.00 20.00    -0.191 NA
HETATM    5  F5  UNL     1     -34.120   8.826   4.076  1.00 20.00    -0.190 F 
HETATM    6  F6  UNL     1     -32.273   9.054   5.207  1.00 20.00    -0.190 F 
ENDROOT
TORSDOF 0
ENDMDL
