MODEL 1
REMARK VINA RESULT:      -3.7      0.000      0.000
REMARK  7 active torsions:
REMARK  status: ('A' for Active; 'I' for Inactive)
REMARK    1  A    between atoms: C1_1  and  C6_6 
REMARK    2  A    between atoms: C1_1  and  C11_11 
REMARK    3  A    between atoms: C6_6  and  C12_12 
REMARK    4  A    between atoms: C7_7  and  C9_9 
REMARK    5  A    between atoms: C8_8  and  C12_12 
REMARK    6  A    between atoms: C9_9  and  C10_10 
REMARK    7  A    between atoms: C10_10  and  C12_12 
ROOT
HETATM    1  C12 UNL     1     -33.750  17.072  -3.064  1.00 20.00    -0.008 C 
ENDROOT
BRANCH   1   2
HETATM    2  C6  UNL     1     -33.090  15.811  -3.656  1.00 20.00     0.083 C 
BRANCH   2   3
HETATM    3  C1  UNL     1     -34.072  14.877  -4.356  1.00 20.00     0.130 C 
HETATM    4  O13 UNL     1     -34.286  13.733  -3.955  1.00 20.00    -0.298 OA
BRANCH   3   5
HETATM    5  C11 UNL     1     -34.790  15.447  -5.576  1.00 20.00     0.047 C 
HETATM    6  C4  UNL     1     -36.162  14.803  -5.754  1.00 20.00     0.017 C 
HETATM    7  C5  UNL     1     -33.926  15.246  -6.815  1.00 20.00     0.017 C 
ENDBRANCH   3   5
ENDBRANCH   2   3
ENDBRANCH   1   2
BRANCH   1   8
HETATM    8  C8  UNL     1     -33.497  17.159  -1.542  1.00 20.00     0.000 C 
HETATM    9  C3  UNL     1     -32.395  18.121  -1.121  1.00 20.00     0.005 C 
ENDBRANCH   1   8
BRANCH   1  10
HETATM   10  C10 UNL     1     -33.290  18.331  -3.837  1.00 20.00     0.005 C 
BRANCH  10  11
HETATM   11  C9  UNL     1     -34.445  19.254  -4.242  1.00 20.00     0.000 C 
BRANCH  11  12
HETATM   12  C7  UNL     1     -35.824  18.638  -3.993  1.00 20.00    -0.005 C 
HETATM   13  C2  UNL     1     -36.692  18.571  -5.240  1.00 20.00     0.005 C 
ENDBRANCH  11  12
ENDBRANCH  10  11
ENDBRANCH   1  10
TORSDOF 7
ENDMDL
MODEL 2
REMARK VINA RESULT:      -3.7     12.111     13.925
REMARK  7 active torsions:
REMARK  status: ('A' for Active; 'I' for Inactive)
REMARK    1  A    between atoms: C1_1  and  C6_6 
REMARK    2  A    between atoms: C1_1  and  C11_11 
REMARK    3  A    between atoms: C6_6  and  C12_12 
REMARK    4  A    between atoms: C7_7  and  C9_9 
REMARK    5  A    between atoms: C8_8  and  C12_12 
REMARK    6  A    between atoms: C9_9  and  C10_10 
REMARK    7  A    between atoms: C10_10  and  C12_12 
ROOT
HETATM    1  C12 UNL     1     -41.449  13.101   6.810  1.00 20.00    -0.008 C 
ENDROOT
BRANCH   1   2
HETATM    2  C6  UNL     1     -40.481  14.156   7.384  1.00 20.00     0.083 C 
BRANCH   2   3
HETATM    3  C1  UNL     1     -40.833  14.605   8.798  1.00 20.00     0.130 C 
HETATM    4  O13 UNL     1     -40.765  13.844   9.763  1.00 20.00    -0.298 OA
BRANCH   3   5
HETATM    5  C11 UNL     1     -41.258  16.063   8.955  1.00 20.00     0.047 C 
HETATM    6  C4  UNL     1     -42.770  16.177   9.129  1.00 20.00     0.017 C 
HETATM    7  C5  UNL     1     -40.785  16.863   7.748  1.00 20.00     0.017 C 
ENDBRANCH   3   5
ENDBRANCH   2   3
ENDBRANCH   1   2
BRANCH   1   8
HETATM    8  C8  UNL     1     -42.582  13.778   6.007  1.00 20.00     0.000 C 
HETATM    9  C3  UNL     1     -42.174  14.329   4.647  1.00 20.00     0.005 C 
ENDBRANCH   1   8
BRANCH   1  10
HETATM   10  C10 UNL     1     -40.667  12.042   5.999  1.00 20.00     0.005 C 
BRANCH  10  11
HETATM   11  C9  UNL     1     -39.165  12.025   6.303  1.00 20.00     0.000 C 
BRANCH  11  12
HETATM   12  C7  UNL     1     -38.297  11.940   5.045  1.00 20.00    -0.005 C 
HETATM   13  C2  UNL     1     -39.093  11.673   3.777  1.00 20.00     0.005 C 
ENDBRANCH  11  12
ENDBRANCH  10  11
ENDBRANCH   1  10
TORSDOF 7
ENDMDL
MODEL 3
REMARK VINA RESULT:      -3.6      1.889      3.871
REMARK  7 active torsions:
REMARK  status: ('A' for Active; 'I' for Inactive)
REMARK    1  A    between atoms: C1_1  and  C6_6 
REMARK    2  A    between atoms: C1_1  and  C11_11 
REMARK    3  A    between atoms: C6_6  and  C12_12 
REMARK    4  A    between atoms: C7_7  and  C9_9 
REMARK    5  A    between atoms: C8_8  and  C12_12 
REMARK    6  A    between atoms: C9_9  and  C10_10 
REMARK    7  A    between atoms: C10_10  and  C12_12 
ROOT
HETATM    1  C12 UNL     1     -33.750  16.762  -3.141  1.00 20.00    -0.008 C 
ENDROOT
BRANCH   1   2
HETATM    2  C6  UNL     1     -34.157  17.850  -4.155  1.00 20.00     0.083 C 
BRANCH   2   3
HETATM    3  C1  UNL     1     -35.664  17.966  -4.357  1.00 20.00     0.130 C 
HETATM    4  O13 UNL     1     -36.406  18.441  -3.498  1.00 20.00    -0.298 OA
BRANCH   3   5
HETATM    5  C11 UNL     1     -36.202  17.474  -5.699  1.00 20.00     0.047 C 
HETATM    6  C4  UNL     1     -37.048  16.216  -5.521  1.00 20.00     0.017 C 
HETATM    7  C5  UNL     1     -35.040  17.222  -6.652  1.00 20.00     0.017 C 
ENDBRANCH   3   5
ENDBRANCH   2   3
ENDBRANCH   1   2
BRANCH   1   8
HETATM    8  C8  UNL     1     -33.097  15.561  -3.860  1.00 20.00     0.000 C 
HETATM    9  C3  UNL     1     -34.049  14.432  -4.233  1.00 20.00     0.005 C 
ENDBRANCH   1   8
BRANCH   1  10
HETATM   10  C10 UNL     1     -32.863  17.370  -2.029  1.00 20.00     0.005 C 
BRANCH  10  11
HETATM   11  C9  UNL     1     -33.635  17.711  -0.750  1.00 20.00     0.000 C 
BRANCH  11  12
HETATM   12  C7  UNL     1     -32.810  18.521   0.253  1.00 20.00    -0.005 C 
HETATM   13  C2  UNL     1     -31.330  18.583  -0.090  1.00 20.00     0.005 C 
ENDBRANCH  11  12
ENDBRANCH  10  11
ENDBRANCH   1  10
TORSDOF 7
ENDMDL
MODEL 4
REMARK VINA RESULT:      -3.5      1.230      3.605
REMARK  7 active torsions:
REMARK  status: ('A' for Active; 'I' for Inactive)
REMARK    1  A    between atoms: C1_1  and  C6_6 
REMARK    2  A    between atoms: C1_1  and  C11_11 
REMARK    3  A    between atoms: C6_6  and  C12_12 
REMARK    4  A    between atoms: C7_7  and  C9_9 
REMARK    5  A    between atoms: C8_8  and  C12_12 
REMARK    6  A    between atoms: C9_9  and  C10_10 
REMARK    7  A    between atoms: C10_10  and  C12_12 
ROOT
HETATM    1  C12 UNL     1     -33.194  17.198  -3.027  1.00 20.00    -0.008 C 
ENDROOT
BRANCH   1   2
HETATM    2  C6  UNL     1     -33.948  15.881  -3.299  1.00 20.00     0.083 C 
BRANCH   2   3
HETATM    3  C1  UNL     1     -33.319  15.030  -4.397  1.00 20.00     0.130 C 
HETATM    4  O13 UNL     1     -32.157  14.630  -4.331  1.00 20.00    -0.298 OA
BRANCH   3   5
HETATM    5  C11 UNL     1     -34.220  14.686  -5.581  1.00 20.00     0.047 C 
HETATM    6  C4  UNL     1     -34.219  15.809  -6.614  1.00 20.00     0.017 C 
HETATM    7  C5  UNL     1     -35.630  14.403  -5.081  1.00 20.00     0.017 C 
ENDBRANCH   3   5
ENDBRANCH   2   3
ENDBRANCH   1   2
BRANCH   1   8
HETATM    8  C8  UNL     1     -33.791  18.352  -3.863  1.00 20.00     0.000 C 
HETATM    9  C3  UNL     1     -35.301  18.303  -4.053  1.00 20.00     0.005 C 
ENDBRANCH   1   8
BRANCH   1  10
HETATM   10  C10 UNL     1     -33.159  17.492  -1.509  1.00 20.00     0.005 C 
BRANCH  10  11
HETATM   11  C9  UNL     1     -32.380  18.763  -1.151  1.00 20.00     0.000 C 
BRANCH  11  12
HETATM   12  C7  UNL     1     -31.175  18.495  -0.246  1.00 20.00    -0.005 C 
HETATM   13  C2  UNL     1     -31.514  18.515   1.236  1.00 20.00     0.005 C 
ENDBRANCH  11  12
ENDBRANCH  10  11
ENDBRANCH   1  10
TORSDOF 7
ENDMDL
MODEL 5
REMARK VINA RESULT:      -3.5     12.018     13.474
REMARK  7 active torsions:
REMARK  status: ('A' for Active; 'I' for Inactive)
REMARK    1  A    between atoms: C1_1  and  C6_6 
REMARK    2  A    between atoms: C1_1  and  C11_11 
REMARK    3  A    between atoms: C6_6  and  C12_12 
REMARK    4  A    between atoms: C7_7  and  C9_9 
REMARK    5  A    between atoms: C8_8  and  C12_12 
REMARK    6  A    between atoms: C9_9  and  C10_10 
REMARK    7  A    between atoms: C10_10  and  C12_12 
ROOT
HETATM    1  C12 UNL     1     -41.339  15.083   6.694  1.00 20.00    -0.008 C 
ENDROOT
BRANCH   1   2
HETATM    2  C6  UNL     1     -41.347  13.548   6.560  1.00 20.00     0.083 C 
BRANCH   2   3
HETATM    3  C1  UNL     1     -40.840  13.048   5.211  1.00 20.00     0.130 C 
HETATM    4  O13 UNL     1     -41.188  13.564   4.149  1.00 20.00    -0.298 OA
BRANCH   3   5
HETATM    5  C11 UNL     1     -39.860  11.878   5.251  1.00 20.00     0.047 C 
HETATM    6  C4  UNL     1     -38.900  12.009   6.431  1.00 20.00     0.017 C 
HETATM    7  C5  UNL     1     -39.100  11.806   3.933  1.00 20.00     0.017 C 
ENDBRANCH   3   5
ENDBRANCH   2   3
ENDBRANCH   1   2
BRANCH   1   8
HETATM    8  C8  UNL     1     -42.781  15.631   6.791  1.00 20.00     0.000 C 
HETATM    9  C3  UNL     1     -42.891  17.123   7.075  1.00 20.00     0.005 C 
ENDBRANCH   1   8
BRANCH   1  10
HETATM   10  C10 UNL     1     -40.437  15.514   7.874  1.00 20.00     0.005 C 
BRANCH  10  11
HETATM   11  C9  UNL     1     -40.237  14.414   8.923  1.00 20.00     0.000 C 
BRANCH  11  12
HETATM   12  C7  UNL     1     -41.009  14.671  10.220  1.00 20.00    -0.005 C 
HETATM   13  C2  UNL     1     -42.430  14.129  10.197  1.00 20.00     0.005 C 
ENDBRANCH  11  12
ENDBRANCH  10  11
ENDBRANCH   1  10
TORSDOF 7
ENDMDL
MODEL 6
REMARK VINA RESULT:      -3.4      2.122      4.650
REMARK  7 active torsions:
REMARK  status: ('A' for Active; 'I' for Inactive)
REMARK    1  A    between atoms: C1_1  and  C6_6 
REMARK    2  A    between atoms: C1_1  and  C11_11 
REMARK    3  A    between atoms: C6_6  and  C12_12 
REMARK    4  A    between atoms: C7_7  and  C9_9 
REMARK    5  A    between atoms: C8_8  and  C12_12 
REMARK    6  A    between atoms: C9_9  and  C10_10 
REMARK    7  A    between atoms: C10_10  and  C12_12 
ROOT
HETATM    1  C12 UNL     1     -33.449  16.852  -3.851  1.00 20.00    -0.008 C 
ENDROOT
BRANCH   1   2
HETATM    2  C6  UNL     1     -33.708  17.379  -2.426  1.00 20.00     0.083 C 
BRANCH   2   3
HETATM    3  C1  UNL     1     -32.819  18.555  -2.036  1.00 20.00     0.130 C 
HETATM    4  O13 UNL     1     -32.263  19.263  -2.876  1.00 20.00    -0.298 OA
BRANCH   3   5
HETATM    5  C11 UNL     1     -32.670  18.819  -0.540  1.00 20.00     0.047 C 
HETATM    6  C4  UNL     1     -31.244  18.538  -0.074  1.00 20.00     0.017 C 
HETATM    7  C5  UNL     1     -33.674  17.970   0.229  1.00 20.00     0.017 C 
ENDBRANCH   3   5
ENDBRANCH   2   3
ENDBRANCH   1   2
BRANCH   1   8
HETATM    8  C8  UNL     1     -33.189  15.329  -3.832  1.00 20.00     0.000 C 
HETATM    9  C3  UNL     1     -34.304  14.472  -4.416  1.00 20.00     0.005 C 
ENDBRANCH   1   8
BRANCH   1  10
HETATM   10  C10 UNL     1     -34.601  17.268  -4.795  1.00 20.00     0.005 C 
BRANCH  10  11
HETATM   11  C9  UNL     1     -35.723  18.036  -4.087  1.00 20.00     0.000 C 
BRANCH  11  12
HETATM   12  C7  UNL     1     -37.087  17.864  -4.760  1.00 20.00    -0.005 C 
HETATM   13  C2  UNL     1     -37.290  16.489  -5.375  1.00 20.00     0.005 C 
ENDBRANCH  11  12
ENDBRANCH  10  11
ENDBRANCH   1  10
TORSDOF 7
ENDMDL
MODEL 7
REMARK VINA RESULT:      -3.4     11.922     13.402
REMARK  7 active torsions:
REMARK  status: ('A' for Active; 'I' for Inactive)
REMARK    1  A    between atoms: C1_1  and  C6_6 
REMARK    2  A    between atoms: C1_1  and  C11_11 
REMARK    3  A    between atoms: C6_6  and  C12_12 
REMARK    4  A    between atoms: C7_7  and  C9_9 
REMARK    5  A    between atoms: C8_8  and  C12_12 
REMARK    6  A    between atoms: C9_9  and  C10_10 
REMARK    7  A    between atoms: C10_10  and  C12_12 
ROOT
HETATM    1  C12 UNL     1     -40.779  13.163   5.902  1.00 20.00    -0.008 C 
ENDROOT
BRANCH   1   2
HETATM    2  C6  UNL     1     -41.921  12.956   6.917  1.00 20.00     0.083 C 
BRANCH   2   3
HETATM    3  C1  UNL     1     -41.748  13.755   8.205  1.00 20.00     0.130 C 
HETATM    4  O13 UNL     1     -42.255  13.401   9.268  1.00 20.00    -0.298 OA
BRANCH   3   5
HETATM    5  C11 UNL     1     -40.892  15.015   8.105  1.00 20.00     0.047 C 
HETATM    6  C4  UNL     1     -40.091  15.236   9.386  1.00 20.00     0.017 C 
HETATM    7  C5  UNL     1     -41.783  16.213   7.804  1.00 20.00     0.017 C 
ENDBRANCH   3   5
ENDBRANCH   2   3
ENDBRANCH   1   2
BRANCH   1   8
HETATM    8  C8  UNL     1     -39.936  11.876   5.757  1.00 20.00     0.000 C 
HETATM    9  C3  UNL     1     -39.198  11.729   4.433  1.00 20.00     0.005 C 
ENDBRANCH   1   8
BRANCH   1  10
HETATM   10  C10 UNL     1     -41.343  13.684   4.559  1.00 20.00     0.005 C 
BRANCH  10  11
HETATM   11  C9  UNL     1     -42.688  14.405   4.701  1.00 20.00     0.000 C 
BRANCH  11  12
HETATM   12  C7  UNL     1     -42.720  15.765   3.998  1.00 20.00    -0.005 C 
HETATM   13  C2  UNL     1     -42.402  15.686   2.513  1.00 20.00     0.005 C 
ENDBRANCH  11  12
ENDBRANCH  10  11
ENDBRANCH   1  10
TORSDOF 7
ENDMDL
MODEL 8
REMARK VINA RESULT:      -3.3     12.397     14.212
REMARK  7 active torsions:
REMARK  status: ('A' for Active; 'I' for Inactive)
REMARK    1  A    between atoms: C1_1  and  C6_6 
REMARK    2  A    between atoms: C1_1  and  C11_11 
REMARK    3  A    between atoms: C6_6  and  C12_12 
REMARK    4  A    between atoms: C7_7  and  C9_9 
REMARK    5  A    between atoms: C8_8  and  C12_12 
REMARK    6  A    between atoms: C9_9  and  C10_10 
REMARK    7  A    between atoms: C10_10  and  C12_12 
ROOT
HETATM    1  C12 UNL     1     -42.480  13.845   6.114  1.00 20.00    -0.008 C 
ENDROOT
BRANCH   1   2
HETATM    2  C6  UNL     1     -42.794  14.744   7.326  1.00 20.00     0.083 C 
BRANCH   2   3
HETATM    3  C1  UNL     1     -42.301  14.178   8.654  1.00 20.00     0.130 C 
HETATM    4  O13 UNL     1     -42.564  13.032   9.015  1.00 20.00    -0.298 OA
BRANCH   3   5
HETATM    5  C11 UNL     1     -41.444  15.111   9.506  1.00 20.00     0.047 C 
HETATM    6  C4  UNL     1     -40.674  16.098   8.633  1.00 20.00     0.017 C 
HETATM    7  C5  UNL     1     -40.495  14.286  10.366  1.00 20.00     0.017 C 
ENDBRANCH   3   5
ENDBRANCH   2   3
ENDBRANCH   1   2
BRANCH   1   8
HETATM    8  C8  UNL     1     -43.174  14.381   4.842  1.00 20.00     0.000 C 
HETATM    9  C3  UNL     1     -42.236  14.785   3.712  1.00 20.00     0.005 C 
ENDBRANCH   1   8
BRANCH   1  10
HETATM   10  C10 UNL     1     -40.951  13.674   5.955  1.00 20.00     0.005 C 
BRANCH  10  11
HETATM   11  C9  UNL     1     -40.491  12.213   6.015  1.00 20.00     0.000 C 
BRANCH  11  12
HETATM   12  C7  UNL     1     -39.066  12.009   5.494  1.00 20.00    -0.005 C 
HETATM   13  C2  UNL     1     -39.007  11.660   4.015  1.00 20.00     0.005 C 
ENDBRANCH  11  12
ENDBRANCH  10  11
ENDBRANCH   1  10
TORSDOF 7
ENDMDL
MODEL 9
REMARK VINA RESULT:      -3.2      1.543      3.427
REMARK  7 active torsions:
REMARK  status: ('A' for Active; 'I' for Inactive)
REMARK    1  A    between atoms: C1_1  and  C6_6 
REMARK    2  A    between atoms: C1_1  and  C11_11 
REMARK    3  A    between atoms: C6_6  and  C12_12 
REMARK    4  A    between atoms: C7_7  and  C9_9 
REMARK    5  A    between atoms: C8_8  and  C12_12 
REMARK    6  A    between atoms: C9_9  and  C10_10 
REMARK    7  A    between atoms: C10_10  and  C12_12 
ROOT
HETATM    1  C12 UNL     1     -34.020  16.308  -4.535  1.00 20.00    -0.008 C 
ENDROOT
BRANCH   1   2
HETATM    2  C6  UNL     1     -34.281  14.976  -5.267  1.00 20.00     0.083 C 
BRANCH   2   3
HETATM    3  C1  UNL     1     -35.625  14.924  -5.986  1.00 20.00     0.130 C 
HETATM    4  O13 UNL     1     -36.674  14.666  -5.396  1.00 20.00    -0.298 OA
BRANCH   3   5
HETATM    5  C11 UNL     1     -35.600  15.229  -7.482  1.00 20.00     0.047 C 
HETATM    6  C4  UNL     1     -34.223  15.719  -7.918  1.00 20.00     0.017 C 
HETATM    7  C5  UNL     1     -36.676  16.257  -7.809  1.00 20.00     0.017 C 
ENDBRANCH   3   5
ENDBRANCH   2   3
ENDBRANCH   1   2
BRANCH   1   8
HETATM    8  C8  UNL     1     -35.254  17.234  -4.629  1.00 20.00     0.000 C 
HETATM    9  C3  UNL     1     -35.013  18.568  -5.322  1.00 20.00     0.005 C 
ENDBRANCH   1   8
BRANCH   1  10
HETATM   10  C10 UNL     1     -33.561  16.041  -3.083  1.00 20.00     0.005 C 
BRANCH  10  11
HETATM   11  C9  UNL     1     -33.049  17.294  -2.364  1.00 20.00     0.000 C 
BRANCH  11  12
HETATM   12  C7  UNL     1     -33.750  17.549  -1.027  1.00 20.00    -0.005 C 
HETATM   13  C2  UNL     1     -32.903  18.338  -0.040  1.00 20.00     0.005 C 
ENDBRANCH  11  12
ENDBRANCH  10  11
ENDBRANCH   1  10
TORSDOF 7
ENDMDL
