MODEL 1
REMARK VINA RESULT:      -3.8      0.000      0.000
REMARK  0 active torsions:
REMARK  status: ('A' for Active; 'I' for Inactive)
ROOT
HETATM    1  C1  UNL     1     -32.305   8.065   2.845  1.00 20.00     0.088 C 
HETATM    2  C2  UNL     1     -33.586   7.289   4.731  1.00 20.00    -0.060 C 
HETATM    3  C3  UNL     1     -32.665   8.111   4.215  1.00 20.00     0.097 C 
HETATM    4  C4  UNL     1     -34.005   7.296   6.171  1.00 20.00     0.046 C 
HETATM    5  C5  UNL     1     -34.247   6.194   3.949  1.00 20.00     0.108 C 
HETATM    6  C6  UNL     1     -34.070   5.839   6.601  1.00 20.00     0.078 C 
HETATM    7  N7  UNL     1     -32.005   8.031   1.725  1.00 20.00    -0.192 NA
HETATM    8  S8  UNL     1     -34.760   4.953   5.178  1.00 20.00    -0.165 SA
ENDROOT
TORSDOF 0
ENDMDL
MODEL 2
REMARK VINA RESULT:      -3.6     16.168     16.542
REMARK  0 active torsions:
REMARK  status: ('A' for Active; 'I' for Inactive)
ROOT
HETATM    1  C1  UNL     1     -21.556  17.872   8.025  1.00 20.00     0.088 C 
HETATM    2  C2  UNL     1     -22.431  18.375  10.213  1.00 20.00    -0.060 C 
HETATM    3  C3  UNL     1     -21.441  17.915   9.438  1.00 20.00     0.097 C 
HETATM    4  C4  UNL     1     -22.361  18.444  11.709  1.00 20.00     0.046 C 
HETATM    5  C5  UNL     1     -23.771  18.790   9.683  1.00 20.00     0.108 C 
HETATM    6  C6  UNL     1     -23.695  17.925  12.221  1.00 20.00     0.078 C 
HETATM    7  N7  UNL     1     -21.646  17.832   6.869  1.00 20.00    -0.192 NA
HETATM    8  S8  UNL     1     -24.934  18.578  11.068  1.00 20.00    -0.165 SA
ENDROOT
TORSDOF 0
ENDMDL
MODEL 3
REMARK VINA RESULT:      -3.5     12.493     13.041
REMARK  0 active torsions:
REMARK  status: ('A' for Active; 'I' for Inactive)
ROOT
HETATM    1  C1  UNL     1     -33.887  15.102  -5.290  1.00 20.00     0.088 C 
HETATM    2  C2  UNL     1     -33.562  16.612  -3.442  1.00 20.00    -0.060 C 
HETATM    3  C3  UNL     1     -33.650  15.364  -3.917  1.00 20.00     0.097 C 
HETATM    4  C4  UNL     1     -33.312  16.945  -2.001  1.00 20.00     0.046 C 
HETATM    5  C5  UNL     1     -33.795  17.834  -4.279  1.00 20.00     0.108 C 
HETATM    6  C6  UNL     1     -34.278  18.066  -1.651  1.00 20.00     0.078 C 
HETATM    7  N7  UNL     1     -34.082  14.882  -6.412  1.00 20.00    -0.192 NA
HETATM    8  S8  UNL     1     -34.321  19.133  -3.117  1.00 20.00    -0.165 SA
ENDROOT
TORSDOF 0
ENDMDL
MODEL 4
REMARK VINA RESULT:      -3.5     12.560     13.016
REMARK  0 active torsions:
REMARK  status: ('A' for Active; 'I' for Inactive)
ROOT
HETATM    1  C1  UNL     1     -35.208  14.619  -5.757  1.00 20.00     0.088 C 
HETATM    2  C2  UNL     1     -34.038  16.023  -4.188  1.00 20.00    -0.060 C 
HETATM    3  C3  UNL     1     -34.286  14.810  -4.698  1.00 20.00     0.097 C 
HETATM    4  C4  UNL     1     -33.073  16.281  -3.069  1.00 20.00     0.046 C 
HETATM    5  C5  UNL     1     -34.767  17.262  -4.612  1.00 20.00     0.108 C 
HETATM    6  C6  UNL     1     -33.769  17.245  -2.122  1.00 20.00     0.078 C 
HETATM    7  N7  UNL     1     -35.963  14.456  -6.623  1.00 20.00    -0.192 NA
HETATM    8  S8  UNL     1     -34.668  18.400  -3.194  1.00 20.00    -0.165 SA
ENDROOT
TORSDOF 0
ENDMDL
MODEL 5
REMARK VINA RESULT:      -3.5      2.848      3.860
REMARK  0 active torsions:
REMARK  status: ('A' for Active; 'I' for Inactive)
ROOT
HETATM    1  C1  UNL     1     -34.424   6.049   6.134  1.00 20.00     0.088 C 
HETATM    2  C2  UNL     1     -33.017   7.561   4.896  1.00 20.00    -0.060 C 
HETATM    3  C3  UNL     1     -33.783   7.301   5.962  1.00 20.00     0.097 C 
HETATM    4  C4  UNL     1     -32.316   8.867   4.665  1.00 20.00     0.046 C 
HETATM    5  C5  UNL     1     -32.841   6.609   3.752  1.00 20.00     0.108 C 
HETATM    6  C6  UNL     1     -32.538   9.216   3.203  1.00 20.00     0.078 C 
HETATM    7  N7  UNL     1     -34.953   5.026   6.279  1.00 20.00    -0.192 NA
HETATM    8  S8  UNL     1     -32.417   7.640   2.314  1.00 20.00    -0.165 SA
ENDROOT
TORSDOF 0
ENDMDL
MODEL 6
REMARK VINA RESULT:      -3.2     12.565     13.239
REMARK  0 active torsions:
REMARK  status: ('A' for Active; 'I' for Inactive)
ROOT
HETATM    1  C1  UNL     1     -33.118  17.510  -2.258  1.00 20.00     0.088 C 
HETATM    2  C2  UNL     1     -33.980  16.084  -3.998  1.00 20.00    -0.060 C 
HETATM    3  C3  UNL     1     -33.233  16.250  -2.899  1.00 20.00     0.097 C 
HETATM    4  C4  UNL     1     -34.137  14.775  -4.713  1.00 20.00     0.046 C 
HETATM    5  C5  UNL     1     -34.676  17.208  -4.702  1.00 20.00     0.108 C 
HETATM    6  C6  UNL     1     -34.006  15.084  -6.196  1.00 20.00     0.078 C 
HETATM    7  N7  UNL     1     -33.019  18.538  -1.731  1.00 20.00    -0.192 NA
HETATM    8  S8  UNL     1     -34.862  16.665  -6.430  1.00 20.00    -0.165 SA
ENDROOT
TORSDOF 0
ENDMDL
MODEL 7
REMARK VINA RESULT:      -3.2      2.008      2.395
REMARK  0 active torsions:
REMARK  status: ('A' for Active; 'I' for Inactive)
ROOT
HETATM    1  C1  UNL     1     -32.617   8.795   5.192  1.00 20.00     0.088 C 
HETATM    2  C2  UNL     1     -33.781   6.797   4.516  1.00 20.00    -0.060 C 
HETATM    3  C3  UNL     1     -33.564   7.764   5.416  1.00 20.00     0.097 C 
HETATM    4  C4  UNL     1     -34.770   5.685   4.701  1.00 20.00     0.046 C 
HETATM    5  C5  UNL     1     -32.992   6.656   3.249  1.00 20.00     0.108 C 
HETATM    6  C6  UNL     1     -34.068   4.414   4.254  1.00 20.00     0.078 C 
HETATM    7  N7  UNL     1     -31.842   9.640   5.016  1.00 20.00    -0.192 NA
HETATM    8  S8  UNL     1     -33.092   4.894   2.803  1.00 20.00    -0.165 SA
ENDROOT
TORSDOF 0
ENDMDL
MODEL 8
REMARK VINA RESULT:      -3.1     15.202     16.014
REMARK  0 active torsions:
REMARK  status: ('A' for Active; 'I' for Inactive)
ROOT
HETATM    1  C1  UNL     1     -25.651  19.263   7.373  1.00 20.00     0.088 C 
HETATM    2  C2  UNL     1     -23.884  19.201   9.008  1.00 20.00    -0.060 C 
HETATM    3  C3  UNL     1     -24.279  19.261   7.731  1.00 20.00     0.097 C 
HETATM    4  C4  UNL     1     -22.448  19.198   9.443  1.00 20.00     0.046 C 
HETATM    5  C5  UNL     1     -24.829  19.035  10.160  1.00 20.00     0.108 C 
HETATM    6  C6  UNL     1     -22.331  18.126  10.514  1.00 20.00     0.078 C 
HETATM    7  N7  UNL     1     -26.772  19.262   7.073  1.00 20.00    -0.192 NA
HETATM    8  S8  UNL     1     -23.856  18.258  11.487  1.00 20.00    -0.165 SA
ENDROOT
TORSDOF 0
ENDMDL
MODEL 9
REMARK VINA RESULT:      -3.1      9.729     10.277
REMARK  0 active torsions:
REMARK  status: ('A' for Active; 'I' for Inactive)
ROOT
HETATM    1  C1  UNL     1     -39.143  12.048   5.595  1.00 20.00     0.088 C 
HETATM    2  C2  UNL     1     -41.192  12.897   6.534  1.00 20.00    -0.060 C 
HETATM    3  C3  UNL     1     -40.524  11.929   5.895  1.00 20.00     0.097 C 
HETATM    4  C4  UNL     1     -42.651  12.823   6.877  1.00 20.00     0.046 C 
HETATM    5  C5  UNL     1     -40.585  14.216   6.904  1.00 20.00     0.108 C 
HETATM    6  C6  UNL     1     -43.239  14.179   6.524  1.00 20.00     0.078 C 
HETATM    7  N7  UNL     1     -38.014  12.140   5.345  1.00 20.00    -0.192 NA
HETATM    8  S8  UNL     1     -41.975  15.387   7.006  1.00 20.00    -0.165 SA
ENDROOT
TORSDOF 0
ENDMDL
