MODEL 1
REMARK VINA RESULT:      -4.9      0.000      0.000
REMARK  1 active torsions:
REMARK  status: ('A' for Active; 'I' for Inactive)
REMARK    1  A    between atoms: C3_3  and  C6_6 
ROOT
HETATM    1  C1  UNL     1     -32.369   7.941   3.116  1.00 20.00     0.088 C 
HETATM    2  C2  UNL     1     -32.739   8.101   4.480  1.00 20.00     0.096 C 
HETATM    3  C3  UNL     1     -33.544   7.239   5.130  1.00 20.00    -0.070 C 
HETATM    4  C7  UNL     1     -33.957   7.363   6.552  1.00 20.00     0.044 C 
HETATM    5  N8  UNL     1     -32.065   7.815   2.003  1.00 20.00    -0.192 NA
ENDROOT
BRANCH   3   6
HETATM    6  C6  UNL     1     -34.092   6.038   4.400  1.00 20.00     0.015 A 
HETATM    7  C4  UNL     1     -34.559   4.901   5.224  1.00 20.00     0.010 A 
HETATM    8  C5  UNL     1     -35.544   5.781   4.516  1.00 20.00     0.010 A 
ENDBRANCH   3   6
TORSDOF 1
ENDMDL
MODEL 2
REMARK VINA RESULT:      -4.8      1.532      2.336
REMARK  1 active torsions:
REMARK  status: ('A' for Active; 'I' for Inactive)
REMARK    1  A    between atoms: C3_3  and  C6_6 
ROOT
HETATM    1  C1  UNL     1     -32.247   8.457   4.298  1.00 20.00     0.088 C 
HETATM    2  C2  UNL     1     -32.281   7.334   3.425  1.00 20.00     0.096 C 
HETATM    3  C3  UNL     1     -33.125   6.298   3.591  1.00 20.00    -0.070 C 
HETATM    4  C7  UNL     1     -33.198   5.106   2.707  1.00 20.00     0.044 C 
HETATM    5  N8  UNL     1     -32.216   9.374   5.008  1.00 20.00    -0.192 NA
ENDROOT
BRANCH   3   6
HETATM    6  C6  UNL     1     -34.091   6.304   4.750  1.00 20.00     0.015 A 
HETATM    7  C4  UNL     1     -35.465   5.820   4.486  1.00 20.00     0.010 A 
HETATM    8  C5  UNL     1     -34.508   4.991   5.288  1.00 20.00     0.010 A 
ENDBRANCH   3   6
TORSDOF 1
ENDMDL
MODEL 3
REMARK VINA RESULT:      -4.4      1.599      1.735
REMARK  1 active torsions:
REMARK  status: ('A' for Active; 'I' for Inactive)
REMARK    1  A    between atoms: C3_3  and  C6_6 
ROOT
HETATM    1  C1  UNL     1     -32.819   5.817   2.807  1.00 20.00     0.088 C 
HETATM    2  C2  UNL     1     -32.734   6.990   3.606  1.00 20.00     0.096 C 
HETATM    3  C3  UNL     1     -33.556   7.235   4.644  1.00 20.00    -0.070 C 
HETATM    4  C7  UNL     1     -33.506   8.445   5.507  1.00 20.00     0.044 C 
HETATM    5  N8  UNL     1     -32.885   4.861   2.153  1.00 20.00    -0.192 NA
ENDROOT
BRANCH   3   6
HETATM    6  C6  UNL     1     -34.626   6.232   4.999  1.00 20.00     0.015 A 
HETATM    7  C4  UNL     1     -34.186   4.971   5.636  1.00 20.00     0.010 A 
HETATM    8  C5  UNL     1     -34.902   6.017   6.436  1.00 20.00     0.010 A 
ENDBRANCH   3   6
TORSDOF 1
ENDMDL
MODEL 4
REMARK VINA RESULT:      -4.4      1.213      1.602
REMARK  1 active torsions:
REMARK  status: ('A' for Active; 'I' for Inactive)
REMARK    1  A    between atoms: C3_3  and  C6_6 
ROOT
HETATM    1  C1  UNL     1     -32.917   8.324   4.277  1.00 20.00     0.088 C 
HETATM    2  C2  UNL     1     -33.396   7.669   5.445  1.00 20.00     0.096 C 
HETATM    3  C3  UNL     1     -34.067   6.502   5.411  1.00 20.00    -0.070 C 
HETATM    4  C7  UNL     1     -34.586   5.781   6.603  1.00 20.00     0.044 C 
HETATM    5  N8  UNL     1     -32.524   8.862   3.327  1.00 20.00    -0.192 NA
ENDROOT
BRANCH   3   6
HETATM    6  C6  UNL     1     -34.336   5.837   4.084  1.00 20.00     0.015 A 
HETATM    7  C4  UNL     1     -33.164   5.355   3.320  1.00 20.00     0.010 A 
HETATM    8  C5  UNL     1     -34.083   4.382   3.994  1.00 20.00     0.010 A 
ENDBRANCH   3   6
TORSDOF 1
ENDMDL
MODEL 5
REMARK VINA RESULT:      -4.2      2.171      3.724
REMARK  1 active torsions:
REMARK  status: ('A' for Active; 'I' for Inactive)
REMARK    1  A    between atoms: C3_3  and  C6_6 
ROOT
HETATM    1  C1  UNL     1     -34.190   5.128   4.332  1.00 20.00     0.088 C 
HETATM    2  C2  UNL     1     -33.511   5.756   3.251  1.00 20.00     0.096 C 
HETATM    3  C3  UNL     1     -32.800   6.891   3.389  1.00 20.00    -0.070 C 
HETATM    4  C7  UNL     1     -32.074   7.583   2.291  1.00 20.00     0.044 C 
HETATM    5  N8  UNL     1     -34.745   4.612   5.211  1.00 20.00    -0.192 NA
ENDROOT
BRANCH   3   6
HETATM    6  C6  UNL     1     -32.701   7.548   4.744  1.00 20.00     0.015 A 
HETATM    7  C4  UNL     1     -32.326   8.979   4.775  1.00 20.00     0.010 A 
HETATM    8  C5  UNL     1     -33.729   8.555   5.083  1.00 20.00     0.010 A 
ENDBRANCH   3   6
TORSDOF 1
ENDMDL
MODEL 6
REMARK VINA RESULT:      -4.2      1.489      2.813
REMARK  1 active torsions:
REMARK  status: ('A' for Active; 'I' for Inactive)
REMARK    1  A    between atoms: C3_3  and  C6_6 
ROOT
HETATM    1  C1  UNL     1     -33.412   5.055   3.138  1.00 20.00     0.088 C 
HETATM    2  C2  UNL     1     -33.978   5.018   4.442  1.00 20.00     0.096 C 
HETATM    3  C3  UNL     1     -34.231   6.124   5.166  1.00 20.00    -0.070 C 
HETATM    4  C7  UNL     1     -34.821   6.136   6.530  1.00 20.00     0.044 C 
HETATM    5  N8  UNL     1     -32.950   5.080   2.073  1.00 20.00    -0.192 NA
ENDROOT
BRANCH   3   6
HETATM    6  C6  UNL     1     -33.909   7.481   4.589  1.00 20.00     0.015 A 
HETATM    7  C4  UNL     1     -33.650   8.579   5.547  1.00 20.00     0.010 A 
HETATM    8  C5  UNL     1     -32.526   7.977   4.760  1.00 20.00     0.010 A 
ENDBRANCH   3   6
TORSDOF 1
ENDMDL
MODEL 7
REMARK VINA RESULT:      -4.2      2.248      3.398
REMARK  1 active torsions:
REMARK  status: ('A' for Active; 'I' for Inactive)
REMARK    1  A    between atoms: C3_3  and  C6_6 
ROOT
HETATM    1  C1  UNL     1     -34.485   5.928   5.847  1.00 20.00     0.088 C 
HETATM    2  C2  UNL     1     -33.695   7.100   6.004  1.00 20.00     0.096 C 
HETATM    3  C3  UNL     1     -33.153   7.766   4.967  1.00 20.00    -0.070 C 
HETATM    4  C7  UNL     1     -32.321   8.994   5.082  1.00 20.00     0.044 C 
HETATM    5  N8  UNL     1     -35.130   4.972   5.723  1.00 20.00    -0.192 NA
ENDROOT
BRANCH   3   6
HETATM    6  C6  UNL     1     -33.380   7.268   3.562  1.00 20.00     0.015 A 
HETATM    7  C4  UNL     1     -32.310   7.526   2.572  1.00 20.00     0.010 A 
HETATM    8  C5  UNL     1     -32.540   6.142   3.099  1.00 20.00     0.010 A 
ENDBRANCH   3   6
TORSDOF 1
ENDMDL
MODEL 8
REMARK VINA RESULT:      -3.8      2.414      3.935
REMARK  1 active torsions:
REMARK  status: ('A' for Active; 'I' for Inactive)
REMARK    1  A    between atoms: C3_3  and  C6_6 
ROOT
HETATM    1  C1  UNL     1     -34.692   5.559   5.874  1.00 20.00     0.088 C 
HETATM    2  C2  UNL     1     -34.083   5.083   4.680  1.00 20.00     0.096 C 
HETATM    3  C3  UNL     1     -33.540   5.899   3.756  1.00 20.00    -0.070 C 
HETATM    4  C7  UNL     1     -32.894   5.450   2.495  1.00 20.00     0.044 C 
HETATM    5  N8  UNL     1     -35.190   5.942   6.850  1.00 20.00    -0.192 NA
ENDROOT
BRANCH   3   6
HETATM    6  C6  UNL     1     -33.565   7.392   3.975  1.00 20.00     0.015 A 
HETATM    7  C4  UNL     1     -32.511   7.965   4.842  1.00 20.00     0.010 A 
HETATM    8  C5  UNL     1     -32.476   8.182   3.360  1.00 20.00     0.010 A 
ENDBRANCH   3   6
TORSDOF 1
ENDMDL
MODEL 9
REMARK VINA RESULT:      -3.8     15.104     16.324
REMARK  1 active torsions:
REMARK  status: ('A' for Active; 'I' for Inactive)
REMARK    1  A    between atoms: C3_3  and  C6_6 
ROOT
HETATM    1  C1  UNL     1     -22.809  18.907   8.548  1.00 20.00     0.088 C 
HETATM    2  C2  UNL     1     -22.288  18.946   9.871  1.00 20.00     0.096 C 
HETATM    3  C3  UNL     1     -22.937  18.431  10.933  1.00 20.00    -0.070 C 
HETATM    4  C7  UNL     1     -22.434  18.447  12.331  1.00 20.00     0.044 C 
HETATM    5  N8  UNL     1     -23.230  18.878   7.467  1.00 20.00    -0.192 NA
ENDROOT
BRANCH   3   6
HETATM    6  C6  UNL     1     -24.282  17.775  10.737  1.00 20.00     0.015 A 
HETATM    7  C4  UNL     1     -24.398  16.348  11.110  1.00 20.00     0.010 A 
HETATM    8  C5  UNL     1     -25.038  17.408  11.954  1.00 20.00     0.010 A 
ENDBRANCH   3   6
TORSDOF 1
ENDMDL
