MODEL 1
REMARK VINA RESULT:      -3.3      0.000      0.000
REMARK  4 active torsions:
REMARK  status: ('A' for Active; 'I' for Inactive)
REMARK    1  A    between atoms: C4_4  and  C5_5 
REMARK    2  A    between atoms: C4_4  and  O8_8 
REMARK    3  A    between atoms: C5_5  and  S9_9 
REMARK    4  A    between atoms: C6_6  and  S9_9 
ROOT
HETATM    1  C1  UNL     1     -32.499   8.805   1.996  1.00 20.00     0.074 C 
HETATM    2  C2  UNL     1     -32.606   6.465   2.770  1.00 20.00     0.037 C 
HETATM    3  C6  UNL     1     -32.044   7.860   3.025  1.00 20.00     0.150 C 
HETATM    4  N7  UNL     1     -32.855   9.555   1.185  1.00 20.00    -0.196 NA
ENDROOT
BRANCH   3   5
HETATM    5  S9  UNL     1     -32.533   8.410   4.676  1.00 20.00    -0.148 SA
BRANCH   5   6
HETATM    6  C5  UNL     1     -33.926   7.269   4.929  1.00 20.00     0.101 C 
BRANCH   6   7
HETATM    7  C4  UNL     1     -34.033   6.835   6.382  1.00 20.00     0.177 C 
BRANCH   7   8
HETATM    8  O8  UNL     1     -34.434   5.474   6.457  1.00 20.00    -0.395 OA
HETATM    9  C3  UNL     1     -34.707   4.937   5.170  1.00 20.00     0.201 C 
ENDBRANCH   7   8
ENDBRANCH   6   7
ENDBRANCH   5   6
ENDBRANCH   3   5
TORSDOF 4
ENDMDL
MODEL 2
REMARK VINA RESULT:      -3.3     11.810     12.269
REMARK  4 active torsions:
REMARK  status: ('A' for Active; 'I' for Inactive)
REMARK    1  A    between atoms: C4_4  and  C5_5 
REMARK    2  A    between atoms: C4_4  and  O8_8 
REMARK    3  A    between atoms: C5_5  and  S9_9 
REMARK    4  A    between atoms: C6_6  and  S9_9 
ROOT
HETATM    1  C1  UNL     1     -31.833  18.810  -0.493  1.00 20.00     0.074 C 
HETATM    2  C2  UNL     1     -33.997  18.188   0.514  1.00 20.00     0.037 C 
HETATM    3  C6  UNL     1     -33.288  19.002  -0.564  1.00 20.00     0.150 C 
HETATM    4  N7  UNL     1     -30.683  18.663  -0.440  1.00 20.00    -0.196 NA
ENDROOT
BRANCH   3   5
HETATM    5  S9  UNL     1     -33.928  18.532  -2.188  1.00 20.00    -0.148 SA
BRANCH   5   6
HETATM    6  C5  UNL     1     -33.427  16.784  -2.169  1.00 20.00     0.101 C 
BRANCH   6   7
HETATM    7  C4  UNL     1     -33.241  16.244  -3.578  1.00 20.00     0.177 C 
BRANCH   7   8
HETATM    8  O8  UNL     1     -33.852  14.967  -3.696  1.00 20.00    -0.395 OA
HETATM    9  C3  UNL     1     -34.473  14.799  -4.963  1.00 20.00     0.201 C 
ENDBRANCH   7   8
ENDBRANCH   6   7
ENDBRANCH   5   6
ENDBRANCH   3   5
TORSDOF 4
ENDMDL
MODEL 3
REMARK VINA RESULT:      -3.3     15.486     16.223
REMARK  4 active torsions:
REMARK  status: ('A' for Active; 'I' for Inactive)
REMARK    1  A    between atoms: C4_4  and  C5_5 
REMARK    2  A    between atoms: C4_4  and  O8_8 
REMARK    3  A    between atoms: C5_5  and  S9_9 
REMARK    4  A    between atoms: C6_6  and  S9_9 
ROOT
HETATM    1  C1  UNL     1     -24.590  17.108  11.700  1.00 20.00     0.074 C 
HETATM    2  C2  UNL     1     -25.895  19.190  11.908  1.00 20.00     0.037 C 
HETATM    3  C6  UNL     1     -24.608  18.547  11.404  1.00 20.00     0.150 C 
HETATM    4  N7  UNL     1     -24.572  15.971  11.932  1.00 20.00    -0.196 NA
ENDROOT
BRANCH   3   5
HETATM    5  S9  UNL     1     -24.441  18.850   9.630  1.00 20.00    -0.148 SA
BRANCH   5   6
HETATM    6  C5  UNL     1     -22.625  18.833   9.533  1.00 20.00     0.101 C 
BRANCH   6   7
HETATM    7  C4  UNL     1     -22.097  17.436   9.252  1.00 20.00     0.177 C 
BRANCH   7   8
HETATM    8  O8  UNL     1     -22.172  17.156   7.860  1.00 20.00    -0.395 OA
HETATM    9  C3  UNL     1     -21.293  17.982   7.111  1.00 20.00     0.201 C 
ENDBRANCH   7   8
ENDBRANCH   6   7
ENDBRANCH   5   6
ENDBRANCH   3   5
TORSDOF 4
ENDMDL
MODEL 4
REMARK VINA RESULT:      -3.2     11.932     12.672
REMARK  4 active torsions:
REMARK  status: ('A' for Active; 'I' for Inactive)
REMARK    1  A    between atoms: C4_4  and  C5_5 
REMARK    2  A    between atoms: C4_4  and  O8_8 
REMARK    3  A    between atoms: C5_5  and  S9_9 
REMARK    4  A    between atoms: C6_6  and  S9_9 
ROOT
HETATM    1  C1  UNL     1     -31.708  18.483  -0.641  1.00 20.00     0.074 C 
HETATM    2  C2  UNL     1     -33.954  18.048   0.279  1.00 20.00     0.037 C 
HETATM    3  C6  UNL     1     -33.129  18.316  -0.975  1.00 20.00     0.150 C 
HETATM    4  N7  UNL     1     -30.584  18.617  -0.382  1.00 20.00    -0.196 NA
ENDROOT
BRANCH   3   5
HETATM    5  S9  UNL     1     -33.367  16.963  -2.150  1.00 20.00    -0.148 SA
BRANCH   5   6
HETATM    6  C5  UNL     1     -33.525  17.959  -3.664  1.00 20.00     0.101 C 
BRANCH   6   7
HETATM    7  C4  UNL     1     -34.314  17.221  -4.734  1.00 20.00     0.177 C 
BRANCH   7   8
HETATM    8  O8  UNL     1     -34.328  15.827  -4.456  1.00 20.00    -0.395 OA
HETATM    9  C3  UNL     1     -33.976  15.062  -5.600  1.00 20.00     0.201 C 
ENDBRANCH   7   8
ENDBRANCH   6   7
ENDBRANCH   5   6
ENDBRANCH   3   5
TORSDOF 4
ENDMDL
MODEL 5
REMARK VINA RESULT:      -3.2     12.012     12.915
REMARK  4 active torsions:
REMARK  status: ('A' for Active; 'I' for Inactive)
REMARK    1  A    between atoms: C4_4  and  C5_5 
REMARK    2  A    between atoms: C4_4  and  O8_8 
REMARK    3  A    between atoms: C5_5  and  S9_9 
REMARK    4  A    between atoms: C6_6  and  S9_9 
ROOT
HETATM    1  C1  UNL     1     -35.171  14.903  -6.203  1.00 20.00     0.074 C 
HETATM    2  C2  UNL     1     -33.856  14.509  -4.153  1.00 20.00     0.037 C 
HETATM    3  C6  UNL     1     -34.107  15.434  -5.339  1.00 20.00     0.150 C 
HETATM    4  N7  UNL     1     -36.010  14.486  -6.888  1.00 20.00    -0.196 NA
ENDROOT
BRANCH   3   5
HETATM    5  S9  UNL     1     -34.524  17.085  -4.734  1.00 20.00    -0.148 SA
BRANCH   5   6
HETATM    6  C5  UNL     1     -33.353  17.156  -3.344  1.00 20.00     0.101 C 
BRANCH   6   7
HETATM    7  C4  UNL     1     -33.461  18.473  -2.593  1.00 20.00     0.177 C 
BRANCH   7   8
HETATM    8  O8  UNL     1     -32.167  18.937  -2.232  1.00 20.00    -0.395 OA
HETATM    9  C3  UNL     1     -31.852  18.612  -0.886  1.00 20.00     0.201 C 
ENDBRANCH   7   8
ENDBRANCH   6   7
ENDBRANCH   5   6
ENDBRANCH   3   5
TORSDOF 4
ENDMDL
MODEL 6
REMARK VINA RESULT:      -3.1      1.827      2.292
REMARK  4 active torsions:
REMARK  status: ('A' for Active; 'I' for Inactive)
REMARK    1  A    between atoms: C4_4  and  C5_5 
REMARK    2  A    between atoms: C4_4  and  O8_8 
REMARK    3  A    between atoms: C5_5  and  S9_9 
REMARK    4  A    between atoms: C6_6  and  S9_9 
ROOT
HETATM    1  C1  UNL     1     -32.280   8.122   4.002  1.00 20.00     0.074 C 
HETATM    2  C2  UNL     1     -32.334   8.069   1.537  1.00 20.00     0.037 C 
HETATM    3  C6  UNL     1     -31.989   7.309   2.814  1.00 20.00     0.150 C 
HETATM    4  N7  UNL     1     -32.507   8.761   4.944  1.00 20.00    -0.196 NA
ENDROOT
BRANCH   3   5
HETATM    5  S9  UNL     1     -32.906   5.751   2.850  1.00 20.00    -0.148 SA
BRANCH   5   6
HETATM    6  C5  UNL     1     -34.095   6.180   4.157  1.00 20.00     0.101 C 
BRANCH   6   7
HETATM    7  C4  UNL     1     -34.608   4.939   4.870  1.00 20.00     0.177 C 
BRANCH   7   8
HETATM    8  O8  UNL     1     -34.590   5.141   6.277  1.00 20.00    -0.395 OA
HETATM    9  C3  UNL     1     -34.433   6.514   6.606  1.00 20.00     0.201 C 
ENDBRANCH   7   8
ENDBRANCH   6   7
ENDBRANCH   5   6
ENDBRANCH   3   5
TORSDOF 4
ENDMDL
MODEL 7
REMARK VINA RESULT:      -3.1     12.109     13.326
REMARK  4 active torsions:
REMARK  status: ('A' for Active; 'I' for Inactive)
REMARK    1  A    between atoms: C4_4  and  C5_5 
REMARK    2  A    between atoms: C4_4  and  O8_8 
REMARK    3  A    between atoms: C5_5  and  S9_9 
REMARK    4  A    between atoms: C6_6  and  S9_9 
ROOT
HETATM    1  C1  UNL     1     -33.693  15.155  -3.993  1.00 20.00     0.074 C 
HETATM    2  C2  UNL     1     -33.417  16.872  -2.244  1.00 20.00     0.037 C 
HETATM    3  C6  UNL     1     -33.549  16.595  -3.738  1.00 20.00     0.150 C 
HETATM    4  N7  UNL     1     -33.807  14.019  -4.200  1.00 20.00    -0.196 NA
ENDROOT
BRANCH   3   5
HETATM    5  S9  UNL     1     -34.956  17.517  -4.396  1.00 20.00    -0.148 SA
BRANCH   5   6
HETATM    6  C5  UNL     1     -34.736  17.109  -6.155  1.00 20.00     0.101 C 
BRANCH   6   7
HETATM    7  C4  UNL     1     -35.779  16.108  -6.627  1.00 20.00     0.177 C 
BRANCH   7   8
HETATM    8  O8  UNL     1     -35.169  15.115  -7.440  1.00 20.00    -0.395 OA
HETATM    9  C3  UNL     1     -33.804  15.414  -7.697  1.00 20.00     0.201 C 
ENDBRANCH   7   8
ENDBRANCH   6   7
ENDBRANCH   5   6
ENDBRANCH   3   5
TORSDOF 4
ENDMDL
MODEL 8
REMARK VINA RESULT:      -3.1     12.125     12.929
REMARK  4 active torsions:
REMARK  status: ('A' for Active; 'I' for Inactive)
REMARK    1  A    between atoms: C4_4  and  C5_5 
REMARK    2  A    between atoms: C4_4  and  O8_8 
REMARK    3  A    between atoms: C5_5  and  S9_9 
REMARK    4  A    between atoms: C6_6  and  S9_9 
ROOT
HETATM    1  C1  UNL     1     -33.516  17.136  -2.157  1.00 20.00     0.074 C 
HETATM    2  C2  UNL     1     -34.098  17.927  -4.419  1.00 20.00     0.037 C 
HETATM    3  C6  UNL     1     -33.273  16.945  -3.593  1.00 20.00     0.150 C 
HETATM    4  N7  UNL     1     -33.703  17.284  -1.021  1.00 20.00    -0.196 NA
ENDROOT
BRANCH   3   5
HETATM    5  S9  UNL     1     -33.668  15.256  -4.101  1.00 20.00    -0.148 SA
BRANCH   5   6
HETATM    6  C5  UNL     1     -35.035  15.639  -5.239  1.00 20.00     0.101 C 
BRANCH   6   7
HETATM    7  C4  UNL     1     -35.859  14.401  -5.553  1.00 20.00     0.177 C 
BRANCH   7   8
HETATM    8  O8  UNL     1     -36.028  14.270  -6.958  1.00 20.00    -0.395 OA
HETATM    9  C3  UNL     1     -35.636  15.451  -7.644  1.00 20.00     0.201 C 
ENDBRANCH   7   8
ENDBRANCH   6   7
ENDBRANCH   5   6
ENDBRANCH   3   5
TORSDOF 4
ENDMDL
MODEL 9
REMARK VINA RESULT:      -3.0      2.647      3.792
REMARK  4 active torsions:
REMARK  status: ('A' for Active; 'I' for Inactive)
REMARK    1  A    between atoms: C4_4  and  C5_5 
REMARK    2  A    between atoms: C4_4  and  O8_8 
REMARK    3  A    between atoms: C5_5  and  S9_9 
REMARK    4  A    between atoms: C6_6  and  S9_9 
ROOT
HETATM    1  C1  UNL     1     -33.648   5.221   3.643  1.00 20.00     0.074 C 
HETATM    2  C2  UNL     1     -35.899   6.001   4.280  1.00 20.00     0.037 C 
HETATM    3  C6  UNL     1     -34.588   5.389   4.760  1.00 20.00     0.150 C 
HETATM    4  N7  UNL     1     -32.902   5.087   2.764  1.00 20.00    -0.196 NA
ENDROOT
BRANCH   3   5
HETATM    5  S9  UNL     1     -33.880   6.429   6.057  1.00 20.00    -0.148 SA
BRANCH   5   6
HETATM    6  C5  UNL     1     -33.851   8.001   5.143  1.00 20.00     0.101 C 
BRANCH   6   7
HETATM    7  C4  UNL     1     -32.443   8.565   5.051  1.00 20.00     0.177 C 
BRANCH   7   8
HETATM    8  O8  UNL     1     -31.830   8.153   3.837  1.00 20.00    -0.395 OA
HETATM    9  C3  UNL     1     -32.517   8.667   2.704  1.00 20.00     0.201 C 
ENDBRANCH   7   8
ENDBRANCH   6   7
ENDBRANCH   5   6
ENDBRANCH   3   5
TORSDOF 4
ENDMDL
