MODEL 1
REMARK VINA RESULT:      -4.0      0.000      0.000
REMARK  4 active torsions:
REMARK  status: ('A' for Active; 'I' for Inactive)
REMARK    1  A    between atoms: C1_1  and  C9_9 
REMARK    2  A    between atoms: C6_6  and  C7_7 
REMARK    3  A    between atoms: C6_6  and  C8_8 
REMARK    4  A    between atoms: C7_7  and  C9_9 
ROOT
HETATM    1  C7  UNL     1     -34.075   8.088   4.530  1.00 20.00     0.016 C 
ENDROOT
BRANCH   1   2
HETATM    2  C6  UNL     1     -33.920   7.348   5.868  1.00 20.00     0.005 C 
BRANCH   2   3
HETATM    3  C8  UNL     1     -34.766   6.062   5.953  1.00 20.00    -0.023 C 
HETATM    4  C2  UNL     1     -33.901   4.905   6.464  1.00 20.00     0.009 C 
HETATM    5  C3  UNL     1     -35.392   5.683   4.611  1.00 20.00     0.009 C 
ENDBRANCH   2   3
ENDBRANCH   1   2
BRANCH   1   6
HETATM    6  C9  UNL     1     -32.741   8.463   3.839  1.00 20.00     0.006 C 
HETATM    7  C4  UNL     1     -31.816   9.132   4.868  1.00 20.00     0.022 C 
HETATM    8  C5  UNL     1     -32.952   9.418   2.657  1.00 20.00     0.022 C 
BRANCH   6   9
HETATM    9  C1  UNL     1     -32.042   7.185   3.384  1.00 20.00     0.239 C 
HETATM   10  O10 UNL     1     -32.573   6.294   2.728  1.00 20.00    -0.306 OA
ENDBRANCH   6   9
ENDBRANCH   1   6
TORSDOF 4
ENDMDL
MODEL 2
REMARK VINA RESULT:      -3.8      1.051      1.767
REMARK  4 active torsions:
REMARK  status: ('A' for Active; 'I' for Inactive)
REMARK    1  A    between atoms: C1_1  and  C9_9 
REMARK    2  A    between atoms: C6_6  and  C7_7 
REMARK    3  A    between atoms: C6_6  and  C8_8 
REMARK    4  A    between atoms: C7_7  and  C9_9 
ROOT
HETATM    1  C7  UNL     1     -34.071   8.046   4.425  1.00 20.00     0.016 C 
ENDROOT
BRANCH   1   2
HETATM    2  C6  UNL     1     -33.997   7.410   5.823  1.00 20.00     0.005 C 
BRANCH   2   3
HETATM    3  C8  UNL     1     -34.789   6.093   5.934  1.00 20.00    -0.023 C 
HETATM    4  C2  UNL     1     -33.898   5.001   6.536  1.00 20.00     0.009 C 
HETATM    5  C3  UNL     1     -35.340   5.625   4.587  1.00 20.00     0.009 C 
ENDBRANCH   2   3
ENDBRANCH   1   2
BRANCH   1   6
HETATM    6  C9  UNL     1     -32.700   8.422   3.811  1.00 20.00     0.006 C 
HETATM    7  C4  UNL     1     -32.131   7.200   3.071  1.00 20.00     0.022 C 
HETATM    8  C5  UNL     1     -31.696   8.877   4.877  1.00 20.00     0.022 C 
BRANCH   6   9
HETATM    9  C1  UNL     1     -32.908   9.512   2.763  1.00 20.00     0.239 C 
HETATM   10  O10 UNL     1     -32.759   9.355   1.554  1.00 20.00    -0.306 OA
ENDBRANCH   6   9
ENDBRANCH   1   6
TORSDOF 4
ENDMDL
MODEL 3
REMARK VINA RESULT:      -3.7      1.297      4.078
REMARK  4 active torsions:
REMARK  status: ('A' for Active; 'I' for Inactive)
REMARK    1  A    between atoms: C1_1  and  C9_9 
REMARK    2  A    between atoms: C6_6  and  C7_7 
REMARK    3  A    between atoms: C6_6  and  C8_8 
REMARK    4  A    between atoms: C7_7  and  C9_9 
ROOT
HETATM    1  C7  UNL     1     -33.404   7.016   5.594  1.00 20.00     0.016 C 
ENDROOT
BRANCH   1   2
HETATM    2  C6  UNL     1     -33.619   8.122   4.547  1.00 20.00     0.005 C 
BRANCH   2   3
HETATM    3  C8  UNL     1     -32.467   8.226   3.528  1.00 20.00    -0.023 C 
HETATM    4  C2  UNL     1     -32.772   9.332   2.513  1.00 20.00     0.009 C 
HETATM    5  C3  UNL     1     -32.214   6.909   2.795  1.00 20.00     0.009 C 
ENDBRANCH   2   3
ENDBRANCH   1   2
BRANCH   1   6
HETATM    6  C9  UNL     1     -34.433   5.861   5.536  1.00 20.00     0.006 C 
HETATM    7  C4  UNL     1     -35.487   6.182   4.464  1.00 20.00     0.022 C 
HETATM    8  C5  UNL     1     -35.135   5.644   6.882  1.00 20.00     0.022 C 
BRANCH   6   9
HETATM    9  C1  UNL     1     -33.723   4.586   5.085  1.00 20.00     0.239 C 
HETATM   10  O10 UNL     1     -34.046   3.916   4.109  1.00 20.00    -0.306 OA
ENDBRANCH   6   9
ENDBRANCH   1   6
TORSDOF 4
ENDMDL
MODEL 4
REMARK VINA RESULT:      -3.6     11.786     12.691
REMARK  4 active torsions:
REMARK  status: ('A' for Active; 'I' for Inactive)
REMARK    1  A    between atoms: C1_1  and  C9_9 
REMARK    2  A    between atoms: C6_6  and  C7_7 
REMARK    3  A    between atoms: C6_6  and  C8_8 
REMARK    4  A    between atoms: C7_7  and  C9_9 
ROOT
HETATM    1  C7  UNL     1     -33.313  16.987  -1.849  1.00 20.00     0.016 C 
ENDROOT
BRANCH   1   2
HETATM    2  C6  UNL     1     -33.204  17.086  -3.380  1.00 20.00     0.005 C 
BRANCH   2   3
HETATM    3  C8  UNL     1     -34.090  16.064  -4.120  1.00 20.00    -0.023 C 
HETATM    4  C2  UNL     1     -33.317  14.757  -4.320  1.00 20.00     0.009 C 
HETATM    5  C3  UNL     1     -34.581  16.584  -5.470  1.00 20.00     0.009 C 
ENDBRANCH   2   3
ENDBRANCH   1   2
BRANCH   1   6
HETATM    6  C9  UNL     1     -33.415  18.348  -1.118  1.00 20.00     0.006 C 
HETATM    7  C4  UNL     1     -33.701  18.095   0.371  1.00 20.00     0.022 C 
HETATM    8  C5  UNL     1     -34.524  19.234  -1.700  1.00 20.00     0.022 C 
BRANCH   6   9
HETATM    9  C1  UNL     1     -32.064  19.054  -1.192  1.00 20.00     0.239 C 
HETATM   10  O10 UNL     1     -31.022  18.618  -0.711  1.00 20.00    -0.306 OA
ENDBRANCH   6   9
ENDBRANCH   1   6
TORSDOF 4
ENDMDL
MODEL 5
REMARK VINA RESULT:      -3.6     11.405     12.651
REMARK  4 active torsions:
REMARK  status: ('A' for Active; 'I' for Inactive)
REMARK    1  A    between atoms: C1_1  and  C9_9 
REMARK    2  A    between atoms: C6_6  and  C7_7 
REMARK    3  A    between atoms: C6_6  and  C8_8 
REMARK    4  A    between atoms: C7_7  and  C9_9 
ROOT
HETATM    1  C7  UNL     1     -34.377  16.489  -4.417  1.00 20.00     0.016 C 
ENDROOT
BRANCH   1   2
HETATM    2  C6  UNL     1     -33.546  16.065  -3.195  1.00 20.00     0.005 C 
BRANCH   2   3
HETATM    3  C8  UNL     1     -32.971  17.259  -2.406  1.00 20.00    -0.023 C 
HETATM    4  C2  UNL     1     -33.736  17.427  -1.090  1.00 20.00     0.009 C 
HETATM    5  C3  UNL     1     -33.021  18.563  -3.201  1.00 20.00     0.009 C 
ENDBRANCH   2   3
ENDBRANCH   1   2
BRANCH   1   6
HETATM    6  C9  UNL     1     -34.969  15.316  -5.236  1.00 20.00     0.006 C 
HETATM    7  C4  UNL     1     -34.114  15.104  -6.496  1.00 20.00     0.022 C 
HETATM    8  C5  UNL     1     -36.422  15.577  -5.652  1.00 20.00     0.022 C 
BRANCH   6   9
HETATM    9  C1  UNL     1     -34.864  14.034  -4.414  1.00 20.00     0.239 C 
HETATM   10  O10 UNL     1     -35.728  13.163  -4.367  1.00 20.00    -0.306 OA
ENDBRANCH   6   9
ENDBRANCH   1   6
TORSDOF 4
ENDMDL
MODEL 6
REMARK VINA RESULT:      -3.6     11.613     12.825
REMARK  4 active torsions:
REMARK  status: ('A' for Active; 'I' for Inactive)
REMARK    1  A    between atoms: C1_1  and  C9_9 
REMARK    2  A    between atoms: C6_6  and  C7_7 
REMARK    3  A    between atoms: C6_6  and  C8_8 
REMARK    4  A    between atoms: C7_7  and  C9_9 
ROOT
HETATM    1  C7  UNL     1     -34.068  16.677  -4.372  1.00 20.00     0.016 C 
ENDROOT
BRANCH   1   2
HETATM    2  C6  UNL     1     -33.320  16.335  -3.073  1.00 20.00     0.005 C 
BRANCH   2   3
HETATM    3  C8  UNL     1     -33.677  17.271  -1.901  1.00 20.00    -0.023 C 
HETATM    4  C2  UNL     1     -34.713  18.302  -2.358  1.00 20.00     0.009 C 
HETATM    5  C3  UNL     1     -32.453  17.987  -1.331  1.00 20.00     0.009 C 
ENDBRANCH   2   3
ENDBRANCH   1   2
BRANCH   1   6
HETATM    6  C9  UNL     1     -34.629  15.454  -5.138  1.00 20.00     0.006 C 
HETATM    7  C4  UNL     1     -34.518  14.209  -4.243  1.00 20.00     0.022 C 
HETATM    8  C5  UNL     1     -33.876  15.199  -6.449  1.00 20.00     0.022 C 
BRANCH   6   9
HETATM    9  C1  UNL     1     -36.117  15.673  -5.401  1.00 20.00     0.239 C 
HETATM   10  O10 UNL     1     -36.971  14.794  -5.348  1.00 20.00    -0.306 OA
ENDBRANCH   6   9
ENDBRANCH   1   6
TORSDOF 4
ENDMDL
MODEL 7
REMARK VINA RESULT:      -3.6     11.685     12.958
REMARK  4 active torsions:
REMARK  status: ('A' for Active; 'I' for Inactive)
REMARK    1  A    between atoms: C1_1  and  C9_9 
REMARK    2  A    between atoms: C6_6  and  C7_7 
REMARK    3  A    between atoms: C6_6  and  C8_8 
REMARK    4  A    between atoms: C7_7  and  C9_9 
ROOT
HETATM    1  C7  UNL     1     -34.023  16.641  -4.405  1.00 20.00     0.016 C 
ENDROOT
BRANCH   1   2
HETATM    2  C6  UNL     1     -33.281  16.349  -3.091  1.00 20.00     0.005 C 
BRANCH   2   3
HETATM    3  C8  UNL     1     -33.695  17.285  -1.938  1.00 20.00    -0.023 C 
HETATM    4  C2  UNL     1     -34.703  18.321  -2.447  1.00 20.00     0.009 C 
HETATM    5  C3  UNL     1     -32.500  17.997  -1.304  1.00 20.00     0.009 C 
ENDBRANCH   2   3
ENDBRANCH   1   2
BRANCH   1   6
HETATM    6  C9  UNL     1     -34.633  15.396  -5.095  1.00 20.00     0.006 C 
HETATM    7  C4  UNL     1     -36.102  15.686  -5.443  1.00 20.00     0.022 C 
HETATM    8  C5  UNL     1     -34.564  14.150  -4.203  1.00 20.00     0.022 C 
BRANCH   6   9
HETATM    9  C1  UNL     1     -33.908  15.156  -6.417  1.00 20.00     0.239 C 
HETATM   10  O10 UNL     1     -34.459  15.085  -7.511  1.00 20.00    -0.306 OA
ENDBRANCH   6   9
ENDBRANCH   1   6
TORSDOF 4
ENDMDL
MODEL 8
REMARK VINA RESULT:      -3.5      9.451     10.438
REMARK  4 active torsions:
REMARK  status: ('A' for Active; 'I' for Inactive)
REMARK    1  A    between atoms: C1_1  and  C9_9 
REMARK    2  A    between atoms: C6_6  and  C7_7 
REMARK    3  A    between atoms: C6_6  and  C8_8 
REMARK    4  A    between atoms: C7_7  and  C9_9 
ROOT
HETATM    1  C7  UNL     1     -40.644  13.959   6.421  1.00 20.00     0.016 C 
ENDROOT
BRANCH   1   2
HETATM    2  C6  UNL     1     -40.816  13.006   5.226  1.00 20.00     0.005 C 
BRANCH   2   3
HETATM    3  C8  UNL     1     -39.813  11.836   5.232  1.00 20.00    -0.023 C 
HETATM    4  C2  UNL     1     -38.876  11.962   6.438  1.00 20.00     0.009 C 
HETATM    5  C3  UNL     1     -38.990  11.762   3.946  1.00 20.00     0.009 C 
ENDBRANCH   2   3
ENDBRANCH   1   2
BRANCH   1   6
HETATM    6  C9  UNL     1     -41.900  14.110   7.313  1.00 20.00     0.006 C 
HETATM    7  C4  UNL     1     -42.708  12.803   7.266  1.00 20.00     0.022 C 
HETATM    8  C5  UNL     1     -42.794  15.271   6.859  1.00 20.00     0.022 C 
BRANCH   6   9
HETATM    9  C1  UNL     1     -41.459  14.301   8.762  1.00 20.00     0.239 C 
HETATM   10  O10 UNL     1     -40.537  13.693   9.296  1.00 20.00    -0.306 OA
ENDBRANCH   6   9
ENDBRANCH   1   6
TORSDOF 4
ENDMDL
MODEL 9
REMARK VINA RESULT:      -3.5      1.927      4.390
REMARK  4 active torsions:
REMARK  status: ('A' for Active; 'I' for Inactive)
REMARK    1  A    between atoms: C1_1  and  C9_9 
REMARK    2  A    between atoms: C6_6  and  C7_7 
REMARK    3  A    between atoms: C6_6  and  C8_8 
REMARK    4  A    between atoms: C7_7  and  C9_9 
ROOT
HETATM    1  C7  UNL     1     -33.508   6.856   4.414  1.00 20.00     0.016 C 
ENDROOT
BRANCH   1   2
HETATM    2  C6  UNL     1     -32.772   6.619   3.085  1.00 20.00     0.005 C 
BRANCH   2   3
HETATM    3  C8  UNL     1     -31.991   7.855   2.594  1.00 20.00    -0.023 C 
HETATM    4  C2  UNL     1     -32.374   9.077   3.434  1.00 20.00     0.009 C 
HETATM    5  C3  UNL     1     -32.232   8.150   1.114  1.00 20.00     0.009 C 
ENDBRANCH   2   3
ENDBRANCH   1   2
BRANCH   1   6
HETATM    6  C9  UNL     1     -34.547   5.768   4.782  1.00 20.00     0.006 C 
HETATM    7  C4  UNL     1     -34.002   4.393   4.360  1.00 20.00     0.022 C 
HETATM    8  C5  UNL     1     -35.898   6.005   4.096  1.00 20.00     0.022 C 
BRANCH   6   9
HETATM    9  C1  UNL     1     -34.709   5.729   6.299  1.00 20.00     0.239 C 
HETATM   10  O10 UNL     1     -34.584   6.700   7.039  1.00 20.00    -0.306 OA
ENDBRANCH   6   9
ENDBRANCH   1   6
TORSDOF 4
ENDMDL
