MODEL 1
REMARK VINA RESULT:      -4.7      0.000      0.000
REMARK  2 active torsions:
REMARK  status: ('A' for Active; 'I' for Inactive)
REMARK    1  A    between atoms: C6_6  and  C9_9 
REMARK    2  A    between atoms: C10_10  and  N12_12 
ROOT
HETATM    1  C1  UNL     1     -35.583  14.086  -4.865  1.00 20.00     0.092 C 
HETATM    2  C8  UNL     1     -34.022  15.202  -6.426  1.00 20.00     0.056 C 
HETATM    3  C10 UNL     1     -35.184  15.365  -5.460  1.00 20.00     0.289 C 
HETATM    4  N11 UNL     1     -35.900  13.074  -4.394  1.00 20.00    -0.195 NA
ENDROOT
BRANCH   3   5
HETATM    5  N12 UNL     1     -34.758  16.305  -4.365  1.00 20.00    -0.055 N 
HETATM    6  C4  UNL     1     -34.513  17.698  -4.891  1.00 20.00     0.237 C 
HETATM    7  C2  UNL     1     -34.208  18.632  -3.729  1.00 20.00     0.032 C 
HETATM    8  C6  UNL     1     -33.023  18.133  -2.893  1.00 20.00    -0.012 C 
HETATM    9  C3  UNL     1     -33.264  16.692  -2.431  1.00 20.00     0.032 C 
HETATM   10  C5  UNL     1     -33.573  15.767  -3.601  1.00 20.00     0.237 C 
HETATM   11  H31 UNL     1     -35.547  16.361  -3.707  1.00 20.00     0.281 HD
BRANCH   8  12
HETATM   12  C9  UNL     1     -32.776  19.052  -1.700  1.00 20.00     0.000 C 
HETATM   13  C7  UNL     1     -31.763  18.480  -0.763  1.00 20.00     0.005 C 
ENDBRANCH   8  12
ENDBRANCH   3   5
TORSDOF 2
ENDMDL
MODEL 2
REMARK VINA RESULT:      -4.4      2.122      5.191
REMARK  2 active torsions:
REMARK  status: ('A' for Active; 'I' for Inactive)
REMARK    1  A    between atoms: C6_6  and  C9_9 
REMARK    2  A    between atoms: C10_10  and  N12_12 
ROOT
HETATM    1  C1  UNL     1     -31.733  18.751  -0.835  1.00 20.00     0.092 C 
HETATM    2  C8  UNL     1     -34.176  18.575  -0.490  1.00 20.00     0.056 C 
HETATM    3  C10 UNL     1     -33.052  18.957  -1.440  1.00 20.00     0.289 C 
HETATM    4  N11 UNL     1     -30.688  18.589  -0.357  1.00 20.00    -0.195 NA
ENDROOT
BRANCH   3   5
HETATM    5  N12 UNL     1     -33.166  18.102  -2.673  1.00 20.00    -0.055 N 
HETATM    6  C4  UNL     1     -34.229  18.619  -3.612  1.00 20.00     0.237 C 
HETATM    7  C2  UNL     1     -34.217  17.797  -4.893  1.00 20.00     0.032 C 
HETATM    8  C6  UNL     1     -34.400  16.301  -4.610  1.00 20.00    -0.012 C 
HETATM    9  C3  UNL     1     -33.355  15.815  -3.599  1.00 20.00     0.032 C 
HETATM   10  C5  UNL     1     -33.372  16.648  -2.324  1.00 20.00     0.237 C 
HETATM   11  H31 UNL     1     -32.263  18.175  -3.162  1.00 20.00     0.281 HD
BRANCH   8  12
HETATM   12  C9  UNL     1     -34.323  15.491  -5.901  1.00 20.00     0.000 C 
HETATM   13  C7  UNL     1     -35.584  14.731  -6.153  1.00 20.00     0.005 C 
ENDBRANCH   8  12
ENDBRANCH   3   5
TORSDOF 2
ENDMDL
MODEL 3
REMARK VINA RESULT:      -4.4      1.283      1.457
REMARK  2 active torsions:
REMARK  status: ('A' for Active; 'I' for Inactive)
REMARK    1  A    between atoms: C6_6  and  C9_9 
REMARK    2  A    between atoms: C10_10  and  N12_12 
ROOT
HETATM    1  C1  UNL     1     -36.063  15.481  -5.575  1.00 20.00     0.092 C 
HETATM    2  C8  UNL     1     -34.784  17.432  -6.397  1.00 20.00     0.056 C 
HETATM    3  C10 UNL     1     -35.773  16.904  -5.370  1.00 20.00     0.289 C 
HETATM    4  N11 UNL     1     -36.295  14.356  -5.736  1.00 20.00    -0.195 NA
ENDROOT
BRANCH   3   5
HETATM    5  N12 UNL     1     -35.175  17.091  -4.002  1.00 20.00    -0.055 N 
HETATM    6  C4  UNL     1     -35.237  18.533  -3.560  1.00 20.00     0.237 C 
HETATM    7  C2  UNL     1     -34.737  18.646  -2.127  1.00 20.00     0.032 C 
HETATM    8  C6  UNL     1     -33.323  18.073  -1.971  1.00 20.00    -0.012 C 
HETATM    9  C3  UNL     1     -33.269  16.632  -2.492  1.00 20.00     0.032 C 
HETATM   10  C5  UNL     1     -33.776  16.530  -3.924  1.00 20.00     0.237 C 
HETATM   11  H31 UNL     1     -35.760  16.547  -3.352  1.00 20.00     0.281 HD
BRANCH   8  12
HETATM   12  C9  UNL     1     -32.868  18.141  -0.516  1.00 20.00     0.000 C 
HETATM   13  C7  UNL     1     -31.421  18.498  -0.405  1.00 20.00     0.005 C 
ENDBRANCH   8  12
ENDBRANCH   3   5
TORSDOF 2
ENDMDL
MODEL 4
REMARK VINA RESULT:      -4.3      1.652      2.317
REMARK  2 active torsions:
REMARK  status: ('A' for Active; 'I' for Inactive)
REMARK    1  A    between atoms: C6_6  and  C9_9 
REMARK    2  A    between atoms: C10_10  and  N12_12 
ROOT
HETATM    1  C1  UNL     1     -36.113  16.161  -6.734  1.00 20.00     0.092 C 
HETATM    2  C8  UNL     1     -33.942  15.505  -7.721  1.00 20.00     0.056 C 
HETATM    3  C10 UNL     1     -34.733  16.581  -6.996  1.00 20.00     0.289 C 
HETATM    4  N11 UNL     1     -37.206  15.831  -6.527  1.00 20.00    -0.195 NA
ENDROOT
BRANCH   3   5
HETATM    5  N12 UNL     1     -34.050  16.865  -5.686  1.00 20.00    -0.055 N 
HETATM    6  C4  UNL     1     -34.047  15.653  -4.785  1.00 20.00     0.237 C 
HETATM    7  C2  UNL     1     -33.238  15.955  -3.532  1.00 20.00     0.032 C 
HETATM    8  C6  UNL     1     -33.765  17.195  -2.800  1.00 20.00    -0.012 C 
HETATM    9  C3  UNL     1     -33.827  18.394  -3.753  1.00 20.00     0.032 C 
HETATM   10  C5  UNL     1     -34.634  18.080  -5.006  1.00 20.00     0.237 C 
HETATM   11  H31 UNL     1     -33.069  17.082  -5.910  1.00 20.00     0.281 HD
BRANCH   8  12
HETATM   12  C9  UNL     1     -32.902  17.514  -1.582  1.00 20.00     0.000 C 
HETATM   13  C7  UNL     1     -33.732  17.917  -0.407  1.00 20.00     0.005 C 
ENDBRANCH   8  12
ENDBRANCH   3   5
TORSDOF 2
ENDMDL
MODEL 5
REMARK VINA RESULT:      -3.9      2.548      4.431
REMARK  2 active torsions:
REMARK  status: ('A' for Active; 'I' for Inactive)
REMARK    1  A    between atoms: C6_6  and  C9_9 
REMARK    2  A    between atoms: C10_10  and  N12_12 
ROOT
HETATM    1  C1  UNL     1     -33.530  17.034  -2.846  1.00 20.00     0.092 C 
HETATM    2  C8  UNL     1     -32.924  19.262  -3.733  1.00 20.00     0.056 C 
HETATM    3  C10 UNL     1     -33.670  18.482  -2.663  1.00 20.00     0.289 C 
HETATM    4  N11 UNL     1     -33.421  15.888  -2.989  1.00 20.00    -0.195 NA
ENDROOT
BRANCH   3   5
HETATM    5  N12 UNL     1     -33.106  18.865  -1.322  1.00 20.00    -0.055 N 
HETATM    6  C4  UNL     1     -31.678  18.400  -1.166  1.00 20.00     0.237 C 
HETATM    7  C2  UNL     1     -31.117  18.919   0.150  1.00 20.00     0.032 C 
HETATM    8  C6  UNL     1     -31.978  18.491   1.344  1.00 20.00    -0.012 C 
HETATM    9  C3  UNL     1     -33.437  18.910   1.130  1.00 20.00     0.032 C 
HETATM   10  C5  UNL     1     -33.987  18.391  -0.192  1.00 20.00     0.237 C 
HETATM   11  H31 UNL     1     -33.097  19.894  -1.293  1.00 20.00     0.281 HD
BRANCH   8  12
HETATM   12  C9  UNL     1     -31.431  19.073   2.644  1.00 20.00     0.000 C 
HETATM   13  C7  UNL     1     -29.965  18.824   2.788  1.00 20.00     0.005 C 
ENDBRANCH   8  12
ENDBRANCH   3   5
TORSDOF 2
ENDMDL
MODEL 6
REMARK VINA RESULT:      -3.8      1.899      5.114
REMARK  2 active torsions:
REMARK  status: ('A' for Active; 'I' for Inactive)
REMARK    1  A    between atoms: C6_6  and  C9_9 
REMARK    2  A    between atoms: C10_10  and  N12_12 
ROOT
HETATM    1  C1  UNL     1     -33.661  17.764  -0.736  1.00 20.00     0.092 C 
HETATM    2  C8  UNL     1     -32.843  19.090  -2.657  1.00 20.00     0.056 C 
HETATM    3  C10 UNL     1     -33.013  17.707  -2.050  1.00 20.00     0.289 C 
HETATM    4  N11 UNL     1     -34.174  17.807   0.304  1.00 20.00    -0.195 NA
ENDROOT
BRANCH   3   5
HETATM    5  N12 UNL     1     -33.861  16.884  -2.981  1.00 20.00    -0.055 N 
HETATM    6  C4  UNL     1     -33.105  15.693  -3.517  1.00 20.00     0.237 C 
HETATM    7  C2  UNL     1     -34.042  14.831  -4.350  1.00 20.00     0.032 C 
HETATM    8  C6  UNL     1     -34.698  15.632  -5.481  1.00 20.00    -0.012 C 
HETATM    9  C3  UNL     1     -35.399  16.875  -4.920  1.00 20.00     0.032 C 
HETATM   10  C5  UNL     1     -34.454  17.728  -4.084  1.00 20.00     0.237 C 
HETATM   11  H31 UNL     1     -34.643  16.522  -2.418  1.00 20.00     0.281 HD
BRANCH   8  12
HETATM   12  C9  UNL     1     -35.679  14.763  -6.263  1.00 20.00     0.000 C 
HETATM   13  C7  UNL     1     -35.917  15.298  -7.638  1.00 20.00     0.005 C 
ENDBRANCH   8  12
ENDBRANCH   3   5
TORSDOF 2
ENDMDL
MODEL 7
REMARK VINA RESULT:      -3.8      1.413      2.516
REMARK  2 active torsions:
REMARK  status: ('A' for Active; 'I' for Inactive)
REMARK    1  A    between atoms: C6_6  and  C9_9 
REMARK    2  A    between atoms: C10_10  and  N12_12 
ROOT
HETATM    1  C1  UNL     1     -35.008  16.690  -7.096  1.00 20.00     0.092 C 
HETATM    2  C8  UNL     1     -35.502  14.786  -5.596  1.00 20.00     0.056 C 
HETATM    3  C10 UNL     1     -34.468  15.796  -6.066  1.00 20.00     0.289 C 
HETATM    4  N11 UNL     1     -35.433  17.398  -7.911  1.00 20.00    -0.195 NA
ENDROOT
BRANCH   3   5
HETATM    5  N12 UNL     1     -34.038  16.616  -4.880  1.00 20.00    -0.055 N 
HETATM    6  C4  UNL     1     -33.463  15.751  -3.785  1.00 20.00     0.237 C 
HETATM    7  C2  UNL     1     -32.931  16.636  -2.667  1.00 20.00     0.032 C 
HETATM    8  C6  UNL     1     -34.011  17.579  -2.125  1.00 20.00    -0.012 C 
HETATM    9  C3  UNL     1     -34.631  18.395  -3.265  1.00 20.00     0.032 C 
HETATM   10  C5  UNL     1     -35.155  17.500  -4.381  1.00 20.00     0.237 C 
HETATM   11  H31 UNL     1     -33.284  17.233  -5.211  1.00 20.00     0.281 HD
BRANCH   8  12
HETATM   12  C9  UNL     1     -33.440  18.498  -1.049  1.00 20.00     0.000 C 
HETATM   13  C7  UNL     1     -31.967  18.308  -0.885  1.00 20.00     0.005 C 
ENDBRANCH   8  12
ENDBRANCH   3   5
TORSDOF 2
ENDMDL
MODEL 8
REMARK VINA RESULT:      -3.7      2.335      5.438
REMARK  2 active torsions:
REMARK  status: ('A' for Active; 'I' for Inactive)
REMARK    1  A    between atoms: C6_6  and  C9_9 
REMARK    2  A    between atoms: C10_10  and  N12_12 
ROOT
HETATM    1  C1  UNL     1     -31.923  18.797  -0.474  1.00 20.00     0.092 C 
HETATM    2  C8  UNL     1     -33.998  18.274   0.768  1.00 20.00     0.056 C 
HETATM    3  C10 UNL     1     -33.386  18.901  -0.474  1.00 20.00     0.289 C 
HETATM    4  N11 UNL     1     -30.766  18.716  -0.475  1.00 20.00    -0.195 NA
ENDROOT
BRANCH   3   5
HETATM    5  N12 UNL     1     -33.929  18.184  -1.681  1.00 20.00    -0.055 N 
HETATM    6  C4  UNL     1     -33.093  16.978  -2.034  1.00 20.00     0.237 C 
HETATM    7  C2  UNL     1     -33.753  16.222  -3.178  1.00 20.00     0.032 C 
HETATM    8  C6  UNL     1     -33.982  17.121  -4.398  1.00 20.00    -0.012 C 
HETATM    9  C3  UNL     1     -34.770  18.374  -4.000  1.00 20.00     0.032 C 
HETATM   10  C5  UNL     1     -34.104  19.120  -2.852  1.00 20.00     0.237 C 
HETATM   11  H31 UNL     1     -34.864  17.843  -1.419  1.00 20.00     0.281 HD
BRANCH   8  12
HETATM   12  C9  UNL     1     -34.699  16.358  -5.508  1.00 20.00     0.000 C 
HETATM   13  C7  UNL     1     -35.604  17.249  -6.295  1.00 20.00     0.005 C 
ENDBRANCH   8  12
ENDBRANCH   3   5
TORSDOF 2
ENDMDL
MODEL 9
REMARK VINA RESULT:      -3.6      4.459      7.579
REMARK  2 active torsions:
REMARK  status: ('A' for Active; 'I' for Inactive)
REMARK    1  A    between atoms: C6_6  and  C9_9 
REMARK    2  A    between atoms: C10_10  and  N12_12 
ROOT
HETATM    1  C1  UNL     1     -29.459  18.634   3.175  1.00 20.00     0.092 C 
HETATM    2  C8  UNL     1     -31.660  19.125   4.192  1.00 20.00     0.056 C 
HETATM    3  C10 UNL     1     -30.768  19.262   2.969  1.00 20.00     0.289 C 
HETATM    4  N11 UNL     1     -28.423  18.137   3.337  1.00 20.00    -0.195 NA
ENDROOT
BRANCH   3   5
HETATM    5  N12 UNL     1     -31.455  18.597   1.807  1.00 20.00    -0.055 N 
HETATM    6  C4  UNL     1     -30.785  18.933   0.497  1.00 20.00     0.237 C 
HETATM    7  C2  UNL     1     -31.438  18.139  -0.625  1.00 20.00     0.032 C 
HETATM    8  C6  UNL     1     -32.950  18.385  -0.690  1.00 20.00    -0.012 C 
HETATM    9  C3  UNL     1     -33.598  18.106   0.671  1.00 20.00     0.032 C 
HETATM   10  C5  UNL     1     -32.933  18.901   1.787  1.00 20.00     0.237 C 
HETATM   11  H31 UNL     1     -31.353  17.582   1.952  1.00 20.00     0.281 HD
BRANCH   8  12
HETATM   12  C9  UNL     1     -33.592  17.533  -1.781  1.00 20.00     0.000 C 
HETATM   13  C7  UNL     1     -34.264  18.374  -2.817  1.00 20.00     0.005 C 
ENDBRANCH   8  12
ENDBRANCH   3   5
TORSDOF 2
ENDMDL
