MODEL 1
REMARK VINA RESULT:      -5.7      0.000      0.000
REMARK  2 active torsions:
REMARK  status: ('A' for Active; 'I' for Inactive)
REMARK    1  A    between atoms: C3_3  and  C8_8 
REMARK    2  A    between atoms: C7_7  and  C8_8 
ROOT
HETATM    1  C1  UNL     1     -33.346   7.751   5.006  1.00 20.00     0.053 A 
HETATM    2  C2  UNL     1     -34.411   5.660   5.582  1.00 20.00     0.087 A 
HETATM    3  C3  UNL     1     -32.906   7.195   3.805  1.00 20.00    -0.007 A 
HETATM    4  C4  UNL     1     -34.099   6.984   5.895  1.00 20.00     0.120 A 
HETATM    5  C5  UNL     1     -33.971   5.105   4.381  1.00 20.00     0.158 A 
HETATM    6  C6  UNL     1     -33.219   5.872   3.492  1.00 20.00     0.161 A 
HETATM    7  F10 UNL     1     -34.520   7.517   7.049  1.00 20.00    -0.206 F 
HETATM    8  F11 UNL     1     -34.273   3.835   4.082  1.00 20.00    -0.203 F 
HETATM    9  F12 UNL     1     -32.801   5.330   2.340  1.00 20.00    -0.202 F 
ENDROOT
BRANCH   3  10
HETATM   10  C8  UNL     1     -32.101   8.018   2.856  1.00 20.00     0.111 C 
BRANCH  10  11
HETATM   11  C7  UNL     1     -32.863   9.173   2.244  1.00 20.00     0.235 C 
HETATM   12  O9  UNL     1     -32.737   9.554   1.085  1.00 20.00    -0.307 OA
ENDBRANCH  10  11
ENDBRANCH   3  10
TORSDOF 2
ENDMDL
MODEL 2
REMARK VINA RESULT:      -5.7      0.956      2.856
REMARK  2 active torsions:
REMARK  status: ('A' for Active; 'I' for Inactive)
REMARK    1  A    between atoms: C3_3  and  C8_8 
REMARK    2  A    between atoms: C7_7  and  C8_8 
ROOT
HETATM    1  C1  UNL     1     -33.343   6.036   3.599  1.00 20.00     0.053 A 
HETATM    2  C2  UNL     1     -34.457   5.509   5.677  1.00 20.00     0.087 A 
HETATM    3  C3  UNL     1     -33.148   7.347   4.035  1.00 20.00    -0.007 A 
HETATM    4  C4  UNL     1     -33.997   5.117   4.419  1.00 20.00     0.120 A 
HETATM    5  C5  UNL     1     -34.262   6.820   6.113  1.00 20.00     0.158 A 
HETATM    6  C6  UNL     1     -33.608   7.738   5.293  1.00 20.00     0.161 A 
HETATM    7  F10 UNL     1     -34.184   3.859   3.999  1.00 20.00    -0.206 F 
HETATM    8  F11 UNL     1     -34.704   7.195   7.321  1.00 20.00    -0.203 F 
HETATM    9  F12 UNL     1     -33.425   8.995   5.721  1.00 20.00    -0.202 F 
ENDROOT
BRANCH   3  10
HETATM   10  C8  UNL     1     -32.448   8.327   3.156  1.00 20.00     0.111 C 
BRANCH  10  11
HETATM   11  C7  UNL     1     -32.209   7.829   1.747  1.00 20.00     0.235 C 
HETATM   12  O9  UNL     1     -32.228   8.536   0.746  1.00 20.00    -0.307 OA
ENDBRANCH  10  11
ENDBRANCH   3  10
TORSDOF 2
ENDMDL
MODEL 3
REMARK VINA RESULT:      -5.3      1.102      2.882
REMARK  2 active torsions:
REMARK  status: ('A' for Active; 'I' for Inactive)
REMARK    1  A    between atoms: C3_3  and  C8_8 
REMARK    2  A    between atoms: C7_7  and  C8_8 
ROOT
HETATM    1  C1  UNL     1     -32.976   6.463   3.436  1.00 20.00     0.053 A 
HETATM    2  C2  UNL     1     -34.230   4.669   4.458  1.00 20.00     0.087 A 
HETATM    3  C3  UNL     1     -33.270   7.288   4.522  1.00 20.00    -0.007 A 
HETATM    4  C4  UNL     1     -33.456   5.154   3.403  1.00 20.00     0.120 A 
HETATM    5  C5  UNL     1     -34.523   5.493   5.544  1.00 20.00     0.158 A 
HETATM    6  C6  UNL     1     -34.044   6.802   5.577  1.00 20.00     0.161 A 
HETATM    7  F10 UNL     1     -33.174   4.363   2.360  1.00 20.00    -0.206 F 
HETATM    8  F11 UNL     1     -35.266   5.026   6.556  1.00 20.00    -0.203 F 
HETATM    9  F12 UNL     1     -34.331   7.586   6.625  1.00 20.00    -0.202 F 
ENDROOT
BRANCH   3  10
HETATM   10  C8  UNL     1     -32.756   8.687   4.555  1.00 20.00     0.111 C 
BRANCH  10  11
HETATM   11  C7  UNL     1     -32.231   9.180   3.224  1.00 20.00     0.235 C 
HETATM   12  O9  UNL     1     -32.929   9.637   2.326  1.00 20.00    -0.307 OA
ENDBRANCH  10  11
ENDBRANCH   3  10
TORSDOF 2
ENDMDL
MODEL 4
REMARK VINA RESULT:      -5.1      2.623      3.915
REMARK  2 active torsions:
REMARK  status: ('A' for Active; 'I' for Inactive)
REMARK    1  A    between atoms: C3_3  and  C8_8 
REMARK    2  A    between atoms: C7_7  and  C8_8 
ROOT
HETATM    1  C1  UNL     1     -33.537   7.604   5.179  1.00 20.00     0.053 A 
HETATM    2  C2  UNL     1     -32.007   8.508   3.542  1.00 20.00     0.087 A 
HETATM    3  C3  UNL     1     -33.792   6.518   4.340  1.00 20.00    -0.007 A 
HETATM    4  C4  UNL     1     -32.645   8.599   4.780  1.00 20.00     0.120 A 
HETATM    5  C5  UNL     1     -32.262   7.423   2.704  1.00 20.00     0.158 A 
HETATM    6  C6  UNL     1     -33.154   6.428   3.103  1.00 20.00     0.161 A 
HETATM    7  F10 UNL     1     -32.401   9.641   5.585  1.00 20.00    -0.206 F 
HETATM    8  F11 UNL     1     -31.648   7.336   1.517  1.00 20.00    -0.203 F 
HETATM    9  F12 UNL     1     -33.392   5.388   2.291  1.00 20.00    -0.202 F 
ENDROOT
BRANCH   3  10
HETATM   10  C8  UNL     1     -34.747   5.456   4.769  1.00 20.00     0.111 C 
BRANCH  10  11
HETATM   11  C7  UNL     1     -34.783   5.228   6.264  1.00 20.00     0.235 C 
HETATM   12  O9  UNL     1     -33.807   4.942   6.949  1.00 20.00    -0.307 OA
ENDBRANCH  10  11
ENDBRANCH   3  10
TORSDOF 2
ENDMDL
MODEL 5
REMARK VINA RESULT:      -5.0      1.383      1.387
REMARK  2 active torsions:
REMARK  status: ('A' for Active; 'I' for Inactive)
REMARK    1  A    between atoms: C3_3  and  C8_8 
REMARK    2  A    between atoms: C7_7  and  C8_8 
ROOT
HETATM    1  C1  UNL     1     -33.774   7.293   5.305  1.00 20.00     0.053 A 
HETATM    2  C2  UNL     1     -34.556   5.022   5.566  1.00 20.00     0.087 A 
HETATM    3  C3  UNL     1     -33.203   6.955   4.077  1.00 20.00    -0.007 A 
HETATM    4  C4  UNL     1     -34.450   6.327   6.049  1.00 20.00     0.120 A 
HETATM    5  C5  UNL     1     -33.986   4.684   4.339  1.00 20.00     0.158 A 
HETATM    6  C6  UNL     1     -33.309   5.651   3.595  1.00 20.00     0.161 A 
HETATM    7  F10 UNL     1     -34.997   6.652   7.228  1.00 20.00    -0.206 F 
HETATM    8  F11 UNL     1     -34.088   3.432   3.876  1.00 20.00    -0.203 F 
HETATM    9  F12 UNL     1     -32.765   5.316   2.416  1.00 20.00    -0.202 F 
ENDROOT
BRANCH   3  10
HETATM   10  C8  UNL     1     -32.480   7.990   3.283  1.00 20.00     0.111 C 
BRANCH  10  11
HETATM   11  C7  UNL     1     -32.403   9.341   3.958  1.00 20.00     0.235 C 
HETATM   12  O9  UNL     1     -31.849   9.553   5.032  1.00 20.00    -0.307 OA
ENDBRANCH  10  11
ENDBRANCH   3  10
TORSDOF 2
ENDMDL
MODEL 6
REMARK VINA RESULT:      -5.0      2.758      4.745
REMARK  2 active torsions:
REMARK  status: ('A' for Active; 'I' for Inactive)
REMARK    1  A    between atoms: C3_3  and  C8_8 
REMARK    2  A    between atoms: C7_7  and  C8_8 
ROOT
HETATM    1  C1  UNL     1     -33.373   6.444   3.292  1.00 20.00     0.053 A 
HETATM    2  C2  UNL     1     -31.928   8.350   3.635  1.00 20.00     0.087 A 
HETATM    3  C3  UNL     1     -34.008   6.707   4.506  1.00 20.00    -0.007 A 
HETATM    4  C4  UNL     1     -32.334   7.265   2.856  1.00 20.00     0.120 A 
HETATM    5  C5  UNL     1     -32.562   8.612   4.849  1.00 20.00     0.158 A 
HETATM    6  C6  UNL     1     -33.602   7.791   5.285  1.00 20.00     0.161 A 
HETATM    7  F10 UNL     1     -31.725   7.013   1.690  1.00 20.00    -0.206 F 
HETATM    8  F11 UNL     1     -32.172   9.654   5.596  1.00 20.00    -0.203 F 
HETATM    9  F12 UNL     1     -34.206   8.052   6.453  1.00 20.00    -0.202 F 
ENDROOT
BRANCH   3  10
HETATM   10  C8  UNL     1     -35.119   5.827   4.970  1.00 20.00     0.111 C 
BRANCH  10  11
HETATM   11  C7  UNL     1     -34.781   5.000   6.191  1.00 20.00     0.235 C 
HETATM   12  O9  UNL     1     -33.680   4.971   6.729  1.00 20.00    -0.307 OA
ENDBRANCH  10  11
ENDBRANCH   3  10
TORSDOF 2
ENDMDL
MODEL 7
REMARK VINA RESULT:      -4.8      2.691      4.725
REMARK  2 active torsions:
REMARK  status: ('A' for Active; 'I' for Inactive)
REMARK    1  A    between atoms: C3_3  and  C8_8 
REMARK    2  A    between atoms: C7_7  and  C8_8 
ROOT
HETATM    1  C1  UNL     1     -33.744   5.624   3.687  1.00 20.00     0.053 A 
HETATM    2  C2  UNL     1     -32.211   7.260   2.786  1.00 20.00     0.087 A 
HETATM    3  C3  UNL     1     -34.139   6.535   4.668  1.00 20.00    -0.007 A 
HETATM    4  C4  UNL     1     -32.780   5.986   2.747  1.00 20.00     0.120 A 
HETATM    5  C5  UNL     1     -32.606   8.170   3.766  1.00 20.00     0.158 A 
HETATM    6  C6  UNL     1     -33.570   7.808   4.707  1.00 20.00     0.161 A 
HETATM    7  F10 UNL     1     -32.402   5.111   1.806  1.00 20.00    -0.206 F 
HETATM    8  F11 UNL     1     -32.059   9.392   3.803  1.00 20.00    -0.203 F 
HETATM    9  F12 UNL     1     -33.943   8.690   5.645  1.00 20.00    -0.202 F 
ENDROOT
BRANCH   3  10
HETATM   10  C8  UNL     1     -35.170   6.145   5.673  1.00 20.00     0.111 C 
BRANCH  10  11
HETATM   11  C7  UNL     1     -34.681   5.148   6.701  1.00 20.00     0.235 C 
HETATM   12  O9  UNL     1     -33.504   4.972   6.995  1.00 20.00    -0.307 OA
ENDBRANCH  10  11
ENDBRANCH   3  10
TORSDOF 2
ENDMDL
MODEL 8
REMARK VINA RESULT:      -4.2     12.301     13.290
REMARK  2 active torsions:
REMARK  status: ('A' for Active; 'I' for Inactive)
REMARK    1  A    between atoms: C3_3  and  C8_8 
REMARK    2  A    between atoms: C7_7  and  C8_8 
ROOT
HETATM    1  C1  UNL     1     -35.347  17.146  -4.925  1.00 20.00     0.053 A 
HETATM    2  C2  UNL     1     -34.489  18.055  -2.857  1.00 20.00     0.087 A 
HETATM    3  C3  UNL     1     -34.365  16.155  -4.896  1.00 20.00    -0.007 A 
HETATM    4  C4  UNL     1     -35.409  18.096  -3.906  1.00 20.00     0.120 A 
HETATM    5  C5  UNL     1     -33.508  17.064  -2.829  1.00 20.00     0.158 A 
HETATM    6  C6  UNL     1     -33.446  16.114  -3.848  1.00 20.00     0.161 A 
HETATM    7  F10 UNL     1     -36.351  19.047  -3.934  1.00 20.00    -0.206 F 
HETATM    8  F11 UNL     1     -32.626  17.026  -1.822  1.00 20.00    -0.203 F 
HETATM    9  F12 UNL     1     -32.499  15.166  -3.811  1.00 20.00    -0.202 F 
ENDROOT
BRANCH   3  10
HETATM   10  C8  UNL     1     -34.301  15.140  -5.987  1.00 20.00     0.111 C 
BRANCH  10  11
HETATM   11  C7  UNL     1     -35.444  15.225  -6.975  1.00 20.00     0.235 C 
HETATM   12  O9  UNL     1     -36.096  14.265  -7.369  1.00 20.00    -0.307 OA
ENDBRANCH  10  11
ENDBRANCH   3  10
TORSDOF 2
ENDMDL
MODEL 9
REMARK VINA RESULT:      -4.2      2.650      3.694
REMARK  2 active torsions:
REMARK  status: ('A' for Active; 'I' for Inactive)
REMARK    1  A    between atoms: C3_3  and  C8_8 
REMARK    2  A    between atoms: C7_7  and  C8_8 
ROOT
HETATM    1  C1  UNL     1     -33.937   6.331   5.017  1.00 20.00     0.053 A 
HETATM    2  C2  UNL     1     -33.294   8.581   5.621  1.00 20.00     0.087 A 
HETATM    3  C3  UNL     1     -33.237   6.454   3.816  1.00 20.00    -0.007 A 
HETATM    4  C4  UNL     1     -33.966   7.394   5.919  1.00 20.00     0.120 A 
HETATM    5  C5  UNL     1     -32.595   8.703   4.421  1.00 20.00     0.158 A 
HETATM    6  C6  UNL     1     -32.566   7.640   3.518  1.00 20.00     0.161 A 
HETATM    7  F10 UNL     1     -34.638   7.276   7.072  1.00 20.00    -0.206 F 
HETATM    8  F11 UNL     1     -31.950   9.842   4.136  1.00 20.00    -0.203 F 
HETATM    9  F12 UNL     1     -31.891   7.768   2.367  1.00 20.00    -0.202 F 
ENDROOT
BRANCH   3  10
HETATM   10  C8  UNL     1     -33.209   5.316   2.852  1.00 20.00     0.111 C 
BRANCH  10  11
HETATM   11  C7  UNL     1     -33.680   4.003   3.437  1.00 20.00     0.235 C 
HETATM   12  O9  UNL     1     -34.011   3.840   4.606  1.00 20.00    -0.307 OA
ENDBRANCH  10  11
ENDBRANCH   3  10
TORSDOF 2
ENDMDL
