MODEL 1
REMARK VINA RESULT:      -5.1      0.000      0.000
REMARK  7 active torsions:
REMARK  status: ('A' for Active; 'I' for Inactive)
REMARK    1  A    between atoms: C1_1  and  C6_6 
REMARK    2  A    between atoms: C2_2  and  C7_7 
REMARK    3  A    between atoms: C3_3  and  C8_8 
REMARK    4  A    between atoms: C6_6  and  C10_10 
REMARK    5  A    between atoms: C7_7  and  C11_11 
REMARK    6  A    between atoms: C8_8  and  C10_10 
REMARK    7  A    between atoms: C9_9  and  C11_11 
ROOT
HETATM    1  C1  UNL     1     -33.577   7.675   5.744  1.00 20.00    -0.107 C 
HETATM    2  C2  UNL     1     -32.968   8.314   4.930  1.00 20.00    -0.107 C 
ENDROOT
BRANCH   1   3
HETATM    3  C6  UNL     1     -34.334   6.878   6.718  1.00 20.00     0.094 C 
BRANCH   3   4
HETATM    4  C10 UNL     1     -34.786   5.537   6.136  1.00 20.00     0.019 C 
BRANCH   4   5
HETATM    5  C8  UNL     1     -34.908   5.562   4.611  1.00 20.00     0.079 C 
BRANCH   5   6
HETATM    6  C3  UNL     1     -33.919   4.629   3.934  1.00 20.00     0.123 C 
HETATM    7  C4  UNL     1     -33.142   5.210   2.781  1.00 20.00     0.091 C 
HETATM    8  O12 UNL     1     -33.748   3.464   4.291  1.00 20.00    -0.298 OA
ENDBRANCH   5   6
ENDBRANCH   4   5
ENDBRANCH   3   4
ENDBRANCH   1   3
BRANCH   2   9
HETATM    9  C7  UNL     1     -32.234   9.081   3.915  1.00 20.00     0.094 C 
BRANCH   9  10
HETATM   10  C11 UNL     1     -32.457   8.531   2.505  1.00 20.00     0.012 C 
BRANCH  10  11
HETATM   11  C9  UNL     1     -32.901   9.607   1.509  1.00 20.00    -0.004 C 
HETATM   12  C5  UNL     1     -32.751   9.130   0.074  1.00 20.00     0.005 C 
ENDBRANCH  10  11
ENDBRANCH   9  10
ENDBRANCH   2   9
TORSDOF 7
ENDMDL
MODEL 2
REMARK VINA RESULT:      -4.6     11.880     12.691
REMARK  7 active torsions:
REMARK  status: ('A' for Active; 'I' for Inactive)
REMARK    1  A    between atoms: C1_1  and  C6_6 
REMARK    2  A    between atoms: C2_2  and  C7_7 
REMARK    3  A    between atoms: C3_3  and  C8_8 
REMARK    4  A    between atoms: C6_6  and  C10_10 
REMARK    5  A    between atoms: C7_7  and  C11_11 
REMARK    6  A    between atoms: C8_8  and  C10_10 
REMARK    7  A    between atoms: C9_9  and  C11_11 
ROOT
HETATM    1  C1  UNL     1     -33.261  16.348  -2.767  1.00 20.00    -0.107 C 
HETATM    2  C2  UNL     1     -33.545  17.029  -1.820  1.00 20.00    -0.107 C 
ENDROOT
BRANCH   1   3
HETATM    3  C6  UNL     1     -32.903  15.538  -3.939  1.00 20.00     0.094 C 
BRANCH   3   4
HETATM    4  C10 UNL     1     -34.110  14.791  -4.510  1.00 20.00     0.019 C 
BRANCH   4   5
HETATM    5  C8  UNL     1     -34.290  15.014  -6.013  1.00 20.00     0.079 C 
BRANCH   5   6
HETATM    6  C3  UNL     1     -35.746  14.951  -6.440  1.00 20.00     0.123 C 
HETATM    7  C4  UNL     1     -36.707  15.794  -5.643  1.00 20.00     0.091 C 
HETATM    8  O12 UNL     1     -36.138  14.260  -7.379  1.00 20.00    -0.298 OA
ENDBRANCH   5   6
ENDBRANCH   4   5
ENDBRANCH   3   4
ENDBRANCH   1   3
BRANCH   2   9
HETATM    9  C7  UNL     1     -33.881  17.884  -0.674  1.00 20.00     0.094 C 
BRANCH   9  10
HETATM   10  C11 UNL     1     -32.867  19.013  -0.481  1.00 20.00     0.012 C 
BRANCH  10  11
HETATM   11  C9  UNL     1     -31.421  18.511  -0.412  1.00 20.00    -0.004 C 
HETATM   12  C5  UNL     1     -30.878  18.575   1.006  1.00 20.00     0.005 C 
ENDBRANCH  10  11
ENDBRANCH   9  10
ENDBRANCH   2   9
TORSDOF 7
ENDMDL
MODEL 3
REMARK VINA RESULT:      -4.6      1.047      1.403
REMARK  7 active torsions:
REMARK  status: ('A' for Active; 'I' for Inactive)
REMARK    1  A    between atoms: C1_1  and  C6_6 
REMARK    2  A    between atoms: C2_2  and  C7_7 
REMARK    3  A    between atoms: C3_3  and  C8_8 
REMARK    4  A    between atoms: C6_6  and  C10_10 
REMARK    5  A    between atoms: C7_7  and  C11_11 
REMARK    6  A    between atoms: C8_8  and  C10_10 
REMARK    7  A    between atoms: C9_9  and  C11_11 
ROOT
HETATM    1  C1  UNL     1     -32.992   7.951   5.347  1.00 20.00    -0.107 C 
HETATM    2  C2  UNL     1     -32.756   8.373   4.248  1.00 20.00    -0.107 C 
ENDROOT
BRANCH   1   3
HETATM    3  C6  UNL     1     -33.307   7.431   6.684  1.00 20.00     0.094 C 
BRANCH   3   4
HETATM    4  C10 UNL     1     -34.611   6.631   6.696  1.00 20.00     0.019 C 
BRANCH   4   5
HETATM    5  C8  UNL     1     -34.411   5.163   6.312  1.00 20.00     0.079 C 
BRANCH   5   6
HETATM    6  C3  UNL     1     -34.641   4.914   4.831  1.00 20.00     0.123 C 
HETATM    7  C4  UNL     1     -35.631   5.824   4.152  1.00 20.00     0.091 C 
HETATM    8  O12 UNL     1     -34.062   4.028   4.205  1.00 20.00    -0.298 OA
ENDBRANCH   5   6
ENDBRANCH   4   5
ENDBRANCH   3   4
ENDBRANCH   1   3
BRANCH   2   9
HETATM    9  C7  UNL     1     -32.494   8.883   2.895  1.00 20.00     0.094 C 
BRANCH   9  10
HETATM   10  C11 UNL     1     -32.148   7.762   1.914  1.00 20.00     0.012 C 
BRANCH  10  11
HETATM   11  C9  UNL     1     -32.074   8.244   0.461  1.00 20.00    -0.004 C 
HETATM   12  C5  UNL     1     -32.804   9.564   0.276  1.00 20.00     0.005 C 
ENDBRANCH  10  11
ENDBRANCH   9  10
ENDBRANCH   2   9
TORSDOF 7
ENDMDL
MODEL 4
REMARK VINA RESULT:      -4.5     11.758     12.597
REMARK  7 active torsions:
REMARK  status: ('A' for Active; 'I' for Inactive)
REMARK    1  A    between atoms: C1_1  and  C6_6 
REMARK    2  A    between atoms: C2_2  and  C7_7 
REMARK    3  A    between atoms: C3_3  and  C8_8 
REMARK    4  A    between atoms: C6_6  and  C10_10 
REMARK    5  A    between atoms: C7_7  and  C11_11 
REMARK    6  A    between atoms: C8_8  and  C10_10 
REMARK    7  A    between atoms: C9_9  and  C11_11 
ROOT
HETATM    1  C1  UNL     1     -33.705  17.272  -2.170  1.00 20.00    -0.107 C 
HETATM    2  C2  UNL     1     -33.361  16.429  -2.953  1.00 20.00    -0.107 C 
ENDROOT
BRANCH   1   3
HETATM    3  C6  UNL     1     -34.113  18.289  -1.192  1.00 20.00     0.094 C 
BRANCH   3   4
HETATM    4  C10 UNL     1     -33.621  17.959   0.219  1.00 20.00     0.019 C 
BRANCH   4   5
HETATM    5  C8  UNL     1     -32.684  19.027   0.786  1.00 20.00     0.079 C 
BRANCH   5   6
HETATM    6  C3  UNL     1     -31.219  18.652   0.638  1.00 20.00     0.123 C 
HETATM    7  C4  UNL     1     -30.493  18.302   1.911  1.00 20.00     0.091 C 
HETATM    8  O12 UNL     1     -30.642  18.628  -0.448  1.00 20.00    -0.298 OA
ENDBRANCH   5   6
ENDBRANCH   4   5
ENDBRANCH   3   4
ENDBRANCH   1   3
BRANCH   2   9
HETATM    9  C7  UNL     1     -32.925  15.386  -3.891  1.00 20.00     0.094 C 
BRANCH   9  10
HETATM   10  C11 UNL     1     -34.103  14.736  -4.619  1.00 20.00     0.012 C 
BRANCH  10  11
HETATM   11  C9  UNL     1     -34.103  15.020  -6.125  1.00 20.00    -0.004 C 
HETATM   12  C5  UNL     1     -34.612  16.420  -6.425  1.00 20.00     0.005 C 
ENDBRANCH  10  11
ENDBRANCH   9  10
ENDBRANCH   2   9
TORSDOF 7
ENDMDL
MODEL 5
REMARK VINA RESULT:      -4.4      2.044      4.777
REMARK  7 active torsions:
REMARK  status: ('A' for Active; 'I' for Inactive)
REMARK    1  A    between atoms: C1_1  and  C6_6 
REMARK    2  A    between atoms: C2_2  and  C7_7 
REMARK    3  A    between atoms: C3_3  and  C8_8 
REMARK    4  A    between atoms: C6_6  and  C10_10 
REMARK    5  A    between atoms: C7_7  and  C11_11 
REMARK    6  A    between atoms: C8_8  and  C10_10 
REMARK    7  A    between atoms: C9_9  and  C11_11 
ROOT
HETATM    1  C1  UNL     1     -33.082   8.055   5.304  1.00 20.00    -0.107 C 
HETATM    2  C2  UNL     1     -33.778   7.348   5.980  1.00 20.00    -0.107 C 
ENDROOT
BRANCH   1   3
HETATM    3  C6  UNL     1     -32.217   8.898   4.467  1.00 20.00     0.094 C 
BRANCH   3   4
HETATM    4  C10 UNL     1     -31.494   8.087   3.390  1.00 20.00     0.019 C 
BRANCH   4   5
HETATM    5  C8  UNL     1     -32.423   7.642   2.258  1.00 20.00     0.079 C 
BRANCH   5   6
HETATM    6  C3  UNL     1     -32.196   8.428   0.978  1.00 20.00     0.123 C 
HETATM    7  C4  UNL     1     -32.961   9.719   0.848  1.00 20.00     0.091 C 
HETATM    8  O12 UNL     1     -31.435   8.050   0.088  1.00 20.00    -0.298 OA
ENDBRANCH   5   6
ENDBRANCH   4   5
ENDBRANCH   3   4
ENDBRANCH   1   3
BRANCH   2   9
HETATM    9  C7  UNL     1     -34.619   6.460   6.794  1.00 20.00     0.094 C 
BRANCH   9  10
HETATM   10  C11 UNL     1     -34.831   5.099   6.129  1.00 20.00     0.012 C 
BRANCH  10  11
HETATM   11  C9  UNL     1     -34.986   5.195   4.608  1.00 20.00    -0.004 C 
HETATM   12  C5  UNL     1     -33.826   4.525   3.889  1.00 20.00     0.005 C 
ENDBRANCH  10  11
ENDBRANCH   9  10
ENDBRANCH   2   9
TORSDOF 7
ENDMDL
MODEL 6
REMARK VINA RESULT:      -4.3     11.555     12.554
REMARK  7 active torsions:
REMARK  status: ('A' for Active; 'I' for Inactive)
REMARK    1  A    between atoms: C1_1  and  C6_6 
REMARK    2  A    between atoms: C2_2  and  C7_7 
REMARK    3  A    between atoms: C3_3  and  C8_8 
REMARK    4  A    between atoms: C6_6  and  C10_10 
REMARK    5  A    between atoms: C7_7  and  C11_11 
REMARK    6  A    between atoms: C8_8  and  C10_10 
REMARK    7  A    between atoms: C9_9  and  C11_11 
ROOT
HETATM    1  C1  UNL     1     -32.940  17.535  -2.146  1.00 20.00    -0.107 C 
HETATM    2  C2  UNL     1     -32.274  18.051  -1.290  1.00 20.00    -0.107 C 
ENDROOT
BRANCH   1   3
HETATM    3  C6  UNL     1     -33.738  16.881  -3.191  1.00 20.00     0.094 C 
BRANCH   3   4
HETATM    4  C10 UNL     1     -33.027  15.658  -3.776  1.00 20.00     0.019 C 
BRANCH   4   5
HETATM    5  C8  UNL     1     -33.999  14.563  -4.219  1.00 20.00     0.079 C 
BRANCH   5   6
HETATM    6  C3  UNL     1     -34.600  14.838  -5.587  1.00 20.00     0.123 C 
HETATM    7  C4  UNL     1     -36.094  15.030  -5.627  1.00 20.00     0.091 C 
HETATM    8  O12 UNL     1     -33.924  14.906  -6.612  1.00 20.00    -0.298 OA
ENDBRANCH   5   6
ENDBRANCH   4   5
ENDBRANCH   3   4
ENDBRANCH   1   3
BRANCH   2   9
HETATM    9  C7  UNL     1     -31.446  18.659  -0.240  1.00 20.00     0.094 C 
BRANCH   9  10
HETATM   10  C11 UNL     1     -32.190  18.764   1.092  1.00 20.00     0.012 C 
BRANCH  10  11
HETATM   11  C9  UNL     1     -31.275  18.558   2.304  1.00 20.00    -0.004 C 
HETATM   12  C5  UNL     1     -29.935  19.249   2.111  1.00 20.00     0.005 C 
ENDBRANCH  10  11
ENDBRANCH   9  10
ENDBRANCH   2   9
TORSDOF 7
ENDMDL
MODEL 7
REMARK VINA RESULT:      -4.3     11.715     12.805
REMARK  7 active torsions:
REMARK  status: ('A' for Active; 'I' for Inactive)
REMARK    1  A    between atoms: C1_1  and  C6_6 
REMARK    2  A    between atoms: C2_2  and  C7_7 
REMARK    3  A    between atoms: C3_3  and  C8_8 
REMARK    4  A    between atoms: C6_6  and  C10_10 
REMARK    5  A    between atoms: C7_7  and  C11_11 
REMARK    6  A    between atoms: C8_8  and  C10_10 
REMARK    7  A    between atoms: C9_9  and  C11_11 
ROOT
HETATM    1  C1  UNL     1     -33.512  15.784  -3.459  1.00 20.00    -0.107 C 
HETATM    2  C2  UNL     1     -33.284  16.752  -2.786  1.00 20.00    -0.107 C 
ENDROOT
BRANCH   1   3
HETATM    3  C6  UNL     1     -33.765  14.599  -4.289  1.00 20.00     0.094 C 
BRANCH   3   4
HETATM    4  C10 UNL     1     -34.288  14.972  -5.678  1.00 20.00     0.019 C 
BRANCH   4   5
HETATM    5  C8  UNL     1     -35.756  14.588  -5.882  1.00 20.00     0.079 C 
BRANCH   5   6
HETATM    6  C3  UNL     1     -36.701  15.746  -5.617  1.00 20.00     0.123 C 
HETATM    7  C4  UNL     1     -36.107  17.126  -5.729  1.00 20.00     0.091 C 
HETATM    8  O12 UNL     1     -37.887  15.588  -5.328  1.00 20.00    -0.298 OA
ENDBRANCH   5   6
ENDBRANCH   4   5
ENDBRANCH   3   4
ENDBRANCH   1   3
BRANCH   2   9
HETATM    9  C7  UNL     1     -32.978  17.933  -1.969  1.00 20.00     0.094 C 
BRANCH   9  10
HETATM   10  C11 UNL     1     -33.582  17.837  -0.567  1.00 20.00     0.012 C 
BRANCH  10  11
HETATM   11  C9  UNL     1     -32.697  18.474   0.509  1.00 20.00    -0.004 C 
HETATM   12  C5  UNL     1     -31.250  18.567   0.053  1.00 20.00     0.005 C 
ENDBRANCH  10  11
ENDBRANCH   9  10
ENDBRANCH   2   9
TORSDOF 7
ENDMDL
MODEL 8
REMARK VINA RESULT:      -4.0     11.946     13.101
REMARK  7 active torsions:
REMARK  status: ('A' for Active; 'I' for Inactive)
REMARK    1  A    between atoms: C1_1  and  C6_6 
REMARK    2  A    between atoms: C2_2  and  C7_7 
REMARK    3  A    between atoms: C3_3  and  C8_8 
REMARK    4  A    between atoms: C6_6  and  C10_10 
REMARK    5  A    between atoms: C7_7  and  C11_11 
REMARK    6  A    between atoms: C8_8  and  C10_10 
REMARK    7  A    between atoms: C9_9  and  C11_11 
ROOT
HETATM    1  C1  UNL     1     -33.599  16.181  -3.363  1.00 20.00    -0.107 C 
HETATM    2  C2  UNL     1     -33.818  15.680  -4.433  1.00 20.00    -0.107 C 
ENDROOT
BRANCH   1   3
HETATM    3  C6  UNL     1     -33.340  16.770  -2.043  1.00 20.00     0.094 C 
BRANCH   3   4
HETATM    4  C10 UNL     1     -32.820  18.206  -2.148  1.00 20.00     0.019 C 
BRANCH   4   5
HETATM    5  C8  UNL     1     -32.869  18.953  -0.813  1.00 20.00     0.079 C 
BRANCH   5   6
HETATM    6  C3  UNL     1     -31.624  18.725   0.026  1.00 20.00     0.123 C 
HETATM    7  C4  UNL     1     -31.841  18.593   1.511  1.00 20.00     0.091 C 
HETATM    8  O12 UNL     1     -30.496  18.648  -0.459  1.00 20.00    -0.298 OA
ENDBRANCH   5   6
ENDBRANCH   4   5
ENDBRANCH   3   4
ENDBRANCH   1   3
BRANCH   2   9
HETATM    9  C7  UNL     1     -34.093  15.044  -5.728  1.00 20.00     0.094 C 
BRANCH   9  10
HETATM   10  C11 UNL     1     -35.556  14.615  -5.860  1.00 20.00     0.012 C 
BRANCH  10  11
HETATM   11  C9  UNL     1     -36.529  15.798  -5.831  1.00 20.00    -0.004 C 
HETATM   12  C5  UNL     1     -36.374  16.674  -7.064  1.00 20.00     0.005 C 
ENDBRANCH  10  11
ENDBRANCH   9  10
ENDBRANCH   2   9
TORSDOF 7
ENDMDL
MODEL 9
REMARK VINA RESULT:      -4.0      1.101      2.139
REMARK  7 active torsions:
REMARK  status: ('A' for Active; 'I' for Inactive)
REMARK    1  A    between atoms: C1_1  and  C6_6 
REMARK    2  A    between atoms: C2_2  and  C7_7 
REMARK    3  A    between atoms: C3_3  and  C8_8 
REMARK    4  A    between atoms: C6_6  and  C10_10 
REMARK    5  A    between atoms: C7_7  and  C11_11 
REMARK    6  A    between atoms: C8_8  and  C10_10 
REMARK    7  A    between atoms: C9_9  and  C11_11 
ROOT
HETATM    1  C1  UNL     1     -33.375   8.303   5.124  1.00 20.00    -0.107 C 
HETATM    2  C2  UNL     1     -33.005   8.606   4.023  1.00 20.00    -0.107 C 
ENDROOT
BRANCH   1   3
HETATM    3  C6  UNL     1     -33.810   7.911   6.471  1.00 20.00     0.094 C 
BRANCH   3   4
HETATM    4  C10 UNL     1     -33.516   6.438   6.764  1.00 20.00     0.019 C 
BRANCH   4   5
HETATM    5  C8  UNL     1     -34.727   5.533   6.529  1.00 20.00     0.079 C 
BRANCH   5   6
HETATM    6  C3  UNL     1     -34.832   5.067   5.087  1.00 20.00     0.123 C 
HETATM    7  C4  UNL     1     -35.723   5.885   4.189  1.00 20.00     0.091 C 
HETATM    8  O12 UNL     1     -34.231   4.083   4.657  1.00 20.00    -0.298 OA
ENDBRANCH   5   6
ENDBRANCH   4   5
ENDBRANCH   3   4
ENDBRANCH   1   3
BRANCH   2   9
HETATM    9  C7  UNL     1     -32.530   8.959   2.679  1.00 20.00     0.094 C 
BRANCH   9  10
HETATM   10  C11 UNL     1     -32.209   7.722   1.838  1.00 20.00     0.012 C 
BRANCH  10  11
HETATM   11  C9  UNL     1     -32.165   6.433   2.666  1.00 20.00    -0.004 C 
HETATM   12  C5  UNL     1     -32.893   5.298   1.966  1.00 20.00     0.005 C 
ENDBRANCH  10  11
ENDBRANCH   9  10
ENDBRANCH   2   9
TORSDOF 7
ENDMDL
