MODEL 1
REMARK VINA RESULT:      -3.6      0.000      0.000
REMARK  4 active torsions:
REMARK  status: ('A' for Active; 'I' for Inactive)
REMARK    1  A    between atoms: C4_4  and  N11_11 
REMARK    2  A    between atoms: C7_7  and  C9_9 
REMARK    3  A    between atoms: C8_8  and  N11_11 
REMARK    4  A    between atoms: C9_9  and  N11_11 
ROOT
HETATM    1  C1  UNL     1     -41.651  13.808   4.642  1.00 20.00     0.095 C 
HETATM    2  C9  UNL     1     -41.336  13.094   5.888  1.00 20.00     0.328 C 
HETATM    3  N10 UNL     1     -41.902  14.370   3.658  1.00 20.00    -0.195 NA
ENDROOT
BRANCH   2   4
HETATM    4  C7  UNL     1     -39.875  12.630   5.943  1.00 20.00     0.046 C 
HETATM    5  C5  UNL     1     -39.424  11.806   4.742  1.00 20.00     0.008 C 
ENDBRANCH   2   4
BRANCH   2   6
HETATM    6  N11 UNL     1     -41.677  13.900   7.033  1.00 20.00     0.110 N 
BRANCH   6   7
HETATM    7  C4  UNL     1     -40.471  14.361   7.736  1.00 20.00     0.224 A 
HETATM    8  C2  UNL     1     -40.361  15.787   8.202  1.00 20.00     0.038 A 
HETATM    9  C3  UNL     1     -40.516  14.680   9.204  1.00 20.00     0.038 A 
ENDBRANCH   6   7
BRANCH   6  10
HETATM   10  C8  UNL     1     -42.539  13.162   7.967  1.00 20.00     0.270 C 
HETATM   11  C6  UNL     1     -43.268  12.064   7.272  1.00 20.00     0.037 C 
ENDBRANCH   6  10
ENDBRANCH   2   6
TORSDOF 4
ENDMDL
MODEL 2
REMARK VINA RESULT:      -3.4      1.366      3.819
REMARK  4 active torsions:
REMARK  status: ('A' for Active; 'I' for Inactive)
REMARK    1  A    between atoms: C4_4  and  N11_11 
REMARK    2  A    between atoms: C7_7  and  C9_9 
REMARK    3  A    between atoms: C8_8  and  N11_11 
REMARK    4  A    between atoms: C9_9  and  N11_11 
ROOT
HETATM    1  C1  UNL     1     -42.897  12.537   7.583  1.00 20.00     0.095 C 
HETATM    2  C9  UNL     1     -42.456  12.970   6.249  1.00 20.00     0.328 C 
HETATM    3  N10 UNL     1     -43.245  12.192   8.635  1.00 20.00    -0.195 NA
ENDROOT
BRANCH   2   4
HETATM    4  C7  UNL     1     -43.266  14.161   5.723  1.00 20.00     0.046 C 
HETATM    5  C5  UNL     1     -42.713  14.793   4.448  1.00 20.00     0.008 C 
ENDBRANCH   2   4
BRANCH   2   6
HETATM    6  N11 UNL     1     -41.043  13.255   6.251  1.00 20.00     0.110 N 
BRANCH   6   7
HETATM    7  C4  UNL     1     -40.257  12.052   5.942  1.00 20.00     0.224 A 
HETATM    8  C2  UNL     1     -39.528  11.936   4.631  1.00 20.00     0.038 A 
HETATM    9  C3  UNL     1     -38.755  12.109   5.906  1.00 20.00     0.038 A 
ENDBRANCH   6   7
BRANCH   6  10
HETATM   10  C8  UNL     1     -40.612  13.807   7.543  1.00 20.00     0.270 C 
HETATM   11  C6  UNL     1     -40.328  15.267   7.437  1.00 20.00     0.037 C 
ENDBRANCH   6  10
ENDBRANCH   2   6
TORSDOF 4
ENDMDL
MODEL 3
REMARK VINA RESULT:      -3.4      1.199      3.950
REMARK  4 active torsions:
REMARK  status: ('A' for Active; 'I' for Inactive)
REMARK    1  A    between atoms: C4_4  and  N11_11 
REMARK    2  A    between atoms: C7_7  and  C9_9 
REMARK    3  A    between atoms: C8_8  and  N11_11 
REMARK    4  A    between atoms: C9_9  and  N11_11 
ROOT
HETATM    1  C1  UNL     1     -42.275  13.522   8.080  1.00 20.00     0.095 C 
HETATM    2  C9  UNL     1     -41.700  14.294   6.969  1.00 20.00     0.328 C 
HETATM    3  N10 UNL     1     -42.732  12.915   8.957  1.00 20.00    -0.195 NA
ENDROOT
BRANCH   2   4
HETATM    4  C7  UNL     1     -40.414  15.027   7.369  1.00 20.00     0.046 C 
HETATM    5  C5  UNL     1     -40.417  15.585   8.789  1.00 20.00     0.008 C 
ENDBRANCH   2   4
BRANCH   2   6
HETATM    6  N11 UNL     1     -41.487  13.447   5.821  1.00 20.00     0.110 N 
BRANCH   6   7
HETATM    7  C4  UNL     1     -40.088  13.004   5.740  1.00 20.00     0.224 A 
HETATM    8  C2  UNL     1     -39.732  11.561   5.967  1.00 20.00     0.038 A 
HETATM    9  C3  UNL     1     -39.621  12.153   4.592  1.00 20.00     0.038 A 
ENDBRANCH   6   7
BRANCH   6  10
HETATM   10  C8  UNL     1     -41.861  14.132   4.576  1.00 20.00     0.270 C 
HETATM   11  C6  UNL     1     -43.246  14.677   4.657  1.00 20.00     0.037 C 
ENDBRANCH   6  10
ENDBRANCH   2   6
TORSDOF 4
ENDMDL
MODEL 4
REMARK VINA RESULT:      -3.3     12.468     13.654
REMARK  4 active torsions:
REMARK  status: ('A' for Active; 'I' for Inactive)
REMARK    1  A    between atoms: C4_4  and  N11_11 
REMARK    2  A    between atoms: C7_7  and  C9_9 
REMARK    3  A    between atoms: C8_8  and  N11_11 
REMARK    4  A    between atoms: C9_9  and  N11_11 
ROOT
HETATM    1  C1  UNL     1     -35.262  14.100  -4.805  1.00 20.00     0.095 C 
HETATM    2  C9  UNL     1     -34.563  15.292  -5.307  1.00 20.00     0.328 C 
HETATM    3  N10 UNL     1     -35.811  13.158  -4.407  1.00 20.00    -0.195 NA
ENDROOT
BRANCH   2   4
HETATM    4  C7  UNL     1     -34.946  15.628  -6.754  1.00 20.00     0.046 C 
HETATM    5  C5  UNL     1     -33.802  15.513  -7.757  1.00 20.00     0.008 C 
ENDBRANCH   2   4
BRANCH   2   6
HETATM    6  N11 UNL     1     -34.783  16.415  -4.431  1.00 20.00     0.110 N 
BRANCH   6   7
HETATM    7  C4  UNL     1     -35.509  17.492  -5.119  1.00 20.00     0.224 A 
HETATM    8  C2  UNL     1     -36.822  17.990  -4.580  1.00 20.00     0.038 A 
HETATM    9  C3  UNL     1     -35.603  18.863  -4.507  1.00 20.00     0.038 A 
ENDBRANCH   6   7
BRANCH   6  10
HETATM   10  C8  UNL     1     -33.515  16.935  -3.901  1.00 20.00     0.270 C 
HETATM   11  C6  UNL     1     -33.392  16.668  -2.440  1.00 20.00     0.037 C 
ENDBRANCH   6  10
ENDBRANCH   2   6
TORSDOF 4
ENDMDL
MODEL 5
REMARK VINA RESULT:      -3.2     13.206     14.156
REMARK  4 active torsions:
REMARK  status: ('A' for Active; 'I' for Inactive)
REMARK    1  A    between atoms: C4_4  and  N11_11 
REMARK    2  A    between atoms: C7_7  and  C9_9 
REMARK    3  A    between atoms: C8_8  and  N11_11 
REMARK    4  A    between atoms: C9_9  and  N11_11 
ROOT
HETATM    1  C1  UNL     1     -35.890  15.419  -6.769  1.00 20.00     0.095 C 
HETATM    2  C9  UNL     1     -35.748  16.747  -6.154  1.00 20.00     0.328 C 
HETATM    3  N10 UNL     1     -36.002  14.372  -7.257  1.00 20.00    -0.195 NA
ENDROOT
BRANCH   2   4
HETATM    4  C7  UNL     1     -36.893  17.069  -5.186  1.00 20.00     0.046 C 
HETATM    5  C5  UNL     1     -38.289  16.795  -5.739  1.00 20.00     0.008 C 
ENDBRANCH   2   4
BRANCH   2   6
HETATM    6  N11 UNL     1     -34.464  16.872  -5.510  1.00 20.00     0.110 N 
BRANCH   6   7
HETATM    7  C4  UNL     1     -34.354  15.960  -4.362  1.00 20.00     0.224 A 
HETATM    8  C2  UNL     1     -33.188  15.016  -4.250  1.00 20.00     0.038 A 
HETATM    9  C3  UNL     1     -33.304  16.180  -3.309  1.00 20.00     0.038 A 
ENDBRANCH   6   7
BRANCH   6  10
HETATM   10  C8  UNL     1     -34.222  18.252  -5.068  1.00 20.00     0.270 C 
HETATM   11  C6  UNL     1     -33.972  19.153  -6.229  1.00 20.00     0.037 C 
ENDBRANCH   6  10
ENDBRANCH   2   6
TORSDOF 4
ENDMDL
MODEL 6
REMARK VINA RESULT:      -3.1     12.563     13.755
REMARK  4 active torsions:
REMARK  status: ('A' for Active; 'I' for Inactive)
REMARK    1  A    between atoms: C4_4  and  N11_11 
REMARK    2  A    between atoms: C7_7  and  C9_9 
REMARK    3  A    between atoms: C8_8  and  N11_11 
REMARK    4  A    between atoms: C9_9  and  N11_11 
ROOT
HETATM    1  C1  UNL     1     -35.330  15.223  -6.573  1.00 20.00     0.095 C 
HETATM    2  C9  UNL     1     -34.478  16.210  -5.894  1.00 20.00     0.328 C 
HETATM    3  N10 UNL     1     -36.000  14.443  -7.110  1.00 20.00    -0.195 NA
ENDROOT
BRANCH   2   4
HETATM    4  C7  UNL     1     -34.849  17.654  -6.258  1.00 20.00     0.046 C 
HETATM    5  C5  UNL     1     -36.340  17.969  -6.168  1.00 20.00     0.008 C 
ENDBRANCH   2   4
BRANCH   2   6
HETATM    6  N11 UNL     1     -34.504  16.005  -4.467  1.00 20.00     0.110 N 
BRANCH   6   7
HETATM    7  C4  UNL     1     -33.682  17.005  -3.771  1.00 20.00     0.224 A 
HETATM    8  C2  UNL     1     -34.315  17.985  -2.823  1.00 20.00     0.038 A 
HETATM    9  C3  UNL     1     -33.432  16.894  -2.293  1.00 20.00     0.038 A 
ENDBRANCH   6   7
BRANCH   6  10
HETATM   10  C8  UNL     1     -34.043  14.655  -4.114  1.00 20.00     0.270 C 
HETATM   11  C6  UNL     1     -32.603  14.473  -4.451  1.00 20.00     0.037 C 
ENDBRANCH   6  10
ENDBRANCH   2   6
TORSDOF 4
ENDMDL
MODEL 7
REMARK VINA RESULT:      -3.1     12.571     14.056
REMARK  4 active torsions:
REMARK  status: ('A' for Active; 'I' for Inactive)
REMARK    1  A    between atoms: C4_4  and  N11_11 
REMARK    2  A    between atoms: C7_7  and  C9_9 
REMARK    3  A    between atoms: C8_8  and  N11_11 
REMARK    4  A    between atoms: C9_9  and  N11_11 
ROOT
HETATM    1  C1  UNL     1     -34.151  15.343  -6.224  1.00 20.00     0.095 C 
HETATM    2  C9  UNL     1     -34.513  15.774  -4.866  1.00 20.00     0.328 C 
HETATM    3  N10 UNL     1     -33.867  15.000  -7.296  1.00 20.00    -0.195 NA
ENDROOT
BRANCH   2   4
HETATM    4  C7  UNL     1     -33.330  15.700  -3.893  1.00 20.00     0.046 C 
HETATM    5  C5  UNL     1     -33.525  16.478  -2.595  1.00 20.00     0.008 C 
ENDBRANCH   2   4
BRANCH   2   6
HETATM    6  N11 UNL     1     -35.092  17.094  -4.891  1.00 20.00     0.110 N 
BRANCH   6   7
HETATM    7  C4  UNL     1     -36.528  17.040  -5.198  1.00 20.00     0.224 A 
HETATM    8  C2  UNL     1     -37.507  17.864  -4.407  1.00 20.00     0.038 A 
HETATM    9  C3  UNL     1     -37.218  18.212  -5.838  1.00 20.00     0.038 A 
ENDBRANCH   6   7
BRANCH   6  10
HETATM   10  C8  UNL     1     -34.411  17.956  -5.868  1.00 20.00     0.270 C 
HETATM   11  C6  UNL     1     -33.766  19.122  -5.201  1.00 20.00     0.037 C 
ENDBRANCH   6  10
ENDBRANCH   2   6
TORSDOF 4
ENDMDL
MODEL 8
REMARK VINA RESULT:      -3.1      1.534      2.722
REMARK  4 active torsions:
REMARK  status: ('A' for Active; 'I' for Inactive)
REMARK    1  A    between atoms: C4_4  and  N11_11 
REMARK    2  A    between atoms: C7_7  and  C9_9 
REMARK    3  A    between atoms: C8_8  and  N11_11 
REMARK    4  A    between atoms: C9_9  and  N11_11 
ROOT
HETATM    1  C1  UNL     1     -42.135  12.431   6.887  1.00 20.00     0.095 C 
HETATM    2  C9  UNL     1     -41.013  13.194   6.322  1.00 20.00     0.328 C 
HETATM    3  N10 UNL     1     -43.020  11.829   7.337  1.00 20.00    -0.195 NA
ENDROOT
BRANCH   2   4
HETATM    4  C7  UNL     1     -40.294  12.433   5.199  1.00 20.00     0.046 C 
HETATM    5  C5  UNL     1     -38.834  12.101   5.491  1.00 20.00     0.008 C 
ENDBRANCH   2   4
BRANCH   2   6
HETATM    6  N11 UNL     1     -41.456  14.492   5.877  1.00 20.00     0.110 N 
BRANCH   6   7
HETATM    7  C4  UNL     1     -41.751  15.372   7.017  1.00 20.00     0.224 A 
HETATM    8  C2  UNL     1     -40.752  16.405   7.459  1.00 20.00     0.038 A 
HETATM    9  C3  UNL     1     -42.032  16.833   6.801  1.00 20.00     0.038 A 
ENDBRANCH   6   7
BRANCH   6  10
HETATM   10  C8  UNL     1     -42.642  14.384   5.017  1.00 20.00     0.270 C 
HETATM   11  C6  UNL     1     -42.372  14.932   3.657  1.00 20.00     0.037 C 
ENDBRANCH   6  10
ENDBRANCH   2   6
TORSDOF 4
ENDMDL
MODEL 9
REMARK VINA RESULT:      -3.0     12.711     13.838
REMARK  4 active torsions:
REMARK  status: ('A' for Active; 'I' for Inactive)
REMARK    1  A    between atoms: C4_4  and  N11_11 
REMARK    2  A    between atoms: C7_7  and  C9_9 
REMARK    3  A    between atoms: C8_8  and  N11_11 
REMARK    4  A    between atoms: C9_9  and  N11_11 
ROOT
HETATM    1  C1  UNL     1     -34.097  15.397  -6.865  1.00 20.00     0.095 C 
HETATM    2  C9  UNL     1     -34.676  15.715  -5.552  1.00 20.00     0.328 C 
HETATM    3  N10 UNL     1     -33.641  15.147  -7.903  1.00 20.00    -0.195 NA
ENDROOT
BRANCH   2   4
HETATM    4  C7  UNL     1     -34.634  14.522  -4.589  1.00 20.00     0.046 C 
HETATM    5  C5  UNL     1     -35.875  13.636  -4.620  1.00 20.00     0.008 C 
ENDBRANCH   2   4
BRANCH   2   6
HETATM    6  N11 UNL     1     -34.036  16.874  -4.983  1.00 20.00     0.110 N 
BRANCH   6   7
HETATM    7  C4  UNL     1     -34.299  16.972  -3.540  1.00 20.00     0.224 A 
HETATM    8  C2  UNL     1     -33.182  16.790  -2.549  1.00 20.00     0.038 A 
HETATM    9  C3  UNL     1     -33.792  18.147  -2.749  1.00 20.00     0.038 A 
ENDBRANCH   6   7
BRANCH   6  10
HETATM   10  C8  UNL     1     -34.475  18.108  -5.649  1.00 20.00     0.270 C 
HETATM   11  C6  UNL     1     -35.959  18.241  -5.611  1.00 20.00     0.037 C 
ENDBRANCH   6  10
ENDBRANCH   2   6
TORSDOF 4
ENDMDL
