MODEL 1
REMARK VINA RESULT:      -4.1      0.000      0.000
REMARK  2 active torsions:
REMARK  status: ('A' for Active; 'I' for Inactive)
REMARK    1  A    between atoms: C3_3  and  C8_8 
REMARK    2  A    between atoms: C7_7  and  C8_8 
ROOT
HETATM    1  C1  UNL     1     -32.178   8.236   1.585  1.00 20.00     0.088 C 
HETATM    2  C2  UNL     1     -32.599   8.188   2.942  1.00 20.00     0.096 C 
HETATM    3  C3  UNL     1     -32.955   7.062   3.591  1.00 20.00    -0.070 C 
HETATM    4  C4  UNL     1     -32.913   5.747   2.849  1.00 20.00     0.044 C 
HETATM    5  N9  UNL     1     -31.834   8.284   0.479  1.00 20.00    -0.192 NA
ENDROOT
BRANCH   3   6
HETATM    6  C8  UNL     1     -33.406   7.022   5.052  1.00 20.00     0.010 C 
HETATM    7  C6  UNL     1     -33.586   8.437   5.615  1.00 20.00     0.015 C 
BRANCH   6   8
HETATM    8  C7  UNL     1     -34.695   6.209   5.286  1.00 20.00     0.004 C 
HETATM    9  C5  UNL     1     -34.533   5.106   6.324  1.00 20.00     0.006 C 
ENDBRANCH   6   8
ENDBRANCH   3   6
TORSDOF 2
ENDMDL
MODEL 2
REMARK VINA RESULT:      -3.9     11.590     12.443
REMARK  2 active torsions:
REMARK  status: ('A' for Active; 'I' for Inactive)
REMARK    1  A    between atoms: C3_3  and  C8_8 
REMARK    2  A    between atoms: C7_7  and  C8_8 
ROOT
HETATM    1  C1  UNL     1     -31.021  18.811   0.102  1.00 20.00     0.088 C 
HETATM    2  C2  UNL     1     -31.849  18.360  -0.962  1.00 20.00     0.096 C 
HETATM    3  C3  UNL     1     -33.153  18.043  -0.833  1.00 20.00    -0.070 C 
HETATM    4  C4  UNL     1     -33.804  18.168   0.523  1.00 20.00     0.044 C 
HETATM    5  N9  UNL     1     -30.339  19.179   0.965  1.00 20.00    -0.192 NA
ENDROOT
BRANCH   3   6
HETATM    6  C8  UNL     1     -34.034  17.559  -1.985  1.00 20.00     0.010 C 
HETATM    7  C6  UNL     1     -35.089  18.610  -2.355  1.00 20.00     0.015 C 
BRANCH   6   8
HETATM    8  C7  UNL     1     -33.246  17.158  -3.249  1.00 20.00     0.004 C 
HETATM    9  C5  UNL     1     -33.395  15.685  -3.611  1.00 20.00     0.006 C 
ENDBRANCH   6   8
ENDBRANCH   3   6
TORSDOF 2
ENDMDL
MODEL 3
REMARK VINA RESULT:      -3.9     11.428     12.162
REMARK  2 active torsions:
REMARK  status: ('A' for Active; 'I' for Inactive)
REMARK    1  A    between atoms: C3_3  and  C8_8 
REMARK    2  A    between atoms: C7_7  and  C8_8 
ROOT
HETATM    1  C1  UNL     1     -33.493  15.847  -3.637  1.00 20.00     0.088 C 
HETATM    2  C2  UNL     1     -33.279  16.528  -2.408  1.00 20.00     0.096 C 
HETATM    3  C3  UNL     1     -33.057  17.853  -2.299  1.00 20.00    -0.070 C 
HETATM    4  C4  UNL     1     -33.029  18.695  -3.552  1.00 20.00     0.044 C 
HETATM    5  N9  UNL     1     -33.668  15.283  -4.635  1.00 20.00    -0.192 NA
ENDROOT
BRANCH   3   6
HETATM    6  C8  UNL     1     -32.829  18.577  -0.971  1.00 20.00     0.010 C 
HETATM    7  C6  UNL     1     -33.768  18.045   0.118  1.00 20.00     0.015 C 
BRANCH   6   8
HETATM    8  C7  UNL     1     -31.372  18.513  -0.467  1.00 20.00     0.004 C 
HETATM    9  C5  UNL     1     -31.257  18.548   1.052  1.00 20.00     0.006 C 
ENDBRANCH   6   8
ENDBRANCH   3   6
TORSDOF 2
ENDMDL
MODEL 4
REMARK VINA RESULT:      -3.9     11.390     12.487
REMARK  2 active torsions:
REMARK  status: ('A' for Active; 'I' for Inactive)
REMARK    1  A    between atoms: C3_3  and  C8_8 
REMARK    2  A    between atoms: C7_7  and  C8_8 
ROOT
HETATM    1  C1  UNL     1     -35.577  15.193  -6.521  1.00 20.00     0.088 C 
HETATM    2  C2  UNL     1     -35.058  16.213  -5.678  1.00 20.00     0.096 C 
HETATM    3  C3  UNL     1     -34.284  15.991  -4.598  1.00 20.00    -0.070 C 
HETATM    4  C4  UNL     1     -33.928  14.569  -4.235  1.00 20.00     0.044 C 
HETATM    5  N9  UNL     1     -36.004  14.366  -7.213  1.00 20.00    -0.192 NA
ENDROOT
BRANCH   3   6
HETATM    6  C8  UNL     1     -33.731  17.098  -3.699  1.00 20.00     0.010 C 
HETATM    7  C6  UNL     1     -34.715  18.269  -3.592  1.00 20.00     0.015 C 
BRANCH   6   8
HETATM    8  C7  UNL     1     -33.348  16.620  -2.283  1.00 20.00     0.004 C 
HETATM    9  C5  UNL     1     -33.737  17.605  -1.188  1.00 20.00     0.006 C 
ENDBRANCH   6   8
ENDBRANCH   3   6
TORSDOF 2
ENDMDL
MODEL 5
REMARK VINA RESULT:      -3.7      2.653      4.369
REMARK  2 active torsions:
REMARK  status: ('A' for Active; 'I' for Inactive)
REMARK    1  A    between atoms: C3_3  and  C8_8 
REMARK    2  A    between atoms: C7_7  and  C8_8 
ROOT
HETATM    1  C1  UNL     1     -34.540   5.736   5.858  1.00 20.00     0.088 C 
HETATM    2  C2  UNL     1     -34.031   6.927   5.272  1.00 20.00     0.096 C 
HETATM    3  C3  UNL     1     -33.415   6.985   4.075  1.00 20.00    -0.070 C 
HETATM    4  C4  UNL     1     -33.240   5.713   3.281  1.00 20.00     0.044 C 
HETATM    5  N9  UNL     1     -34.958   4.769   6.343  1.00 20.00    -0.192 NA
ENDROOT
BRANCH   3   6
HETATM    6  C8  UNL     1     -32.871   8.272   3.454  1.00 20.00     0.010 C 
HETATM    7  C6  UNL     1     -32.058   9.079   4.473  1.00 20.00     0.015 C 
BRANCH   6   8
HETATM    8  C7  UNL     1     -32.022   8.045   2.186  1.00 20.00     0.004 C 
HETATM    9  C5  UNL     1     -32.487   8.870   0.993  1.00 20.00     0.006 C 
ENDBRANCH   6   8
ENDBRANCH   3   6
TORSDOF 2
ENDMDL
MODEL 6
REMARK VINA RESULT:      -3.7      1.937      2.752
REMARK  2 active torsions:
REMARK  status: ('A' for Active; 'I' for Inactive)
REMARK    1  A    between atoms: C3_3  and  C8_8 
REMARK    2  A    between atoms: C7_7  and  C8_8 
ROOT
HETATM    1  C1  UNL     1     -32.465   8.986   5.088  1.00 20.00     0.088 C 
HETATM    2  C2  UNL     1     -33.386   7.905   5.031  1.00 20.00     0.096 C 
HETATM    3  C3  UNL     1     -33.380   6.947   4.083  1.00 20.00    -0.070 C 
HETATM    4  C4  UNL     1     -32.334   7.002   2.995  1.00 20.00     0.044 C 
HETATM    5  N9  UNL     1     -31.717   9.871   5.141  1.00 20.00    -0.192 NA
ENDROOT
BRANCH   3   6
HETATM    6  C8  UNL     1     -34.376   5.787   4.032  1.00 20.00     0.010 C 
HETATM    7  C6  UNL     1     -33.668   4.463   3.721  1.00 20.00     0.015 C 
BRANCH   6   8
HETATM    8  C7  UNL     1     -35.218   5.630   5.314  1.00 20.00     0.004 C 
HETATM    9  C5  UNL     1     -34.417   5.114   6.503  1.00 20.00     0.006 C 
ENDBRANCH   6   8
ENDBRANCH   3   6
TORSDOF 2
ENDMDL
MODEL 7
REMARK VINA RESULT:      -3.6      2.599      4.653
REMARK  2 active torsions:
REMARK  status: ('A' for Active; 'I' for Inactive)
REMARK    1  A    between atoms: C3_3  and  C8_8 
REMARK    2  A    between atoms: C7_7  and  C8_8 
ROOT
HETATM    1  C1  UNL     1     -34.438   5.868   5.437  1.00 20.00     0.088 C 
HETATM    2  C2  UNL     1     -33.666   6.380   4.359  1.00 20.00     0.096 C 
HETATM    3  C3  UNL     1     -33.146   7.623   4.315  1.00 20.00    -0.070 C 
HETATM    4  C4  UNL     1     -33.385   8.556   5.478  1.00 20.00     0.044 C 
HETATM    5  N9  UNL     1     -35.069   5.442   6.312  1.00 20.00    -0.192 NA
ENDROOT
BRANCH   3   6
HETATM    6  C8  UNL     1     -32.316   8.163   3.150  1.00 20.00     0.010 C 
HETATM    7  C6  UNL     1     -32.099   7.088   2.078  1.00 20.00     0.015 C 
BRANCH   6   8
HETATM    8  C7  UNL     1     -32.908   9.428   2.495  1.00 20.00     0.004 C 
HETATM    9  C5  UNL     1     -32.782   9.436   0.976  1.00 20.00     0.006 C 
ENDBRANCH   6   8
ENDBRANCH   3   6
TORSDOF 2
ENDMDL
MODEL 8
REMARK VINA RESULT:      -3.6      2.212      3.286
REMARK  2 active torsions:
REMARK  status: ('A' for Active; 'I' for Inactive)
REMARK    1  A    between atoms: C3_3  and  C8_8 
REMARK    2  A    between atoms: C7_7  and  C8_8 
ROOT
HETATM    1  C1  UNL     1     -32.485   8.693   4.863  1.00 20.00     0.088 C 
HETATM    2  C2  UNL     1     -33.249   7.560   4.472  1.00 20.00     0.096 C 
HETATM    3  C3  UNL     1     -33.992   6.814   5.314  1.00 20.00    -0.070 C 
HETATM    4  C4  UNL     1     -34.035   7.186   6.776  1.00 20.00     0.044 C 
HETATM    5  N9  UNL     1     -31.859   9.619   5.174  1.00 20.00    -0.192 NA
ENDROOT
BRANCH   3   6
HETATM    6  C8  UNL     1     -34.811   5.597   4.882  1.00 20.00     0.010 C 
HETATM    7  C6  UNL     1     -35.983   6.008   3.982  1.00 20.00     0.015 C 
BRANCH   6   8
HETATM    8  C7  UNL     1     -33.982   4.504   4.176  1.00 20.00     0.004 C 
HETATM    9  C5  UNL     1     -33.329   4.982   2.885  1.00 20.00     0.006 C 
ENDBRANCH   6   8
ENDBRANCH   3   6
TORSDOF 2
ENDMDL
MODEL 9
REMARK VINA RESULT:      -3.5      9.270     10.482
REMARK  2 active torsions:
REMARK  status: ('A' for Active; 'I' for Inactive)
REMARK    1  A    between atoms: C3_3  and  C8_8 
REMARK    2  A    between atoms: C7_7  and  C8_8 
ROOT
HETATM    1  C1  UNL     1     -39.574  11.915   4.792  1.00 20.00     0.088 C 
HETATM    2  C2  UNL     1     -40.360  12.278   5.919  1.00 20.00     0.096 C 
HETATM    3  C3  UNL     1     -41.329  13.216   5.904  1.00 20.00    -0.070 C 
HETATM    4  C4  UNL     1     -41.619  13.945   4.614  1.00 20.00     0.044 C 
HETATM    5  N9  UNL     1     -38.928  11.613   3.877  1.00 20.00    -0.192 NA
ENDROOT
BRANCH   3   6
HETATM    6  C8  UNL     1     -42.169  13.598   7.123  1.00 20.00     0.010 C 
HETATM    7  C6  UNL     1     -43.063  12.434   7.567  1.00 20.00     0.015 C 
BRANCH   6   8
HETATM    8  C7  UNL     1     -41.338  14.095   8.324  1.00 20.00     0.004 C 
HETATM    9  C5  UNL     1     -40.491  15.321   8.006  1.00 20.00     0.006 C 
ENDBRANCH   6   8
ENDBRANCH   3   6
TORSDOF 2
ENDMDL
