MODEL 1
REMARK VINA RESULT:      -4.5      0.000      0.000
REMARK  4 active torsions:
REMARK  status: ('A' for Active; 'I' for Inactive)
REMARK    1  A    between atoms: C5_5  and  C6_6 
REMARK    2  A    between atoms: C6_6  and  C8_8 
REMARK    3  A    between atoms: C7_7  and  C8_8 
REMARK    4  A    between atoms: C8_8  and  O9_9 
ROOT
HETATM    1  C1  UNL     1     -32.136   7.169   2.482  1.00 20.00     0.012 C 
HETATM    2  C2  UNL     1     -32.331   7.702   3.539  1.00 20.00    -0.117 C 
HETATM    3  C5  UNL     1     -32.565   8.360   4.833  1.00 20.00     0.095 C 
ENDROOT
BRANCH   3   4
HETATM    4  C6  UNL     1     -33.997   8.170   5.332  1.00 20.00     0.044 C 
BRANCH   4   5
HETATM    5  C8  UNL     1     -34.220   6.981   6.284  1.00 20.00     0.122 C 
BRANCH   5   6
HETATM    6  C7  UNL     1     -34.885   5.737   5.651  1.00 20.00     0.006 C 
HETATM    7  C3  UNL     1     -35.575   6.106   4.333  1.00 20.00     0.012 C 
HETATM    8  C4  UNL     1     -33.897   4.594   5.398  1.00 20.00     0.012 C 
ENDBRANCH   5   6
BRANCH   5   9
HETATM    9  O9  UNL     1     -32.949   6.601   6.819  1.00 20.00    -0.395 OA
HETATM   10  H23 UNL     1     -33.128   6.181   7.672  1.00 20.00     0.210 HD
ENDBRANCH   5   9
ENDBRANCH   4   5
ENDBRANCH   3   4
TORSDOF 4
ENDMDL
MODEL 2
REMARK VINA RESULT:      -4.4      1.734      3.770
REMARK  4 active torsions:
REMARK  status: ('A' for Active; 'I' for Inactive)
REMARK    1  A    between atoms: C5_5  and  C6_6 
REMARK    2  A    between atoms: C6_6  and  C8_8 
REMARK    3  A    between atoms: C7_7  and  C8_8 
REMARK    4  A    between atoms: C8_8  and  O9_9 
ROOT
HETATM    1  C1  UNL     1     -34.669   4.907   6.327  1.00 20.00     0.012 C 
HETATM    2  C2  UNL     1     -34.337   6.059   6.261  1.00 20.00    -0.117 C 
HETATM    3  C5  UNL     1     -33.929   7.469   6.186  1.00 20.00     0.095 C 
ENDROOT
BRANCH   3   4
HETATM    4  C6  UNL     1     -33.806   7.964   4.746  1.00 20.00     0.044 C 
BRANCH   4   5
HETATM    5  C8  UNL     1     -32.371   8.120   4.213  1.00 20.00     0.122 C 
BRANCH   5   6
HETATM    6  C7  UNL     1     -32.037   7.297   2.948  1.00 20.00     0.006 C 
HETATM    7  C3  UNL     1     -32.882   6.019   2.897  1.00 20.00     0.012 C 
HETATM    8  C4  UNL     1     -32.240   8.085   1.650  1.00 20.00     0.012 C 
ENDBRANCH   5   6
BRANCH   5   9
HETATM    9  O9  UNL     1     -32.154   9.506   3.931  1.00 20.00    -0.395 OA
HETATM   10  H23 UNL     1     -32.961   9.825   3.504  1.00 20.00     0.210 HD
ENDBRANCH   5   9
ENDBRANCH   4   5
ENDBRANCH   3   4
TORSDOF 4
ENDMDL
MODEL 3
REMARK VINA RESULT:      -4.3      1.313      3.388
REMARK  4 active torsions:
REMARK  status: ('A' for Active; 'I' for Inactive)
REMARK    1  A    between atoms: C5_5  and  C6_6 
REMARK    2  A    between atoms: C6_6  and  C8_8 
REMARK    3  A    between atoms: C7_7  and  C8_8 
REMARK    4  A    between atoms: C8_8  and  O9_9 
ROOT
HETATM    1  C1  UNL     1     -34.589   4.646   4.780  1.00 20.00     0.012 C 
HETATM    2  C2  UNL     1     -34.468   5.558   5.552  1.00 20.00    -0.117 C 
HETATM    3  C5  UNL     1     -34.320   6.669   6.502  1.00 20.00     0.095 C 
ENDROOT
BRANCH   3   4
HETATM    4  C6  UNL     1     -33.945   7.980   5.811  1.00 20.00     0.044 C 
BRANCH   4   5
HETATM    5  C8  UNL     1     -32.701   7.926   4.907  1.00 20.00     0.122 C 
BRANCH   5   6
HETATM    6  C7  UNL     1     -32.984   7.851   3.388  1.00 20.00     0.006 C 
HETATM    7  C3  UNL     1     -32.554   9.149   2.695  1.00 20.00     0.012 C 
HETATM    8  C4  UNL     1     -32.293   6.665   2.708  1.00 20.00     0.012 C 
ENDBRANCH   5   6
BRANCH   5   9
HETATM    9  O9  UNL     1     -31.914   9.091   5.171  1.00 20.00    -0.395 OA
HETATM   10  H23 UNL     1     -31.588   9.398   4.313  1.00 20.00     0.210 HD
ENDBRANCH   5   9
ENDBRANCH   4   5
ENDBRANCH   3   4
TORSDOF 4
ENDMDL
MODEL 4
REMARK VINA RESULT:      -4.3      1.767      2.586
REMARK  4 active torsions:
REMARK  status: ('A' for Active; 'I' for Inactive)
REMARK    1  A    between atoms: C5_5  and  C6_6 
REMARK    2  A    between atoms: C6_6  and  C8_8 
REMARK    3  A    between atoms: C7_7  and  C8_8 
REMARK    4  A    between atoms: C8_8  and  O9_9 
ROOT
HETATM    1  C1  UNL     1     -32.455   8.584   4.596  1.00 20.00     0.012 C 
HETATM    2  C2  UNL     1     -33.106   8.029   5.437  1.00 20.00    -0.117 C 
HETATM    3  C5  UNL     1     -33.903   7.354   6.471  1.00 20.00     0.095 C 
ENDROOT
BRANCH   3   4
HETATM    4  C6  UNL     1     -34.503   6.038   5.978  1.00 20.00     0.044 C 
BRANCH   4   5
HETATM    5  C8  UNL     1     -34.772   5.953   4.466  1.00 20.00     0.122 C 
BRANCH   5   6
HETATM    6  C7  UNL     1     -34.051   4.803   3.724  1.00 20.00     0.006 C 
HETATM    7  C3  UNL     1     -32.984   5.359   2.774  1.00 20.00     0.012 C 
HETATM    8  C4  UNL     1     -33.401   3.793   4.675  1.00 20.00     0.012 C 
ENDBRANCH   5   6
BRANCH   5   9
HETATM    9  O9  UNL     1     -36.183   5.807   4.278  1.00 20.00    -0.395 OA
HETATM   10  H23 UNL     1     -36.594   6.574   4.702  1.00 20.00     0.210 HD
ENDBRANCH   5   9
ENDBRANCH   4   5
ENDBRANCH   3   4
TORSDOF 4
ENDMDL
MODEL 5
REMARK VINA RESULT:      -4.2      1.518      2.335
REMARK  4 active torsions:
REMARK  status: ('A' for Active; 'I' for Inactive)
REMARK    1  A    between atoms: C5_5  and  C6_6 
REMARK    2  A    between atoms: C6_6  and  C8_8 
REMARK    3  A    between atoms: C7_7  and  C8_8 
REMARK    4  A    between atoms: C8_8  and  O9_9 
ROOT
HETATM    1  C1  UNL     1     -32.607   9.205   0.558  1.00 20.00     0.012 C 
HETATM    2  C2  UNL     1     -32.419   8.373   1.402  1.00 20.00    -0.117 C 
HETATM    3  C5  UNL     1     -32.187   7.350   2.432  1.00 20.00     0.095 C 
ENDROOT
BRANCH   3   4
HETATM    4  C6  UNL     1     -32.280   7.916   3.848  1.00 20.00     0.044 C 
BRANCH   4   5
HETATM    5  C8  UNL     1     -33.662   7.819   4.516  1.00 20.00     0.122 C 
BRANCH   5   6
HETATM    6  C7  UNL     1     -34.029   6.430   5.088  1.00 20.00     0.006 C 
HETATM    7  C3  UNL     1     -34.270   6.515   6.600  1.00 20.00     0.012 C 
HETATM    8  C4  UNL     1     -35.260   5.812   4.418  1.00 20.00     0.012 C 
ENDBRANCH   5   6
BRANCH   5   9
HETATM    9  O9  UNL     1     -33.708   8.779   5.576  1.00 20.00    -0.395 OA
HETATM   10  H23 UNL     1     -33.675   9.650   5.155  1.00 20.00     0.210 HD
ENDBRANCH   5   9
ENDBRANCH   4   5
ENDBRANCH   3   4
TORSDOF 4
ENDMDL
MODEL 6
REMARK VINA RESULT:      -4.2      1.439      1.836
REMARK  4 active torsions:
REMARK  status: ('A' for Active; 'I' for Inactive)
REMARK    1  A    between atoms: C5_5  and  C6_6 
REMARK    2  A    between atoms: C6_6  and  C8_8 
REMARK    3  A    between atoms: C7_7  and  C8_8 
REMARK    4  A    between atoms: C8_8  and  O9_9 
ROOT
HETATM    1  C1  UNL     1     -32.538   8.844   0.437  1.00 20.00     0.012 C 
HETATM    2  C2  UNL     1     -32.519   8.851   1.637  1.00 20.00    -0.117 C 
HETATM    3  C5  UNL     1     -32.497   8.867   3.107  1.00 20.00     0.095 C 
ENDROOT
BRANCH   3   4
HETATM    4  C6  UNL     1     -32.688   7.475   3.707  1.00 20.00     0.044 C 
BRANCH   4   5
HETATM    5  C8  UNL     1     -33.681   7.384   4.879  1.00 20.00     0.122 C 
BRANCH   5   6
HETATM    6  C7  UNL     1     -34.566   6.116   4.904  1.00 20.00     0.006 C 
HETATM    7  C3  UNL     1     -34.054   5.080   3.896  1.00 20.00     0.012 C 
HETATM    8  C4  UNL     1     -34.646   5.470   6.291  1.00 20.00     0.012 C 
ENDBRANCH   5   6
BRANCH   5   9
HETATM    9  O9  UNL     1     -32.933   7.447   6.096  1.00 20.00    -0.395 OA
HETATM   10  H23 UNL     1     -32.110   7.911   5.885  1.00 20.00     0.210 HD
ENDBRANCH   5   9
ENDBRANCH   4   5
ENDBRANCH   3   4
TORSDOF 4
ENDMDL
MODEL 7
REMARK VINA RESULT:      -4.1      1.665      2.690
REMARK  4 active torsions:
REMARK  status: ('A' for Active; 'I' for Inactive)
REMARK    1  A    between atoms: C5_5  and  C6_6 
REMARK    2  A    between atoms: C6_6  and  C8_8 
REMARK    3  A    between atoms: C7_7  and  C8_8 
REMARK    4  A    between atoms: C8_8  and  O9_9 
ROOT
HETATM    1  C1  UNL     1     -32.480   8.689   4.449  1.00 20.00     0.012 C 
HETATM    2  C2  UNL     1     -32.382   7.733   3.730  1.00 20.00    -0.117 C 
HETATM    3  C5  UNL     1     -32.256   6.564   2.847  1.00 20.00     0.095 C 
ENDROOT
BRANCH   3   4
HETATM    4  C6  UNL     1     -33.450   5.617   2.961  1.00 20.00     0.044 C 
BRANCH   4   5
HETATM    5  C8  UNL     1     -33.647   4.954   4.335  1.00 20.00     0.122 C 
BRANCH   5   6
HETATM    6  C7  UNL     1     -34.901   5.405   5.119  1.00 20.00     0.006 C 
HETATM    7  C3  UNL     1     -34.499   6.152   6.396  1.00 20.00     0.012 C 
HETATM    8  C4  UNL     1     -35.837   6.292   4.292  1.00 20.00     0.012 C 
ENDBRANCH   5   6
BRANCH   5   9
HETATM    9  O9  UNL     1     -33.714   3.539   4.135  1.00 20.00    -0.395 OA
HETATM   10  H23 UNL     1     -34.185   3.405   3.300  1.00 20.00     0.210 HD
ENDBRANCH   5   9
ENDBRANCH   4   5
ENDBRANCH   3   4
TORSDOF 4
ENDMDL
MODEL 8
REMARK VINA RESULT:      -3.9     12.152     12.976
REMARK  4 active torsions:
REMARK  status: ('A' for Active; 'I' for Inactive)
REMARK    1  A    between atoms: C5_5  and  C6_6 
REMARK    2  A    between atoms: C6_6  and  C8_8 
REMARK    3  A    between atoms: C7_7  and  C8_8 
REMARK    4  A    between atoms: C8_8  and  O9_9 
ROOT
HETATM    1  C1  UNL     1     -33.699  17.723  -0.575  1.00 20.00     0.012 C 
HETATM    2  C2  UNL     1     -33.721  17.470  -1.748  1.00 20.00    -0.117 C 
HETATM    3  C5  UNL     1     -33.749  17.167  -3.186  1.00 20.00     0.095 C 
ENDROOT
BRANCH   3   4
HETATM    4  C6  UNL     1     -33.026  15.863  -3.521  1.00 20.00     0.044 C 
BRANCH   4   5
HETATM    5  C8  UNL     1     -33.895  14.762  -4.154  1.00 20.00     0.122 C 
BRANCH   5   6
HETATM    6  C7  UNL     1     -34.828  15.224  -5.297  1.00 20.00     0.006 C 
HETATM    7  C3  UNL     1     -34.085  15.211  -6.638  1.00 20.00     0.012 C 
HETATM    8  C4  UNL     1     -36.096  14.373  -5.416  1.00 20.00     0.012 C 
ENDBRANCH   5   6
BRANCH   5   9
HETATM    9  O9  UNL     1     -33.022  13.746  -4.656  1.00 20.00    -0.395 OA
HETATM   10  H23 UNL     1     -33.542  12.931  -4.685  1.00 20.00     0.210 HD
ENDBRANCH   5   9
ENDBRANCH   4   5
ENDBRANCH   3   4
TORSDOF 4
ENDMDL
MODEL 9
REMARK VINA RESULT:      -3.9      2.063      2.596
REMARK  4 active torsions:
REMARK  status: ('A' for Active; 'I' for Inactive)
REMARK    1  A    between atoms: C5_5  and  C6_6 
REMARK    2  A    between atoms: C6_6  and  C8_8 
REMARK    3  A    between atoms: C7_7  and  C8_8 
REMARK    4  A    between atoms: C8_8  and  O9_9 
ROOT
HETATM    1  C1  UNL     1     -32.796   9.552   0.554  1.00 20.00     0.012 C 
HETATM    2  C2  UNL     1     -32.793   9.215   1.705  1.00 20.00    -0.117 C 
HETATM    3  C5  UNL     1     -32.795   8.806   3.117  1.00 20.00     0.095 C 
ENDROOT
BRANCH   3   4
HETATM    4  C6  UNL     1     -32.074   7.478   3.340  1.00 20.00     0.044 C 
BRANCH   4   5
HETATM    5  C8  UNL     1     -32.918   6.358   3.973  1.00 20.00     0.122 C 
BRANCH   5   6
HETATM    6  C7  UNL     1     -34.162   6.827   4.763  1.00 20.00     0.006 C 
HETATM    7  C3  UNL     1     -35.297   5.804   4.637  1.00 20.00     0.012 C 
HETATM    8  C4  UNL     1     -33.871   7.075   6.246  1.00 20.00     0.012 C 
ENDBRANCH   5   6
BRANCH   5   9
HETATM    9  O9  UNL     1     -33.342   5.481   2.926  1.00 20.00    -0.395 OA
HETATM   10  H23 UNL     1     -33.321   4.586   3.295  1.00 20.00     0.210 HD
ENDBRANCH   5   9
ENDBRANCH   4   5
ENDBRANCH   3   4
TORSDOF 4
ENDMDL
