MODEL 1
REMARK VINA RESULT:      -4.4      0.000      0.000
REMARK  4 active torsions:
REMARK  status: ('A' for Active; 'I' for Inactive)
REMARK    1  A    between atoms: C5_5  and  C9_9 
REMARK    2  A    between atoms: C6_6  and  C10_10 
REMARK    3  A    between atoms: C9_9  and  C12_12 
REMARK    4  A    between atoms: C11_11  and  C12_12 
ROOT
HETATM    1  C1  UNL     1     -33.165   5.324   3.155  1.00 20.00     0.131 C 
HETATM    2  C2  UNL     1     -33.931   4.435   4.110  1.00 20.00     0.079 C 
HETATM    3  C3  UNL     1     -35.181   5.142   4.619  1.00 20.00     0.012 C 
HETATM    4  C4  UNL     1     -34.141   7.393   4.164  1.00 20.00     0.016 C 
HETATM    5  C5  UNL     1     -32.857   6.734   3.648  1.00 20.00     0.056 C 
HETATM    6  C6  UNL     1     -34.895   6.536   5.194  1.00 20.00    -0.014 C 
HETATM    7  O13 UNL     1     -32.744   4.886   2.086  1.00 20.00    -0.298 OA
ENDROOT
BRANCH   5   8
HETATM    8  C9  UNL     1     -32.223   7.586   2.551  1.00 20.00     0.012 C 
BRANCH   8   9
HETATM    9  C12 UNL     1     -32.584   9.060   2.715  1.00 20.00     0.000 C 
BRANCH   9  10
HETATM   10  C11 UNL     1     -32.929   9.696   1.370  1.00 20.00    -0.005 C 
HETATM   11  C8  UNL     1     -32.514   8.805   0.209  1.00 20.00     0.005 C 
ENDBRANCH   9  10
ENDBRANCH   8   9
ENDBRANCH   5   8
BRANCH   6  12
HETATM   12  C10 UNL     1     -34.156   6.463   6.532  1.00 20.00     0.000 C 
HETATM   13  C7  UNL     1     -33.264   7.642   6.732  1.00 20.00     0.005 C 
ENDBRANCH   6  12
TORSDOF 4
ENDMDL
MODEL 2
REMARK VINA RESULT:      -4.3     10.192     11.160
REMARK  4 active torsions:
REMARK  status: ('A' for Active; 'I' for Inactive)
REMARK    1  A    between atoms: C5_5  and  C9_9 
REMARK    2  A    between atoms: C6_6  and  C10_10 
REMARK    3  A    between atoms: C9_9  and  C12_12 
REMARK    4  A    between atoms: C11_11  and  C12_12 
ROOT
HETATM    1  C1  UNL     1     -41.918  14.282   5.253  1.00 20.00     0.131 C 
HETATM    2  C2  UNL     1     -42.583  15.571   5.681  1.00 20.00     0.079 C 
HETATM    3  C3  UNL     1     -41.740  16.290   6.727  1.00 20.00     0.012 C 
HETATM    4  C4  UNL     1     -40.657  14.116   7.405  1.00 20.00     0.016 C 
HETATM    5  C5  UNL     1     -41.485  13.342   6.373  1.00 20.00     0.056 C 
HETATM    6  C6  UNL     1     -41.350  15.392   7.910  1.00 20.00    -0.014 C 
HETATM    7  O13 UNL     1     -41.826  13.985   4.062  1.00 20.00    -0.298 OA
ENDROOT
BRANCH   5   8
HETATM    8  C9  UNL     1     -40.692  12.154   5.834  1.00 20.00     0.012 C 
BRANCH   8   9
HETATM    9  C12 UNL     1     -39.255  12.168   6.348  1.00 20.00     0.000 C 
BRANCH   9  10
HETATM   10  C11 UNL     1     -38.262  11.926   5.213  1.00 20.00    -0.005 C 
HETATM   11  C8  UNL     1     -38.973  11.685   3.891  1.00 20.00     0.005 C 
ENDBRANCH   9  10
ENDBRANCH   8   9
ENDBRANCH   5   8
BRANCH   6  12
HETATM   12  C10 UNL     1     -42.548  15.079   8.809  1.00 20.00     0.000 C 
HETATM   13  C7  UNL     1     -42.172  14.159   9.924  1.00 20.00     0.005 C 
ENDBRANCH   6  12
TORSDOF 4
ENDMDL
MODEL 3
REMARK VINA RESULT:      -4.2     11.602     12.943
REMARK  4 active torsions:
REMARK  status: ('A' for Active; 'I' for Inactive)
REMARK    1  A    between atoms: C5_5  and  C9_9 
REMARK    2  A    between atoms: C6_6  and  C10_10 
REMARK    3  A    between atoms: C9_9  and  C12_12 
REMARK    4  A    between atoms: C11_11  and  C12_12 
ROOT
HETATM    1  C1  UNL     1     -34.291  14.859  -4.614  1.00 20.00     0.131 C 
HETATM    2  C2  UNL     1     -35.435  14.537  -5.550  1.00 20.00     0.079 C 
HETATM    3  C3  UNL     1     -35.637  15.660  -6.559  1.00 20.00     0.012 C 
HETATM    4  C4  UNL     1     -34.558  17.315  -4.992  1.00 20.00     0.016 C 
HETATM    5  C5  UNL     1     -34.336  16.224  -3.938  1.00 20.00     0.056 C 
HETATM    6  C6  UNL     1     -35.765  17.044  -5.905  1.00 20.00    -0.014 C 
HETATM    7  O13 UNL     1     -33.432  14.016  -4.356  1.00 20.00    -0.298 OA
ENDROOT
BRANCH   5   8
HETATM    8  C9  UNL     1     -33.062  16.501  -3.144  1.00 20.00     0.012 C 
BRANCH   8   9
HETATM    9  C12 UNL     1     -33.374  17.191  -1.818  1.00 20.00     0.000 C 
BRANCH   9  10
HETATM   10  C11 UNL     1     -32.582  18.490  -1.674  1.00 20.00    -0.005 C 
HETATM   11  C8  UNL     1     -31.566  18.402  -0.546  1.00 20.00     0.005 C 
ENDBRANCH   9  10
ENDBRANCH   8   9
ENDBRANCH   5   8
BRANCH   6  12
HETATM   12  C10 UNL     1     -37.094  17.207  -5.166  1.00 20.00     0.000 C 
HETATM   13  C7  UNL     1     -37.169  18.517  -4.454  1.00 20.00     0.005 C 
ENDBRANCH   6  12
TORSDOF 4
ENDMDL
MODEL 4
REMARK VINA RESULT:      -4.0     10.528     11.510
REMARK  4 active torsions:
REMARK  status: ('A' for Active; 'I' for Inactive)
REMARK    1  A    between atoms: C5_5  and  C9_9 
REMARK    2  A    between atoms: C6_6  and  C10_10 
REMARK    3  A    between atoms: C9_9  and  C12_12 
REMARK    4  A    between atoms: C11_11  and  C12_12 
ROOT
HETATM    1  C1  UNL     1     -42.441  13.215   7.712  1.00 20.00     0.131 C 
HETATM    2  C2  UNL     1     -43.070  14.359   8.477  1.00 20.00     0.079 C 
HETATM    3  C3  UNL     1     -43.302  15.554   7.562  1.00 20.00     0.012 C 
HETATM    4  C4  UNL     1     -41.478  14.770   6.008  1.00 20.00     0.016 C 
HETATM    5  C5  UNL     1     -41.197  13.552   6.897  1.00 20.00     0.056 C 
HETATM    6  C6  UNL     1     -42.047  15.971   6.781  1.00 20.00    -0.014 C 
HETATM    7  O13 UNL     1     -42.868  12.067   7.830  1.00 20.00    -0.298 OA
ENDROOT
BRANCH   5   8
HETATM    8  C9  UNL     1     -40.742  12.367   6.050  1.00 20.00     0.012 C 
BRANCH   8   9
HETATM    9  C12 UNL     1     -39.323  11.939   6.411  1.00 20.00     0.000 C 
BRANCH   9  10
HETATM   10  C11 UNL     1     -38.401  12.004   5.194  1.00 20.00    -0.005 C 
HETATM   11  C8  UNL     1     -39.134  11.620   3.919  1.00 20.00     0.005 C 
ENDBRANCH   9  10
ENDBRANCH   8   9
ENDBRANCH   5   8
BRANCH   6  12
HETATM   12  C10 UNL     1     -40.999  16.622   7.686  1.00 20.00     0.000 C 
HETATM   13  C7  UNL     1     -40.551  17.940   7.147  1.00 20.00     0.005 C 
ENDBRANCH   6  12
TORSDOF 4
ENDMDL
MODEL 5
REMARK VINA RESULT:      -3.9     10.764     12.164
REMARK  4 active torsions:
REMARK  status: ('A' for Active; 'I' for Inactive)
REMARK    1  A    between atoms: C5_5  and  C9_9 
REMARK    2  A    between atoms: C6_6  and  C10_10 
REMARK    3  A    between atoms: C9_9  and  C12_12 
REMARK    4  A    between atoms: C11_11  and  C12_12 
ROOT
HETATM    1  C1  UNL     1     -42.577  14.881   7.266  1.00 20.00     0.131 C 
HETATM    2  C2  UNL     1     -43.166  13.789   6.400  1.00 20.00     0.079 C 
HETATM    3  C3  UNL     1     -42.468  12.460   6.660  1.00 20.00     0.012 C 
HETATM    4  C4  UNL     1     -40.407  13.659   7.481  1.00 20.00     0.016 C 
HETATM    5  C5  UNL     1     -41.059  15.023   7.231  1.00 20.00     0.056 C 
HETATM    6  C6  UNL     1     -40.938  12.551   6.557  1.00 20.00    -0.014 C 
HETATM    7  O13 UNL     1     -43.305  15.658   7.882  1.00 20.00    -0.298 OA
ENDROOT
BRANCH   5   8
HETATM    8  C9  UNL     1     -40.568  16.045   8.254  1.00 20.00     0.012 C 
BRANCH   8   9
HETATM    9  C12 UNL     1     -40.043  15.361   9.513  1.00 20.00     0.000 C 
BRANCH   9  10
HETATM   10  C11 UNL     1     -41.086  15.385  10.629  1.00 20.00    -0.005 C 
HETATM   11  C8  UNL     1     -41.616  13.992  10.928  1.00 20.00     0.005 C 
ENDBRANCH   9  10
ENDBRANCH   8   9
ENDBRANCH   5   8
BRANCH   6  12
HETATM   12  C10 UNL     1     -40.472  12.733   5.112  1.00 20.00     0.000 C 
HETATM   13  C7  UNL     1     -39.317  11.843   4.791  1.00 20.00     0.005 C 
ENDBRANCH   6  12
TORSDOF 4
ENDMDL
MODEL 6
REMARK VINA RESULT:      -3.9     12.038     13.708
REMARK  4 active torsions:
REMARK  status: ('A' for Active; 'I' for Inactive)
REMARK    1  A    between atoms: C5_5  and  C9_9 
REMARK    2  A    between atoms: C6_6  and  C10_10 
REMARK    3  A    between atoms: C9_9  and  C12_12 
REMARK    4  A    between atoms: C11_11  and  C12_12 
ROOT
HETATM    1  C1  UNL     1     -35.901  17.755  -4.537  1.00 20.00     0.131 C 
HETATM    2  C2  UNL     1     -36.979  17.228  -5.458  1.00 20.00     0.079 C 
HETATM    3  C3  UNL     1     -36.822  15.727  -5.667  1.00 20.00     0.012 C 
HETATM    4  C4  UNL     1     -34.367  15.866  -5.113  1.00 20.00     0.016 C 
HETATM    5  C5  UNL     1     -34.467  17.381  -4.896  1.00 20.00     0.056 C 
HETATM    6  C6  UNL     1     -35.407  15.323  -6.105  1.00 20.00    -0.014 C 
HETATM    7  O13 UNL     1     -36.178  18.516  -3.612  1.00 20.00    -0.298 OA
ENDROOT
BRANCH   5   8
HETATM    8  C9  UNL     1     -33.483  17.832  -3.819  1.00 20.00     0.012 C 
BRANCH   8   9
HETATM    9  C12 UNL     1     -33.313  16.765  -2.741  1.00 20.00     0.000 C 
BRANCH   9  10
HETATM   10  C11 UNL     1     -33.605  17.334  -1.353  1.00 20.00    -0.005 C 
HETATM   11  C8  UNL     1     -32.475  18.229  -0.868  1.00 20.00     0.005 C 
ENDBRANCH   9  10
ENDBRANCH   8   9
ENDBRANCH   5   8
BRANCH   6  12
HETATM   12  C10 UNL     1     -35.109  15.750  -7.544  1.00 20.00     0.000 C 
HETATM   13  C7  UNL     1     -33.692  15.468  -7.918  1.00 20.00     0.005 C 
ENDBRANCH   6  12
TORSDOF 4
ENDMDL
MODEL 7
REMARK VINA RESULT:      -3.9     13.375     14.787
REMARK  4 active torsions:
REMARK  status: ('A' for Active; 'I' for Inactive)
REMARK    1  A    between atoms: C5_5  and  C9_9 
REMARK    2  A    between atoms: C6_6  and  C10_10 
REMARK    3  A    between atoms: C9_9  and  C12_12 
REMARK    4  A    between atoms: C11_11  and  C12_12 
ROOT
HETATM    1  C1  UNL     1     -24.961  -1.468  11.827  1.00 20.00     0.131 C 
HETATM    2  C2  UNL     1     -26.270  -0.711  11.805  1.00 20.00     0.079 C 
HETATM    3  C3  UNL     1     -27.404  -1.581  12.332  1.00 20.00     0.012 C 
HETATM    4  C4  UNL     1     -26.134  -3.673  11.723  1.00 20.00     0.016 C 
HETATM    5  C5  UNL     1     -24.967  -2.845  11.173  1.00 20.00     0.056 C 
HETATM    6  C6  UNL     1     -27.488  -2.949  11.639  1.00 20.00    -0.014 C 
HETATM    7  O13 UNL     1     -23.938  -0.946  12.270  1.00 20.00    -0.298 OA
ENDROOT
BRANCH   5   8
HETATM    8  C9  UNL     1     -23.645  -3.577  11.390  1.00 20.00     0.012 C 
BRANCH   8   9
HETATM    9  C12 UNL     1     -22.844  -3.672  10.095  1.00 20.00     0.000 C 
BRANCH   9  10
HETATM   10  C11 UNL     1     -23.666  -3.185   8.902  1.00 20.00    -0.005 C 
HETATM   11  C8  UNL     1     -22.951  -3.451   7.586  1.00 20.00     0.005 C 
ENDBRANCH   9  10
ENDBRANCH   8   9
ENDBRANCH   5   8
BRANCH   6  12
HETATM   12  C10 UNL     1     -27.989  -2.831  10.198  1.00 20.00     0.000 C 
HETATM   13  C7  UNL     1     -29.097  -3.793   9.922  1.00 20.00     0.005 C 
ENDBRANCH   6  12
TORSDOF 4
ENDMDL
MODEL 8
REMARK VINA RESULT:      -3.9     11.125     12.208
REMARK  4 active torsions:
REMARK  status: ('A' for Active; 'I' for Inactive)
REMARK    1  A    between atoms: C5_5  and  C9_9 
REMARK    2  A    between atoms: C6_6  and  C10_10 
REMARK    3  A    between atoms: C9_9  and  C12_12 
REMARK    4  A    between atoms: C11_11  and  C12_12 
ROOT
HETATM    1  C1  UNL     1     -40.624  14.667   8.543  1.00 20.00     0.131 C 
HETATM    2  C2  UNL     1     -40.331  15.969   9.257  1.00 20.00     0.079 C 
HETATM    3  C3  UNL     1     -41.498  16.937   9.111  1.00 20.00     0.012 C 
HETATM    4  C4  UNL     1     -42.246  15.778   7.000  1.00 20.00     0.016 C 
HETATM    5  C5  UNL     1     -41.085  14.781   7.095  1.00 20.00     0.056 C 
HETATM    6  C6  UNL     1     -41.939  17.136   7.653  1.00 20.00    -0.014 C 
HETATM    7  O13 UNL     1     -40.407  13.586   9.089  1.00 20.00    -0.298 OA
ENDROOT
BRANCH   5   8
HETATM    8  C9  UNL     1     -41.498  13.425   6.528  1.00 20.00     0.012 C 
BRANCH   8   9
HETATM    9  C12 UNL     1     -40.740  13.108   5.242  1.00 20.00     0.000 C 
BRANCH   9  10
HETATM   10  C11 UNL     1     -39.770  11.945   5.447  1.00 20.00    -0.005 C 
HETATM   11  C8  UNL     1     -39.003  11.627   4.173  1.00 20.00     0.005 C 
ENDBRANCH   9  10
ENDBRANCH   8   9
ENDBRANCH   5   8
BRANCH   6  12
HETATM   12  C10 UNL     1     -40.917  17.943   6.851  1.00 20.00     0.000 C 
HETATM   13  C7  UNL     1     -40.593  19.238   7.519  1.00 20.00     0.005 C 
ENDBRANCH   6  12
TORSDOF 4
ENDMDL
MODEL 9
REMARK VINA RESULT:      -3.8     11.730     13.666
REMARK  4 active torsions:
REMARK  status: ('A' for Active; 'I' for Inactive)
REMARK    1  A    between atoms: C5_5  and  C9_9 
REMARK    2  A    between atoms: C6_6  and  C10_10 
REMARK    3  A    between atoms: C9_9  and  C12_12 
REMARK    4  A    between atoms: C11_11  and  C12_12 
ROOT
HETATM    1  C1  UNL     1     -34.681  15.449  -6.690  1.00 20.00     0.131 C 
HETATM    2  C2  UNL     1     -35.662  15.859  -7.767  1.00 20.00     0.079 C 
HETATM    3  C3  UNL     1     -36.168  17.275  -7.522  1.00 20.00     0.012 C 
HETATM    4  C4  UNL     1     -35.656  17.076  -5.062  1.00 20.00     0.016 C 
HETATM    5  C5  UNL     1     -35.142  15.644  -5.249  1.00 20.00     0.056 C 
HETATM    6  C6  UNL     1     -36.712  17.486  -6.102  1.00 20.00    -0.014 C 
HETATM    7  O13 UNL     1     -33.617  14.905  -6.981  1.00 20.00    -0.298 OA
ENDROOT
BRANCH   5   8
HETATM    8  C9  UNL     1     -34.021  15.345  -4.257  1.00 20.00     0.012 C 
BRANCH   8   9
HETATM    9  C12 UNL     1     -33.379  16.630  -3.742  1.00 20.00     0.000 C 
BRANCH   9  10
HETATM   10  C11 UNL     1     -33.345  16.656  -2.215  1.00 20.00    -0.005 C 
HETATM   11  C8  UNL     1     -34.088  17.862  -1.661  1.00 20.00     0.005 C 
ENDBRANCH   9  10
ENDBRANCH   8   9
ENDBRANCH   5   8
BRANCH   6  12
HETATM   12  C10 UNL     1     -38.044  16.765  -5.885  1.00 20.00     0.000 C 
HETATM   13  C7  UNL     1     -38.587  17.013  -4.517  1.00 20.00     0.005 C 
ENDBRANCH   6  12
TORSDOF 4
ENDMDL
