MODEL 1
REMARK VINA RESULT:      -4.6      0.000      0.000
REMARK  3 active torsions:
REMARK  status: ('A' for Active; 'I' for Inactive)
REMARK    1  A    between atoms: C5_5  and  C9_9 
REMARK    2  A    between atoms: C6_6  and  C10_10 
REMARK    3  A    between atoms: C9_9  and  C11_11 
ROOT
HETATM    1  C1  UNL     1     -32.717   8.703   4.829  1.00 20.00     0.131 C 
HETATM    2  C2  UNL     1     -33.761   8.576   5.916  1.00 20.00     0.079 C 
HETATM    3  C3  UNL     1     -34.081   7.111   6.182  1.00 20.00     0.012 C 
HETATM    4  C4  UNL     1     -33.333   6.487   3.858  1.00 20.00     0.016 C 
HETATM    5  C5  UNL     1     -33.004   7.949   3.536  1.00 20.00     0.055 C 
HETATM    6  C6  UNL     1     -34.462   6.369   4.893  1.00 20.00    -0.014 C 
HETATM    7  O12 UNL     1     -31.748   9.449   4.967  1.00 20.00    -0.298 OA
ENDROOT
BRANCH   5   8
HETATM    8  C9  UNL     1     -31.835   8.036   2.560  1.00 20.00     0.012 C 
BRANCH   8   9
HETATM    9  C11 UNL     1     -32.312   8.376   1.151  1.00 20.00    -0.004 C 
HETATM   10  C8  UNL     1     -32.938   9.761   1.100  1.00 20.00     0.005 C 
ENDBRANCH   8   9
ENDBRANCH   5   8
BRANCH   6  11
HETATM   11  C10 UNL     1     -34.767   4.902   5.191  1.00 20.00     0.000 C 
HETATM   12  C7  UNL     1     -33.879   3.986   4.415  1.00 20.00     0.005 C 
ENDBRANCH   6  11
TORSDOF 3
ENDMDL
MODEL 2
REMARK VINA RESULT:      -4.5     11.180     12.368
REMARK  3 active torsions:
REMARK  status: ('A' for Active; 'I' for Inactive)
REMARK    1  A    between atoms: C5_5  and  C9_9 
REMARK    2  A    between atoms: C6_6  and  C10_10 
REMARK    3  A    between atoms: C9_9  and  C11_11 
ROOT
HETATM    1  C1  UNL     1     -34.844  18.589  -2.292  1.00 20.00     0.131 C 
HETATM    2  C2  UNL     1     -34.895  18.528  -3.803  1.00 20.00     0.079 C 
HETATM    3  C3  UNL     1     -34.644  17.108  -4.290  1.00 20.00     0.012 C 
HETATM    4  C4  UNL     1     -33.388  16.564  -2.174  1.00 20.00     0.016 C 
HETATM    5  C5  UNL     1     -33.605  17.985  -1.641  1.00 20.00     0.055 C 
HETATM    6  C6  UNL     1     -33.346  16.529  -3.709  1.00 20.00    -0.014 C 
HETATM    7  O12 UNL     1     -35.715  19.177  -1.653  1.00 20.00    -0.298 OA
ENDROOT
BRANCH   5   8
HETATM    8  C9  UNL     1     -33.712  17.980  -0.120  1.00 20.00     0.012 C 
BRANCH   8   9
HETATM    9  C11 UNL     1     -32.673  18.903   0.512  1.00 20.00    -0.004 C 
HETATM   10  C8  UNL     1     -31.268  18.547   0.055  1.00 20.00     0.005 C 
ENDBRANCH   8   9
ENDBRANCH   5   8
BRANCH   6  11
HETATM   11  C10 UNL     1     -33.126  15.101  -4.208  1.00 20.00     0.000 C 
HETATM   12  C7  UNL     1     -34.404  14.329  -4.245  1.00 20.00     0.005 C 
ENDBRANCH   6  11
TORSDOF 3
ENDMDL
MODEL 3
REMARK VINA RESULT:      -4.0      9.522     11.097
REMARK  3 active torsions:
REMARK  status: ('A' for Active; 'I' for Inactive)
REMARK    1  A    between atoms: C5_5  and  C9_9 
REMARK    2  A    between atoms: C6_6  and  C10_10 
REMARK    3  A    between atoms: C9_9  and  C11_11 
ROOT
HETATM    1  C1  UNL     1     -41.842  14.212   5.225  1.00 20.00     0.131 C 
HETATM    2  C2  UNL     1     -42.485  15.529   5.597  1.00 20.00     0.079 C 
HETATM    3  C3  UNL     1     -41.668  16.241   6.666  1.00 20.00     0.012 C 
HETATM    4  C4  UNL     1     -40.697  14.047   7.438  1.00 20.00     0.016 C 
HETATM    5  C5  UNL     1     -41.506  13.281   6.386  1.00 20.00     0.055 C 
HETATM    6  C6  UNL     1     -41.406  15.337   7.879  1.00 20.00    -0.014 C 
HETATM    7  O12 UNL     1     -41.692  13.890   4.047  1.00 20.00    -0.298 OA
ENDROOT
BRANCH   5   8
HETATM    8  C9  UNL     1     -40.746  12.045   5.917  1.00 20.00     0.012 C 
BRANCH   8   9
HETATM    9  C11 UNL     1     -39.252  12.326   5.791  1.00 20.00    -0.004 C 
HETATM   10  C8  UNL     1     -38.697  11.786   4.482  1.00 20.00     0.005 C 
ENDBRANCH   8   9
ENDBRANCH   5   8
BRANCH   6  11
HETATM   11  C10 UNL     1     -40.577  16.076   8.928  1.00 20.00     0.000 C 
HETATM   12  C7  UNL     1     -40.116  15.157  10.011  1.00 20.00     0.005 C 
ENDBRANCH   6  11
TORSDOF 3
ENDMDL
MODEL 4
REMARK VINA RESULT:      -3.9      9.961     11.450
REMARK  3 active torsions:
REMARK  status: ('A' for Active; 'I' for Inactive)
REMARK    1  A    between atoms: C5_5  and  C9_9 
REMARK    2  A    between atoms: C6_6  and  C10_10 
REMARK    3  A    between atoms: C9_9  and  C11_11 
ROOT
HETATM    1  C1  UNL     1     -40.508  14.294   7.794  1.00 20.00     0.131 C 
HETATM    2  C2  UNL     1     -40.644  15.776   8.063  1.00 20.00     0.079 C 
HETATM    3  C3  UNL     1     -41.948  16.308   7.483  1.00 20.00     0.012 C 
HETATM    4  C4  UNL     1     -42.009  14.429   5.804  1.00 20.00     0.016 C 
HETATM    5  C5  UNL     1     -40.694  13.858   6.345  1.00 20.00     0.055 C 
HETATM    6  C6  UNL     1     -42.096  15.951   5.997  1.00 20.00    -0.014 C 
HETATM    7  O12 UNL     1     -40.175  13.516   8.688  1.00 20.00    -0.298 OA
ENDROOT
BRANCH   5   8
HETATM    8  C9  UNL     1     -40.666  12.340   6.204  1.00 20.00     0.012 C 
BRANCH   8   9
HETATM    9  C11 UNL     1     -39.280  11.846   5.800  1.00 20.00    -0.004 C 
HETATM   10  C8  UNL     1     -39.158  11.718   4.290  1.00 20.00     0.005 C 
ENDBRANCH   8   9
ENDBRANCH   5   8
BRANCH   6  11
HETATM   11  C10 UNL     1     -43.416  16.489   5.446  1.00 20.00     0.000 C 
HETATM   12  C7  UNL     1     -43.191  17.523   4.393  1.00 20.00     0.005 C 
ENDBRANCH   6  11
TORSDOF 3
ENDMDL
MODEL 5
REMARK VINA RESULT:      -3.9     11.462     13.053
REMARK  3 active torsions:
REMARK  status: ('A' for Active; 'I' for Inactive)
REMARK    1  A    between atoms: C5_5  and  C9_9 
REMARK    2  A    between atoms: C6_6  and  C10_10 
REMARK    3  A    between atoms: C9_9  and  C11_11 
ROOT
HETATM    1  C1  UNL     1     -34.945  15.194  -5.284  1.00 20.00     0.131 C 
HETATM    2  C2  UNL     1     -33.627  14.813  -4.647  1.00 20.00     0.079 C 
HETATM    3  C3  UNL     1     -33.351  15.681  -3.427  1.00 20.00     0.012 C 
HETATM    4  C4  UNL     1     -34.830  17.504  -4.344  1.00 20.00     0.016 C 
HETATM    5  C5  UNL     1     -35.132  16.675  -5.597  1.00 20.00     0.055 C 
HETATM    6  C6  UNL     1     -33.447  17.177  -3.760  1.00 20.00    -0.014 C 
HETATM    7  O12 UNL     1     -35.764  14.335  -5.606  1.00 20.00    -0.298 OA
ENDROOT
BRANCH   5   8
HETATM    8  C9  UNL     1     -36.537  16.970  -6.113  1.00 20.00     0.012 C 
BRANCH   8   9
HETATM    9  C11 UNL     1     -37.473  17.369  -4.977  1.00 20.00    -0.004 C 
HETATM   10  C8  UNL     1     -38.621  16.382  -4.835  1.00 20.00     0.005 C 
ENDBRANCH   8   9
ENDBRANCH   5   8
BRANCH   6  11
HETATM   11  C10 UNL     1     -33.175  18.021  -2.515  1.00 20.00     0.000 C 
HETATM   12  C7  UNL     1     -33.687  17.359  -1.279  1.00 20.00     0.005 C 
ENDBRANCH   6  11
TORSDOF 3
ENDMDL
MODEL 6
REMARK VINA RESULT:      -3.8     11.415     13.440
REMARK  3 active torsions:
REMARK  status: ('A' for Active; 'I' for Inactive)
REMARK    1  A    between atoms: C5_5  and  C9_9 
REMARK    2  A    between atoms: C6_6  and  C10_10 
REMARK    3  A    between atoms: C9_9  and  C11_11 
ROOT
HETATM    1  C1  UNL     1     -34.459  14.798  -4.640  1.00 20.00     0.131 C 
HETATM    2  C2  UNL     1     -35.583  14.483  -5.601  1.00 20.00     0.079 C 
HETATM    3  C3  UNL     1     -35.579  15.461  -6.768  1.00 20.00     0.012 C 
HETATM    4  C4  UNL     1     -34.390  17.185  -5.367  1.00 20.00     0.016 C 
HETATM    5  C5  UNL     1     -34.376  16.242  -4.159  1.00 20.00     0.055 C 
HETATM    6  C6  UNL     1     -35.591  16.919  -6.288  1.00 20.00    -0.014 C 
HETATM    7  O12 UNL     1     -33.723  13.909  -4.213  1.00 20.00    -0.298 OA
ENDROOT
BRANCH   5   8
HETATM    8  C9  UNL     1     -33.138  16.482  -3.301  1.00 20.00     0.012 C 
BRANCH   8   9
HETATM    9  C11 UNL     1     -33.517  16.946  -1.898  1.00 20.00    -0.004 C 
HETATM   10  C8  UNL     1     -32.554  18.007  -1.389  1.00 20.00     0.005 C 
ENDBRANCH   8   9
ENDBRANCH   5   8
BRANCH   6  11
HETATM   11  C10 UNL     1     -35.577  17.876  -7.479  1.00 20.00     0.000 C 
HETATM   12  C7  UNL     1     -34.201  18.379  -7.765  1.00 20.00     0.005 C 
ENDBRANCH   6  11
TORSDOF 3
ENDMDL
MODEL 7
REMARK VINA RESULT:      -3.8      9.837     11.481
REMARK  3 active torsions:
REMARK  status: ('A' for Active; 'I' for Inactive)
REMARK    1  A    between atoms: C5_5  and  C9_9 
REMARK    2  A    between atoms: C6_6  and  C10_10 
REMARK    3  A    between atoms: C9_9  and  C11_11 
ROOT
HETATM    1  C1  UNL     1     -42.660  14.503   7.707  1.00 20.00     0.131 C 
HETATM    2  C2  UNL     1     -43.085  13.458   6.700  1.00 20.00     0.079 C 
HETATM    3  C3  UNL     1     -41.987  12.419   6.512  1.00 20.00     0.012 C 
HETATM    4  C4  UNL     1     -40.241  14.074   7.264  1.00 20.00     0.016 C 
HETATM    5  C5  UNL     1     -41.306  15.158   7.460  1.00 20.00     0.055 C 
HETATM    6  C6  UNL     1     -40.640  13.071   6.170  1.00 20.00    -0.014 C 
HETATM    7  O12 UNL     1     -43.417  14.854   8.612  1.00 20.00    -0.298 OA
ENDROOT
BRANCH   5   8
HETATM    8  C9  UNL     1     -40.917  16.097   8.598  1.00 20.00     0.012 C 
BRANCH   8   9
HETATM    9  C11 UNL     1     -40.108  15.368   9.666  1.00 20.00    -0.004 C 
HETATM   10  C8  UNL     1     -40.728  15.542  11.043  1.00 20.00     0.005 C 
ENDBRANCH   8   9
ENDBRANCH   5   8
BRANCH   6  11
HETATM   11  C10 UNL     1     -39.558  12.005   5.997  1.00 20.00     0.000 C 
HETATM   12  C7  UNL     1     -39.312  11.701   4.556  1.00 20.00     0.005 C 
ENDBRANCH   6  11
TORSDOF 3
ENDMDL
MODEL 8
REMARK VINA RESULT:      -3.8     12.594     14.385
REMARK  3 active torsions:
REMARK  status: ('A' for Active; 'I' for Inactive)
REMARK    1  A    between atoms: C5_5  and  C9_9 
REMARK    2  A    between atoms: C6_6  and  C10_10 
REMARK    3  A    between atoms: C9_9  and  C11_11 
ROOT
HETATM    1  C1  UNL     1     -26.045  -1.146  11.669  1.00 20.00     0.131 C 
HETATM    2  C2  UNL     1     -24.718  -1.439  12.332  1.00 20.00     0.079 C 
HETATM    3  C3  UNL     1     -23.743  -2.048  11.333  1.00 20.00     0.012 C 
HETATM    4  C4  UNL     1     -25.656  -2.888   9.923  1.00 20.00     0.016 C 
HETATM    5  C5  UNL     1     -26.679  -2.302  10.902  1.00 20.00     0.055 C 
HETATM    6  C6  UNL     1     -24.344  -3.271  10.626  1.00 20.00    -0.014 C 
HETATM    7  O12 UNL     1     -26.607  -0.062  11.828  1.00 20.00    -0.298 OA
ENDROOT
BRANCH   5   8
HETATM    8  C9  UNL     1     -27.942  -1.867  10.168  1.00 20.00     0.012 C 
BRANCH   8   9
HETATM    9  C11 UNL     1     -29.171  -2.602  10.694  1.00 20.00    -0.004 C 
HETATM   10  C8  UNL     1     -29.260  -4.008  10.122  1.00 20.00     0.005 C 
ENDBRANCH   8   9
ENDBRANCH   5   8
BRANCH   6  11
HETATM   11  C10 UNL     1     -23.348  -3.853   9.624  1.00 20.00     0.000 C 
HETATM   12  C7  UNL     1     -23.418  -3.152   8.308  1.00 20.00     0.005 C 
ENDBRANCH   6  11
TORSDOF 3
ENDMDL
MODEL 9
REMARK VINA RESULT:      -3.7     12.950     14.699
REMARK  3 active torsions:
REMARK  status: ('A' for Active; 'I' for Inactive)
REMARK    1  A    between atoms: C5_5  and  C9_9 
REMARK    2  A    between atoms: C6_6  and  C10_10 
REMARK    3  A    between atoms: C9_9  and  C11_11 
ROOT
HETATM    1  C1  UNL     1     -24.108  -2.547  11.648  1.00 20.00     0.131 C 
HETATM    2  C2  UNL     1     -24.667  -1.236  12.153  1.00 20.00     0.079 C 
HETATM    3  C3  UNL     1     -26.184  -1.217  12.028  1.00 20.00     0.012 C 
HETATM    4  C4  UNL     1     -26.089  -2.924  10.177  1.00 20.00     0.016 C 
HETATM    5  C5  UNL     1     -24.560  -2.974  10.256  1.00 20.00     0.055 C 
HETATM    6  C6  UNL     1     -26.641  -1.554  10.602  1.00 20.00    -0.014 C 
HETATM    7  O12 UNL     1     -23.270  -3.171  12.298  1.00 20.00    -0.298 OA
ENDROOT
BRANCH   5   8
HETATM    8  C9  UNL     1     -24.046  -4.364   9.896  1.00 20.00     0.012 C 
BRANCH   8   9
HETATM    9  C11 UNL     1     -22.944  -4.292   8.843  1.00 20.00    -0.004 C 
HETATM   10  C8  UNL     1     -23.196  -3.164   7.856  1.00 20.00     0.005 C 
ENDBRANCH   8   9
ENDBRANCH   5   8
BRANCH   6  11
HETATM   11  C10 UNL     1     -28.166  -1.537  10.510  1.00 20.00     0.000 C 
HETATM   12  C7  UNL     1     -28.713  -2.885  10.174  1.00 20.00     0.005 C 
ENDBRANCH   6  11
TORSDOF 3
ENDMDL
