MODEL 1
REMARK VINA RESULT:      -4.7      0.000      0.000
REMARK  3 active torsions:
REMARK  status: ('A' for Active; 'I' for Inactive)
REMARK    1  A    between atoms: C5_5  and  C9_9 
REMARK    2  A    between atoms: C6_6  and  C10_10 
REMARK    3  A    between atoms: C9_9  and  C11_11 
ROOT
HETATM    1  C1  UNL     1     -33.179   5.667   3.015  1.00 20.00     0.131 C 
HETATM    2  C2  UNL     1     -34.062   4.854   3.936  1.00 20.00     0.079 C 
HETATM    3  C3  UNL     1     -35.189   5.712   4.497  1.00 20.00     0.012 C 
HETATM    4  C4  UNL     1     -33.828   7.803   4.139  1.00 20.00     0.016 C 
HETATM    5  C5  UNL     1     -32.660   6.989   3.571  1.00 20.00     0.055 C 
HETATM    6  C6  UNL     1     -34.693   7.017   5.136  1.00 20.00    -0.014 C 
HETATM    7  O12 UNL     1     -32.836   5.225   1.919  1.00 20.00    -0.298 OA
ENDROOT
BRANCH   5   8
HETATM    8  C9  UNL     1     -31.913   7.791   2.509  1.00 20.00     0.012 C 
BRANCH   8   9
HETATM    9  C11 UNL     1     -32.689   9.044   2.116  1.00 20.00    -0.004 C 
HETATM   10  C8  UNL     1     -32.679   9.248   0.609  1.00 20.00     0.005 C 
ENDBRANCH   8   9
ENDBRANCH   5   8
BRANCH   6  11
HETATM   11  C10 UNL     1     -33.964   6.767   6.458  1.00 20.00     0.000 C 
HETATM   12  C7  UNL     1     -34.132   5.359   6.921  1.00 20.00     0.005 C 
ENDBRANCH   6  11
TORSDOF 3
ENDMDL
MODEL 2
REMARK VINA RESULT:      -4.4     10.190     11.408
REMARK  3 active torsions:
REMARK  status: ('A' for Active; 'I' for Inactive)
REMARK    1  A    between atoms: C5_5  and  C9_9 
REMARK    2  A    between atoms: C6_6  and  C10_10 
REMARK    3  A    between atoms: C9_9  and  C11_11 
ROOT
HETATM    1  C1  UNL     1     -40.707  14.124   7.518  1.00 20.00     0.131 C 
HETATM    2  C2  UNL     1     -41.402  15.453   7.724  1.00 20.00     0.079 C 
HETATM    3  C3  UNL     1     -42.859  15.370   7.290  1.00 20.00     0.012 C 
HETATM    4  C4  UNL     1     -42.331  13.454   5.740  1.00 20.00     0.016 C 
HETATM    5  C5  UNL     1     -40.850  13.496   6.136  1.00 20.00     0.055 C 
HETATM    6  C6  UNL     1     -43.036  14.813   5.870  1.00 20.00    -0.014 C 
HETATM    7  O12 UNL     1     -39.995  13.643   8.399  1.00 20.00    -0.298 OA
ENDROOT
BRANCH   5   8
HETATM    8  C9  UNL     1     -40.243  12.096   6.091  1.00 20.00     0.012 C 
BRANCH   8   9
HETATM    9  C11 UNL     1     -38.876  12.108   5.415  1.00 20.00    -0.004 C 
HETATM   10  C8  UNL     1     -38.974  11.658   3.966  1.00 20.00     0.005 C 
ENDBRANCH   8   9
ENDBRANCH   5   8
BRANCH   6  11
HETATM   11  C10 UNL     1     -42.572  15.806   4.803  1.00 20.00     0.000 C 
HETATM   12  C7  UNL     1     -42.589  15.197   3.441  1.00 20.00     0.005 C 
ENDBRANCH   6  11
TORSDOF 3
ENDMDL
MODEL 3
REMARK VINA RESULT:      -4.3     10.095     11.201
REMARK  3 active torsions:
REMARK  status: ('A' for Active; 'I' for Inactive)
REMARK    1  A    between atoms: C5_5  and  C9_9 
REMARK    2  A    between atoms: C6_6  and  C10_10 
REMARK    3  A    between atoms: C9_9  and  C11_11 
ROOT
HETATM    1  C1  UNL     1     -41.740  14.475   5.910  1.00 20.00     0.131 C 
HETATM    2  C2  UNL     1     -42.045  15.793   6.589  1.00 20.00     0.079 C 
HETATM    3  C3  UNL     1     -40.866  16.245   7.441  1.00 20.00     0.012 C 
HETATM    4  C4  UNL     1     -40.061  13.866   7.659  1.00 20.00     0.016 C 
HETATM    5  C5  UNL     1     -41.232  13.354   6.811  1.00 20.00     0.055 C 
HETATM    6  C6  UNL     1     -40.377  15.165   8.416  1.00 20.00    -0.014 C 
HETATM    7  O12 UNL     1     -41.984  14.310   4.715  1.00 20.00    -0.298 OA
ENDROOT
BRANCH   5   8
HETATM    8  C9  UNL     1     -40.813  12.130   6.001  1.00 20.00     0.012 C 
BRANCH   8   9
HETATM    9  C11 UNL     1     -39.316  12.147   5.708  1.00 20.00    -0.004 C 
HETATM   10  C8  UNL     1     -39.032  11.742   4.270  1.00 20.00     0.005 C 
ENDBRANCH   8   9
ENDBRANCH   5   8
BRANCH   6  11
HETATM   11  C10 UNL     1     -41.367  14.936   9.561  1.00 20.00     0.000 C 
HETATM   12  C7  UNL     1     -40.680  14.441  10.790  1.00 20.00     0.005 C 
ENDBRANCH   6  11
TORSDOF 3
ENDMDL
MODEL 4
REMARK VINA RESULT:      -4.2     11.667     13.224
REMARK  3 active torsions:
REMARK  status: ('A' for Active; 'I' for Inactive)
REMARK    1  A    between atoms: C5_5  and  C9_9 
REMARK    2  A    between atoms: C6_6  and  C10_10 
REMARK    3  A    between atoms: C9_9  and  C11_11 
ROOT
HETATM    1  C1  UNL     1     -34.420  14.812  -4.645  1.00 20.00     0.131 C 
HETATM    2  C2  UNL     1     -35.541  14.410  -5.578  1.00 20.00     0.079 C 
HETATM    3  C3  UNL     1     -35.637  15.376  -6.751  1.00 20.00     0.012 C 
HETATM    4  C4  UNL     1     -34.533  17.193  -5.398  1.00 20.00     0.016 C 
HETATM    5  C5  UNL     1     -34.415  16.265  -4.182  1.00 20.00     0.055 C 
HETATM    6  C6  UNL     1     -35.714  16.847  -6.318  1.00 20.00    -0.014 C 
HETATM    7  O12 UNL     1     -33.622  13.976  -4.222  1.00 20.00    -0.298 OA
ENDROOT
BRANCH   5   8
HETATM    8  C9  UNL     1     -33.162  16.594  -3.376  1.00 20.00     0.012 C 
BRANCH   8   9
HETATM    9  C11 UNL     1     -33.509  16.943  -1.933  1.00 20.00    -0.004 C 
HETATM   10  C8  UNL     1     -32.581  18.016  -1.386  1.00 20.00     0.005 C 
ENDBRANCH   8   9
ENDBRANCH   5   8
BRANCH   6  11
HETATM   11  C10 UNL     1     -37.061  17.187  -5.678  1.00 20.00     0.000 C 
HETATM   12  C7  UNL     1     -38.178  17.085  -6.662  1.00 20.00     0.005 C 
ENDBRANCH   6  11
TORSDOF 3
ENDMDL
MODEL 5
REMARK VINA RESULT:      -4.1     11.723     13.090
REMARK  3 active torsions:
REMARK  status: ('A' for Active; 'I' for Inactive)
REMARK    1  A    between atoms: C5_5  and  C9_9 
REMARK    2  A    between atoms: C6_6  and  C10_10 
REMARK    3  A    between atoms: C9_9  and  C11_11 
ROOT
HETATM    1  C1  UNL     1     -34.237  17.869  -4.888  1.00 20.00     0.131 C 
HETATM    2  C2  UNL     1     -34.059  19.008  -3.907  1.00 20.00     0.079 C 
HETATM    3  C3  UNL     1     -32.845  18.770  -3.020  1.00 20.00     0.012 C 
HETATM    4  C4  UNL     1     -33.005  16.283  -3.398  1.00 20.00     0.016 C 
HETATM    5  C5  UNL     1     -34.236  16.463  -4.295  1.00 20.00     0.055 C 
HETATM    6  C6  UNL     1     -32.851  17.391  -2.345  1.00 20.00    -0.014 C 
HETATM    7  O12 UNL     1     -34.461  18.090  -6.077  1.00 20.00    -0.298 OA
ENDROOT
BRANCH   5   8
HETATM    8  C9  UNL     1     -34.266  15.395  -5.385  1.00 20.00     0.012 C 
BRANCH   8   9
HETATM    9  C11 UNL     1     -35.668  14.819  -5.556  1.00 20.00    -0.004 C 
HETATM   10  C8  UNL     1     -35.903  13.653  -4.610  1.00 20.00     0.005 C 
ENDBRANCH   8   9
ENDBRANCH   5   8
BRANCH   6  11
HETATM   11  C10 UNL     1     -33.913  17.295  -1.248  1.00 20.00     0.000 C 
HETATM   12  C7  UNL     1     -33.569  18.149  -0.073  1.00 20.00     0.005 C 
ENDBRANCH   6  11
TORSDOF 3
ENDMDL
MODEL 6
REMARK VINA RESULT:      -4.1     10.613     11.930
REMARK  3 active torsions:
REMARK  status: ('A' for Active; 'I' for Inactive)
REMARK    1  A    between atoms: C5_5  and  C9_9 
REMARK    2  A    between atoms: C6_6  and  C10_10 
REMARK    3  A    between atoms: C9_9  and  C11_11 
ROOT
HETATM    1  C1  UNL     1     -42.500  14.922   7.182  1.00 20.00     0.131 C 
HETATM    2  C2  UNL     1     -43.103  13.838   6.313  1.00 20.00     0.079 C 
HETATM    3  C3  UNL     1     -42.423  12.501   6.573  1.00 20.00     0.012 C 
HETATM    4  C4  UNL     1     -40.347  13.669   7.396  1.00 20.00     0.016 C 
HETATM    5  C5  UNL     1     -40.980  15.044   7.149  1.00 20.00     0.055 C 
HETATM    6  C6  UNL     1     -40.893  12.571   6.471  1.00 20.00    -0.014 C 
HETATM    7  O12 UNL     1     -43.219  15.708   7.798  1.00 20.00    -0.298 OA
ENDROOT
BRANCH   5   8
HETATM    8  C9  UNL     1     -40.477  16.058   8.173  1.00 20.00     0.012 C 
BRANCH   8   9
HETATM    9  C11 UNL     1     -40.110  15.379   9.489  1.00 20.00    -0.004 C 
HETATM   10  C8  UNL     1     -41.010  15.850  10.620  1.00 20.00     0.005 C 
ENDBRANCH   8   9
ENDBRANCH   5   8
BRANCH   6  11
HETATM   11  C10 UNL     1     -40.422  12.749   5.026  1.00 20.00     0.000 C 
HETATM   12  C7  UNL     1     -39.323  11.799   4.684  1.00 20.00     0.005 C 
ENDBRANCH   6  11
TORSDOF 3
ENDMDL
MODEL 7
REMARK VINA RESULT:      -4.0     12.097     13.807
REMARK  3 active torsions:
REMARK  status: ('A' for Active; 'I' for Inactive)
REMARK    1  A    between atoms: C5_5  and  C9_9 
REMARK    2  A    between atoms: C6_6  and  C10_10 
REMARK    3  A    between atoms: C9_9  and  C11_11 
ROOT
HETATM    1  C1  UNL     1     -35.875  17.770  -4.444  1.00 20.00     0.131 C 
HETATM    2  C2  UNL     1     -36.979  17.274  -5.353  1.00 20.00     0.079 C 
HETATM    3  C3  UNL     1     -36.879  15.767  -5.548  1.00 20.00     0.012 C 
HETATM    4  C4  UNL     1     -34.417  15.820  -5.009  1.00 20.00     0.016 C 
HETATM    5  C5  UNL     1     -34.458  17.340  -4.806  1.00 20.00     0.055 C 
HETATM    6  C6  UNL     1     -35.483  15.306  -5.990  1.00 20.00    -0.014 C 
HETATM    7  O12 UNL     1     -36.120  18.551  -3.525  1.00 20.00    -0.298 OA
ENDROOT
BRANCH   5   8
HETATM    8  C9  UNL     1     -33.452  17.765  -3.741  1.00 20.00     0.012 C 
BRANCH   8   9
HETATM    9  C11 UNL     1     -33.322  16.708  -2.649  1.00 20.00    -0.004 C 
HETATM   10  C8  UNL     1     -33.645  17.286  -1.281  1.00 20.00     0.005 C 
ENDBRANCH   8   9
ENDBRANCH   5   8
BRANCH   6  11
HETATM   11  C10 UNL     1     -35.177  15.708  -7.434  1.00 20.00     0.000 C 
HETATM   12  C7  UNL     1     -33.756  15.426  -7.794  1.00 20.00     0.005 C 
ENDBRANCH   6  11
TORSDOF 3
ENDMDL
MODEL 8
REMARK VINA RESULT:      -4.0     11.718     13.403
REMARK  3 active torsions:
REMARK  status: ('A' for Active; 'I' for Inactive)
REMARK    1  A    between atoms: C5_5  and  C9_9 
REMARK    2  A    between atoms: C6_6  and  C10_10 
REMARK    3  A    between atoms: C9_9  and  C11_11 
ROOT
HETATM    1  C1  UNL     1     -34.235  16.860  -4.315  1.00 20.00     0.131 C 
HETATM    2  C2  UNL     1     -33.184  16.320  -3.368  1.00 20.00     0.079 C 
HETATM    3  C3  UNL     1     -33.551  16.632  -1.923  1.00 20.00     0.012 C 
HETATM    4  C4  UNL     1     -34.959  18.588  -2.660  1.00 20.00     0.016 C 
HETATM    5  C5  UNL     1     -34.618  18.324  -4.132  1.00 20.00     0.055 C 
HETATM    6  C6  UNL     1     -33.868  18.115  -1.687  1.00 20.00    -0.014 C 
HETATM    7  O12 UNL     1     -34.673  16.165  -5.231  1.00 20.00    -0.298 OA
ENDROOT
BRANCH   5   8
HETATM    8  C9  UNL     1     -35.788  18.714  -5.032  1.00 20.00     0.012 C 
BRANCH   8   9
HETATM    9  C11 UNL     1     -37.109  18.669  -4.271  1.00 20.00    -0.004 C 
HETATM   10  C8  UNL     1     -37.948  17.474  -4.694  1.00 20.00     0.005 C 
ENDBRANCH   8   9
ENDBRANCH   5   8
BRANCH   6  11
HETATM   11  C10 UNL     1     -32.614  18.989  -1.760  1.00 20.00     0.000 C 
HETATM   12  C7  UNL     1     -31.626  18.621  -0.704  1.00 20.00     0.005 C 
ENDBRANCH   6  11
TORSDOF 3
ENDMDL
MODEL 9
REMARK VINA RESULT:      -3.9     12.288     13.242
REMARK  3 active torsions:
REMARK  status: ('A' for Active; 'I' for Inactive)
REMARK    1  A    between atoms: C5_5  and  C9_9 
REMARK    2  A    between atoms: C6_6  and  C10_10 
REMARK    3  A    between atoms: C9_9  and  C11_11 
ROOT
HETATM    1  C1  UNL     1     -34.051  18.718   0.457  1.00 20.00     0.131 C 
HETATM    2  C2  UNL     1     -34.821  18.470  -0.823  1.00 20.00     0.079 C 
HETATM    3  C3  UNL     1     -34.042  17.546  -1.749  1.00 20.00     0.012 C 
HETATM    4  C4  UNL     1     -31.871  18.219  -0.659  1.00 20.00     0.016 C 
HETATM    5  C5  UNL     1     -32.604  19.170   0.295  1.00 20.00     0.055 C 
HETATM    6  C6  UNL     1     -32.601  18.014  -1.996  1.00 20.00    -0.014 C 
HETATM    7  O12 UNL     1     -34.608  18.645   1.552  1.00 20.00    -0.298 OA
ENDROOT
BRANCH   5   8
HETATM    8  C9  UNL     1     -31.884  19.240   1.639  1.00 20.00     0.012 C 
BRANCH   8   9
HETATM    9  C11 UNL     1     -30.540  18.520   1.585  1.00 20.00    -0.004 C 
HETATM   10  C8  UNL     1     -29.838  18.563   2.932  1.00 20.00     0.005 C 
ENDBRANCH   8   9
ENDBRANCH   5   8
BRANCH   6  11
HETATM   11  C10 UNL     1     -32.547  19.263  -2.879  1.00 20.00     0.000 C 
HETATM   12  C7  UNL     1     -33.253  19.049  -4.176  1.00 20.00     0.005 C 
ENDBRANCH   6  11
TORSDOF 3
ENDMDL
