MODEL 1
REMARK VINA RESULT:      -4.8      0.000      0.000
REMARK  3 active torsions:
REMARK  status: ('A' for Active; 'I' for Inactive)
REMARK    1  A    between atoms: C5_5  and  C9_9 
REMARK    2  A    between atoms: C6_6  and  C10_10 
REMARK    3  A    between atoms: C10_10  and  C11_11 
ROOT
HETATM    1  C1  UNL     1     -33.863   7.255   5.751  1.00 20.00     0.131 C 
HETATM    2  C2  UNL     1     -33.252   8.614   5.488  1.00 20.00     0.079 C 
HETATM    3  C3  UNL     1     -32.222   8.530   4.370  1.00 20.00     0.012 C 
HETATM    4  C4  UNL     1     -33.354   6.483   3.431  1.00 20.00     0.016 C 
HETATM    5  C5  UNL     1     -34.419   6.527   4.532  1.00 20.00     0.055 C 
HETATM    6  C6  UNL     1     -32.808   7.883   3.107  1.00 20.00    -0.013 C 
HETATM    7  O12 UNL     1     -33.978   6.823   6.897  1.00 20.00    -0.298 OA
ENDROOT
BRANCH   6   8
HETATM    8  C10 UNL     1     -31.753   7.806   2.005  1.00 20.00     0.004 C 
BRANCH   8   9
HETATM    9  C11 UNL     1     -32.259   8.434   0.711  1.00 20.00    -0.004 C 
HETATM   10  C8  UNL     1     -32.939   9.769   0.976  1.00 20.00     0.005 C 
ENDBRANCH   8   9
ENDBRANCH   6   8
BRANCH   5  11
HETATM   11  C9  UNL     1     -34.891   5.120   4.883  1.00 20.00     0.007 C 
HETATM   12  C7  UNL     1     -33.896   4.083   4.469  1.00 20.00     0.006 C 
ENDBRANCH   5  11
TORSDOF 3
ENDMDL
MODEL 2
REMARK VINA RESULT:      -4.3     11.480     12.590
REMARK  3 active torsions:
REMARK  status: ('A' for Active; 'I' for Inactive)
REMARK    1  A    between atoms: C5_5  and  C9_9 
REMARK    2  A    between atoms: C6_6  and  C10_10 
REMARK    3  A    between atoms: C10_10  and  C11_11 
ROOT
HETATM    1  C1  UNL     1     -33.626  17.829  -3.986  1.00 20.00     0.131 C 
HETATM    2  C2  UNL     1     -33.149  19.146  -3.413  1.00 20.00     0.079 C 
HETATM    3  C3  UNL     1     -33.536  19.262  -1.946  1.00 20.00     0.012 C 
HETATM    4  C4  UNL     1     -33.629  16.754  -1.731  1.00 20.00     0.016 C 
HETATM    5  C5  UNL     1     -33.234  16.581  -3.202  1.00 20.00     0.055 C 
HETATM    6  C6  UNL     1     -33.059  18.050  -1.134  1.00 20.00    -0.013 C 
HETATM    7  O12 UNL     1     -34.212  17.783  -5.066  1.00 20.00    -0.298 OA
ENDROOT
BRANCH   6   8
HETATM    8  C10 UNL     1     -33.466  18.191   0.331  1.00 20.00     0.004 C 
BRANCH   8   9
HETATM    9  C11 UNL     1     -32.310  18.711   1.178  1.00 20.00    -0.004 C 
HETATM   10  C8  UNL     1     -30.974  18.470   0.493  1.00 20.00     0.005 C 
ENDBRANCH   8   9
ENDBRANCH   6   8
BRANCH   5  11
HETATM   11  C9  UNL     1     -33.872  15.324  -3.788  1.00 20.00     0.007 C 
HETATM   12  C7  UNL     1     -32.869  14.478  -4.504  1.00 20.00     0.006 C 
ENDBRANCH   5  11
TORSDOF 3
ENDMDL
MODEL 3
REMARK VINA RESULT:      -4.2      1.068      1.422
REMARK  3 active torsions:
REMARK  status: ('A' for Active; 'I' for Inactive)
REMARK    1  A    between atoms: C5_5  and  C9_9 
REMARK    2  A    between atoms: C6_6  and  C10_10 
REMARK    3  A    between atoms: C10_10  and  C11_11 
ROOT
HETATM    1  C1  UNL     1     -34.148   5.992   5.920  1.00 20.00     0.131 C 
HETATM    2  C2  UNL     1     -34.214   7.418   6.424  1.00 20.00     0.079 C 
HETATM    3  C3  UNL     1     -33.243   8.302   5.654  1.00 20.00     0.012 C 
HETATM    4  C4  UNL     1     -33.313   6.732   3.685  1.00 20.00     0.016 C 
HETATM    5  C5  UNL     1     -34.297   5.811   4.413  1.00 20.00     0.055 C 
HETATM    6  C6  UNL     1     -33.455   8.194   4.138  1.00 20.00    -0.013 C 
HETATM    7  O12 UNL     1     -34.070   5.047   6.702  1.00 20.00    -0.298 OA
ENDROOT
BRANCH   6   8
HETATM    8  C10 UNL     1     -32.465   9.086   3.392  1.00 20.00     0.004 C 
BRANCH   8   9
HETATM    9  C11 UNL     1     -32.186   8.551   1.992  1.00 20.00    -0.004 C 
HETATM   10  C8  UNL     1     -32.770   9.466   0.926  1.00 20.00     0.005 C 
ENDBRANCH   8   9
ENDBRANCH   6   8
BRANCH   5  11
HETATM   11  C9  UNL     1     -34.086   4.358   3.997  1.00 20.00     0.007 C 
HETATM   12  C7  UNL     1     -33.181   4.248   2.813  1.00 20.00     0.006 C 
ENDBRANCH   5  11
TORSDOF 3
ENDMDL
MODEL 4
REMARK VINA RESULT:      -4.2     11.396     13.249
REMARK  3 active torsions:
REMARK  status: ('A' for Active; 'I' for Inactive)
REMARK    1  A    between atoms: C5_5  and  C9_9 
REMARK    2  A    between atoms: C6_6  and  C10_10 
REMARK    3  A    between atoms: C10_10  and  C11_11 
ROOT
HETATM    1  C1  UNL     1     -35.760  14.805  -6.209  1.00 20.00     0.131 C 
HETATM    2  C2  UNL     1     -35.582  13.962  -4.965  1.00 20.00     0.079 C 
HETATM    3  C3  UNL     1     -34.342  14.398  -4.197  1.00 20.00     0.012 C 
HETATM    4  C4  UNL     1     -34.478  16.701  -5.209  1.00 20.00     0.016 C 
HETATM    5  C5  UNL     1     -35.733  16.315  -5.999  1.00 20.00     0.055 C 
HETATM    6  C6  UNL     1     -34.358  15.904  -3.901  1.00 20.00    -0.013 C 
HETATM    7  O12 UNL     1     -36.002  14.286  -7.297  1.00 20.00    -0.298 OA
ENDROOT
BRANCH   6   8
HETATM    8  C10 UNL     1     -33.102  16.314  -3.135  1.00 20.00     0.004 C 
BRANCH   8   9
HETATM    9  C11 UNL     1     -33.455  17.004  -1.822  1.00 20.00    -0.004 C 
HETATM   10  C8  UNL     1     -32.519  18.169  -1.543  1.00 20.00     0.005 C 
ENDBRANCH   8   9
ENDBRANCH   6   8
BRANCH   5  11
HETATM   11  C9  UNL     1     -35.790  17.069  -7.325  1.00 20.00     0.007 C 
HETATM   12  C7  UNL     1     -34.427  17.461  -7.796  1.00 20.00     0.006 C 
ENDBRANCH   5  11
TORSDOF 3
ENDMDL
MODEL 5
REMARK VINA RESULT:      -4.0      9.865     11.149
REMARK  3 active torsions:
REMARK  status: ('A' for Active; 'I' for Inactive)
REMARK    1  A    between atoms: C5_5  and  C9_9 
REMARK    2  A    between atoms: C6_6  and  C10_10 
REMARK    3  A    between atoms: C10_10  and  C11_11 
ROOT
HETATM    1  C1  UNL     1     -41.760  15.812   6.640  1.00 20.00     0.131 C 
HETATM    2  C2  UNL     1     -42.469  15.003   5.575  1.00 20.00     0.079 C 
HETATM    3  C3  UNL     1     -41.626  13.804   5.165  1.00 20.00     0.012 C 
HETATM    4  C4  UNL     1     -40.443  13.826   7.389  1.00 20.00     0.016 C 
HETATM    5  C5  UNL     1     -41.270  15.030   7.853  1.00 20.00     0.055 C 
HETATM    6  C6  UNL     1     -41.211  12.960   6.378  1.00 20.00    -0.013 C 
HETATM    7  O12 UNL     1     -41.676  17.036   6.555  1.00 20.00    -0.298 OA
ENDROOT
BRANCH   6   8
HETATM    8  C10 UNL     1     -40.363  11.769   5.938  1.00 20.00     0.004 C 
BRANCH   8   9
HETATM    9  C11 UNL     1     -39.043  12.226   5.326  1.00 20.00    -0.004 C 
HETATM   10  C8  UNL     1     -38.858  11.657   3.928  1.00 20.00     0.005 C 
ENDBRANCH   8   9
ENDBRANCH   6   8
BRANCH   5  11
HETATM   11  C9  UNL     1     -40.459  15.909   8.800  1.00 20.00     0.007 C 
HETATM   12  C7  UNL     1     -40.168  15.211  10.090  1.00 20.00     0.006 C 
ENDBRANCH   5  11
TORSDOF 3
ENDMDL
MODEL 6
REMARK VINA RESULT:      -3.9     10.101     10.972
REMARK  3 active torsions:
REMARK  status: ('A' for Active; 'I' for Inactive)
REMARK    1  A    between atoms: C5_5  and  C9_9 
REMARK    2  A    between atoms: C6_6  and  C10_10 
REMARK    3  A    between atoms: C10_10  and  C11_11 
ROOT
HETATM    1  C1  UNL     1     -40.948  13.608   7.290  1.00 20.00     0.131 C 
HETATM    2  C2  UNL     1     -42.151  14.520   7.401  1.00 20.00     0.079 C 
HETATM    3  C3  UNL     1     -42.373  15.273   6.097  1.00 20.00     0.012 C 
HETATM    4  C4  UNL     1     -41.176  13.470   4.807  1.00 20.00     0.016 C 
HETATM    5  C5  UNL     1     -40.932  12.668   6.091  1.00 20.00     0.055 C 
HETATM    6  C6  UNL     1     -42.453  14.319   4.897  1.00 20.00    -0.013 C 
HETATM    7  O12 UNL     1     -40.092  13.579   8.173  1.00 20.00    -0.298 OA
ENDROOT
BRANCH   6   8
HETATM    8  C10 UNL     1     -42.670  15.102   3.604  1.00 20.00     0.004 C 
BRANCH   8   9
HETATM    9  C11 UNL     1     -42.726  16.603   3.869  1.00 20.00    -0.004 C 
HETATM   10  C8  UNL     1     -42.291  17.395   2.646  1.00 20.00     0.005 C 
ENDBRANCH   8   9
ENDBRANCH   6   8
BRANCH   5  11
HETATM   11  C9  UNL     1     -39.623  11.890   6.001  1.00 20.00     0.007 C 
HETATM   12  C7  UNL     1     -39.157  11.753   4.587  1.00 20.00     0.006 C 
ENDBRANCH   5  11
TORSDOF 3
ENDMDL
MODEL 7
REMARK VINA RESULT:      -3.9      1.250      2.681
REMARK  3 active torsions:
REMARK  status: ('A' for Active; 'I' for Inactive)
REMARK    1  A    between atoms: C5_5  and  C9_9 
REMARK    2  A    between atoms: C6_6  and  C10_10 
REMARK    3  A    between atoms: C10_10  and  C11_11 
ROOT
HETATM    1  C1  UNL     1     -34.311   5.317   4.856  1.00 20.00     0.131 C 
HETATM    2  C2  UNL     1     -33.725   4.532   3.703  1.00 20.00     0.079 C 
HETATM    3  C3  UNL     1     -33.341   5.464   2.562  1.00 20.00     0.012 C 
HETATM    4  C4  UNL     1     -33.105   7.392   4.166  1.00 20.00     0.016 C 
HETATM    5  C5  UNL     1     -33.479   6.495   5.351  1.00 20.00     0.055 C 
HETATM    6  C6  UNL     1     -32.425   6.598   3.039  1.00 20.00    -0.013 C 
HETATM    7  O12 UNL     1     -35.350   4.955   5.406  1.00 20.00    -0.298 OA
ENDROOT
BRANCH   6   8
HETATM    8  C10 UNL     1     -32.061   7.519   1.877  1.00 20.00     0.004 C 
BRANCH   8   9
HETATM    9  C11 UNL     1     -32.637   8.917   2.078  1.00 20.00    -0.004 C 
HETATM   10  C8  UNL     1     -32.828   9.631   0.749  1.00 20.00     0.005 C 
ENDBRANCH   8   9
ENDBRANCH   6   8
BRANCH   5  11
HETATM   11  C9  UNL     1     -34.215   7.295   6.422  1.00 20.00     0.007 C 
HETATM   12  C7  UNL     1     -34.042   8.767   6.229  1.00 20.00     0.006 C 
ENDBRANCH   5  11
TORSDOF 3
ENDMDL
MODEL 8
REMARK VINA RESULT:      -3.8     10.019     11.363
REMARK  3 active torsions:
REMARK  status: ('A' for Active; 'I' for Inactive)
REMARK    1  A    between atoms: C5_5  and  C9_9 
REMARK    2  A    between atoms: C6_6  and  C10_10 
REMARK    3  A    between atoms: C10_10  and  C11_11 
ROOT
HETATM    1  C1  UNL     1     -42.461  14.379   8.689  1.00 20.00     0.131 C 
HETATM    2  C2  UNL     1     -42.904  13.029   8.168  1.00 20.00     0.079 C 
HETATM    3  C3  UNL     1     -42.465  12.843   6.722  1.00 20.00     0.012 C 
HETATM    4  C4  UNL     1     -40.587  14.492   7.041  1.00 20.00     0.016 C 
HETATM    5  C5  UNL     1     -40.984  14.711   8.506  1.00 20.00     0.055 C 
HETATM    6  C6  UNL     1     -40.958  13.084   6.552  1.00 20.00    -0.013 C 
HETATM    7  O12 UNL     1     -43.238  15.108   9.302  1.00 20.00    -0.298 OA
ENDROOT
BRANCH   6   8
HETATM    8  C10 UNL     1     -40.547  12.897   5.093  1.00 20.00     0.004 C 
BRANCH   8   9
HETATM    9  C11 UNL     1     -39.619  11.698   4.930  1.00 20.00    -0.004 C 
HETATM   10  C8  UNL     1     -38.223  12.008   5.449  1.00 20.00     0.005 C 
ENDBRANCH   8   9
ENDBRANCH   6   8
BRANCH   5  11
HETATM   11  C9  UNL     1     -40.668  16.138   8.943  1.00 20.00     0.007 C 
HETATM   12  C7  UNL     1     -40.714  17.092   7.794  1.00 20.00     0.006 C 
ENDBRANCH   5  11
TORSDOF 3
ENDMDL
MODEL 9
REMARK VINA RESULT:      -3.7     12.625     13.744
REMARK  3 active torsions:
REMARK  status: ('A' for Active; 'I' for Inactive)
REMARK    1  A    between atoms: C5_5  and  C9_9 
REMARK    2  A    between atoms: C6_6  and  C10_10 
REMARK    3  A    between atoms: C10_10  and  C11_11 
ROOT
HETATM    1  C1  UNL     1     -27.870  -1.001  11.555  1.00 20.00     0.131 C 
HETATM    2  C2  UNL     1     -26.519  -0.347  11.752  1.00 20.00     0.079 C 
HETATM    3  C3  UNL     1     -25.420  -1.398  11.819  1.00 20.00     0.012 C 
HETATM    4  C4  UNL     1     -26.834  -3.015  10.502  1.00 20.00     0.016 C 
HETATM    5  C5  UNL     1     -27.969  -1.989  10.399  1.00 20.00     0.055 C 
HETATM    6  C6  UNL     1     -25.459  -2.338  10.606  1.00 20.00    -0.013 C 
HETATM    7  O12 UNL     1     -28.838  -0.672  12.238  1.00 20.00    -0.298 OA
ENDROOT
BRANCH   6   8
HETATM    8  C10 UNL     1     -24.351  -3.384  10.703  1.00 20.00     0.004 C 
BRANCH   8   9
HETATM    9  C11 UNL     1     -23.153  -3.002   9.841  1.00 20.00    -0.004 C 
HETATM   10  C8  UNL     1     -23.470  -3.151   8.361  1.00 20.00     0.005 C 
ENDBRANCH   8   9
ENDBRANCH   6   8
BRANCH   5  11
HETATM   11  C9  UNL     1     -29.325  -2.686  10.368  1.00 20.00     0.007 C 
HETATM   12  C7  UNL     1     -29.193  -4.139  10.044  1.00 20.00     0.006 C 
ENDBRANCH   5  11
TORSDOF 3
ENDMDL
