MODEL 1
REMARK VINA RESULT:      -3.9      0.000      0.000
REMARK  5 active torsions:
REMARK  status: ('A' for Active; 'I' for Inactive)
REMARK    1  A    between atoms: C3_3  and  C7_7 
REMARK    2  A    between atoms: C4_4  and  C5_5 
REMARK    3  A    between atoms: C4_4  and  C6_6 
REMARK    4  A    between atoms: C5_5  and  C7_7 
REMARK    5  A    between atoms: C6_6  and  O8_8 
ROOT
HETATM    1  C5  UNL     1     -33.440   4.739   3.998  1.00 20.00     0.022 C 
ENDROOT
BRANCH   1   2
HETATM    2  C4  UNL     1     -33.346   5.772   2.866  1.00 20.00     0.028 C 
BRANCH   2   3
HETATM    3  C6  UNL     1     -32.334   6.870   3.175  1.00 20.00     0.167 C 
BRANCH   3   4
HETATM    4  O8  UNL     1     -33.003   8.026   3.658  1.00 20.00    -0.396 OA
HETATM    5  C2  UNL     1     -32.192   8.757   4.569  1.00 20.00     0.201 C 
ENDBRANCH   3   4
ENDBRANCH   2   3
ENDBRANCH   1   2
BRANCH   1   6
HETATM    6  C7  UNL     1     -34.705   4.887   4.858  1.00 20.00     0.082 C 
HETATM    7 CL9  UNL     1     -35.797   6.124   4.157  1.00 20.00    -0.125 Cl
BRANCH   6   8
HETATM    8  C3  UNL     1     -34.338   5.259   6.303  1.00 20.00     0.016 C 
HETATM    9  C1  UNL     1     -34.311   6.761   6.557  1.00 20.00     0.006 C 
ENDBRANCH   6   8
ENDBRANCH   1   6
TORSDOF 5
ENDMDL
MODEL 2
REMARK VINA RESULT:      -3.9      1.534      2.690
REMARK  5 active torsions:
REMARK  status: ('A' for Active; 'I' for Inactive)
REMARK    1  A    between atoms: C3_3  and  C7_7 
REMARK    2  A    between atoms: C4_4  and  C5_5 
REMARK    3  A    between atoms: C4_4  and  C6_6 
REMARK    4  A    between atoms: C5_5  and  C7_7 
REMARK    5  A    between atoms: C6_6  and  O8_8 
ROOT
HETATM    1  C5  UNL     1     -33.669   7.427   6.054  1.00 20.00     0.022 C 
ENDROOT
BRANCH   1   2
HETATM    2  C4  UNL     1     -33.671   8.389   4.857  1.00 20.00     0.028 C 
BRANCH   2   3
HETATM    3  C6  UNL     1     -32.265   8.641   4.322  1.00 20.00     0.167 C 
BRANCH   3   4
HETATM    4  O8  UNL     1     -31.831   7.529   3.552  1.00 20.00    -0.396 OA
HETATM    5  C2  UNL     1     -32.280   7.618   2.206  1.00 20.00     0.201 C 
ENDBRANCH   3   4
ENDBRANCH   2   3
ENDBRANCH   1   2
BRANCH   1   6
HETATM    6  C7  UNL     1     -34.678   6.276   5.915  1.00 20.00     0.082 C 
HETATM    7 CL9  UNL     1     -34.108   4.832   6.811  1.00 20.00    -0.125 Cl
BRANCH   6   8
HETATM    8  C3  UNL     1     -34.903   5.928   4.435  1.00 20.00     0.016 C 
HETATM    9  C1  UNL     1     -34.045   4.769   3.944  1.00 20.00     0.006 C 
ENDBRANCH   6   8
ENDBRANCH   1   6
TORSDOF 5
ENDMDL
MODEL 3
REMARK VINA RESULT:      -3.8      2.221      3.990
REMARK  5 active torsions:
REMARK  status: ('A' for Active; 'I' for Inactive)
REMARK    1  A    between atoms: C3_3  and  C7_7 
REMARK    2  A    between atoms: C4_4  and  C5_5 
REMARK    3  A    between atoms: C4_4  and  C6_6 
REMARK    4  A    between atoms: C5_5  and  C7_7 
REMARK    5  A    between atoms: C6_6  and  O8_8 
ROOT
HETATM    1  C5  UNL     1     -32.222   8.171   4.239  1.00 20.00     0.022 C 
ENDROOT
BRANCH   1   2
HETATM    2  C4  UNL     1     -33.569   8.066   4.969  1.00 20.00     0.028 C 
BRANCH   2   3
HETATM    3  C6  UNL     1     -33.449   7.309   6.288  1.00 20.00     0.167 C 
BRANCH   3   4
HETATM    4  O8  UNL     1     -34.650   6.598   6.552  1.00 20.00    -0.396 OA
HETATM    5  C2  UNL     1     -34.536   5.227   6.192  1.00 20.00     0.201 C 
ENDBRANCH   3   4
ENDBRANCH   2   3
ENDBRANCH   1   2
BRANCH   1   6
HETATM    6  C7  UNL     1     -32.120   7.258   3.008  1.00 20.00     0.082 C 
HETATM    7 CL9  UNL     1     -32.142   8.232   1.502  1.00 20.00    -0.125 Cl
BRANCH   6   8
HETATM    8  C3  UNL     1     -33.267   6.235   2.995  1.00 20.00     0.016 C 
HETATM    9  C1  UNL     1     -32.832   4.837   2.575  1.00 20.00     0.006 C 
ENDBRANCH   6   8
ENDBRANCH   1   6
TORSDOF 5
ENDMDL
MODEL 4
REMARK VINA RESULT:      -3.7      2.116      4.312
REMARK  5 active torsions:
REMARK  status: ('A' for Active; 'I' for Inactive)
REMARK    1  A    between atoms: C3_3  and  C7_7 
REMARK    2  A    between atoms: C4_4  and  C5_5 
REMARK    3  A    between atoms: C4_4  and  C6_6 
REMARK    4  A    between atoms: C5_5  and  C7_7 
REMARK    5  A    between atoms: C6_6  and  O8_8 
ROOT
HETATM    1  C5  UNL     1     -32.195   7.988   4.085  1.00 20.00     0.022 C 
ENDROOT
BRANCH   1   2
HETATM    2  C4  UNL     1     -33.281   8.361   5.105  1.00 20.00     0.028 C 
BRANCH   2   3
HETATM    3  C6  UNL     1     -33.648   7.187   6.007  1.00 20.00     0.167 C 
BRANCH   3   4
HETATM    4  O8  UNL     1     -34.715   6.448   5.432  1.00 20.00    -0.396 OA
HETATM    5  C2  UNL     1     -34.591   5.056   5.700  1.00 20.00     0.201 C 
ENDBRANCH   3   4
ENDBRANCH   2   3
ENDBRANCH   1   2
BRANCH   1   6
HETATM    6  C7  UNL     1     -32.760   7.503   2.741  1.00 20.00     0.082 C 
HETATM    7 CL9  UNL     1     -32.734   5.712   2.660  1.00 20.00    -0.125 Cl
BRANCH   6   8
HETATM    8  C3  UNL     1     -31.962   8.099   1.571  1.00 20.00     0.016 C 
HETATM    9  C1  UNL     1     -32.694   9.220   0.843  1.00 20.00     0.006 C 
ENDBRANCH   6   8
ENDBRANCH   1   6
TORSDOF 5
ENDMDL
MODEL 5
REMARK VINA RESULT:      -3.7      2.295      4.219
REMARK  5 active torsions:
REMARK  status: ('A' for Active; 'I' for Inactive)
REMARK    1  A    between atoms: C3_3  and  C7_7 
REMARK    2  A    between atoms: C4_4  and  C5_5 
REMARK    3  A    between atoms: C4_4  and  C6_6 
REMARK    4  A    between atoms: C5_5  and  C7_7 
REMARK    5  A    between atoms: C6_6  and  O8_8 
ROOT
HETATM    1  C5  UNL     1     -34.002   7.636   5.086  1.00 20.00     0.022 C 
ENDROOT
BRANCH   1   2
HETATM    2  C4  UNL     1     -34.151   6.859   6.402  1.00 20.00     0.028 C 
BRANCH   2   3
HETATM    3  C6  UNL     1     -34.604   5.421   6.170  1.00 20.00     0.167 C 
BRANCH   3   4
HETATM    4  O8  UNL     1     -34.863   5.209   4.790  1.00 20.00    -0.396 OA
HETATM    5  C2  UNL     1     -33.985   4.237   4.236  1.00 20.00     0.201 C 
ENDBRANCH   3   4
ENDBRANCH   2   3
ENDBRANCH   1   2
BRANCH   1   6
HETATM    6  C7  UNL     1     -32.541   7.820   4.646  1.00 20.00     0.082 C 
HETATM    7 CL9  UNL     1     -32.051   9.537   4.804  1.00 20.00    -0.125 Cl
BRANCH   6   8
HETATM    8  C3  UNL     1     -32.347   7.342   3.198  1.00 20.00     0.016 C 
HETATM    9  C1  UNL     1     -32.360   8.473   2.177  1.00 20.00     0.006 C 
ENDBRANCH   6   8
ENDBRANCH   1   6
TORSDOF 5
ENDMDL
MODEL 6
REMARK VINA RESULT:      -3.7      1.064      2.631
REMARK  5 active torsions:
REMARK  status: ('A' for Active; 'I' for Inactive)
REMARK    1  A    between atoms: C3_3  and  C7_7 
REMARK    2  A    between atoms: C4_4  and  C5_5 
REMARK    3  A    between atoms: C4_4  and  C6_6 
REMARK    4  A    between atoms: C5_5  and  C7_7 
REMARK    5  A    between atoms: C6_6  and  O8_8 
ROOT
HETATM    1  C5  UNL     1     -34.410   5.912   5.987  1.00 20.00     0.022 C 
ENDROOT
BRANCH   1   2
HETATM    2  C4  UNL     1     -33.729   7.174   6.535  1.00 20.00     0.028 C 
BRANCH   2   3
HETATM    3  C6  UNL     1     -33.661   8.286   5.494  1.00 20.00     0.167 C 
BRANCH   3   4
HETATM    4  O8  UNL     1     -32.337   8.406   4.995  1.00 20.00    -0.396 OA
HETATM    5  C2  UNL     1     -32.323   8.588   3.585  1.00 20.00     0.201 C 
ENDBRANCH   3   4
ENDBRANCH   2   3
ENDBRANCH   1   2
BRANCH   1   6
HETATM    6  C7  UNL     1     -34.587   5.925   4.460  1.00 20.00     0.082 C 
HETATM    7 CL9  UNL     1     -36.327   5.962   4.031  1.00 20.00    -0.125 Cl
BRANCH   6   8
HETATM    8  C3  UNL     1     -33.908   4.701   3.826  1.00 20.00     0.016 C 
HETATM    9  C1  UNL     1     -32.960   5.053   2.686  1.00 20.00     0.006 C 
ENDBRANCH   6   8
ENDBRANCH   1   6
TORSDOF 5
ENDMDL
MODEL 7
REMARK VINA RESULT:      -3.6      2.181      2.925
REMARK  5 active torsions:
REMARK  status: ('A' for Active; 'I' for Inactive)
REMARK    1  A    between atoms: C3_3  and  C7_7 
REMARK    2  A    between atoms: C4_4  and  C5_5 
REMARK    3  A    between atoms: C4_4  and  C6_6 
REMARK    4  A    between atoms: C5_5  and  C7_7 
REMARK    5  A    between atoms: C6_6  and  O8_8 
ROOT
HETATM    1  C5  UNL     1     -32.765   8.009   4.782  1.00 20.00     0.022 C 
ENDROOT
BRANCH   1   2
HETATM    2  C4  UNL     1     -32.137   7.718   3.411  1.00 20.00     0.028 C 
BRANCH   2   3
HETATM    3  C6  UNL     1     -32.453   8.808   2.393  1.00 20.00     0.167 C 
BRANCH   3   4
HETATM    4  O8  UNL     1     -32.141   8.356   1.083  1.00 20.00    -0.396 OA
HETATM    5  C2  UNL     1     -32.791   9.140   0.090  1.00 20.00     0.201 C 
ENDBRANCH   3   4
ENDBRANCH   2   3
ENDBRANCH   1   2
BRANCH   1   6
HETATM    6  C7  UNL     1     -34.089   7.266   5.019  1.00 20.00     0.082 C 
HETATM    7 CL9  UNL     1     -34.295   6.893   6.760  1.00 20.00    -0.125 Cl
BRANCH   6   8
HETATM    8  C3  UNL     1     -34.142   5.975   4.188  1.00 20.00     0.016 C 
HETATM    9  C1  UNL     1     -34.559   4.750   4.992  1.00 20.00     0.006 C 
ENDBRANCH   6   8
ENDBRANCH   1   6
TORSDOF 5
ENDMDL
MODEL 8
REMARK VINA RESULT:      -3.6      2.343      4.051
REMARK  5 active torsions:
REMARK  status: ('A' for Active; 'I' for Inactive)
REMARK    1  A    between atoms: C3_3  and  C7_7 
REMARK    2  A    between atoms: C4_4  and  C5_5 
REMARK    3  A    between atoms: C4_4  and  C6_6 
REMARK    4  A    between atoms: C5_5  and  C7_7 
REMARK    5  A    between atoms: C6_6  and  O8_8 
ROOT
HETATM    1  C5  UNL     1     -32.960   6.071   3.064  1.00 20.00     0.022 C 
ENDROOT
BRANCH   1   2
HETATM    2  C4  UNL     1     -34.116   6.194   4.068  1.00 20.00     0.028 C 
BRANCH   2   3
HETATM    3  C6  UNL     1     -34.414   4.869   4.763  1.00 20.00     0.167 C 
BRANCH   3   4
HETATM    4  O8  UNL     1     -34.661   5.090   6.145  1.00 20.00    -0.396 OA
HETATM    5  C2  UNL     1     -34.401   6.438   6.514  1.00 20.00     0.201 C 
ENDBRANCH   3   4
ENDBRANCH   2   3
ENDBRANCH   1   2
BRANCH   1   6
HETATM    6  C7  UNL     1     -32.085   7.332   2.983  1.00 20.00     0.082 C 
HETATM    7 CL9  UNL     1     -32.558   8.506   4.252  1.00 20.00    -0.125 Cl
BRANCH   6   8
HETATM    8  C3  UNL     1     -32.193   7.978   1.593  1.00 20.00     0.016 C 
HETATM    9  C1  UNL     1     -32.814   9.369   1.615  1.00 20.00     0.006 C 
ENDBRANCH   6   8
ENDBRANCH   1   6
TORSDOF 5
ENDMDL
MODEL 9
REMARK VINA RESULT:      -3.4      2.326      3.647
REMARK  5 active torsions:
REMARK  status: ('A' for Active; 'I' for Inactive)
REMARK    1  A    between atoms: C3_3  and  C7_7 
REMARK    2  A    between atoms: C4_4  and  C5_5 
REMARK    3  A    between atoms: C4_4  and  C6_6 
REMARK    4  A    between atoms: C5_5  and  C7_7 
REMARK    5  A    between atoms: C6_6  and  O8_8 
ROOT
HETATM    1  C5  UNL     1     -32.229   6.321   2.969  1.00 20.00     0.022 C 
ENDROOT
BRANCH   1   2
HETATM    2  C4  UNL     1     -33.335   5.256   2.957  1.00 20.00     0.028 C 
BRANCH   2   3
HETATM    3  C6  UNL     1     -34.451   5.577   3.946  1.00 20.00     0.167 C 
BRANCH   3   4
HETATM    4  O8  UNL     1     -34.475   4.608   4.984  1.00 20.00    -0.396 OA
HETATM    5  C2  UNL     1     -34.526   5.217   6.268  1.00 20.00     0.201 C 
ENDBRANCH   3   4
ENDBRANCH   2   3
ENDBRANCH   1   2
BRANCH   1   6
HETATM    6  C7  UNL     1     -32.755   7.751   2.768  1.00 20.00     0.082 C 
HETATM    7 CL9  UNL     1     -32.236   8.391   1.175  1.00 20.00    -0.125 Cl
BRANCH   6   8
HETATM    8  C3  UNL     1     -32.265   8.673   3.896  1.00 20.00     0.016 C 
HETATM    9  C1  UNL     1     -32.939   8.407   5.236  1.00 20.00     0.006 C 
ENDBRANCH   6   8
ENDBRANCH   1   6
TORSDOF 5
ENDMDL
