MODEL 1
REMARK VINA RESULT:      -5.2      0.000      0.000
REMARK  3 active torsions:
REMARK  status: ('A' for Active; 'I' for Inactive)
REMARK    1  A    between atoms: C2_2  and  C9_9 
REMARK    2  A    between atoms: C6_6  and  C9_9 
REMARK    3  A    between atoms: C7_7  and  O10_10 
ROOT
HETATM    1  C3  UNL     1     -34.770   5.893   6.336  1.00 20.00     0.003 C 
HETATM    2  C4  UNL     1     -33.889   7.120   6.102  1.00 20.00     0.007 C 
HETATM    3  C5  UNL     1     -34.615   5.009   5.098  1.00 20.00     0.032 C 
HETATM    4  C6  UNL     1     -33.626   7.127   4.599  1.00 20.00     0.018 C 
HETATM    5  C7  UNL     1     -33.491   5.640   4.285  1.00 20.00     0.122 C 
ENDROOT
BRANCH   4   6
HETATM    6  C9  UNL     1     -32.401   7.939   4.209  1.00 20.00     0.034 C 
BRANCH   6   7
HETATM    7  C2  UNL     1     -32.669   8.791   3.003  1.00 20.00    -0.031 C 
HETATM    8  C1  UNL     1     -32.377   8.420   1.748  1.00 20.00    -0.035 C 
HETATM    9  C8  UNL     1     -32.638   9.268   0.548  1.00 20.00     0.036 C 
ENDBRANCH   6   7
ENDBRANCH   4   6
BRANCH   5  10
HETATM   10  O10 UNL     1     -33.648   5.392   2.902  1.00 20.00    -0.395 OA
HETATM   11  H26 UNL     1     -34.339   5.997   2.579  1.00 20.00     0.210 HD
ENDBRANCH   5  10
TORSDOF 3
ENDMDL
MODEL 2
REMARK VINA RESULT:      -4.7      1.534      1.987
REMARK  3 active torsions:
REMARK  status: ('A' for Active; 'I' for Inactive)
REMARK    1  A    between atoms: C2_2  and  C9_9 
REMARK    2  A    between atoms: C6_6  and  C9_9 
REMARK    3  A    between atoms: C7_7  and  O10_10 
ROOT
HETATM    1  C3  UNL     1     -34.102   4.678   4.121  1.00 20.00     0.003 C 
HETATM    2  C4  UNL     1     -33.348   5.842   3.478  1.00 20.00     0.007 C 
HETATM    3  C5  UNL     1     -34.676   5.210   5.434  1.00 20.00     0.032 C 
HETATM    4  C6  UNL     1     -33.127   6.835   4.614  1.00 20.00     0.018 C 
HETATM    5  C7  UNL     1     -34.424   6.713   5.410  1.00 20.00     0.122 C 
ENDROOT
BRANCH   4   6
HETATM    6  C9  UNL     1     -32.850   8.249   4.128  1.00 20.00     0.034 C 
BRANCH   6   7
HETATM    7  C2  UNL     1     -32.524   8.271   2.664  1.00 20.00    -0.031 C 
HETATM    8  C1  UNL     1     -32.899   9.252   1.830  1.00 20.00    -0.035 C 
HETATM    9  C8  UNL     1     -32.580   9.272   0.372  1.00 20.00     0.036 C 
ENDBRANCH   6   7
ENDBRANCH   4   6
BRANCH   5  10
HETATM   10  O10 UNL     1     -34.274   7.236   6.716  1.00 20.00    -0.395 OA
HETATM   11  H26 UNL     1     -33.324   7.399   6.851  1.00 20.00     0.210 HD
ENDBRANCH   5  10
TORSDOF 3
ENDMDL
MODEL 3
REMARK VINA RESULT:      -4.4     11.534     12.256
REMARK  3 active torsions:
REMARK  status: ('A' for Active; 'I' for Inactive)
REMARK    1  A    between atoms: C2_2  and  C9_9 
REMARK    2  A    between atoms: C6_6  and  C9_9 
REMARK    3  A    between atoms: C7_7  and  O10_10 
ROOT
HETATM    1  C3  UNL     1     -33.894  18.973   1.107  1.00 20.00     0.003 C 
HETATM    2  C4  UNL     1     -34.229  18.364  -0.255  1.00 20.00     0.007 C 
HETATM    3  C5  UNL     1     -32.393  19.263   1.092  1.00 20.00     0.032 C 
HETATM    4  C6  UNL     1     -32.885  17.911  -0.817  1.00 20.00     0.018 C 
HETATM    5  C7  UNL     1     -31.944  19.017  -0.344  1.00 20.00     0.122 C 
ENDROOT
BRANCH   4   6
HETATM    6  C9  UNL     1     -32.895  17.736  -2.328  1.00 20.00     0.034 C 
BRANCH   6   7
HETATM    7  C2  UNL     1     -33.538  16.440  -2.724  1.00 20.00    -0.031 C 
HETATM    8  C1  UNL     1     -33.223  15.760  -3.836  1.00 20.00    -0.035 C 
HETATM    9  C8  UNL     1     -33.866  14.473  -4.235  1.00 20.00     0.036 C 
ENDBRANCH   6   7
ENDBRANCH   4   6
BRANCH   5  10
HETATM   10  O10 UNL     1     -30.594  18.600  -0.401  1.00 20.00    -0.395 OA
HETATM   11  H26 UNL     1     -30.588  17.634  -0.285  1.00 20.00     0.210 HD
ENDBRANCH   5  10
TORSDOF 3
ENDMDL
MODEL 4
REMARK VINA RESULT:      -4.4     11.310     12.414
REMARK  3 active torsions:
REMARK  status: ('A' for Active; 'I' for Inactive)
REMARK    1  A    between atoms: C2_2  and  C9_9 
REMARK    2  A    between atoms: C6_6  and  C9_9 
REMARK    3  A    between atoms: C7_7  and  O10_10 
ROOT
HETATM    1  C3  UNL     1     -35.565  15.750  -6.877  1.00 20.00     0.003 C 
HETATM    2  C4  UNL     1     -34.283  16.023  -6.088  1.00 20.00     0.007 C 
HETATM    3  C5  UNL     1     -36.262  14.585  -6.174  1.00 20.00     0.032 C 
HETATM    4  C6  UNL     1     -34.058  14.758  -5.265  1.00 20.00     0.018 C 
HETATM    5  C7  UNL     1     -35.481  14.360  -4.884  1.00 20.00     0.122 C 
ENDROOT
BRANCH   4   6
HETATM    6  C9  UNL     1     -33.152  14.979  -4.064  1.00 20.00     0.034 C 
BRANCH   6   7
HETATM    7  C2  UNL     1     -33.328  16.355  -3.492  1.00 20.00    -0.031 C 
HETATM    8  C1  UNL     1     -33.475  16.605  -2.183  1.00 20.00    -0.035 C 
HETATM    9  C8  UNL     1     -33.656  17.973  -1.612  1.00 20.00     0.036 C 
ENDBRANCH   6   7
ENDBRANCH   4   6
BRANCH   5  10
HETATM   10  O10 UNL     1     -35.541  13.009  -4.470  1.00 20.00    -0.395 OA
HETATM   11  H26 UNL     1     -36.199  12.565  -5.033  1.00 20.00     0.210 HD
ENDBRANCH   5  10
TORSDOF 3
ENDMDL
MODEL 5
REMARK VINA RESULT:      -4.4     11.602     12.173
REMARK  3 active torsions:
REMARK  status: ('A' for Active; 'I' for Inactive)
REMARK    1  A    between atoms: C2_2  and  C9_9 
REMARK    2  A    between atoms: C6_6  and  C9_9 
REMARK    3  A    between atoms: C7_7  and  O10_10 
ROOT
HETATM    1  C3  UNL     1     -30.944  18.838   0.470  1.00 20.00     0.003 C 
HETATM    2  C4  UNL     1     -31.620  18.386  -0.825  1.00 20.00     0.007 C 
HETATM    3  C5  UNL     1     -32.034  18.847   1.543  1.00 20.00     0.032 C 
HETATM    4  C6  UNL     1     -33.111  18.588  -0.575  1.00 20.00     0.018 C 
HETATM    5  C7  UNL     1     -33.251  18.198   0.895  1.00 20.00     0.122 C 
ENDROOT
BRANCH   4   6
HETATM    6  C9  UNL     1     -33.991  17.764  -1.502  1.00 20.00     0.034 C 
BRANCH   6   7
HETATM    7  C2  UNL     1     -33.169  16.893  -2.406  1.00 20.00    -0.031 C 
HETATM    8  C1  UNL     1     -33.691  15.991  -3.250  1.00 20.00    -0.035 C 
HETATM    9  C8  UNL     1     -32.875  15.120  -4.145  1.00 20.00     0.036 C 
ENDBRANCH   6   7
ENDBRANCH   4   6
BRANCH   5  10
HETATM   10  O10 UNL     1     -34.457  18.692   1.443  1.00 20.00    -0.395 OA
HETATM   11  H26 UNL     1     -34.772  19.398   0.852  1.00 20.00     0.210 HD
ENDBRANCH   5  10
TORSDOF 3
ENDMDL
MODEL 6
REMARK VINA RESULT:      -4.3     11.414     12.585
REMARK  3 active torsions:
REMARK  status: ('A' for Active; 'I' for Inactive)
REMARK    1  A    between atoms: C2_2  and  C9_9 
REMARK    2  A    between atoms: C6_6  and  C9_9 
REMARK    3  A    between atoms: C7_7  and  O10_10 
ROOT
HETATM    1  C3  UNL     1     -34.763  16.537  -6.226  1.00 20.00     0.003 C 
HETATM    2  C4  UNL     1     -34.543  17.113  -4.826  1.00 20.00     0.007 C 
HETATM    3  C5  UNL     1     -34.306  15.080  -6.169  1.00 20.00     0.032 C 
HETATM    4  C6  UNL     1     -33.572  16.144  -4.158  1.00 20.00     0.018 C 
HETATM    5  C7  UNL     1     -34.038  14.793  -4.696  1.00 20.00     0.122 C 
ENDROOT
BRANCH   4   6
HETATM    6  C9  UNL     1     -33.594  16.227  -2.640  1.00 20.00     0.034 C 
BRANCH   6   7
HETATM    7  C2  UNL     1     -32.888  17.456  -2.149  1.00 20.00    -0.031 C 
HETATM    8  C1  UNL     1     -33.000  17.933  -0.901  1.00 20.00    -0.035 C 
HETATM    9  C8  UNL     1     -32.304  19.159  -0.412  1.00 20.00     0.036 C 
ENDBRANCH   6   7
ENDBRANCH   4   6
BRANCH   5  10
HETATM   10  O10 UNL     1     -33.040  13.805  -4.532  1.00 20.00    -0.395 OA
HETATM   11  H26 UNL     1     -32.532  14.040  -3.735  1.00 20.00     0.210 HD
ENDBRANCH   5  10
TORSDOF 3
ENDMDL
MODEL 7
REMARK VINA RESULT:      -4.3      1.549      2.012
REMARK  3 active torsions:
REMARK  status: ('A' for Active; 'I' for Inactive)
REMARK    1  A    between atoms: C2_2  and  C9_9 
REMARK    2  A    between atoms: C6_6  and  C9_9 
REMARK    3  A    between atoms: C7_7  and  O10_10 
ROOT
HETATM    1  C3  UNL     1     -34.829   5.887   5.690  1.00 20.00     0.003 C 
HETATM    2  C4  UNL     1     -34.276   5.515   4.314  1.00 20.00     0.007 C 
HETATM    3  C5  UNL     1     -34.099   7.160   6.118  1.00 20.00     0.032 C 
HETATM    4  C6  UNL     1     -32.967   6.290   4.200  1.00 20.00     0.018 C 
HETATM    5  C7  UNL     1     -33.308   7.607   4.894  1.00 20.00     0.122 C 
ENDROOT
BRANCH   4   6
HETATM    6  C9  UNL     1     -32.500   6.470   2.764  1.00 20.00     0.034 C 
BRANCH   6   7
HETATM    7  C2  UNL     1     -32.601   7.903   2.331  1.00 20.00    -0.031 C 
HETATM    8  C1  UNL     1     -32.567   8.299   1.050  1.00 20.00    -0.035 C 
HETATM    9  C8  UNL     1     -32.661   9.724   0.618  1.00 20.00     0.036 C 
ENDBRANCH   6   7
ENDBRANCH   4   6
BRANCH   5  10
HETATM   10  O10 UNL     1     -32.137   8.310   5.261  1.00 20.00    -0.395 OA
HETATM   11  H26 UNL     1     -32.369   8.878   6.017  1.00 20.00     0.210 HD
ENDBRANCH   5  10
TORSDOF 3
ENDMDL
MODEL 8
REMARK VINA RESULT:      -4.1     12.037     12.603
REMARK  3 active torsions:
REMARK  status: ('A' for Active; 'I' for Inactive)
REMARK    1  A    between atoms: C2_2  and  C9_9 
REMARK    2  A    between atoms: C6_6  and  C9_9 
REMARK    3  A    between atoms: C7_7  and  O10_10 
ROOT
HETATM    1  C3  UNL     1     -32.461  18.398  -1.737  1.00 20.00     0.003 C 
HETATM    2  C4  UNL     1     -31.536  18.925  -0.640  1.00 20.00     0.007 C 
HETATM    3  C5  UNL     1     -33.781  18.041  -1.053  1.00 20.00     0.032 C 
HETATM    4  C6  UNL     1     -32.165  18.442   0.663  1.00 20.00     0.018 C 
HETATM    5  C7  UNL     1     -33.658  18.571   0.371  1.00 20.00     0.122 C 
ENDROOT
BRANCH   4   6
HETATM    6  C9  UNL     1     -31.718  19.241   1.877  1.00 20.00     0.034 C 
BRANCH   6   7
HETATM    7  C2  UNL     1     -30.259  19.036   2.160  1.00 20.00    -0.031 C 
HETATM    8  C1  UNL     1     -29.765  18.781   3.380  1.00 20.00    -0.035 C 
HETATM    9  C8  UNL     1     -28.313  18.583   3.665  1.00 20.00     0.036 C 
ENDBRANCH   6   7
ENDBRANCH   4   6
BRANCH   5  10
HETATM   10  O10 UNL     1     -34.425  17.805   1.279  1.00 20.00    -0.395 OA
HETATM   11  H26 UNL     1     -35.074  17.304   0.754  1.00 20.00     0.210 HD
ENDBRANCH   5  10
TORSDOF 3
ENDMDL
MODEL 9
REMARK VINA RESULT:      -4.0     10.287     11.083
REMARK  3 active torsions:
REMARK  status: ('A' for Active; 'I' for Inactive)
REMARK    1  A    between atoms: C2_2  and  C9_9 
REMARK    2  A    between atoms: C6_6  and  C9_9 
REMARK    3  A    between atoms: C7_7  and  O10_10 
ROOT
HETATM    1  C3  UNL     1     -41.150  16.551   7.410  1.00 20.00     0.003 C 
HETATM    2  C4  UNL     1     -41.759  15.412   6.591  1.00 20.00     0.007 C 
HETATM    3  C5  UNL     1     -40.417  15.896   8.580  1.00 20.00     0.032 C 
HETATM    4  C6  UNL     1     -41.751  14.212   7.532  1.00 20.00     0.018 C 
HETATM    5  C7  UNL     1     -40.438  14.400   8.289  1.00 20.00     0.122 C 
ENDROOT
BRANCH   4   6
HETATM    6  C9  UNL     1     -41.841  12.879   6.805  1.00 20.00     0.034 C 
BRANCH   6   7
HETATM    7  C2  UNL     1     -40.846  12.799   5.684  1.00 20.00    -0.031 C 
HETATM    8  C1  UNL     1     -39.915  11.840   5.581  1.00 20.00    -0.035 C 
HETATM    9  C8  UNL     1     -38.920  11.763   4.471  1.00 20.00     0.036 C 
ENDBRANCH   6   7
ENDBRANCH   4   6
BRANCH   5  10
HETATM   10  O10 UNL     1     -40.421  13.639   9.481  1.00 20.00    -0.395 OA
HETATM   11  H26 UNL     1     -41.331  13.623   9.824  1.00 20.00     0.210 HD
ENDBRANCH   5  10
TORSDOF 3
ENDMDL
