MODEL 1
REMARK VINA RESULT:      -4.1      0.000      0.000
REMARK  4 active torsions:
REMARK  status: ('A' for Active; 'I' for Inactive)
REMARK    1  A    between atoms: C4_4  and  C5_5 
REMARK    2  A    between atoms: C4_4  and  C6_6 
REMARK    3  A    between atoms: C5_5  and  O8_8 
REMARK    4  A    between atoms: C6_6  and  C7_7 
ROOT
HETATM    1  C1  UNL     1     -32.504   9.232   4.176  1.00 20.00     0.011 C 
HETATM    2  C6  UNL     1     -32.513   7.697   4.241  1.00 20.00     0.001 C 
ENDROOT
BRANCH   2   3
HETATM    3  C4  UNL     1     -33.886   7.227   4.767  1.00 20.00     0.032 C 
BRANCH   3   4
HETATM    4  C5  UNL     1     -33.960   7.085   6.283  1.00 20.00     0.167 C 
BRANCH   4   5
HETATM    5  O8  UNL     1     -34.376   5.763   6.597  1.00 20.00    -0.396 OA
HETATM    6  C3  UNL     1     -34.814   5.065   5.439  1.00 20.00     0.201 C 
ENDBRANCH   4   5
ENDBRANCH   3   4
ENDBRANCH   2   3
BRANCH   2   7
HETATM    7  C7  UNL     1     -32.095   7.022   2.910  1.00 20.00     0.082 C 
HETATM    8  C2  UNL     1     -32.857   5.729   2.625  1.00 20.00     0.027 C 
HETATM    9 CL9  UNL     1     -32.276   8.117   1.504  1.00 20.00    -0.125 Cl
ENDBRANCH   2   7
TORSDOF 4
ENDMDL
MODEL 2
REMARK VINA RESULT:      -3.9      3.046      4.094
REMARK  4 active torsions:
REMARK  status: ('A' for Active; 'I' for Inactive)
REMARK    1  A    between atoms: C4_4  and  C5_5 
REMARK    2  A    between atoms: C4_4  and  C6_6 
REMARK    3  A    between atoms: C5_5  and  O8_8 
REMARK    4  A    between atoms: C6_6  and  C7_7 
ROOT
HETATM    1  C1  UNL     1     -33.677   7.600   6.214  1.00 20.00     0.011 C 
HETATM    2  C6  UNL     1     -33.815   7.338   4.707  1.00 20.00     0.001 C 
ENDROOT
BRANCH   2   3
HETATM    3  C4  UNL     1     -32.475   7.675   4.016  1.00 20.00     0.032 C 
BRANCH   3   4
HETATM    4  C5  UNL     1     -32.591   8.701   2.895  1.00 20.00     0.167 C 
BRANCH   4   5
HETATM    5  O8  UNL     1     -32.198   8.087   1.674  1.00 20.00    -0.396 OA
HETATM    6  C3  UNL     1     -32.541   8.891   0.553  1.00 20.00     0.201 C 
ENDBRANCH   4   5
ENDBRANCH   3   4
ENDBRANCH   2   3
BRANCH   2   7
HETATM    7  C7  UNL     1     -34.343   5.920   4.373  1.00 20.00     0.082 C 
HETATM    8  C2  UNL     1     -33.471   5.172   3.367  1.00 20.00     0.027 C 
HETATM    9 CL9  UNL     1     -34.534   4.903   5.836  1.00 20.00    -0.125 Cl
ENDBRANCH   2   7
TORSDOF 4
ENDMDL
MODEL 3
REMARK VINA RESULT:      -3.8      1.464      2.452
REMARK  4 active torsions:
REMARK  status: ('A' for Active; 'I' for Inactive)
REMARK    1  A    between atoms: C4_4  and  C5_5 
REMARK    2  A    between atoms: C4_4  and  C6_6 
REMARK    3  A    between atoms: C5_5  and  O8_8 
REMARK    4  A    between atoms: C6_6  and  C7_7 
ROOT
HETATM    1  C1  UNL     1     -32.857   4.829   2.720  1.00 20.00     0.011 C 
HETATM    2  C6  UNL     1     -33.334   6.273   2.939  1.00 20.00     0.001 C 
ENDROOT
BRANCH   2   3
HETATM    3  C4  UNL     1     -34.230   6.317   4.196  1.00 20.00     0.032 C 
BRANCH   3   4
HETATM    4  C5  UNL     1     -34.516   4.950   4.807  1.00 20.00     0.167 C 
BRANCH   4   5
HETATM    5  O8  UNL     1     -34.563   5.085   6.222  1.00 20.00    -0.396 OA
HETATM    6  C3  UNL     1     -34.373   6.435   6.623  1.00 20.00     0.201 C 
ENDBRANCH   4   5
ENDBRANCH   3   4
ENDBRANCH   2   3
BRANCH   2   7
HETATM    7  C7  UNL     1     -32.179   7.306   2.966  1.00 20.00     0.082 C 
HETATM    8  C2  UNL     1     -32.084   8.138   1.690  1.00 20.00     0.027 C 
HETATM    9 CL9  UNL     1     -32.290   8.416   4.369  1.00 20.00    -0.125 Cl
ENDBRANCH   2   7
TORSDOF 4
ENDMDL
MODEL 4
REMARK VINA RESULT:      -3.8      3.138      4.477
REMARK  4 active torsions:
REMARK  status: ('A' for Active; 'I' for Inactive)
REMARK    1  A    between atoms: C4_4  and  C5_5 
REMARK    2  A    between atoms: C4_4  and  C6_6 
REMARK    3  A    between atoms: C5_5  and  O8_8 
REMARK    4  A    between atoms: C6_6  and  C7_7 
ROOT
HETATM    1  C1  UNL     1     -32.961   5.652   2.768  1.00 20.00     0.011 C 
HETATM    2  C6  UNL     1     -32.969   6.579   3.993  1.00 20.00     0.001 C 
ENDROOT
BRANCH   2   3
HETATM    3  C4  UNL     1     -32.600   8.009   3.539  1.00 20.00     0.032 C 
BRANCH   3   4
HETATM    4  C5  UNL     1     -32.201   8.115   2.072  1.00 20.00     0.167 C 
BRANCH   4   5
HETATM    5  O8  UNL     1     -32.679   9.351   1.559  1.00 20.00    -0.396 OA
HETATM    6  C3  UNL     1     -32.842   9.301   0.148  1.00 20.00     0.201 C 
ENDBRANCH   4   5
ENDBRANCH   3   4
ENDBRANCH   2   3
BRANCH   2   7
HETATM    7  C7  UNL     1     -34.284   6.509   4.811  1.00 20.00     0.082 C 
HETATM    8  C2  UNL     1     -34.880   5.106   4.875  1.00 20.00     0.027 C 
HETATM    9 CL9  UNL     1     -34.080   7.125   6.481  1.00 20.00    -0.125 Cl
ENDBRANCH   2   7
TORSDOF 4
ENDMDL
MODEL 5
REMARK VINA RESULT:      -3.6      2.572      3.566
REMARK  4 active torsions:
REMARK  status: ('A' for Active; 'I' for Inactive)
REMARK    1  A    between atoms: C4_4  and  C5_5 
REMARK    2  A    between atoms: C4_4  and  C6_6 
REMARK    3  A    between atoms: C5_5  and  O8_8 
REMARK    4  A    between atoms: C6_6  and  C7_7 
ROOT
HETATM    1  C1  UNL     1     -34.560   5.774   6.338  1.00 20.00     0.011 C 
HETATM    2  C6  UNL     1     -34.738   6.052   4.838  1.00 20.00     0.001 C 
ENDROOT
BRANCH   2   3
HETATM    3  C4  UNL     1     -34.160   7.448   4.516  1.00 20.00     0.032 C 
BRANCH   3   4
HETATM    4  C5  UNL     1     -33.157   7.960   5.543  1.00 20.00     0.167 C 
BRANCH   4   5
HETATM    5  O8  UNL     1     -32.114   8.643   4.859  1.00 20.00    -0.396 OA
HETATM    6  C3  UNL     1     -32.442   8.860   3.494  1.00 20.00     0.201 C 
ENDBRANCH   4   5
ENDBRANCH   3   4
ENDBRANCH   2   3
BRANCH   2   7
HETATM    7  C7  UNL     1     -34.178   4.926   3.932  1.00 20.00     0.082 C 
HETATM    8  C2  UNL     1     -33.164   5.427   2.905  1.00 20.00     0.027 C 
HETATM    9 CL9  UNL     1     -33.432   3.599   4.876  1.00 20.00    -0.125 Cl
ENDBRANCH   2   7
TORSDOF 4
ENDMDL
MODEL 6
REMARK VINA RESULT:      -3.5      2.424      3.676
REMARK  4 active torsions:
REMARK  status: ('A' for Active; 'I' for Inactive)
REMARK    1  A    between atoms: C4_4  and  C5_5 
REMARK    2  A    between atoms: C4_4  and  C6_6 
REMARK    3  A    between atoms: C5_5  and  O8_8 
REMARK    4  A    between atoms: C6_6  and  C7_7 
ROOT
HETATM    1  C1  UNL     1     -33.011   5.050   2.547  1.00 20.00     0.011 C 
HETATM    2  C6  UNL     1     -33.304   5.742   3.887  1.00 20.00     0.001 C 
ENDROOT
BRANCH   2   3
HETATM    3  C4  UNL     1     -33.350   7.269   3.661  1.00 20.00     0.032 C 
BRANCH   3   4
HETATM    4  C5  UNL     1     -32.037   7.984   3.957  1.00 20.00     0.167 C 
BRANCH   4   5
HETATM    5  O8  UNL     1     -32.253   8.916   5.009  1.00 20.00    -0.396 OA
HETATM    6  C3  UNL     1     -33.550   8.776   5.571  1.00 20.00     0.201 C 
ENDBRANCH   4   5
ENDBRANCH   3   4
ENDBRANCH   2   3
BRANCH   2   7
HETATM    7  C7  UNL     1     -34.559   5.185   4.607  1.00 20.00     0.082 C 
HETATM    8  C2  UNL     1     -34.439   5.202   6.128  1.00 20.00     0.027 C 
HETATM    9 CL9  UNL     1     -36.055   6.053   4.138  1.00 20.00    -0.125 Cl
ENDBRANCH   2   7
TORSDOF 4
ENDMDL
MODEL 7
REMARK VINA RESULT:      -3.5      1.441      2.603
REMARK  4 active torsions:
REMARK  status: ('A' for Active; 'I' for Inactive)
REMARK    1  A    between atoms: C4_4  and  C5_5 
REMARK    2  A    between atoms: C4_4  and  C6_6 
REMARK    3  A    between atoms: C5_5  and  O8_8 
REMARK    4  A    between atoms: C6_6  and  C7_7 
ROOT
HETATM    1  C1  UNL     1     -33.949   7.598   6.565  1.00 20.00     0.011 C 
HETATM    2  C6  UNL     1     -33.510   7.122   5.172  1.00 20.00     0.001 C 
ENDROOT
BRANCH   2   3
HETATM    3  C4  UNL     1     -34.648   6.284   4.550  1.00 20.00     0.032 C 
BRANCH   3   4
HETATM    4  C5  UNL     1     -34.792   4.888   5.144  1.00 20.00     0.167 C 
BRANCH   4   5
HETATM    5  O8  UNL     1     -34.027   3.979   4.363  1.00 20.00    -0.396 OA
HETATM    6  C3  UNL     1     -33.571   4.583   3.159  1.00 20.00     0.201 C 
ENDBRANCH   4   5
ENDBRANCH   3   4
ENDBRANCH   2   3
BRANCH   2   7
HETATM    7  C7  UNL     1     -33.015   8.270   4.256  1.00 20.00     0.082 C 
HETATM    8  C2  UNL     1     -32.107   9.265   4.974  1.00 20.00     0.027 C 
HETATM    9 CL9  UNL     1     -32.165   7.662   2.801  1.00 20.00    -0.125 Cl
ENDBRANCH   2   7
TORSDOF 4
ENDMDL
MODEL 8
REMARK VINA RESULT:      -3.5     15.869     16.655
REMARK  4 active torsions:
REMARK  status: ('A' for Active; 'I' for Inactive)
REMARK    1  A    between atoms: C4_4  and  C5_5 
REMARK    2  A    between atoms: C4_4  and  C6_6 
REMARK    3  A    between atoms: C5_5  and  O8_8 
REMARK    4  A    between atoms: C6_6  and  C7_7 
ROOT
HETATM    1  C1  UNL     1     -21.931  18.516  12.332  1.00 20.00     0.011 C 
HETATM    2  C6  UNL     1     -23.292  18.596  11.626  1.00 20.00     0.001 C 
ENDROOT
BRANCH   2   3
HETATM    3  C4  UNL     1     -23.099  18.268  10.129  1.00 20.00     0.032 C 
BRANCH   3   4
HETATM    4  C5  UNL     1     -21.681  17.848   9.760  1.00 20.00     0.167 C 
BRANCH   4   5
HETATM    5  O8  UNL     1     -21.736  17.038   8.592  1.00 20.00    -0.396 OA
HETATM    6  C3  UNL     1     -21.446  17.791   7.423  1.00 20.00     0.201 C 
ENDBRANCH   4   5
ENDBRANCH   3   4
ENDBRANCH   2   3
BRANCH   2   7
HETATM    7  C7  UNL     1     -24.392  17.745  12.310  1.00 20.00     0.082 C 
HETATM    8  C2  UNL     1     -25.776  18.388  12.251  1.00 20.00     0.027 C 
HETATM    9 CL9  UNL     1     -24.497  16.091  11.627  1.00 20.00    -0.125 Cl
ENDBRANCH   2   7
TORSDOF 4
ENDMDL
MODEL 9
REMARK VINA RESULT:      -3.4     12.242     13.420
REMARK  4 active torsions:
REMARK  status: ('A' for Active; 'I' for Inactive)
REMARK    1  A    between atoms: C4_4  and  C5_5 
REMARK    2  A    between atoms: C4_4  and  C6_6 
REMARK    3  A    between atoms: C5_5  and  O8_8 
REMARK    4  A    between atoms: C6_6  and  C7_7 
ROOT
HETATM    1  C1  UNL     1     -33.697  14.704  -4.133  1.00 20.00     0.011 C 
HETATM    2  C6  UNL     1     -34.054  16.096  -4.676  1.00 20.00     0.001 C 
ENDROOT
BRANCH   2   3
HETATM    3  C4  UNL     1     -35.390  16.004  -5.445  1.00 20.00     0.032 C 
BRANCH   3   4
HETATM    4  C5  UNL     1     -35.924  14.586  -5.602  1.00 20.00     0.167 C 
BRANCH   4   5
HETATM    5  O8  UNL     1     -35.976  14.268  -6.987  1.00 20.00    -0.396 OA
HETATM    6  C3  UNL     1     -35.966  15.440  -7.790  1.00 20.00     0.201 C 
ENDBRANCH   4   5
ENDBRANCH   3   4
ENDBRANCH   2   3
BRANCH   2   7
HETATM    7  C7  UNL     1     -34.038  17.203  -3.592  1.00 20.00     0.082 C 
HETATM    8  C2  UNL     1     -33.426  16.745  -2.271  1.00 20.00     0.027 C 
HETATM    9 CL9  UNL     1     -33.185  18.680  -4.139  1.00 20.00    -0.125 Cl
ENDBRANCH   2   7
TORSDOF 4
ENDMDL
