MODEL 1
REMARK VINA RESULT:      -4.2      0.000      0.000
REMARK  5 active torsions:
REMARK  status: ('A' for Active; 'I' for Inactive)
REMARK    1  A    between atoms: C3_3  and  C4_4 
REMARK    2  A    between atoms: C3_3  and  C5_5 
REMARK    3  A    between atoms: C4_4  and  C6_6 
REMARK    4  A    between atoms: C5_5  and  C7_7 
REMARK    5  A    between atoms: C6_6  and  O8_8 
ROOT
HETATM    1  C3  UNL     1     -34.034   7.121   6.328  1.00 20.00     0.004 C 
ENDROOT
BRANCH   1   2
HETATM    2  C4  UNL     1     -34.525   5.672   6.271  1.00 20.00     0.026 C 
BRANCH   2   3
HETATM    3  C6  UNL     1     -35.024   5.250   4.896  1.00 20.00     0.167 C 
BRANCH   3   4
HETATM    4  O8  UNL     1     -34.165   4.237   4.390  1.00 20.00    -0.396 OA
HETATM    5  C2  UNL     1     -33.472   4.672   3.229  1.00 20.00     0.201 C 
ENDBRANCH   3   4
ENDBRANCH   2   3
ENDBRANCH   1   2
BRANCH   1   6
HETATM    6  C5  UNL     1     -33.912   7.769   4.943  1.00 20.00     0.020 C 
BRANCH   6   7
HETATM    7  C7  UNL     1     -32.458   8.019   4.520  1.00 20.00     0.078 C 
HETATM    8  C1  UNL     1     -32.308   7.953   3.005  1.00 20.00     0.026 C 
HETATM    9 CL9  UNL     1     -31.886   9.616   5.089  1.00 20.00    -0.125 Cl
ENDBRANCH   6   7
ENDBRANCH   1   6
TORSDOF 5
ENDMDL
MODEL 2
REMARK VINA RESULT:      -4.1      1.361      1.724
REMARK  5 active torsions:
REMARK  status: ('A' for Active; 'I' for Inactive)
REMARK    1  A    between atoms: C3_3  and  C4_4 
REMARK    2  A    between atoms: C3_3  and  C5_5 
REMARK    3  A    between atoms: C4_4  and  C6_6 
REMARK    4  A    between atoms: C5_5  and  C7_7 
REMARK    5  A    between atoms: C6_6  and  O8_8 
ROOT
HETATM    1  C3  UNL     1     -33.854   7.893   5.075  1.00 20.00     0.004 C 
ENDROOT
BRANCH   1   2
HETATM    2  C4  UNL     1     -33.795   7.017   6.329  1.00 20.00     0.026 C 
BRANCH   2   3
HETATM    3  C6  UNL     1     -34.728   5.815   6.277  1.00 20.00     0.167 C 
BRANCH   3   4
HETATM    4  O8  UNL     1     -34.964   5.477   4.917  1.00 20.00    -0.396 OA
HETATM    5  C2  UNL     1     -34.175   4.368   4.510  1.00 20.00     0.201 C 
ENDBRANCH   3   4
ENDBRANCH   2   3
ENDBRANCH   1   2
BRANCH   1   6
HETATM    6  C5  UNL     1     -32.508   8.543   4.732  1.00 20.00     0.020 C 
BRANCH   6   7
HETATM    7  C7  UNL     1     -32.058   8.274   3.289  1.00 20.00     0.078 C 
HETATM    8  C1  UNL     1     -32.389   6.847   2.868  1.00 20.00     0.026 C 
HETATM    9 CL9  UNL     1     -32.841   9.409   2.148  1.00 20.00    -0.125 Cl
ENDBRANCH   6   7
ENDBRANCH   1   6
TORSDOF 5
ENDMDL
MODEL 3
REMARK VINA RESULT:      -4.0      2.569      3.629
REMARK  5 active torsions:
REMARK  status: ('A' for Active; 'I' for Inactive)
REMARK    1  A    between atoms: C3_3  and  C4_4 
REMARK    2  A    between atoms: C3_3  and  C5_5 
REMARK    3  A    between atoms: C4_4  and  C6_6 
REMARK    4  A    between atoms: C5_5  and  C7_7 
REMARK    5  A    between atoms: C6_6  and  O8_8 
ROOT
HETATM    1  C3  UNL     1     -34.082   7.833   5.748  1.00 20.00     0.004 C 
ENDROOT
BRANCH   1   2
HETATM    2  C4  UNL     1     -32.767   8.401   5.208  1.00 20.00     0.026 C 
BRANCH   2   3
HETATM    3  C6  UNL     1     -32.693   8.431   3.688  1.00 20.00     0.167 C 
BRANCH   3   4
HETATM    4  O8  UNL     1     -31.806   7.408   3.254  1.00 20.00    -0.396 OA
HETATM    5  C2  UNL     1     -32.498   6.372   2.573  1.00 20.00     0.201 C 
ENDBRANCH   3   4
ENDBRANCH   2   3
ENDBRANCH   1   2
BRANCH   1   6
HETATM    6  C5  UNL     1     -33.942   6.406   6.291  1.00 20.00     0.020 C 
BRANCH   6   7
HETATM    7  C7  UNL     1     -34.803   5.385   5.534  1.00 20.00     0.078 C 
HETATM    8  C1  UNL     1     -35.596   6.055   4.418  1.00 20.00     0.026 C 
HETATM    9 CL9  UNL     1     -33.793   4.088   4.827  1.00 20.00    -0.125 Cl
ENDBRANCH   6   7
ENDBRANCH   1   6
TORSDOF 5
ENDMDL
MODEL 4
REMARK VINA RESULT:      -4.0      2.051      2.673
REMARK  5 active torsions:
REMARK  status: ('A' for Active; 'I' for Inactive)
REMARK    1  A    between atoms: C3_3  and  C4_4 
REMARK    2  A    between atoms: C3_3  and  C5_5 
REMARK    3  A    between atoms: C4_4  and  C6_6 
REMARK    4  A    between atoms: C5_5  and  C7_7 
REMARK    5  A    between atoms: C6_6  and  O8_8 
ROOT
HETATM    1  C3  UNL     1     -32.668   8.551   4.992  1.00 20.00     0.004 C 
ENDROOT
BRANCH   1   2
HETATM    2  C4  UNL     1     -33.969   7.779   5.227  1.00 20.00     0.026 C 
BRANCH   2   3
HETATM    3  C6  UNL     1     -33.904   6.820   6.407  1.00 20.00     0.167 C 
BRANCH   3   4
HETATM    4  O8  UNL     1     -34.768   5.720   6.150  1.00 20.00    -0.396 OA
HETATM    5  C2  UNL     1     -35.219   5.714   4.804  1.00 20.00     0.201 C 
ENDBRANCH   3   4
ENDBRANCH   2   3
ENDBRANCH   1   2
BRANCH   1   6
HETATM    6  C5  UNL     1     -31.802   7.947   3.880  1.00 20.00     0.020 C 
BRANCH   6   7
HETATM    7  C7  UNL     1     -32.618   7.473   2.669  1.00 20.00     0.078 C 
HETATM    8  C1  UNL     1     -32.062   8.049   1.372  1.00 20.00     0.026 C 
HETATM    9 CL9  UNL     1     -32.621   5.687   2.553  1.00 20.00    -0.125 Cl
ENDBRANCH   6   7
ENDBRANCH   1   6
TORSDOF 5
ENDMDL
MODEL 5
REMARK VINA RESULT:      -3.9      1.594      2.600
REMARK  5 active torsions:
REMARK  status: ('A' for Active; 'I' for Inactive)
REMARK    1  A    between atoms: C3_3  and  C4_4 
REMARK    2  A    between atoms: C3_3  and  C5_5 
REMARK    3  A    between atoms: C4_4  and  C6_6 
REMARK    4  A    between atoms: C5_5  and  C7_7 
REMARK    5  A    between atoms: C6_6  and  O8_8 
ROOT
HETATM    1  C3  UNL     1     -33.065   5.766   3.007  1.00 20.00     0.004 C 
ENDROOT
BRANCH   1   2
HETATM    2  C4  UNL     1     -34.212   5.905   4.010  1.00 20.00     0.026 C 
BRANCH   2   3
HETATM    3  C6  UNL     1     -34.397   4.683   4.900  1.00 20.00     0.167 C 
BRANCH   3   4
HETATM    4  O8  UNL     1     -34.624   5.119   6.233  1.00 20.00    -0.396 OA
HETATM    5  C2  UNL     1     -34.336   6.502   6.386  1.00 20.00     0.201 C 
ENDBRANCH   3   4
ENDBRANCH   2   3
ENDBRANCH   1   2
BRANCH   1   6
HETATM    6  C5  UNL     1     -32.148   6.996   2.968  1.00 20.00     0.020 C 
BRANCH   6   7
HETATM    7  C7  UNL     1     -32.855   8.289   3.395  1.00 20.00     0.078 C 
HETATM    8  C1  UNL     1     -32.199   8.889   4.634  1.00 20.00     0.026 C 
HETATM    9 CL9  UNL     1     -32.828   9.504   2.082  1.00 20.00    -0.125 Cl
ENDBRANCH   6   7
ENDBRANCH   1   6
TORSDOF 5
ENDMDL
MODEL 6
REMARK VINA RESULT:      -3.9      2.654      3.921
REMARK  5 active torsions:
REMARK  status: ('A' for Active; 'I' for Inactive)
REMARK    1  A    between atoms: C3_3  and  C4_4 
REMARK    2  A    between atoms: C3_3  and  C5_5 
REMARK    3  A    between atoms: C4_4  and  C6_6 
REMARK    4  A    between atoms: C5_5  and  C7_7 
REMARK    5  A    between atoms: C6_6  and  O8_8 
ROOT
HETATM    1  C3  UNL     1     -33.604   7.665   5.530  1.00 20.00     0.004 C 
ENDROOT
BRANCH   1   2
HETATM    2  C4  UNL     1     -32.495   8.421   4.793  1.00 20.00     0.026 C 
BRANCH   2   3
HETATM    3  C6  UNL     1     -32.222   7.891   3.392  1.00 20.00     0.167 C 
BRANCH   3   4
HETATM    4  O8  UNL     1     -32.575   8.893   2.448  1.00 20.00    -0.396 OA
HETATM    5  C2  UNL     1     -32.273   8.489   1.121  1.00 20.00     0.201 C 
ENDBRANCH   3   4
ENDBRANCH   2   3
ENDBRANCH   1   2
BRANCH   1   6
HETATM    6  C5  UNL     1     -34.549   6.913   4.585  1.00 20.00     0.020 C 
BRANCH   6   7
HETATM    7  C7  UNL     1     -34.796   5.459   5.009  1.00 20.00     0.078 C 
HETATM    8  C1  UNL     1     -34.003   4.491   4.139  1.00 20.00     0.026 C 
HETATM    9 CL9  UNL     1     -34.342   5.201   6.721  1.00 20.00    -0.125 Cl
ENDBRANCH   6   7
ENDBRANCH   1   6
TORSDOF 5
ENDMDL
MODEL 7
REMARK VINA RESULT:      -3.9      2.784      4.227
REMARK  5 active torsions:
REMARK  status: ('A' for Active; 'I' for Inactive)
REMARK    1  A    between atoms: C3_3  and  C4_4 
REMARK    2  A    between atoms: C3_3  and  C5_5 
REMARK    3  A    between atoms: C4_4  and  C6_6 
REMARK    4  A    between atoms: C5_5  and  C7_7 
REMARK    5  A    between atoms: C6_6  and  O8_8 
ROOT
HETATM    1  C3  UNL     1     -33.496   8.433   4.838  1.00 20.00     0.004 C 
ENDROOT
BRANCH   1   2
HETATM    2  C4  UNL     1     -32.205   8.046   4.112  1.00 20.00     0.026 C 
BRANCH   2   3
HETATM    3  C6  UNL     1     -32.366   7.927   2.603  1.00 20.00     0.167 C 
BRANCH   3   4
HETATM    4  O8  UNL     1     -32.705   9.204   2.077  1.00 20.00    -0.396 OA
HETATM    5  C2  UNL     1     -32.657   9.213   0.658  1.00 20.00     0.201 C 
ENDBRANCH   3   4
ENDBRANCH   2   3
ENDBRANCH   1   2
BRANCH   1   6
HETATM    6  C5  UNL     1     -33.912   7.416   5.908  1.00 20.00     0.020 C 
BRANCH   6   7
HETATM    7  C7  UNL     1     -34.219   6.026   5.333  1.00 20.00     0.078 C 
HETATM    8  C1  UNL     1     -34.450   5.011   6.446  1.00 20.00     0.026 C 
HETATM    9 CL9  UNL     1     -35.664   6.069   4.279  1.00 20.00    -0.125 Cl
ENDBRANCH   6   7
ENDBRANCH   1   6
TORSDOF 5
ENDMDL
MODEL 8
REMARK VINA RESULT:      -3.8      2.590      3.594
REMARK  5 active torsions:
REMARK  status: ('A' for Active; 'I' for Inactive)
REMARK    1  A    between atoms: C3_3  and  C4_4 
REMARK    2  A    between atoms: C3_3  and  C5_5 
REMARK    3  A    between atoms: C4_4  and  C6_6 
REMARK    4  A    between atoms: C5_5  and  C7_7 
REMARK    5  A    between atoms: C6_6  and  O8_8 
ROOT
HETATM    1  C3  UNL     1     -34.748   5.746   5.968  1.00 20.00     0.004 C 
ENDROOT
BRANCH   1   2
HETATM    2  C4  UNL     1     -33.964   6.967   6.457  1.00 20.00     0.026 C 
BRANCH   2   3
HETATM    3  C6  UNL     1     -33.820   8.060   5.408  1.00 20.00     0.167 C 
BRANCH   3   4
HETATM    4  O8  UNL     1     -32.457   8.139   5.015  1.00 20.00    -0.396 OA
HETATM    5  C2  UNL     1     -32.319   8.700   3.717  1.00 20.00     0.201 C 
ENDBRANCH   3   4
ENDBRANCH   2   3
ENDBRANCH   1   2
BRANCH   1   6
HETATM    6  C5  UNL     1     -34.952   5.732   4.448  1.00 20.00     0.020 C 
BRANCH   6   7
HETATM    7  C7  UNL     1     -34.109   4.664   3.737  1.00 20.00     0.078 C 
HETATM    8  C1  UNL     1     -33.068   5.304   2.826  1.00 20.00     0.026 C 
HETATM    9 CL9  UNL     1     -33.275   3.609   4.917  1.00 20.00    -0.125 Cl
ENDBRANCH   6   7
ENDBRANCH   1   6
TORSDOF 5
ENDMDL
MODEL 9
REMARK VINA RESULT:      -3.6      2.435      4.208
REMARK  5 active torsions:
REMARK  status: ('A' for Active; 'I' for Inactive)
REMARK    1  A    between atoms: C3_3  and  C4_4 
REMARK    2  A    between atoms: C3_3  and  C5_5 
REMARK    3  A    between atoms: C4_4  and  C6_6 
REMARK    4  A    between atoms: C5_5  and  C7_7 
REMARK    5  A    between atoms: C6_6  and  O8_8 
ROOT
HETATM    1  C3  UNL     1     -33.509   5.440   2.962  1.00 20.00     0.004 C 
ENDROOT
BRANCH   1   2
HETATM    2  C4  UNL     1     -32.267   6.334   3.009  1.00 20.00     0.026 C 
BRANCH   2   3
HETATM    3  C6  UNL     1     -32.554   7.795   2.694  1.00 20.00     0.167 C 
BRANCH   3   4
HETATM    4  O8  UNL     1     -33.205   8.384   3.812  1.00 20.00    -0.396 OA
HETATM    5  C2  UNL     1     -32.313   8.556   4.904  1.00 20.00     0.201 C 
ENDBRANCH   3   4
ENDBRANCH   2   3
ENDBRANCH   1   2
BRANCH   1   6
HETATM    6  C5  UNL     1     -33.703   4.613   4.239  1.00 20.00     0.020 C 
BRANCH   6   7
HETATM    7  C7  UNL     1     -34.867   5.109   5.108  1.00 20.00     0.078 C 
HETATM    8  C1  UNL     1     -34.356   5.814   6.359  1.00 20.00     0.026 C 
HETATM    9 CL9  UNL     1     -35.917   6.236   4.198  1.00 20.00    -0.125 Cl
ENDBRANCH   6   7
ENDBRANCH   1   6
TORSDOF 5
ENDMDL
