MODEL 1
REMARK VINA RESULT:      -4.1      0.000      0.000
REMARK  3 active torsions:
REMARK  status: ('A' for Active; 'I' for Inactive)
REMARK    1  A    between atoms: C2_2  and  C9_9 
REMARK    2  A    between atoms: C6_6  and  C9_9 
REMARK    3  A    between atoms: C7_7  and  O10_10 
ROOT
HETATM    1  C3  UNL     1     -34.761   6.061   6.315  1.00 20.00     0.003 C 
HETATM    2  C4  UNL     1     -33.842   7.242   6.001  1.00 20.00     0.007 C 
HETATM    3  C5  UNL     1     -34.630   5.090   5.141  1.00 20.00     0.032 C 
HETATM    4  C6  UNL     1     -33.576   7.139   4.502  1.00 20.00     0.018 C 
HETATM    5  C7  UNL     1     -33.485   5.629   4.292  1.00 20.00     0.122 C 
ENDROOT
BRANCH   4   6
HETATM    6  C9  UNL     1     -32.325   7.884   4.064  1.00 20.00     0.040 C 
BRANCH   6   7
HETATM    7  C2  UNL     1     -32.493   8.576   2.732  1.00 20.00    -0.093 C 
HETATM    8  C1  UNL     1     -33.050   9.793   2.639  1.00 20.00     0.014 C 
HETATM    9  C8  UNL     1     -32.040   7.828   1.511  1.00 20.00     0.042 C 
ENDBRANCH   6   7
ENDBRANCH   4   6
BRANCH   5  10
HETATM   10  O10 UNL     1     -33.645   5.291   2.928  1.00 20.00    -0.395 OA
HETATM   11  H26 UNL     1     -34.408   5.794   2.595  1.00 20.00     0.210 HD
ENDBRANCH   5  10
TORSDOF 3
ENDMDL
MODEL 2
REMARK VINA RESULT:      -4.1      1.651      2.226
REMARK  3 active torsions:
REMARK  status: ('A' for Active; 'I' for Inactive)
REMARK    1  A    between atoms: C2_2  and  C9_9 
REMARK    2  A    between atoms: C6_6  and  C9_9 
REMARK    3  A    between atoms: C7_7  and  O10_10 
ROOT
HETATM    1  C3  UNL     1     -35.144   5.069   5.150  1.00 20.00     0.003 C 
HETATM    2  C4  UNL     1     -34.841   6.164   4.127  1.00 20.00     0.007 C 
HETATM    3  C5  UNL     1     -34.467   5.496   6.453  1.00 20.00     0.032 C 
HETATM    4  C6  UNL     1     -33.659   6.928   4.716  1.00 20.00     0.018 C 
HETATM    5  C7  UNL     1     -33.978   6.919   6.209  1.00 20.00     0.122 C 
ENDROOT
BRANCH   4   6
HETATM    6  C9  UNL     1     -33.505   8.327   4.142  1.00 20.00     0.040 C 
BRANCH   6   7
HETATM    7  C2  UNL     1     -32.748   8.344   2.835  1.00 20.00    -0.093 C 
HETATM    8  C1  UNL     1     -31.951   7.326   2.473  1.00 20.00     0.014 C 
HETATM    9  C8  UNL     1     -32.898   9.564   1.974  1.00 20.00     0.042 C 
ENDBRANCH   6   7
ENDBRANCH   4   6
BRANCH   5  10
HETATM   10  O10 UNL     1     -32.829   7.213   6.980  1.00 20.00    -0.395 OA
HETATM   11  H26 UNL     1     -32.099   7.371   6.358  1.00 20.00     0.210 HD
ENDBRANCH   5  10
TORSDOF 3
ENDMDL
MODEL 3
REMARK VINA RESULT:      -4.1     11.547     12.644
REMARK  3 active torsions:
REMARK  status: ('A' for Active; 'I' for Inactive)
REMARK    1  A    between atoms: C2_2  and  C9_9 
REMARK    2  A    between atoms: C6_6  and  C9_9 
REMARK    3  A    between atoms: C7_7  and  O10_10 
ROOT
HETATM    1  C3  UNL     1     -35.086  16.568  -5.696  1.00 20.00     0.003 C 
HETATM    2  C4  UNL     1     -34.953  17.063  -4.255  1.00 20.00     0.007 C 
HETATM    3  C5  UNL     1     -34.050  15.456  -5.867  1.00 20.00     0.032 C 
HETATM    4  C6  UNL     1     -33.586  16.562  -3.799  1.00 20.00     0.018 C 
HETATM    5  C7  UNL     1     -33.500  15.194  -4.470  1.00 20.00     0.122 C 
ENDROOT
BRANCH   4   6
HETATM    6  C9  UNL     1     -33.446  16.500  -2.286  1.00 20.00     0.040 C 
BRANCH   6   7
HETATM    7  C2  UNL     1     -33.258  17.861  -1.659  1.00 20.00    -0.093 C 
HETATM    8  C1  UNL     1     -32.546  18.822  -2.268  1.00 20.00     0.014 C 
HETATM    9  C8  UNL     1     -33.874  18.081  -0.307  1.00 20.00     0.042 C 
ENDBRANCH   6   7
ENDBRANCH   4   6
BRANCH   5  10
HETATM   10  O10 UNL     1     -32.165  14.728  -4.516  1.00 20.00    -0.395 OA
HETATM   11  H26 UNL     1     -31.682  15.170  -3.797  1.00 20.00     0.210 HD
ENDBRANCH   5  10
TORSDOF 3
ENDMDL
MODEL 4
REMARK VINA RESULT:      -4.0      9.617     10.346
REMARK  3 active torsions:
REMARK  status: ('A' for Active; 'I' for Inactive)
REMARK    1  A    between atoms: C2_2  and  C9_9 
REMARK    2  A    between atoms: C6_6  and  C9_9 
REMARK    3  A    between atoms: C7_7  and  O10_10 
ROOT
HETATM    1  C3  UNL     1     -43.118  13.270   8.187  1.00 20.00     0.003 C 
HETATM    2  C4  UNL     1     -42.657  12.579   6.903  1.00 20.00     0.007 C 
HETATM    3  C5  UNL     1     -42.148  14.428   8.425  1.00 20.00     0.032 C 
HETATM    4  C6  UNL     1     -41.221  13.053   6.702  1.00 20.00     0.018 C 
HETATM    5  C7  UNL     1     -41.290  14.505   7.167  1.00 20.00     0.122 C 
ENDROOT
BRANCH   4   6
HETATM    6  C9  UNL     1     -40.736  12.903   5.269  1.00 20.00     0.040 C 
BRANCH   6   7
HETATM    7  C2  UNL     1     -39.420  12.168   5.170  1.00 20.00    -0.093 C 
HETATM    8  C1  UNL     1     -38.638  11.982   6.245  1.00 20.00     0.014 C 
HETATM    9  C8  UNL     1     -39.009  11.684   3.810  1.00 20.00     0.042 C 
ENDBRANCH   6   7
ENDBRANCH   4   6
BRANCH   5  10
HETATM   10  O10 UNL     1     -40.001  15.016   7.449  1.00 20.00    -0.395 OA
HETATM   11  H26 UNL     1     -39.482  14.289   7.833  1.00 20.00     0.210 HD
ENDBRANCH   5  10
TORSDOF 3
ENDMDL
MODEL 5
REMARK VINA RESULT:      -4.0     11.872     12.630
REMARK  3 active torsions:
REMARK  status: ('A' for Active; 'I' for Inactive)
REMARK    1  A    between atoms: C2_2  and  C9_9 
REMARK    2  A    between atoms: C6_6  and  C9_9 
REMARK    3  A    between atoms: C7_7  and  O10_10 
ROOT
HETATM    1  C3  UNL     1     -33.975  18.538   0.840  1.00 20.00     0.003 C 
HETATM    2  C4  UNL     1     -34.242  18.334  -0.651  1.00 20.00     0.007 C 
HETATM    3  C5  UNL     1     -32.470  18.771   0.980  1.00 20.00     0.032 C 
HETATM    4  C6  UNL     1     -32.877  18.007  -1.249  1.00 20.00     0.018 C 
HETATM    5  C7  UNL     1     -31.945  18.910  -0.445  1.00 20.00     0.122 C 
ENDROOT
BRANCH   4   6
HETATM    6  C9  UNL     1     -32.806  18.251  -2.748  1.00 20.00     0.040 C 
BRANCH   6   7
HETATM    7  C2  UNL     1     -33.560  17.215  -3.546  1.00 20.00    -0.093 C 
HETATM    8  C1  UNL     1     -33.316  15.903  -3.402  1.00 20.00     0.014 C 
HETATM    9  C8  UNL     1     -34.572  17.718  -4.535  1.00 20.00     0.042 C 
ENDBRANCH   6   7
ENDBRANCH   4   6
BRANCH   5  10
HETATM   10  O10 UNL     1     -30.601  18.482  -0.547  1.00 20.00    -0.395 OA
HETATM   11  H26 UNL     1     -30.520  17.990  -1.382  1.00 20.00     0.210 HD
ENDBRANCH   5  10
TORSDOF 3
ENDMDL
MODEL 6
REMARK VINA RESULT:      -4.0     11.789     12.460
REMARK  3 active torsions:
REMARK  status: ('A' for Active; 'I' for Inactive)
REMARK    1  A    between atoms: C2_2  and  C9_9 
REMARK    2  A    between atoms: C6_6  and  C9_9 
REMARK    3  A    between atoms: C7_7  and  O10_10 
ROOT
HETATM    1  C3  UNL     1     -31.062  19.050   0.485  1.00 20.00     0.003 C 
HETATM    2  C4  UNL     1     -31.459  18.163  -0.696  1.00 20.00     0.007 C 
HETATM    3  C5  UNL     1     -32.332  19.262   1.310  1.00 20.00     0.032 C 
HETATM    4  C6  UNL     1     -32.979  18.271  -0.767  1.00 20.00     0.018 C 
HETATM    5  C7  UNL     1     -33.371  18.324   0.707  1.00 20.00     0.122 C 
ENDROOT
BRANCH   4   6
HETATM    6  C9  UNL     1     -33.626  17.120  -1.521  1.00 20.00     0.040 C 
BRANCH   6   7
HETATM    7  C2  UNL     1     -33.348  17.161  -3.004  1.00 20.00    -0.093 C 
HETATM    8  C1  UNL     1     -33.291  18.322  -3.675  1.00 20.00     0.014 C 
HETATM    9  C8  UNL     1     -33.171  15.844  -3.703  1.00 20.00     0.042 C 
ENDBRANCH   6   7
ENDBRANCH   4   6
BRANCH   5  10
HETATM   10  O10 UNL     1     -34.683  18.828   0.871  1.00 20.00    -0.395 OA
HETATM   11  H26 UNL     1     -35.140  18.718   0.021  1.00 20.00     0.210 HD
ENDBRANCH   5  10
TORSDOF 3
ENDMDL
MODEL 7
REMARK VINA RESULT:      -4.0      1.940      4.198
REMARK  3 active torsions:
REMARK  status: ('A' for Active; 'I' for Inactive)
REMARK    1  A    between atoms: C2_2  and  C9_9 
REMARK    2  A    between atoms: C6_6  and  C9_9 
REMARK    3  A    between atoms: C7_7  and  O10_10 
ROOT
HETATM    1  C3  UNL     1     -31.836   7.681   3.246  1.00 20.00     0.003 C 
HETATM    2  C4  UNL     1     -32.994   6.689   3.134  1.00 20.00     0.007 C 
HETATM    3  C5  UNL     1     -32.104   8.517   4.498  1.00 20.00     0.032 C 
HETATM    4  C6  UNL     1     -34.088   7.268   4.025  1.00 20.00     0.018 C 
HETATM    5  C7  UNL     1     -33.287   7.847   5.188  1.00 20.00     0.122 C 
ENDROOT
BRANCH   4   6
HETATM    6  C9  UNL     1     -35.117   6.236   4.457  1.00 20.00     0.040 C 
BRANCH   6   7
HETATM    7  C2  UNL     1     -34.525   5.145   5.318  1.00 20.00    -0.093 C 
HETATM    8  C1  UNL     1     -34.567   5.208   6.658  1.00 20.00     0.014 C 
HETATM    9  C8  UNL     1     -33.857   4.002   4.610  1.00 20.00     0.042 C 
ENDBRANCH   6   7
ENDBRANCH   4   6
BRANCH   5  10
HETATM   10  O10 UNL     1     -34.054   8.779   5.926  1.00 20.00    -0.395 OA
HETATM   11  H26 UNL     1     -33.430   9.372   6.377  1.00 20.00     0.210 HD
ENDBRANCH   5  10
TORSDOF 3
ENDMDL
MODEL 8
REMARK VINA RESULT:      -3.9     11.839     12.575
REMARK  3 active torsions:
REMARK  status: ('A' for Active; 'I' for Inactive)
REMARK    1  A    between atoms: C2_2  and  C9_9 
REMARK    2  A    between atoms: C6_6  and  C9_9 
REMARK    3  A    between atoms: C7_7  and  O10_10 
ROOT
HETATM    1  C3  UNL     1     -33.867  14.726  -4.694  1.00 20.00     0.003 C 
HETATM    2  C4  UNL     1     -32.887  15.539  -3.847  1.00 20.00     0.007 C 
HETATM    3  C5  UNL     1     -35.084  15.622  -4.924  1.00 20.00     0.032 C 
HETATM    4  C6  UNL     1     -33.731  16.660  -3.248  1.00 20.00     0.018 C 
HETATM    5  C7  UNL     1     -34.687  16.994  -4.390  1.00 20.00     0.122 C 
ENDROOT
BRANCH   4   6
HETATM    6  C9  UNL     1     -32.905  17.850  -2.787  1.00 20.00     0.040 C 
BRANCH   6   7
HETATM    7  C2  UNL     1     -32.843  17.973  -1.283  1.00 20.00    -0.093 C 
HETATM    8  C1  UNL     1     -33.898  17.668  -0.510  1.00 20.00     0.014 C 
HETATM    9  C8  UNL     1     -31.561  18.483  -0.691  1.00 20.00     0.042 C 
ENDBRANCH   6   7
ENDBRANCH   4   6
BRANCH   5  10
HETATM   10  O10 UNL     1     -35.811  17.715  -3.924  1.00 20.00    -0.395 OA
HETATM   11  H26 UNL     1     -35.542  18.169  -3.108  1.00 20.00     0.210 HD
ENDBRANCH   5  10
TORSDOF 3
ENDMDL
MODEL 9
REMARK VINA RESULT:      -3.9     11.851     13.225
REMARK  3 active torsions:
REMARK  status: ('A' for Active; 'I' for Inactive)
REMARK    1  A    between atoms: C2_2  and  C9_9 
REMARK    2  A    between atoms: C6_6  and  C9_9 
REMARK    3  A    between atoms: C7_7  and  O10_10 
ROOT
HETATM    1  C3  UNL     1     -36.450  16.375  -6.343  1.00 20.00     0.003 C 
HETATM    2  C4  UNL     1     -35.790  16.677  -4.997  1.00 20.00     0.007 C 
HETATM    3  C5  UNL     1     -35.512  15.418  -7.078  1.00 20.00     0.032 C 
HETATM    4  C6  UNL     1     -34.331  16.270  -5.181  1.00 20.00     0.018 C 
HETATM    5  C7  UNL     1     -34.449  15.026  -6.057  1.00 20.00     0.122 C 
ENDROOT
BRANCH   4   6
HETATM    6  C9  UNL     1     -33.610  16.014  -3.867  1.00 20.00     0.040 C 
BRANCH   6   7
HETATM    7  C2  UNL     1     -33.406  17.272  -3.057  1.00 20.00    -0.093 C 
HETATM    8  C1  UNL     1     -33.051  18.430  -3.636  1.00 20.00     0.014 C 
HETATM    9  C8  UNL     1     -33.585  17.164  -1.570  1.00 20.00     0.042 C 
ENDBRANCH   6   7
ENDBRANCH   4   6
BRANCH   5  10
HETATM   10  O10 UNL     1     -33.217  14.719  -6.682  1.00 20.00    -0.395 OA
HETATM   11  H26 UNL     1     -33.210  13.761  -6.847  1.00 20.00     0.210 HD
ENDBRANCH   5  10
TORSDOF 3
ENDMDL
