MODEL 1
REMARK VINA RESULT:      -4.1      0.000      0.000
REMARK  2 active torsions:
REMARK  status: ('A' for Active; 'I' for Inactive)
REMARK    1  A    between atoms: C4_4  and  C10_10 
REMARK    2  A    between atoms: C8_8  and  C10_10 
ROOT
HETATM    1  C5  UNL     1     -35.079  19.263  -0.143  1.00 20.00     0.002 C 
HETATM    2  C6  UNL     1     -34.763  18.872  -1.589  1.00 20.00     0.006 C 
HETATM    3  C7  UNL     1     -34.172  18.410   0.749  1.00 20.00     0.016 C 
HETATM    4  C8  UNL     1     -33.846  17.651  -1.486  1.00 20.00     0.004 C 
HETATM    5  C9  UNL     1     -33.091  17.862  -0.175  1.00 20.00     0.062 C 
HETATM    6 BR12 UNL     1     -31.636  19.158  -0.309  1.00 20.00    -0.091 Br
ENDROOT
BRANCH   4   7
HETATM    7  C10 UNL     1     -33.012  17.408  -2.734  1.00 20.00     0.045 C 
BRANCH   7   8
HETATM    8  C4  UNL     1     -33.735  16.542  -3.732  1.00 20.00    -0.051 A 
HETATM    9  C1  UNL     1     -33.653  15.120  -3.755  1.00 20.00     0.014 A 
HETATM   10  C2  UNL     1     -34.412  14.574  -4.769  1.00 20.00     0.050 A 
HETATM   11  S11 UNL     1     -35.219  15.776  -5.685  1.00 20.00    -0.113 SA
HETATM   12  C3  UNL     1     -34.554  17.030  -4.726  1.00 20.00     0.056 A 
ENDBRANCH   7   8
ENDBRANCH   4   7
TORSDOF 2
ENDMDL
MODEL 2
REMARK VINA RESULT:      -3.9      3.053      5.231
REMARK  2 active torsions:
REMARK  status: ('A' for Active; 'I' for Inactive)
REMARK    1  A    between atoms: C4_4  and  C10_10 
REMARK    2  A    between atoms: C8_8  and  C10_10 
ROOT
HETATM    1  C5  UNL     1     -33.901  14.649  -4.855  1.00 20.00     0.002 C 
HETATM    2  C6  UNL     1     -32.956  15.549  -4.054  1.00 20.00     0.006 C 
HETATM    3  C7  UNL     1     -35.228  15.404  -4.973  1.00 20.00     0.016 C 
HETATM    4  C8  UNL     1     -33.829  16.697  -3.542  1.00 20.00     0.004 C 
HETATM    5  C9  UNL     1     -34.907  16.850  -4.613  1.00 20.00     0.062 C 
HETATM    6 BR12 UNL     1     -34.298  17.795  -6.210  1.00 20.00    -0.091 Br
ENDROOT
BRANCH   4   7
HETATM    7  C10 UNL     1     -33.041  17.944  -3.171  1.00 20.00     0.045 C 
BRANCH   7   8
HETATM    8  C4  UNL     1     -32.977  18.143  -1.679  1.00 20.00    -0.051 A 
HETATM    9  C1  UNL     1     -34.046  17.830  -0.790  1.00 20.00     0.014 A 
HETATM   10  C2  UNL     1     -33.726  18.107   0.521  1.00 20.00     0.050 A 
HETATM   11  S11 UNL     1     -32.143  18.742   0.676  1.00 20.00    -0.113 SA
HETATM   12  C3  UNL     1     -31.881  18.647  -1.014  1.00 20.00     0.056 A 
ENDBRANCH   7   8
ENDBRANCH   4   7
TORSDOF 2
ENDMDL
MODEL 3
REMARK VINA RESULT:      -3.6     11.241     12.006
REMARK  2 active torsions:
REMARK  status: ('A' for Active; 'I' for Inactive)
REMARK    1  A    between atoms: C4_4  and  C10_10 
REMARK    2  A    between atoms: C8_8  and  C10_10 
ROOT
HETATM    1  C5  UNL     1     -34.748   5.830   6.300  1.00 20.00     0.002 C 
HETATM    2  C6  UNL     1     -33.567   6.799   6.205  1.00 20.00     0.006 C 
HETATM    3  C7  UNL     1     -35.364   5.752   4.900  1.00 20.00     0.016 C 
HETATM    4  C8  UNL     1     -33.668   7.423   4.811  1.00 20.00     0.004 C 
HETATM    5  C9  UNL     1     -34.313   6.331   3.960  1.00 20.00     0.062 C 
HETATM    6 BR12 UNL     1     -33.075   4.919   3.426  1.00 20.00    -0.091 Br
ENDROOT
BRANCH   4   7
HETATM    7  C10 UNL     1     -32.358   8.008   4.308  1.00 20.00     0.045 C 
BRANCH   7   8
HETATM    8  C4  UNL     1     -32.468   8.487   2.884  1.00 20.00    -0.051 A 
HETATM    9  C1  UNL     1     -33.057   9.728   2.507  1.00 20.00     0.014 A 
HETATM   10  C2  UNL     1     -33.030   9.921   1.143  1.00 20.00     0.050 A 
HETATM   11  S11 UNL     1     -32.294   8.609   0.323  1.00 20.00    -0.113 SA
HETATM   12  C3  UNL     1     -32.011   7.779   1.794  1.00 20.00     0.056 A 
ENDBRANCH   7   8
ENDBRANCH   4   7
TORSDOF 2
ENDMDL
MODEL 4
REMARK VINA RESULT:      -3.5      2.365      3.313
REMARK  2 active torsions:
REMARK  status: ('A' for Active; 'I' for Inactive)
REMARK    1  A    between atoms: C4_4  and  C10_10 
REMARK    2  A    between atoms: C8_8  and  C10_10 
ROOT
HETATM    1  C5  UNL     1     -32.875  18.101  -1.947  1.00 20.00     0.002 C 
HETATM    2  C6  UNL     1     -33.305  16.656  -2.213  1.00 20.00     0.006 C 
HETATM    3  C7  UNL     1     -33.038  18.855  -3.270  1.00 20.00     0.016 C 
HETATM    4  C8  UNL     1     -33.491  16.562  -3.729  1.00 20.00     0.004 C 
HETATM    5  C9  UNL     1     -33.923  17.968  -4.138  1.00 20.00     0.062 C 
HETATM    6 BR12 UNL     1     -35.799  18.354  -3.759  1.00 20.00    -0.091 Br
ENDROOT
BRANCH   4   7
HETATM    7  C10 UNL     1     -34.384  15.410  -4.163  1.00 20.00     0.045 C 
BRANCH   7   8
HETATM    8  C4  UNL     1     -34.676  15.454  -5.640  1.00 20.00    -0.051 A 
HETATM    9  C1  UNL     1     -33.671  15.431  -6.649  1.00 20.00     0.014 A 
HETATM   10  C2  UNL     1     -34.209  15.482  -7.917  1.00 20.00     0.050 A 
HETATM   11  S11 UNL     1     -35.920  15.556  -7.886  1.00 20.00    -0.113 SA
HETATM   12  C3  UNL     1     -35.944  15.520  -6.175  1.00 20.00     0.056 A 
ENDBRANCH   7   8
ENDBRANCH   4   7
TORSDOF 2
ENDMDL
MODEL 5
REMARK VINA RESULT:      -3.5     24.561     25.398
REMARK  2 active torsions:
REMARK  status: ('A' for Active; 'I' for Inactive)
REMARK    1  A    between atoms: C4_4  and  C10_10 
REMARK    2  A    between atoms: C8_8  and  C10_10 
ROOT
HETATM    1  C5  UNL     1     -27.155  -0.211  11.515  1.00 20.00     0.002 C 
HETATM    2  C6  UNL     1     -26.146  -1.339  11.751  1.00 20.00     0.006 C 
HETATM    3  C7  UNL     1     -27.937  -0.581  10.252  1.00 20.00     0.016 C 
HETATM    4  C8  UNL     1     -26.221  -2.215  10.499  1.00 20.00     0.004 C 
HETATM    5  C9  UNL     1     -27.665  -2.064  10.024  1.00 20.00     0.062 C 
HETATM    6 BR12 UNL     1     -28.944  -3.123  11.051  1.00 20.00    -0.091 Br
ENDROOT
BRANCH   4   7
HETATM    7  C10 UNL     1     -25.709  -3.631  10.714  1.00 20.00     0.045 C 
BRANCH   7   8
HETATM    8  C4  UNL     1     -24.382  -3.855  10.038  1.00 20.00    -0.051 A 
HETATM    9  C1  UNL     1     -23.978  -3.194   8.843  1.00 20.00     0.014 A 
HETATM   10  C2  UNL     1     -22.718  -3.581   8.437  1.00 20.00     0.050 A 
HETATM   11  S11 UNL     1     -22.029  -4.737   9.497  1.00 20.00    -0.113 SA
HETATM   12  C3  UNL     1     -23.416  -4.722  10.502  1.00 20.00     0.056 A 
ENDBRANCH   7   8
ENDBRANCH   4   7
TORSDOF 2
ENDMDL
MODEL 6
REMARK VINA RESULT:      -3.5      3.231      5.034
REMARK  2 active torsions:
REMARK  status: ('A' for Active; 'I' for Inactive)
REMARK    1  A    between atoms: C4_4  and  C10_10 
REMARK    2  A    between atoms: C8_8  and  C10_10 
ROOT
HETATM    1  C5  UNL     1     -36.234  18.282  -4.971  1.00 20.00     0.002 C 
HETATM    2  C6  UNL     1     -35.484  18.027  -3.661  1.00 20.00     0.006 C 
HETATM    3  C7  UNL     1     -35.358  17.720  -6.093  1.00 20.00     0.016 C 
HETATM    4  C8  UNL     1     -34.100  17.527  -4.079  1.00 20.00     0.004 C 
HETATM    5  C9  UNL     1     -34.349  16.809  -5.404  1.00 20.00     0.062 C 
HETATM    6 BR12 UNL     1     -35.120  15.027  -5.197  1.00 20.00    -0.091 Br
ENDROOT
BRANCH   4   7
HETATM    7  C10 UNL     1     -33.381  16.743  -2.992  1.00 20.00     0.045 C 
BRANCH   7   8
HETATM    8  C4  UNL     1     -33.142  17.580  -1.763  1.00 20.00    -0.051 A 
HETATM    9  C1  UNL     1     -33.964  17.535  -0.599  1.00 20.00     0.014 A 
HETATM   10  C2  UNL     1     -33.524  18.401   0.379  1.00 20.00     0.050 A 
HETATM   11  S11 UNL     1     -32.126  19.263  -0.108  1.00 20.00    -0.113 SA
HETATM   12  C3  UNL     1     -32.106  18.478  -1.629  1.00 20.00     0.056 A 
ENDBRANCH   7   8
ENDBRANCH   4   7
TORSDOF 2
ENDMDL
MODEL 7
REMARK VINA RESULT:      -3.2     12.379     14.099
REMARK  2 active torsions:
REMARK  status: ('A' for Active; 'I' for Inactive)
REMARK    1  A    between atoms: C4_4  and  C10_10 
REMARK    2  A    between atoms: C8_8  and  C10_10 
ROOT
HETATM    1  C5  UNL     1     -41.005  12.249   6.003  1.00 20.00     0.002 C 
HETATM    2  C6  UNL     1     -40.085  13.404   6.406  1.00 20.00     0.006 C 
HETATM    3  C7  UNL     1     -42.289  12.407   6.822  1.00 20.00     0.016 C 
HETATM    4  C8  UNL     1     -40.770  14.067   7.603  1.00 20.00     0.004 C 
HETATM    5  C9  UNL     1     -42.259  13.834   7.356  1.00 20.00     0.062 C 
HETATM    6 BR12 UNL     1     -43.031  15.039   6.028  1.00 20.00    -0.091 Br
ENDROOT
BRANCH   4   7
HETATM    7  C10 UNL     1     -40.325  15.501   7.843  1.00 20.00     0.045 C 
BRANCH   7   8
HETATM    8  C4  UNL     1     -40.627  15.954   9.248  1.00 20.00    -0.051 A 
HETATM    9  C1  UNL     1     -40.255  15.226  10.414  1.00 20.00     0.014 A 
HETATM   10  C2  UNL     1     -40.653  15.861  11.571  1.00 20.00     0.050 A 
HETATM   11  S11 UNL     1     -41.472  17.331  11.246  1.00 20.00    -0.113 SA
HETATM   12  C3  UNL     1     -41.295  17.119   9.556  1.00 20.00     0.056 A 
ENDBRANCH   7   8
ENDBRANCH   4   7
TORSDOF 2
ENDMDL
MODEL 8
REMARK VINA RESULT:      -3.2     11.032     12.444
REMARK  2 active torsions:
REMARK  status: ('A' for Active; 'I' for Inactive)
REMARK    1  A    between atoms: C4_4  and  C10_10 
REMARK    2  A    between atoms: C8_8  and  C10_10 
ROOT
HETATM    1  C5  UNL     1     -41.543  14.819  10.668  1.00 20.00     0.002 C 
HETATM    2  C6  UNL     1     -42.116  14.124   9.430  1.00 20.00     0.006 C 
HETATM    3  C7  UNL     1     -40.192  15.409  10.253  1.00 20.00     0.016 C 
HETATM    4  C8  UNL     1     -40.984  14.138   8.399  1.00 20.00     0.004 C 
HETATM    5  C9  UNL     1     -40.198  15.405   8.728  1.00 20.00     0.062 C 
HETATM    6 BR12 UNL     1     -41.041  17.042   8.080  1.00 20.00    -0.091 Br
ENDROOT
BRANCH   4   7
HETATM    7  C10 UNL     1     -41.464  13.974   6.965  1.00 20.00     0.045 C 
BRANCH   7   8
HETATM    8  C4  UNL     1     -40.494  13.170   6.139  1.00 20.00    -0.051 A 
HETATM    9  C1  UNL     1     -39.326  12.548   6.667  1.00 20.00     0.014 A 
HETATM   10  C2  UNL     1     -38.615  11.875   5.698  1.00 20.00     0.050 A 
HETATM   11  S11 UNL     1     -39.356  11.994   4.158  1.00 20.00    -0.113 SA
HETATM   12  C3  UNL     1     -40.632  12.948   4.787  1.00 20.00     0.056 A 
ENDBRANCH   7   8
ENDBRANCH   4   7
TORSDOF 2
ENDMDL
MODEL 9
REMARK VINA RESULT:      -3.2      3.421      5.552
REMARK  2 active torsions:
REMARK  status: ('A' for Active; 'I' for Inactive)
REMARK    1  A    between atoms: C4_4  and  C10_10 
REMARK    2  A    between atoms: C8_8  and  C10_10 
ROOT
HETATM    1  C5  UNL     1     -37.068  16.107  -6.838  1.00 20.00     0.002 C 
HETATM    2  C6  UNL     1     -36.367  15.765  -5.521  1.00 20.00     0.006 C 
HETATM    3  C7  UNL     1     -36.161  17.099  -7.571  1.00 20.00     0.016 C 
HETATM    4  C8  UNL     1     -35.187  16.735  -5.427  1.00 20.00     0.004 C 
HETATM    5  C9  UNL     1     -34.804  16.996  -6.883  1.00 20.00     0.062 C 
HETATM    6 BR12 UNL     1     -33.774  15.550  -7.694  1.00 20.00    -0.091 Br
ENDROOT
BRANCH   4   7
HETATM    7  C10 UNL     1     -34.082  16.263  -4.496  1.00 20.00     0.045 C 
BRANCH   7   8
HETATM    8  C4  UNL     1     -33.920  17.178  -3.310  1.00 20.00    -0.051 A 
HETATM    9  C1  UNL     1     -33.411  16.759  -2.047  1.00 20.00     0.014 A 
HETATM   10  C2  UNL     1     -33.367  17.793  -1.137  1.00 20.00     0.050 A 
HETATM   11  S11 UNL     1     -33.937  19.263  -1.808  1.00 20.00    -0.113 SA
HETATM   12  C3  UNL     1     -34.244  18.517  -3.319  1.00 20.00     0.056 A 
ENDBRANCH   7   8
ENDBRANCH   4   7
TORSDOF 2
ENDMDL
