MODEL 1
REMARK VINA RESULT:      -3.7      0.000      0.000
REMARK  0 active torsions:
REMARK  status: ('A' for Active; 'I' for Inactive)
ROOT
HETATM    1  C1  UNL     1     -33.673  16.338  -3.472  1.00 20.00    -0.030 C 
HETATM    2  C2  UNL     1     -33.170  15.323  -4.182  1.00 20.00    -0.030 C 
HETATM    3  C3  UNL     1     -37.255  16.038  -5.441  1.00 20.00     0.128 C 
HETATM    4  C4  UNL     1     -34.809  17.187  -3.946  1.00 20.00     0.037 C 
HETATM    5  C5  UNL     1     -33.667  14.932  -5.537  1.00 20.00     0.037 C 
HETATM    6  C6  UNL     1     -36.622  17.390  -5.683  1.00 20.00     0.088 C 
HETATM    7  C7  UNL     1     -36.236  14.921  -5.402  1.00 20.00     0.088 C 
HETATM    8  C8  UNL     1     -35.124  17.078  -5.472  1.00 20.00    -0.026 C 
HETATM    9  C9  UNL     1     -34.981  15.607  -5.995  1.00 20.00    -0.026 C 
HETATM   10  C10 UNL     1     -34.250  18.085  -6.237  1.00 20.00     0.016 C 
HETATM   11  C11 UNL     1     -35.049  15.482  -7.539  1.00 20.00     0.016 C 
HETATM   12  O12 UNL     1     -38.458  15.867  -5.289  1.00 20.00    -0.298 OA
ENDROOT
TORSDOF 0
ENDMDL
MODEL 2
REMARK VINA RESULT:      -3.5     13.426     14.376
REMARK  0 active torsions:
REMARK  status: ('A' for Active; 'I' for Inactive)
ROOT
HETATM    1  C1  UNL     1     -39.619  12.646   5.957  1.00 20.00    -0.030 C 
HETATM    2  C2  UNL     1     -40.418  12.889   4.913  1.00 20.00    -0.030 C 
HETATM    3  C3  UNL     1     -42.783  12.951   8.544  1.00 20.00     0.128 C 
HETATM    4  C4  UNL     1     -39.938  13.081   7.353  1.00 20.00     0.037 C 
HETATM    5  C5  UNL     1     -41.708  13.639   5.012  1.00 20.00     0.037 C 
HETATM    6  C6  UNL     1     -41.745  14.009   8.841  1.00 20.00     0.088 C 
HETATM    7  C7  UNL     1     -42.948  12.701   7.062  1.00 20.00     0.088 C 
HETATM    8  C8  UNL     1     -41.055  14.167   7.468  1.00 20.00    -0.026 C 
HETATM    9  C9  UNL     1     -42.217  13.919   6.445  1.00 20.00    -0.026 C 
HETATM   10  C10 UNL     1     -40.417  15.559   7.340  1.00 20.00     0.016 C 
HETATM   11  C11 UNL     1     -43.230  15.090   6.353  1.00 20.00     0.016 C 
HETATM   12  O12 UNL     1     -43.417  12.358   9.409  1.00 20.00    -0.298 OA
ENDROOT
TORSDOF 0
ENDMDL
MODEL 3
REMARK VINA RESULT:      -3.4     13.467     14.571
REMARK  0 active torsions:
REMARK  status: ('A' for Active; 'I' for Inactive)
ROOT
HETATM    1  C1  UNL     1     -43.417  12.553   8.279  1.00 20.00    -0.030 C 
HETATM    2  C2  UNL     1     -42.922  13.343   9.237  1.00 20.00    -0.030 C 
HETATM    3  C3  UNL     1     -40.014  13.005   6.042  1.00 20.00     0.128 C 
HETATM    4  C4  UNL     1     -42.966  12.608   6.854  1.00 20.00     0.037 C 
HETATM    5  C5  UNL     1     -41.879  14.386   8.994  1.00 20.00     0.037 C 
HETATM    6  C6  UNL     1     -41.217  13.541   5.300  1.00 20.00     0.088 C 
HETATM    7  C7  UNL     1     -40.073  13.292   7.525  1.00 20.00     0.088 C 
HETATM    8  C8  UNL     1     -42.171  13.895   6.463  1.00 20.00    -0.026 C 
HETATM    9  C9  UNL     1     -41.199  14.351   7.605  1.00 20.00    -0.026 C 
HETATM   10  C10 UNL     1     -43.164  14.987   6.034  1.00 20.00     0.016 C 
HETATM   11  C11 UNL     1     -40.565  15.746   7.368  1.00 20.00     0.016 C 
HETATM   12  O12 UNL     1     -39.095  12.400   5.501  1.00 20.00    -0.298 OA
ENDROOT
TORSDOF 0
ENDMDL
MODEL 4
REMARK VINA RESULT:      -3.3     12.951     14.097
REMARK  0 active torsions:
REMARK  status: ('A' for Active; 'I' for Inactive)
ROOT
HETATM    1  C1  UNL     1     -41.398  16.718   7.057  1.00 20.00    -0.030 C 
HETATM    2  C2  UNL     1     -42.665  16.613   6.646  1.00 20.00    -0.030 C 
HETATM    3  C3  UNL     1     -40.527  13.001   5.566  1.00 20.00     0.128 C 
HETATM    4  C4  UNL     1     -40.522  15.536   7.329  1.00 20.00     0.037 C 
HETATM    5  C5  UNL     1     -43.362  15.307   6.431  1.00 20.00     0.037 C 
HETATM    6  C6  UNL     1     -40.319  13.040   7.063  1.00 20.00     0.088 C 
HETATM    7  C7  UNL     1     -41.728  13.808   5.127  1.00 20.00     0.088 C 
HETATM    8  C8  UNL     1     -41.277  14.177   7.484  1.00 20.00    -0.026 C 
HETATM    9  C9  UNL     1     -42.464  14.049   6.469  1.00 20.00    -0.026 C 
HETATM   10  C10 UNL     1     -41.706  14.007   8.950  1.00 20.00     0.016 C 
HETATM   11  C11 UNL     1     -43.387  12.832   6.735  1.00 20.00     0.016 C 
HETATM   12  O12 UNL     1     -39.800  12.388   4.794  1.00 20.00    -0.298 OA
ENDROOT
TORSDOF 0
ENDMDL
MODEL 5
REMARK VINA RESULT:      -3.3     12.950     14.042
REMARK  0 active torsions:
REMARK  status: ('A' for Active; 'I' for Inactive)
ROOT
HETATM    1  C1  UNL     1     -40.430  12.824   5.048  1.00 20.00    -0.030 C 
HETATM    2  C2  UNL     1     -39.715  12.518   6.135  1.00 20.00    -0.030 C 
HETATM    3  C3  UNL     1     -41.751  16.285   6.800  1.00 20.00     0.128 C 
HETATM    4  C4  UNL     1     -41.623  13.726   5.078  1.00 20.00     0.037 C 
HETATM    5  C5  UNL     1     -40.034  13.021   7.507  1.00 20.00     0.037 C 
HETATM    6  C6  UNL     1     -42.911  15.365   6.492  1.00 20.00     0.088 C 
HETATM    7  C7  UNL     1     -40.526  15.535   7.271  1.00 20.00     0.088 C 
HETATM    8  C8  UNL     1     -42.224  13.981   6.498  1.00 20.00    -0.026 C 
HETATM    9  C9  UNL     1     -41.105  14.134   7.585  1.00 20.00    -0.026 C 
HETATM   10  C10 UNL     1     -43.240  12.874   6.819  1.00 20.00     0.016 C 
HETATM   11  C11 UNL     1     -41.644  14.152   9.039  1.00 20.00     0.016 C 
HETATM   12  O12 UNL     1     -41.798  17.503   6.677  1.00 20.00    -0.298 OA
ENDROOT
TORSDOF 0
ENDMDL
MODEL 6
REMARK VINA RESULT:      -3.3      1.773      3.115
REMARK  0 active torsions:
REMARK  status: ('A' for Active; 'I' for Inactive)
ROOT
HETATM    1  C1  UNL     1     -36.540  18.275  -5.346  1.00 20.00    -0.030 C 
HETATM    2  C2  UNL     1     -35.437  18.751  -5.932  1.00 20.00    -0.030 C 
HETATM    3  C3  UNL     1     -34.783  14.605  -4.853  1.00 20.00     0.128 C 
HETATM    4  C4  UNL     1     -36.886  16.820  -5.307  1.00 20.00     0.037 C 
HETATM    5  C5  UNL     1     -34.435  17.892  -6.635  1.00 20.00     0.037 C 
HETATM    6  C6  UNL     1     -36.006  14.499  -5.735  1.00 20.00     0.088 C 
HETATM    7  C7  UNL     1     -33.996  15.871  -5.105  1.00 20.00     0.088 C 
HETATM    8  C8  UNL     1     -36.098  15.926  -6.319  1.00 20.00    -0.026 C 
HETATM    9  C9  UNL     1     -34.599  16.367  -6.442  1.00 20.00    -0.026 C 
HETATM   10  C10 UNL     1     -36.844  15.914  -7.663  1.00 20.00     0.016 C 
HETATM   11  C11 UNL     1     -33.836  15.672  -7.599  1.00 20.00     0.016 C 
HETATM   12  O12 UNL     1     -34.467  13.761  -4.024  1.00 20.00    -0.298 OA
ENDROOT
TORSDOF 0
ENDMDL
MODEL 7
REMARK VINA RESULT:      -3.2     12.135     13.725
REMARK  0 active torsions:
REMARK  status: ('A' for Active; 'I' for Inactive)
ROOT
HETATM    1  C1  UNL     1     -42.683   8.475  -0.035  1.00 20.00    -0.030 C 
HETATM    2  C2  UNL     1     -43.417   8.041   0.994  1.00 20.00    -0.030 C 
HETATM    3  C3  UNL     1     -42.350   4.664  -1.504  1.00 20.00     0.128 C 
HETATM    4  C4  UNL     1     -41.730   7.604  -0.789  1.00 20.00     0.037 C 
HETATM    5  C5  UNL     1     -43.357   6.644   1.524  1.00 20.00     0.037 C 
HETATM    6  C6  UNL     1     -40.989   5.224  -1.154  1.00 20.00     0.088 C 
HETATM    7  C7  UNL     1     -43.417   5.080  -0.517  1.00 20.00     0.088 C 
HETATM    8  C8  UNL     1     -41.348   6.268  -0.073  1.00 20.00    -0.026 C 
HETATM    9  C9  UNL     1     -42.575   5.627   0.661  1.00 20.00    -0.026 C 
HETATM   10  C10 UNL     1     -40.147   6.522   0.852  1.00 20.00     0.016 C 
HETATM   11  C11 UNL     1     -42.202   4.435   1.579  1.00 20.00     0.016 C 
HETATM   12  O12 UNL     1     -42.563   3.956  -2.480  1.00 20.00    -0.298 OA
ENDROOT
TORSDOF 0
ENDMDL
MODEL 8
REMARK VINA RESULT:      -3.2      1.078      1.181
REMARK  0 active torsions:
REMARK  status: ('A' for Active; 'I' for Inactive)
ROOT
HETATM    1  C1  UNL     1     -33.563  16.282  -3.020  1.00 20.00    -0.030 C 
HETATM    2  C2  UNL     1     -33.250  15.408  -3.981  1.00 20.00    -0.030 C 
HETATM    3  C3  UNL     1     -36.965  17.381  -5.024  1.00 20.00     0.128 C 
HETATM    4  C4  UNL     1     -34.442  17.471  -3.246  1.00 20.00     0.037 C 
HETATM    5  C5  UNL     1     -33.720  15.527  -5.396  1.00 20.00     0.037 C 
HETATM    6  C6  UNL     1     -36.029  18.559  -4.872  1.00 20.00     0.088 C 
HETATM    7  C7  UNL     1     -36.229  16.088  -5.292  1.00 20.00     0.088 C 
HETATM    8  C8  UNL     1     -34.659  17.857  -4.745  1.00 20.00    -0.026 C 
HETATM    9  C9  UNL     1     -34.811  16.592  -5.657  1.00 20.00    -0.026 C 
HETATM   10  C10 UNL     1     -33.527  18.797  -5.189  1.00 20.00     0.016 C 
HETATM   11  C11 UNL     1     -34.791  16.909  -7.175  1.00 20.00     0.016 C 
HETATM   12  O12 UNL     1     -38.184  17.465  -4.936  1.00 20.00    -0.298 OA
ENDROOT
TORSDOF 0
ENDMDL
MODEL 9
REMARK VINA RESULT:      -3.1      1.648      2.438
REMARK  0 active torsions:
REMARK  status: ('A' for Active; 'I' for Inactive)
ROOT
HETATM    1  C1  UNL     1     -34.217  14.388  -4.176  1.00 20.00    -0.030 C 
HETATM    2  C2  UNL     1     -35.368  13.815  -4.542  1.00 20.00    -0.030 C 
HETATM    3  C3  UNL     1     -35.599  18.072  -5.326  1.00 20.00     0.128 C 
HETATM    4  C4  UNL     1     -33.729  15.684  -4.742  1.00 20.00     0.037 C 
HETATM    5  C5  UNL     1     -36.290  14.388  -5.571  1.00 20.00     0.037 C 
HETATM    6  C6  UNL     1     -34.381  17.681  -6.133  1.00 20.00     0.088 C 
HETATM    7  C7  UNL     1     -36.509  16.897  -5.046  1.00 20.00     0.088 C 
HETATM    8  C8  UNL     1     -34.437  16.138  -6.059  1.00 20.00    -0.026 C 
HETATM    9  C9  UNL     1     -35.973  15.830  -6.032  1.00 20.00    -0.026 C 
HETATM   10  C10 UNL     1     -33.710  15.513  -7.260  1.00 20.00     0.016 C 
HETATM   11  C11 UNL     1     -36.678  16.041  -7.397  1.00 20.00     0.016 C 
HETATM   12  O12 UNL     1     -35.821  19.212  -4.939  1.00 20.00    -0.298 OA
ENDROOT
TORSDOF 0
ENDMDL
