MODEL 1
REMARK VINA RESULT:      -3.8      0.000      0.000
REMARK  0 active torsions:
REMARK  status: ('A' for Active; 'I' for Inactive)
ROOT
HETATM    1  C1  UNL     1     -33.379  16.507  -3.411  1.00 20.00    -0.082 C 
HETATM    2  C2  UNL     1     -32.692  15.469  -3.910  1.00 20.00     0.015 C 
HETATM    3  C3  UNL     1     -33.668  16.632  -1.931  1.00 20.00     0.038 C 
HETATM    4  C4  UNL     1     -33.292  18.947  -3.756  1.00 20.00     0.018 C 
HETATM    5  C5  UNL     1     -35.379  19.263  -2.456  1.00 20.00     0.173 C 
HETATM    6  C6  UNL     1     -33.879  17.642  -4.297  1.00 20.00     0.043 C 
HETATM    7  C7  UNL     1     -33.848  19.180  -2.349  1.00 20.00     0.014 C 
HETATM    8  C8  UNL     1     -33.388  18.049  -1.384  1.00 20.00    -0.009 C 
HETATM    9  C9  UNL     1     -35.425  17.701  -4.305  1.00 20.00     0.125 C 
HETATM   10  C10 UNL     1     -31.900  18.198  -1.033  1.00 20.00     0.011 C 
HETATM   11  C11 UNL     1     -35.980  18.597  -5.413  1.00 20.00     0.040 C 
HETATM   12  O12 UNL     1     -35.963  18.099  -3.037  1.00 20.00    -0.385 OA
ENDROOT
TORSDOF 0
ENDMDL
MODEL 2
REMARK VINA RESULT:      -3.6      2.490      4.156
REMARK  0 active torsions:
REMARK  status: ('A' for Active; 'I' for Inactive)
ROOT
HETATM    1  C1  UNL     1     -34.012  16.280  -4.244  1.00 20.00    -0.082 C 
HETATM    2  C2  UNL     1     -33.364  16.406  -3.077  1.00 20.00     0.015 C 
HETATM    3  C3  UNL     1     -33.885  15.036  -5.094  1.00 20.00     0.038 C 
HETATM    4  C4  UNL     1     -36.320  16.733  -4.982  1.00 20.00     0.018 C 
HETATM    5  C5  UNL     1     -35.699  16.354  -7.352  1.00 20.00     0.173 C 
HETATM    6  C6  UNL     1     -34.944  17.366  -4.768  1.00 20.00     0.043 C 
HETATM    7  C7  UNL     1     -36.197  15.665  -6.071  1.00 20.00     0.014 C 
HETATM    8  C8  UNL     1     -35.246  14.522  -5.612  1.00 20.00    -0.009 C 
HETATM    9  C9  UNL     1     -34.410  17.969  -6.089  1.00 20.00     0.125 C 
HETATM   10  C10 UNL     1     -35.919  13.640  -4.549  1.00 20.00     0.011 C 
HETATM   11  C11 UNL     1     -35.122  19.263  -6.484  1.00 20.00     0.040 C 
HETATM   12  O12 UNL     1     -34.457  17.033  -7.174  1.00 20.00    -0.385 OA
ENDROOT
TORSDOF 0
ENDMDL
MODEL 3
REMARK VINA RESULT:      -3.4     12.662     13.790
REMARK  0 active torsions:
REMARK  status: ('A' for Active; 'I' for Inactive)
ROOT
HETATM    1  C1  UNL     1     -40.758  13.369   6.644  1.00 20.00    -0.082 C 
HETATM    2  C2  UNL     1     -39.673  12.648   6.326  1.00 20.00     0.015 C 
HETATM    3  C3  UNL     1     -42.086  13.157   5.950  1.00 20.00     0.038 C 
HETATM    4  C4  UNL     1     -41.805  14.047   8.771  1.00 20.00     0.018 C 
HETATM    5  C5  UNL     1     -43.362  15.569   7.587  1.00 20.00     0.173 C 
HETATM    6  C6  UNL     1     -40.731  14.419   7.747  1.00 20.00     0.043 C 
HETATM    7  C7  UNL     1     -43.172  14.128   8.089  1.00 20.00     0.014 C 
HETATM    8  C8  UNL     1     -43.273  13.087   6.937  1.00 20.00    -0.009 C 
HETATM    9  C9  UNL     1     -40.991  15.834   7.176  1.00 20.00     0.125 C 
HETATM   10  C10 UNL     1     -43.417  11.663   7.493  1.00 20.00     0.011 C 
HETATM   11  C11 UNL     1     -40.659  16.948   8.169  1.00 20.00     0.040 C 
HETATM   12  O12 UNL     1     -42.332  15.990   6.694  1.00 20.00    -0.385 OA
ENDROOT
TORSDOF 0
ENDMDL
MODEL 4
REMARK VINA RESULT:      -3.3     24.418     26.035
REMARK  0 active torsions:
REMARK  status: ('A' for Active; 'I' for Inactive)
ROOT
HETATM    1  C1  UNL     1     -27.701  -2.702  10.154  1.00 20.00    -0.082 C 
HETATM    2  C2  UNL     1     -28.815  -3.200   9.597  1.00 20.00     0.015 C 
HETATM    3  C3  UNL     1     -27.367  -1.228  10.086  1.00 20.00     0.038 C 
HETATM    4  C4  UNL     1     -26.588  -3.010  12.332  1.00 20.00     0.018 C 
HETATM    5  C5  UNL     1     -24.595  -1.756  11.556  1.00 20.00     0.173 C 
HETATM    6  C6  UNL     1     -26.722  -3.583  10.920  1.00 20.00     0.043 C 
HETATM    7  C7  UNL     1     -25.970  -1.613  12.229  1.00 20.00     0.014 C 
HETATM    8  C8  UNL     1     -26.911  -0.654  11.445  1.00 20.00    -0.009 C 
HETATM    9  C9  UNL     1     -25.345  -3.628  10.217  1.00 20.00     0.125 C 
HETATM   10  C10 UNL     1     -28.130  -0.265  12.293  1.00 20.00     0.011 C 
HETATM   11  C11 UNL     1     -24.438  -4.736  10.753  1.00 20.00     0.040 C 
HETATM   12  O12 UNL     1     -24.663  -2.368  10.269  1.00 20.00    -0.385 OA
ENDROOT
TORSDOF 0
ENDMDL
MODEL 5
REMARK VINA RESULT:      -3.3     12.927     14.113
REMARK  0 active torsions:
REMARK  status: ('A' for Active; 'I' for Inactive)
ROOT
HETATM    1  C1  UNL     1     -42.574  12.792   7.423  1.00 20.00    -0.082 C 
HETATM    2  C2  UNL     1     -43.417  11.750   7.446  1.00 20.00     0.015 C 
HETATM    3  C3  UNL     1     -41.451  12.885   6.414  1.00 20.00     0.038 C 
HETATM    4  C4  UNL     1     -42.865  15.237   7.552  1.00 20.00     0.018 C 
HETATM    5  C5  UNL     1     -40.418  15.575   7.763  1.00 20.00     0.173 C 
HETATM    6  C6  UNL     1     -42.717  13.964   8.387  1.00 20.00     0.043 C 
HETATM    7  C7  UNL     1     -41.574  15.447   6.757  1.00 20.00     0.014 C 
HETATM    8  C8  UNL     1     -41.352  14.278   5.754  1.00 20.00    -0.009 C 
HETATM    9  C9  UNL     1     -41.490  14.066   9.324  1.00 20.00     0.125 C 
HETATM   10  C10 UNL     1     -42.327  14.376   4.572  1.00 20.00     0.011 C 
HETATM   11  C11 UNL     1     -41.721  15.007  10.507  1.00 20.00     0.040 C 
HETATM   12  O12 UNL     1     -40.297  14.444   8.624  1.00 20.00    -0.385 OA
ENDROOT
TORSDOF 0
ENDMDL
MODEL 6
REMARK VINA RESULT:      -3.3     11.935     13.537
REMARK  0 active torsions:
REMARK  status: ('A' for Active; 'I' for Inactive)
ROOT
HETATM    1  C1  UNL     1     -33.014   6.005   3.335  1.00 20.00    -0.082 C 
HETATM    2  C2  UNL     1     -32.886   5.093   2.359  1.00 20.00     0.015 C 
HETATM    3  C3  UNL     1     -31.981   7.087   3.552  1.00 20.00     0.038 C 
HETATM    4  C4  UNL     1     -34.876   7.409   4.136  1.00 20.00     0.018 C 
HETATM    5  C5  UNL     1     -33.560   8.125   6.112  1.00 20.00     0.173 C 
HETATM    6  C6  UNL     1     -34.226   6.029   4.259  1.00 20.00     0.043 C 
HETATM    7  C7  UNL     1     -33.884   8.458   4.646  1.00 20.00     0.014 C 
HETATM    8  C8  UNL     1     -32.609   8.484   3.755  1.00 20.00    -0.009 C 
HETATM    9  C9  UNL     1     -33.814   5.749   5.724  1.00 20.00     0.125 C 
HETATM   10  C10 UNL     1     -32.901   9.137   2.396  1.00 20.00     0.011 C 
HETATM   11  C11 UNL     1     -35.007   5.444   6.630  1.00 20.00     0.040 C 
HETATM   12  O12 UNL     1     -33.031   6.812   6.284  1.00 20.00    -0.385 OA
ENDROOT
TORSDOF 0
ENDMDL
MODEL 7
REMARK VINA RESULT:      -3.2     24.634     25.823
REMARK  0 active torsions:
REMARK  status: ('A' for Active; 'I' for Inactive)
ROOT
HETATM    1  C1  UNL     1     -26.172  -2.907  10.778  1.00 20.00    -0.082 C 
HETATM    2  C2  UNL     1     -25.006  -3.164  10.167  1.00 20.00     0.015 C 
HETATM    3  C3  UNL     1     -26.227  -2.356  12.186  1.00 20.00     0.038 C 
HETATM    4  C4  UNL     1     -28.257  -1.784  10.093  1.00 20.00     0.018 C 
HETATM    5  C5  UNL     1     -29.404  -2.527  12.162  1.00 20.00     0.173 C 
HETATM    6  C6  UNL     1     -27.509  -3.119  10.081  1.00 20.00     0.043 C 
HETATM    7  C7  UNL     1     -28.548  -1.406  11.548  1.00 20.00     0.014 C 
HETATM    8  C8  UNL     1     -27.223  -1.184  12.332  1.00 20.00    -0.009 C 
HETATM    9  C9  UNL     1     -28.340  -4.215  10.791  1.00 20.00     0.125 C 
HETATM   10  C10 UNL     1     -26.555   0.135  11.918  1.00 20.00     0.011 C 
HETATM   11  C11 UNL     1     -29.532  -4.691   9.960  1.00 20.00     0.040 C 
HETATM   12  O12 UNL     1     -28.781  -3.808  12.093  1.00 20.00    -0.385 OA
ENDROOT
TORSDOF 0
ENDMDL
MODEL 8
REMARK VINA RESULT:      -3.2     25.561     27.188
REMARK  0 active torsions:
REMARK  status: ('A' for Active; 'I' for Inactive)
ROOT
HETATM    1  C1  UNL     1     -23.731  -3.386   9.217  1.00 20.00    -0.082 C 
HETATM    2  C2  UNL     1     -23.196  -3.085   8.024  1.00 20.00     0.015 C 
HETATM    3  C3  UNL     1     -23.522  -4.737   9.865  1.00 20.00     0.038 C 
HETATM    4  C4  UNL     1     -23.885  -2.204  11.375  1.00 20.00     0.018 C 
HETATM    5  C5  UNL     1     -25.440  -3.917  12.268  1.00 20.00     0.173 C 
HETATM    6  C6  UNL     1     -24.551  -2.375  10.009  1.00 20.00     0.043 C 
HETATM    7  C7  UNL     1     -23.957  -3.541  12.118  1.00 20.00     0.014 C 
HETATM    8  C8  UNL     1     -23.148  -4.633  11.360  1.00 20.00    -0.009 C 
HETATM    9  C9  UNL     1     -26.015  -2.851  10.171  1.00 20.00     0.125 C 
HETATM   10  C10 UNL     1     -21.637  -4.405  11.515  1.00 20.00     0.011 C 
HETATM   11  C11 UNL     1     -26.948  -1.746  10.667  1.00 20.00     0.040 C 
HETATM   12  O12 UNL     1     -26.124  -4.002  11.019  1.00 20.00    -0.385 OA
ENDROOT
TORSDOF 0
ENDMDL
MODEL 9
REMARK VINA RESULT:      -3.2      3.451      5.354
REMARK  0 active torsions:
REMARK  status: ('A' for Active; 'I' for Inactive)
ROOT
HETATM    1  C1  UNL     1     -37.053  16.659  -5.705  1.00 20.00    -0.082 C 
HETATM    2  C2  UNL     1     -38.129  16.931  -4.950  1.00 20.00     0.015 C 
HETATM    3  C3  UNL     1     -37.120  16.665  -7.215  1.00 20.00     0.038 C 
HETATM    4  C4  UNL     1     -34.696  17.379  -5.653  1.00 20.00     0.018 C 
HETATM    5  C5  UNL     1     -34.089  15.711  -7.383  1.00 20.00     0.173 C 
HETATM    6  C6  UNL     1     -35.692  16.365  -5.087  1.00 20.00     0.043 C 
HETATM    7  C7  UNL     1     -34.578  17.151  -7.162  1.00 20.00     0.014 C 
HETATM    8  C8  UNL     1     -35.940  17.422  -7.865  1.00 20.00    -0.009 C 
HETATM    9  C9  UNL     1     -35.237  14.920  -5.404  1.00 20.00     0.125 C 
HETATM   10  C10 UNL     1     -36.241  18.927  -7.918  1.00 20.00     0.011 C 
HETATM   11  C11 UNL     1     -34.050  14.469  -4.553  1.00 20.00     0.040 C 
HETATM   12  O12 UNL     1     -34.944  14.732  -6.794  1.00 20.00    -0.385 OA
ENDROOT
TORSDOF 0
ENDMDL
