MODEL 1
REMARK VINA RESULT:      -6.0      0.000      0.000
REMARK  1 active torsions:
REMARK  status: ('A' for Active; 'I' for Inactive)
REMARK    1  A    between atoms: C8_8  and  O10_10 
ROOT
HETATM    1  C1  UNL     1     -33.708   7.176   5.913  1.00 20.00    -0.023 C 
HETATM    2  C2  UNL     1     -33.724   8.332   5.228  1.00 20.00     0.001 C 
HETATM    3  C3  UNL     1     -32.912   6.779   2.858  1.00 20.00     0.003 C 
HETATM    4  C4  UNL     1     -31.893   7.664   3.625  1.00 20.00     0.036 C 
HETATM    5  C5  UNL     1     -33.269   5.444   3.548  1.00 20.00     0.005 C 
HETATM    6  C6  UNL     1     -34.510   4.709   5.694  1.00 20.00     0.014 A 
HETATM    7  C7  UNL     1     -34.757   6.186   5.681  1.00 20.00     0.012 A 
HETATM    8  C8  UNL     1     -32.493   8.789   4.505  1.00 20.00     0.140 C 
HETATM    9  C9  UNL     1     -34.550   5.425   4.367  1.00 20.00    -0.006 A 
ENDROOT
BRANCH   8  10
HETATM   10  O10 UNL     1     -31.522   9.294   5.412  1.00 20.00    -0.392 OA
HETATM   11  H24 UNL     1     -31.491   8.677   6.162  1.00 20.00     0.210 HD
ENDBRANCH   8  10
TORSDOF 1
ENDMDL
MODEL 2
REMARK VINA RESULT:      -5.4      2.138      4.077
REMARK  1 active torsions:
REMARK  status: ('A' for Active; 'I' for Inactive)
REMARK    1  A    between atoms: C8_8  and  O10_10 
ROOT
HETATM    1  C1  UNL     1     -33.078   6.517   3.795  1.00 20.00    -0.023 C 
HETATM    2  C2  UNL     1     -34.241   5.848   3.718  1.00 20.00     0.001 C 
HETATM    3  C3  UNL     1     -34.672   6.545   6.549  1.00 20.00     0.003 C 
HETATM    4  C4  UNL     1     -34.235   5.115   6.132  1.00 20.00     0.036 C 
HETATM    5  C5  UNL     1     -33.552   7.609   6.510  1.00 20.00     0.005 C 
HETATM    6  C6  UNL     1     -32.117   8.763   4.695  1.00 20.00     0.014 A 
HETATM    7  C7  UNL     1     -33.089   7.976   3.871  1.00 20.00     0.012 A 
HETATM    8  C8  UNL     1     -34.516   4.717   4.662  1.00 20.00     0.140 C 
HETATM    9  C9  UNL     1     -33.484   8.477   5.264  1.00 20.00    -0.006 A 
ENDROOT
BRANCH   8  10
HETATM   10  O10 UNL     1     -33.779   3.556   4.302  1.00 20.00    -0.392 OA
HETATM   11  H24 UNL     1     -33.607   3.618   3.348  1.00 20.00     0.210 HD
ENDBRANCH   8  10
TORSDOF 1
ENDMDL
MODEL 3
REMARK VINA RESULT:      -5.4      1.881      3.473
REMARK  1 active torsions:
REMARK  status: ('A' for Active; 'I' for Inactive)
REMARK    1  A    between atoms: C8_8  and  O10_10 
ROOT
HETATM    1  C1  UNL     1     -33.608   7.660   5.384  1.00 20.00    -0.023 C 
HETATM    2  C2  UNL     1     -33.382   6.554   6.112  1.00 20.00     0.001 C 
HETATM    3  C3  UNL     1     -33.104   5.098   3.565  1.00 20.00     0.003 C 
HETATM    4  C4  UNL     1     -34.389   4.970   4.427  1.00 20.00     0.036 C 
HETATM    5  C5  UNL     1     -32.980   6.416   2.767  1.00 20.00     0.005 C 
HETATM    6  C6  UNL     1     -32.656   8.922   3.314  1.00 20.00     0.014 A 
HETATM    7  C7  UNL     1     -32.502   8.286   4.661  1.00 20.00     0.012 A 
HETATM    8  C8  UNL     1     -34.247   5.345   5.923  1.00 20.00     0.140 C 
HETATM    9  C9  UNL     1     -32.131   7.510   3.394  1.00 20.00    -0.006 A 
ENDROOT
BRANCH   8  10
HETATM   10  O10 UNL     1     -35.524   5.527   6.522  1.00 20.00    -0.392 OA
HETATM   11  H24 UNL     1     -36.103   5.904   5.838  1.00 20.00     0.210 HD
ENDBRANCH   8  10
TORSDOF 1
ENDMDL
MODEL 4
REMARK VINA RESULT:      -5.3      1.561      2.613
REMARK  1 active torsions:
REMARK  status: ('A' for Active; 'I' for Inactive)
REMARK    1  A    between atoms: C8_8  and  O10_10 
ROOT
HETATM    1  C1  UNL     1     -33.718   5.859   3.232  1.00 20.00    -0.023 C 
HETATM    2  C2  UNL     1     -32.422   6.162   3.051  1.00 20.00     0.001 C 
HETATM    3  C3  UNL     1     -32.707   8.099   5.255  1.00 20.00     0.003 C 
HETATM    4  C4  UNL     1     -32.654   8.567   3.776  1.00 20.00     0.036 C 
HETATM    5  C5  UNL     1     -34.050   7.475   5.695  1.00 20.00     0.005 C 
HETATM    6  C6  UNL     1     -35.402   5.340   5.150  1.00 20.00     0.014 A 
HETATM    7  C7  UNL     1     -34.121   5.096   4.412  1.00 20.00     0.012 A 
HETATM    8  C8  UNL     1     -32.018   7.577   2.768  1.00 20.00     0.140 C 
HETATM    9  C9  UNL     1     -34.132   5.958   5.679  1.00 20.00    -0.006 A 
ENDROOT
BRANCH   8  10
HETATM   10  O10 UNL     1     -32.332   7.944   1.431  1.00 20.00    -0.392 OA
HETATM   11  H24 UNL     1     -32.491   8.903   1.434  1.00 20.00     0.210 HD
ENDBRANCH   8  10
TORSDOF 1
ENDMDL
MODEL 5
REMARK VINA RESULT:      -5.1      1.949      3.846
REMARK  1 active torsions:
REMARK  status: ('A' for Active; 'I' for Inactive)
REMARK    1  A    between atoms: C8_8  and  O10_10 
ROOT
HETATM    1  C1  UNL     1     -33.437   5.779   3.748  1.00 20.00    -0.023 C 
HETATM    2  C2  UNL     1     -34.701   5.856   4.197  1.00 20.00     0.001 C 
HETATM    3  C3  UNL     1     -33.876   8.250   5.705  1.00 20.00     0.003 C 
HETATM    4  C4  UNL     1     -34.086   6.886   6.416  1.00 20.00     0.036 C 
HETATM    5  C5  UNL     1     -32.566   8.370   4.895  1.00 20.00     0.005 C 
HETATM    6  C6  UNL     1     -31.567   7.300   2.764  1.00 20.00     0.014 A 
HETATM    7  C7  UNL     1     -32.960   6.750   2.766  1.00 20.00     0.012 A 
HETATM    8  C8  UNL     1     -34.973   5.857   5.671  1.00 20.00     0.140 C 
HETATM    9  C9  UNL     1     -32.666   8.113   3.400  1.00 20.00    -0.006 A 
ENDROOT
BRANCH   8  10
HETATM   10  O10 UNL     1     -34.814   4.557   6.224  1.00 20.00    -0.392 OA
HETATM   11  H24 UNL     1     -35.443   4.487   6.960  1.00 20.00     0.210 HD
ENDBRANCH   8  10
TORSDOF 1
ENDMDL
MODEL 6
REMARK VINA RESULT:      -4.5     12.318     13.692
REMARK  1 active torsions:
REMARK  status: ('A' for Active; 'I' for Inactive)
REMARK    1  A    between atoms: C8_8  and  O10_10 
ROOT
HETATM    1  C1  UNL     1     -33.969  15.053  -4.244  1.00 20.00    -0.023 C 
HETATM    2  C2  UNL     1     -33.840  14.977  -5.579  1.00 20.00     0.001 C 
HETATM    3  C3  UNL     1     -34.982  17.691  -5.709  1.00 20.00     0.003 C 
HETATM    4  C4  UNL     1     -35.831  16.444  -6.078  1.00 20.00     0.036 C 
HETATM    5  C5  UNL     1     -34.765  17.909  -4.194  1.00 20.00     0.005 C 
HETATM    6  C6  UNL     1     -33.513  16.703  -2.281  1.00 20.00     0.014 A 
HETATM    7  C7  UNL     1     -33.074  15.922  -3.482  1.00 20.00     0.012 A 
HETATM    8  C8  UNL     1     -35.039  15.168  -6.458  1.00 20.00     0.140 C 
HETATM    9  C9  UNL     1     -33.454  17.400  -3.617  1.00 20.00    -0.006 A 
ENDROOT
BRANCH   8  10
HETATM   10  O10 UNL     1     -35.883  14.024  -6.434  1.00 20.00    -0.392 OA
HETATM   11  H24 UNL     1     -36.017  13.756  -7.358  1.00 20.00     0.210 HD
ENDBRANCH   8  10
TORSDOF 1
ENDMDL
MODEL 7
REMARK VINA RESULT:      -4.5     15.281     16.427
REMARK  1 active torsions:
REMARK  status: ('A' for Active; 'I' for Inactive)
REMARK    1  A    between atoms: C8_8  and  O10_10 
ROOT
HETATM    1  C1  UNL     1     -24.635  18.410   9.636  1.00 20.00    -0.023 C 
HETATM    2  C2  UNL     1     -25.188  18.890  10.763  1.00 20.00     0.001 C 
HETATM    3  C3  UNL     1     -22.567  18.504  12.054  1.00 20.00     0.003 C 
HETATM    4  C4  UNL     1     -23.744  17.527  12.318  1.00 20.00     0.036 C 
HETATM    5  C5  UNL     1     -21.864  18.328  10.688  1.00 20.00     0.005 C 
HETATM    6  C6  UNL     1     -22.478  18.665   8.200  1.00 20.00     0.014 A 
HETATM    7  C7  UNL     1     -23.678  19.230   8.897  1.00 20.00     0.012 A 
HETATM    8  C8  UNL     1     -25.163  18.070  12.017  1.00 20.00     0.140 C 
HETATM    9  C9  UNL     1     -22.304  19.263   9.574  1.00 20.00    -0.006 A 
ENDROOT
BRANCH   8  10
HETATM   10  O10 UNL     1     -26.108  17.010  11.957  1.00 20.00    -0.392 OA
HETATM   11  H24 UNL     1     -26.908  17.323  12.411  1.00 20.00     0.210 HD
ENDBRANCH   8  10
TORSDOF 1
ENDMDL
MODEL 8
REMARK VINA RESULT:      -4.3      1.566      2.786
REMARK  1 active torsions:
REMARK  status: ('A' for Active; 'I' for Inactive)
REMARK    1  A    between atoms: C8_8  and  O10_10 
ROOT
HETATM    1  C1  UNL     1     -34.048   5.321   4.483  1.00 20.00    -0.023 C 
HETATM    2  C2  UNL     1     -34.892   6.303   4.843  1.00 20.00     0.001 C 
HETATM    3  C3  UNL     1     -32.876   8.212   3.852  1.00 20.00     0.003 C 
HETATM    4  C4  UNL     1     -33.075   7.971   5.373  1.00 20.00     0.036 C 
HETATM    5  C5  UNL     1     -32.111   7.094   3.108  1.00 20.00     0.005 C 
HETATM    6  C6  UNL     1     -32.530   4.620   2.487  1.00 20.00     0.014 A 
HETATM    7  C7  UNL     1     -33.851   5.025   3.066  1.00 20.00     0.012 A 
HETATM    8  C8  UNL     1     -34.436   7.367   5.796  1.00 20.00     0.140 C 
HETATM    9  C9  UNL     1     -32.957   6.062   2.380  1.00 20.00    -0.006 A 
ENDROOT
BRANCH   8  10
HETATM   10  O10 UNL     1     -34.379   6.873   7.129  1.00 20.00    -0.392 OA
HETATM   11  H24 UNL     1     -33.589   6.311   7.185  1.00 20.00     0.210 HD
ENDBRANCH   8  10
TORSDOF 1
ENDMDL
MODEL 9
REMARK VINA RESULT:      -4.2     12.028     13.372
REMARK  1 active torsions:
REMARK  status: ('A' for Active; 'I' for Inactive)
REMARK    1  A    between atoms: C8_8  and  O10_10 
ROOT
HETATM    1  C1  UNL     1     -33.573  16.155  -2.783  1.00 20.00    -0.023 C 
HETATM    2  C2  UNL     1     -33.069  15.533  -3.863  1.00 20.00     0.001 C 
HETATM    3  C3  UNL     1     -34.787  17.280  -5.501  1.00 20.00     0.003 C 
HETATM    4  C4  UNL     1     -35.154  15.791  -5.259  1.00 20.00     0.036 C 
HETATM    5  C5  UNL     1     -35.054  18.222  -4.306  1.00 20.00     0.005 C 
HETATM    6  C6  UNL     1     -34.106  18.554  -1.924  1.00 20.00     0.014 A 
HETATM    7  C7  UNL     1     -33.172  17.530  -2.492  1.00 20.00     0.012 A 
HETATM    8  C8  UNL     1     -33.990  14.861  -4.836  1.00 20.00     0.140 C 
HETATM    9  C9  UNL     1     -33.865  18.539  -3.413  1.00 20.00    -0.006 A 
ENDROOT
BRANCH   8  10
HETATM   10  O10 UNL     1     -34.487  13.636  -4.312  1.00 20.00    -0.392 OA
HETATM   11  H24 UNL     1     -34.974  13.855  -3.501  1.00 20.00     0.210 HD
ENDBRANCH   8  10
TORSDOF 1
ENDMDL
