MODEL 1
REMARK VINA RESULT:      -3.9      0.000      0.000
REMARK  0 active torsions:
REMARK  status: ('A' for Active; 'I' for Inactive)
ROOT
HETATM    1  C1  UNL     1     -34.189  16.111  -4.658  1.00 20.00    -0.082 C 
HETATM    2  C2  UNL     1     -33.243  15.904  -3.729  1.00 20.00     0.015 C 
HETATM    3  C3  UNL     1     -35.094  17.321  -4.612  1.00 20.00     0.038 C 
HETATM    4  C4  UNL     1     -34.225  15.986  -7.120  1.00 20.00     0.018 C 
HETATM    5  C5  UNL     1     -36.691  16.264  -7.149  1.00 20.00     0.173 C 
HETATM    6  C6  UNL     1     -34.379  15.168  -5.836  1.00 20.00     0.043 C 
HETATM    7  C7  UNL     1     -35.353  17.023  -7.169  1.00 20.00     0.014 C 
HETATM    8  C8  UNL     1     -35.228  18.022  -5.983  1.00 20.00    -0.009 C 
HETATM    9  C9  UNL     1     -35.762  14.472  -5.862  1.00 20.00     0.125 C 
HETATM   10  C10 UNL     1     -34.056  18.991  -6.201  1.00 20.00     0.011 C 
HETATM   11  C11 UNL     1     -36.037  13.647  -4.610  1.00 20.00     0.040 C 
HETATM   12  O12 UNL     1     -36.829  15.417  -6.009  1.00 20.00    -0.385 OA
ENDROOT
TORSDOF 0
ENDMDL
MODEL 2
REMARK VINA RESULT:      -3.7      2.391      3.964
REMARK  0 active torsions:
REMARK  status: ('A' for Active; 'I' for Inactive)
ROOT
HETATM    1  C1  UNL     1     -33.344  16.479  -3.596  1.00 20.00    -0.082 C 
HETATM    2  C2  UNL     1     -32.652  15.433  -4.072  1.00 20.00     0.015 C 
HETATM    3  C3  UNL     1     -33.685  16.606  -2.129  1.00 20.00     0.038 C 
HETATM    4  C4  UNL     1     -33.200  18.918  -3.929  1.00 20.00     0.018 C 
HETATM    5  C5  UNL     1     -35.331  19.263  -2.704  1.00 20.00     0.173 C 
HETATM    6  C6  UNL     1     -33.789  17.623  -4.495  1.00 20.00     0.043 C 
HETATM    7  C7  UNL     1     -33.805  19.157  -2.541  1.00 20.00     0.014 C 
HETATM    8  C8  UNL     1     -33.398  18.015  -1.565  1.00 20.00    -0.009 C 
HETATM    9  C9  UNL     1     -35.326  17.785  -4.587  1.00 20.00     0.125 C 
HETATM   10  C10 UNL     1     -31.920  18.137  -1.164  1.00 20.00     0.011 C 
HETATM   11  C11 UNL     1     -36.025  16.536  -5.113  1.00 20.00     0.040 C 
HETATM   12  O12 UNL     1     -35.903  18.108  -3.316  1.00 20.00    -0.385 OA
ENDROOT
TORSDOF 0
ENDMDL
MODEL 3
REMARK VINA RESULT:      -3.4      1.306      3.069
REMARK  0 active torsions:
REMARK  status: ('A' for Active; 'I' for Inactive)
ROOT
HETATM    1  C1  UNL     1     -36.118  17.064  -4.937  1.00 20.00    -0.082 C 
HETATM    2  C2  UNL     1     -37.084  17.765  -4.324  1.00 20.00     0.015 C 
HETATM    3  C3  UNL     1     -34.671  17.500  -4.895  1.00 20.00     0.038 C 
HETATM    4  C4  UNL     1     -35.551  14.666  -5.043  1.00 20.00     0.018 C 
HETATM    5  C5  UNL     1     -33.854  15.094  -6.804  1.00 20.00     0.173 C 
HETATM    6  C6  UNL     1     -36.412  15.765  -5.672  1.00 20.00     0.043 C 
HETATM    7  C7  UNL     1     -34.077  15.012  -5.283  1.00 20.00     0.014 C 
HETATM    8  C8  UNL     1     -33.704  16.341  -4.565  1.00 20.00    -0.009 C 
HETATM    9  C9  UNL     1     -36.102  15.821  -7.188  1.00 20.00     0.125 C 
HETATM   10  C10 UNL     1     -33.617  16.138  -3.044  1.00 20.00     0.011 C 
HETATM   11  C11 UNL     1     -36.887  16.907  -7.916  1.00 20.00     0.040 C 
HETATM   12  O12 UNL     1     -34.710  16.044  -7.438  1.00 20.00    -0.385 OA
ENDROOT
TORSDOF 0
ENDMDL
MODEL 4
REMARK VINA RESULT:      -3.3     13.592     15.113
REMARK  0 active torsions:
REMARK  status: ('A' for Active; 'I' for Inactive)
ROOT
HETATM    1  C1  UNL     1     -41.062  14.371   8.419  1.00 20.00    -0.082 C 
HETATM    2  C2  UNL     1     -40.378  14.419   9.572  1.00 20.00     0.015 C 
HETATM    3  C3  UNL     1     -40.384  14.582   7.084  1.00 20.00     0.038 C 
HETATM    4  C4  UNL     1     -42.744  12.825   7.492  1.00 20.00     0.018 C 
HETATM    5  C5  UNL     1     -43.181  14.359   5.590  1.00 20.00     0.173 C 
HETATM    6  C6  UNL     1     -42.550  14.056   8.380  1.00 20.00     0.043 C 
HETATM    7  C7  UNL     1     -42.309  13.184   6.067  1.00 20.00     0.014 C 
HETATM    8  C8  UNL     1     -40.792  13.528   6.030  1.00 20.00    -0.009 C 
HETATM    9  C9  UNL     1     -43.417  15.208   7.816  1.00 20.00     0.125 C 
HETATM   10  C10 UNL     1     -39.937  12.261   6.187  1.00 20.00     0.011 C 
HETATM   11  C11 UNL     1     -43.278  16.502   8.610  1.00 20.00     0.040 C 
HETATM   12  O12 UNL     1     -43.096  15.495   6.450  1.00 20.00    -0.385 OA
ENDROOT
TORSDOF 0
ENDMDL
MODEL 5
REMARK VINA RESULT:      -3.3      1.346      3.412
REMARK  0 active torsions:
REMARK  status: ('A' for Active; 'I' for Inactive)
ROOT
HETATM    1  C1  UNL     1     -34.157  16.637  -4.135  1.00 20.00    -0.082 C 
HETATM    2  C2  UNL     1     -33.574  16.612  -2.927  1.00 20.00     0.015 C 
HETATM    3  C3  UNL     1     -33.928  15.540  -5.150  1.00 20.00     0.038 C 
HETATM    4  C4  UNL     1     -36.450  17.093  -4.918  1.00 20.00     0.018 C 
HETATM    5  C5  UNL     1     -35.697  17.097  -7.283  1.00 20.00     0.173 C 
HETATM    6  C6  UNL     1     -35.118  17.745  -4.541  1.00 20.00     0.043 C 
HETATM    7  C7  UNL     1     -36.223  16.204  -6.146  1.00 20.00     0.014 C 
HETATM    8  C8  UNL     1     -35.237  15.048  -5.807  1.00 20.00    -0.009 C 
HETATM    9  C9  UNL     1     -34.628  18.587  -5.744  1.00 20.00     0.125 C 
HETATM   10  C10 UNL     1     -35.913  13.992  -4.918  1.00 20.00     0.011 C 
HETATM   11  C11 UNL     1     -33.285  19.263  -5.490  1.00 20.00     0.040 C 
HETATM   12  O12 UNL     1     -34.503  17.795  -6.931  1.00 20.00    -0.385 OA
ENDROOT
TORSDOF 0
ENDMDL
MODEL 6
REMARK VINA RESULT:      -3.3     14.073     15.579
REMARK  0 active torsions:
REMARK  status: ('A' for Active; 'I' for Inactive)
ROOT
HETATM    1  C1  UNL     1     -42.019  14.245   6.343  1.00 20.00    -0.082 C 
HETATM    2  C2  UNL     1     -42.062  14.184   5.003  1.00 20.00     0.015 C 
HETATM    3  C3  UNL     1     -40.709  14.348   7.091  1.00 20.00     0.038 C 
HETATM    4  C4  UNL     1     -43.264  15.532   8.037  1.00 20.00     0.018 C 
HETATM    5  C5  UNL     1     -42.247  14.203   9.869  1.00 20.00     0.173 C 
HETATM    6  C6  UNL     1     -43.284  14.259   7.187  1.00 20.00     0.043 C 
HETATM    7  C7  UNL     1     -42.070  15.456   8.993  1.00 20.00     0.014 C 
HETATM    8  C8  UNL     1     -40.733  15.428   8.196  1.00 20.00    -0.009 C 
HETATM    9  C9  UNL     1     -43.417  13.042   8.134  1.00 20.00     0.125 C 
HETATM   10  C10 UNL     1     -40.422  16.808   7.597  1.00 20.00     0.011 C 
HETATM   11  C11 UNL     1     -43.417  11.709   7.393  1.00 20.00     0.040 C 
HETATM   12  O12 UNL     1     -42.363  13.005   9.103  1.00 20.00    -0.385 OA
ENDROOT
TORSDOF 0
ENDMDL
MODEL 7
REMARK VINA RESULT:      -3.1      1.537      2.943
REMARK  0 active torsions:
REMARK  status: ('A' for Active; 'I' for Inactive)
ROOT
HETATM    1  C1  UNL     1     -35.974  17.523  -4.709  1.00 20.00    -0.082 C 
HETATM    2  C2  UNL     1     -36.581  18.465  -3.971  1.00 20.00     0.015 C 
HETATM    3  C3  UNL     1     -36.727  16.325  -5.243  1.00 20.00     0.038 C 
HETATM    4  C4  UNL     1     -34.417  17.586  -6.620  1.00 20.00     0.018 C 
HETATM    5  C5  UNL     1     -34.043  15.138  -6.463  1.00 20.00     0.173 C 
HETATM    6  C6  UNL     1     -34.505  17.624  -5.092  1.00 20.00     0.043 C 
HETATM    7  C7  UNL     1     -34.928  16.224  -7.100  1.00 20.00     0.014 C 
HETATM    8  C8  UNL     1     -36.430  16.044  -6.733  1.00 20.00    -0.009 C 
HETATM    9  C9  UNL     1     -33.631  16.480  -4.524  1.00 20.00     0.125 C 
HETATM   10  C10 UNL     1     -37.322  16.919  -7.627  1.00 20.00     0.011 C 
HETATM   11  C11 UNL     1     -33.668  16.403  -3.001  1.00 20.00     0.040 C 
HETATM   12  O12 UNL     1     -34.027  15.203  -5.037  1.00 20.00    -0.385 OA
ENDROOT
TORSDOF 0
ENDMDL
MODEL 8
REMARK VINA RESULT:      -3.1     25.071     26.444
REMARK  0 active torsions:
REMARK  status: ('A' for Active; 'I' for Inactive)
ROOT
HETATM    1  C1  UNL     1     -26.783  -3.549  10.975  1.00 20.00    -0.082 C 
HETATM    2  C2  UNL     1     -26.314  -4.692  10.453  1.00 20.00     0.015 C 
HETATM    3  C3  UNL     1     -26.335  -3.054  12.332  1.00 20.00     0.038 C 
HETATM    4  C4  UNL     1     -27.120  -1.274  10.087  1.00 20.00     0.018 C 
HETATM    5  C5  UNL     1     -28.346  -0.599  12.137  1.00 20.00     0.173 C 
HETATM    6  C6  UNL     1     -27.757  -2.660  10.218  1.00 20.00     0.043 C 
HETATM    7  C7  UNL     1     -26.951  -0.685  11.492  1.00 20.00     0.014 C 
HETATM    8  C8  UNL     1     -25.970  -1.553  12.332  1.00 20.00    -0.009 C 
HETATM    9  C9  UNL     1     -29.131  -2.502  10.915  1.00 20.00     0.125 C 
HETATM   10  C10 UNL     1     -24.521  -1.358  11.858  1.00 20.00     0.011 C 
HETATM   11  C11 UNL     1     -29.847  -3.832  11.127  1.00 20.00     0.040 C 
HETATM   12  O12 UNL     1     -29.009  -1.862  12.191  1.00 20.00    -0.385 OA
ENDROOT
TORSDOF 0
ENDMDL
MODEL 9
REMARK VINA RESULT:      -3.1     13.512     14.983
REMARK  0 active torsions:
REMARK  status: ('A' for Active; 'I' for Inactive)
ROOT
HETATM    1  C1  UNL     1     -41.406  15.937   7.179  1.00 20.00    -0.082 C 
HETATM    2  C2  UNL     1     -40.819  17.143   7.143  1.00 20.00     0.015 C 
HETATM    3  C3  UNL     1     -42.755  15.692   6.541  1.00 20.00     0.038 C 
HETATM    4  C4  UNL     1     -40.620  13.638   6.760  1.00 20.00     0.018 C 
HETATM    5  C5  UNL     1     -42.754  12.698   7.609  1.00 20.00     0.173 C 
HETATM    6  C6  UNL     1     -40.734  14.734   7.823  1.00 20.00     0.043 C 
HETATM    7  C7  UNL     1     -42.034  13.214   6.351  1.00 20.00     0.014 C 
HETATM    8  C8  UNL     1     -42.790  14.403   5.689  1.00 20.00    -0.009 C 
HETATM    9  C9  UNL     1     -41.507  14.161   9.036  1.00 20.00     0.125 C 
HETATM   10  C10 UNL     1     -42.249  14.682   4.279  1.00 20.00     0.011 C 
HETATM   11  C11 UNL     1     -41.707  15.182  10.150  1.00 20.00     0.040 C 
HETATM   12  O12 UNL     1     -42.797  13.666   8.657  1.00 20.00    -0.385 OA
ENDROOT
TORSDOF 0
ENDMDL
