MODEL 1
REMARK VINA RESULT:      -4.1      0.000      0.000
REMARK  1 active torsions:
REMARK  status: ('A' for Active; 'I' for Inactive)
REMARK    1  A    between atoms: C6_6  and  O10_10 
ROOT
HETATM    1  C1  UNL     1     -33.400   8.664   5.036  1.00 20.00     0.003 C 
HETATM    2  C2  UNL     1     -32.151   8.086   4.375  1.00 20.00     0.032 C 
HETATM    3  C3  UNL     1     -34.058   7.628   5.944  1.00 20.00     0.010 C 
HETATM    4  C4  UNL     1     -34.946   6.173   3.981  1.00 20.00     0.017 A 
HETATM    5  C5  UNL     1     -33.452   5.944   4.036  1.00 20.00     0.023 A 
HETATM    6  C6  UNL     1     -32.498   6.934   3.431  1.00 20.00     0.125 C 
HETATM    7  C7  UNL     1     -34.226   6.265   5.304  1.00 20.00    -0.038 A 
HETATM    8  C8  UNL     1     -34.455   5.150   6.289  1.00 20.00     0.015 C 
ENDROOT
BRANCH   6   9
HETATM    9  O10 UNL     1     -33.048   7.442   2.217  1.00 20.00    -0.390 OA
HETATM   10  C9  UNL     1     -32.066   8.123   1.449  1.00 20.00     0.202 C 
ENDBRANCH   6   9
TORSDOF 1
ENDMDL
MODEL 2
REMARK VINA RESULT:      -3.5      1.630      2.917
REMARK  1 active torsions:
REMARK  status: ('A' for Active; 'I' for Inactive)
REMARK    1  A    between atoms: C6_6  and  O10_10 
ROOT
HETATM    1  C1  UNL     1     -34.158   5.380   6.443  1.00 20.00     0.003 C 
HETATM    2  C2  UNL     1     -35.020   5.102   5.215  1.00 20.00     0.032 C 
HETATM    3  C3  UNL     1     -34.064   6.882   6.706  1.00 20.00     0.010 C 
HETATM    4  C4  UNL     1     -32.512   7.346   4.673  1.00 20.00     0.017 A 
HETATM    5  C5  UNL     1     -33.885   7.069   4.103  1.00 20.00     0.023 A 
HETATM    6  C6  UNL     1     -34.382   5.661   3.943  1.00 20.00     0.125 C 
HETATM    7  C7  UNL     1     -33.738   7.704   5.476  1.00 20.00    -0.038 A 
HETATM    8  C8  UNL     1     -34.067   9.167   5.612  1.00 20.00     0.015 C 
ENDROOT
BRANCH   6   9
HETATM    9  O10 UNL     1     -33.307   4.823   3.524  1.00 20.00    -0.390 OA
HETATM   10  C9  UNL     1     -32.924   5.102   2.184  1.00 20.00     0.202 C 
ENDBRANCH   6   9
TORSDOF 1
ENDMDL
MODEL 3
REMARK VINA RESULT:      -3.5     11.748     13.232
REMARK  1 active torsions:
REMARK  status: ('A' for Active; 'I' for Inactive)
REMARK    1  A    between atoms: C6_6  and  O10_10 
ROOT
HETATM    1  C1  UNL     1     -33.090  15.121  -4.148  1.00 20.00     0.003 C 
HETATM    2  C2  UNL     1     -34.394  14.377  -4.423  1.00 20.00     0.032 C 
HETATM    3  C3  UNL     1     -33.364  16.449  -3.445  1.00 20.00     0.010 C 
HETATM    4  C4  UNL     1     -34.360  17.592  -5.557  1.00 20.00     0.017 A 
HETATM    5  C5  UNL     1     -35.400  16.602  -5.081  1.00 20.00     0.023 A 
HETATM    6  C6  UNL     1     -35.278  15.142  -5.409  1.00 20.00     0.125 C 
HETATM    7  C7  UNL     1     -34.465  17.270  -4.087  1.00 20.00    -0.038 A 
HETATM    8  C8  UNL     1     -35.037  18.334  -3.189  1.00 20.00     0.015 C 
ENDROOT
BRANCH   6   9
HETATM    9  O10 UNL     1     -34.777  14.993  -6.736  1.00 20.00    -0.390 OA
HETATM   10  C9  UNL     1     -35.806  15.159  -7.700  1.00 20.00     0.202 C 
ENDBRANCH   6   9
TORSDOF 1
ENDMDL
MODEL 4
REMARK VINA RESULT:      -3.5     11.656     13.357
REMARK  1 active torsions:
REMARK  status: ('A' for Active; 'I' for Inactive)
REMARK    1  A    between atoms: C6_6  and  O10_10 
ROOT
HETATM    1  C1  UNL     1     -34.078  14.772  -4.115  1.00 20.00     0.003 C 
HETATM    2  C2  UNL     1     -33.002  15.776  -3.710  1.00 20.00     0.032 C 
HETATM    3  C3  UNL     1     -34.493  14.985  -5.570  1.00 20.00     0.010 C 
HETATM    4  C4  UNL     1     -35.779  17.193  -5.091  1.00 20.00     0.017 A 
HETATM    5  C5  UNL     1     -34.308  17.527  -4.984  1.00 20.00     0.023 A 
HETATM    6  C6  UNL     1     -33.535  17.209  -3.736  1.00 20.00     0.125 C 
HETATM    7  C7  UNL     1     -34.779  16.430  -5.923  1.00 20.00    -0.038 A 
HETATM    8  C8  UNL     1     -34.758  16.714  -7.402  1.00 20.00     0.015 C 
ENDROOT
BRANCH   6   9
HETATM    9  O10 UNL     1     -34.356  17.449  -2.594  1.00 20.00    -0.390 OA
HETATM   10  C9  UNL     1     -33.606  17.366  -1.391  1.00 20.00     0.202 C 
ENDBRANCH   6   9
TORSDOF 1
ENDMDL
MODEL 5
REMARK VINA RESULT:      -3.4     12.045     13.447
REMARK  1 active torsions:
REMARK  status: ('A' for Active; 'I' for Inactive)
REMARK    1  A    between atoms: C6_6  and  O10_10 
ROOT
HETATM    1  C1  UNL     1     -33.758  15.146  -5.191  1.00 20.00     0.003 C 
HETATM    2  C2  UNL     1     -35.246  15.466  -5.296  1.00 20.00     0.032 C 
HETATM    3  C3  UNL     1     -33.233  15.478  -3.795  1.00 20.00     0.010 C 
HETATM    4  C4  UNL     1     -33.347  18.052  -4.144  1.00 20.00     0.017 A 
HETATM    5  C5  UNL     1     -34.776  17.581  -3.993  1.00 20.00     0.023 A 
HETATM    6  C6  UNL     1     -35.510  16.965  -5.149  1.00 20.00     0.125 C 
HETATM    7  C7  UNL     1     -33.648  16.845  -3.290  1.00 20.00    -0.038 A 
HETATM    8  C8  UNL     1     -33.522  17.011  -1.799  1.00 20.00     0.015 C 
ENDROOT
BRANCH   6   9
HETATM    9  O10 UNL     1     -35.158  17.646  -6.352  1.00 20.00    -0.390 OA
HETATM   10  C9  UNL     1     -35.964  17.221  -7.442  1.00 20.00     0.202 C 
ENDBRANCH   6   9
TORSDOF 1
ENDMDL
MODEL 6
REMARK VINA RESULT:      -3.4      1.440      3.567
REMARK  1 active torsions:
REMARK  status: ('A' for Active; 'I' for Inactive)
REMARK    1  A    between atoms: C6_6  and  O10_10 
ROOT
HETATM    1  C1  UNL     1     -32.865   7.745   5.449  1.00 20.00     0.003 C 
HETATM    2  C2  UNL     1     -34.352   7.463   5.251  1.00 20.00     0.032 C 
HETATM    3  C3  UNL     1     -32.214   8.153   4.129  1.00 20.00     0.010 C 
HETATM    4  C4  UNL     1     -32.316   5.764   3.108  1.00 20.00     0.017 A 
HETATM    5  C5  UNL     1     -33.734   6.290   3.098  1.00 20.00     0.023 A 
HETATM    6  C6  UNL     1     -34.577   6.255   4.340  1.00 20.00     0.125 C 
HETATM    7  C7  UNL     1     -32.560   7.246   2.965  1.00 20.00    -0.038 A 
HETATM    8  C8  UNL     1     -32.300   7.858   1.614  1.00 20.00     0.015 C 
ENDROOT
BRANCH   6   9
HETATM    9  O10 UNL     1     -34.322   5.047   5.053  1.00 20.00    -0.390 OA
HETATM   10  C9  UNL     1     -34.625   5.187   6.434  1.00 20.00     0.202 C 
ENDBRANCH   6   9
TORSDOF 1
ENDMDL
MODEL 7
REMARK VINA RESULT:      -3.3     11.751     13.188
REMARK  1 active torsions:
REMARK  status: ('A' for Active; 'I' for Inactive)
REMARK    1  A    between atoms: C6_6  and  O10_10 
ROOT
HETATM    1  C1  UNL     1     -35.782  18.548  -2.920  1.00 20.00     0.003 C 
HETATM    2  C2  UNL     1     -35.193  18.636  -4.325  1.00 20.00     0.032 C 
HETATM    3  C3  UNL     1     -34.701  18.782  -1.866  1.00 20.00     0.010 C 
HETATM    4  C4  UNL     1     -33.542  16.488  -2.255  1.00 20.00     0.017 A 
HETATM    5  C5  UNL     1     -33.201  17.343  -3.454  1.00 20.00     0.023 A 
HETATM    6  C6  UNL     1     -34.181  17.517  -4.579  1.00 20.00     0.125 C 
HETATM    7  C7  UNL     1     -33.434  17.984  -2.096  1.00 20.00    -0.038 A 
HETATM    8  C8  UNL     1     -32.235  18.511  -1.353  1.00 20.00     0.015 C 
ENDROOT
BRANCH   6   9
HETATM    9  O10 UNL     1     -34.859  16.285  -4.813  1.00 20.00    -0.390 OA
HETATM   10  C9  UNL     1     -34.226  15.531  -5.837  1.00 20.00     0.202 C 
ENDBRANCH   6   9
TORSDOF 1
ENDMDL
MODEL 8
REMARK VINA RESULT:      -3.3     10.010     11.233
REMARK  1 active torsions:
REMARK  status: ('A' for Active; 'I' for Inactive)
REMARK    1  A    between atoms: C6_6  and  O10_10 
ROOT
HETATM    1  C1  UNL     1     -42.750  12.997   7.609  1.00 20.00     0.003 C 
HETATM    2  C2  UNL     1     -42.033  13.209   6.278  1.00 20.00     0.032 C 
HETATM    3  C3  UNL     1     -42.875  14.317   8.369  1.00 20.00     0.010 C 
HETATM    4  C4  UNL     1     -40.350  14.440   8.975  1.00 20.00     0.017 A 
HETATM    5  C5  UNL     1     -40.447  14.754   7.499  1.00 20.00     0.023 A 
HETATM    6  C6  UNL     1     -40.585  13.654   6.486  1.00 20.00     0.125 C 
HETATM    7  C7  UNL     1     -41.588  15.113   8.437  1.00 20.00    -0.038 A 
HETATM    8  C8  UNL     1     -41.784  16.566   8.780  1.00 20.00     0.015 C 
ENDROOT
BRANCH   6   9
HETATM    9  O10 UNL     1     -39.781  12.544   6.877  1.00 20.00    -0.390 OA
HETATM   10  C9  UNL     1     -39.484  11.704   5.771  1.00 20.00     0.202 C 
ENDBRANCH   6   9
TORSDOF 1
ENDMDL
MODEL 9
REMARK VINA RESULT:      -3.2     12.080     13.508
REMARK  1 active torsions:
REMARK  status: ('A' for Active; 'I' for Inactive)
REMARK    1  A    between atoms: C6_6  and  O10_10 
ROOT
HETATM    1  C1  UNL     1     -27.253  -0.401  11.763  1.00 20.00     0.003 C 
HETATM    2  C2  UNL     1     -27.708  -0.719  10.342  1.00 20.00     0.032 C 
HETATM    3  C3  UNL     1     -25.780  -0.758  11.950  1.00 20.00     0.010 C 
HETATM    4  C4  UNL     1     -26.190  -3.325  11.932  1.00 20.00     0.017 A 
HETATM    5  C5  UNL     1     -26.368  -2.857  10.505  1.00 20.00     0.023 A 
HETATM    6  C6  UNL     1     -27.652  -2.221  10.058  1.00 20.00     0.125 C 
HETATM    7  C7  UNL     1     -25.409  -2.134  11.435  1.00 20.00    -0.038 A 
HETATM    8  C8  UNL     1     -23.932  -2.326  11.211  1.00 20.00     0.015 C 
ENDROOT
BRANCH   6   9
HETATM    9  O10 UNL     1     -28.752  -2.880  10.683  1.00 20.00    -0.390 OA
HETATM   10  C9  UNL     1     -29.174  -4.010   9.932  1.00 20.00     0.202 C 
ENDBRANCH   6   9
TORSDOF 1
ENDMDL
