MODEL 1
REMARK VINA RESULT:      -5.9      0.000      0.000
REMARK  0 active torsions:
REMARK  status: ('A' for Active; 'I' for Inactive)
ROOT
HETATM    1  C1  UNL     1     -32.630   5.958   2.755  1.00 20.00    -0.029 C 
HETATM    2  C2  UNL     1     -33.676   5.414   3.397  1.00 20.00    -0.014 C 
HETATM    3  C3  UNL     1     -33.711   7.008   5.401  1.00 20.00     0.143 C 
HETATM    4  C4  UNL     1     -31.879   7.207   3.104  1.00 20.00     0.032 C 
HETATM    5  C5  UNL     1     -32.404   9.156   4.734  1.00 20.00     0.018 A 
HETATM    6  C6  UNL     1     -33.642   8.299   4.674  1.00 20.00     0.061 A 
HETATM    7  C7  UNL     1     -32.722   8.386   3.483  1.00 20.00     0.001 A 
HETATM    8  C8  UNL     1     -34.397   5.844   4.661  1.00 20.00     0.031 C 
HETATM    9  C9  UNL     1     -35.839   6.245   4.310  1.00 20.00     0.027 C 
HETATM   10  C10 UNL     1     -34.450   4.632   5.613  1.00 20.00     0.027 C 
HETATM   11  O11 UNL     1     -33.236   6.920   6.527  1.00 20.00    -0.296 OA
ENDROOT
TORSDOF 0
ENDMDL
MODEL 2
REMARK VINA RESULT:      -4.0     12.283     13.609
REMARK  0 active torsions:
REMARK  status: ('A' for Active; 'I' for Inactive)
ROOT
HETATM    1  C1  UNL     1     -33.324  15.883  -3.239  1.00 20.00    -0.029 C 
HETATM    2  C2  UNL     1     -33.800  15.096  -4.216  1.00 20.00    -0.014 C 
HETATM    3  C3  UNL     1     -35.464  16.765  -5.217  1.00 20.00     0.143 C 
HETATM    4  C4  UNL     1     -33.622  17.331  -2.989  1.00 20.00     0.032 C 
HETATM    5  C5  UNL     1     -34.762  19.150  -4.447  1.00 20.00     0.018 A 
HETATM    6  C6  UNL     1     -34.571  17.945  -5.332  1.00 20.00     0.061 A 
HETATM    7  C7  UNL     1     -33.613  18.213  -4.200  1.00 20.00     0.001 A 
HETATM    8  C8  UNL     1     -34.789  15.385  -5.330  1.00 20.00     0.031 C 
HETATM    9  C9  UNL     1     -34.071  15.280  -6.685  1.00 20.00     0.027 C 
HETATM   10  C10 UNL     1     -35.889  14.305  -5.280  1.00 20.00     0.027 C 
HETATM   11  O11 UNL     1     -36.666  16.929  -5.044  1.00 20.00    -0.296 OA
ENDROOT
TORSDOF 0
ENDMDL
MODEL 3
REMARK VINA RESULT:      -4.0      1.312      3.300
REMARK  0 active torsions:
REMARK  status: ('A' for Active; 'I' for Inactive)
ROOT
HETATM    1  C1  UNL     1     -33.526   5.203   3.250  1.00 20.00    -0.029 C 
HETATM    2  C2  UNL     1     -32.783   6.259   2.884  1.00 20.00    -0.014 C 
HETATM    3  C3  UNL     1     -33.605   7.893   4.675  1.00 20.00     0.143 C 
HETATM    4  C4  UNL     1     -34.416   5.070   4.449  1.00 20.00     0.032 C 
HETATM    5  C5  UNL     1     -34.661   6.498   6.602  1.00 20.00     0.018 A 
HETATM    6  C6  UNL     1     -33.454   7.025   5.870  1.00 20.00     0.061 A 
HETATM    7  C7  UNL     1     -33.846   5.576   5.739  1.00 20.00     0.001 A 
HETATM    8  C8  UNL     1     -32.629   7.631   3.514  1.00 20.00     0.031 C 
HETATM    9  C9  UNL     1     -31.186   7.797   4.016  1.00 20.00     0.027 C 
HETATM   10  C10 UNL     1     -32.886   8.687   2.420  1.00 20.00     0.027 C 
HETATM   11  O11 UNL     1     -34.473   8.758   4.661  1.00 20.00    -0.296 OA
ENDROOT
TORSDOF 0
ENDMDL
MODEL 4
REMARK VINA RESULT:      -3.9      1.490      3.746
REMARK  0 active torsions:
REMARK  status: ('A' for Active; 'I' for Inactive)
ROOT
HETATM    1  C1  UNL     1     -34.121   6.642   6.816  1.00 20.00    -0.029 C 
HETATM    2  C2  UNL     1     -33.866   7.798   6.183  1.00 20.00    -0.014 C 
HETATM    3  C3  UNL     1     -33.131   6.806   3.941  1.00 20.00     0.143 C 
HETATM    4  C4  UNL     1     -34.101   5.254   6.248  1.00 20.00     0.032 C 
HETATM    5  C5  UNL     1     -34.040   4.371   3.809  1.00 20.00     0.018 A 
HETATM    6  C6  UNL     1     -34.254   5.861   3.724  1.00 20.00     0.061 A 
HETATM    7  C7  UNL     1     -34.763   5.090   4.914  1.00 20.00     0.001 A 
HETATM    8  C8  UNL     1     -33.454   8.076   4.750  1.00 20.00     0.031 C 
HETATM    9  C9  UNL     1     -34.574   8.857   4.043  1.00 20.00     0.027 C 
HETATM   10  C10 UNL     1     -32.192   8.961   4.782  1.00 20.00     0.027 C 
HETATM   11  O11 UNL     1     -32.024   6.548   3.481  1.00 20.00    -0.296 OA
ENDROOT
TORSDOF 0
ENDMDL
MODEL 5
REMARK VINA RESULT:      -3.9     12.348     13.819
REMARK  0 active torsions:
REMARK  status: ('A' for Active; 'I' for Inactive)
ROOT
HETATM    1  C1  UNL     1     -34.606  14.903  -5.416  1.00 20.00    -0.029 C 
HETATM    2  C2  UNL     1     -35.048  15.963  -6.111  1.00 20.00    -0.014 C 
HETATM    3  C3  UNL     1     -34.955  17.679  -4.213  1.00 20.00     0.143 C 
HETATM    4  C4  UNL     1     -34.091  14.870  -4.009  1.00 20.00     0.032 C 
HETATM    5  C5  UNL     1     -33.360  16.752  -2.378  1.00 20.00     0.018 A 
HETATM    6  C6  UNL     1     -33.583  17.405  -3.718  1.00 20.00     0.061 A 
HETATM    7  C7  UNL     1     -33.139  15.967  -3.641  1.00 20.00     0.001 A 
HETATM    8  C8  UNL     1     -35.205  17.418  -5.710  1.00 20.00     0.031 C 
HETATM    9  C9  UNL     1     -34.241  18.279  -6.543  1.00 20.00     0.027 C 
HETATM   10  C10 UNL     1     -36.648  17.849  -6.041  1.00 20.00     0.027 C 
HETATM   11  O11 UNL     1     -35.810  18.090  -3.437  1.00 20.00    -0.296 OA
ENDROOT
TORSDOF 0
ENDMDL
MODEL 6
REMARK VINA RESULT:      -3.9     12.166     13.620
REMARK  0 active torsions:
REMARK  status: ('A' for Active; 'I' for Inactive)
ROOT
HETATM    1  C1  UNL     1     -34.795  17.766  -4.304  1.00 20.00    -0.029 C 
HETATM    2  C2  UNL     1     -35.740  17.264  -5.113  1.00 20.00    -0.014 C 
HETATM    3  C3  UNL     1     -34.454  15.194  -5.899  1.00 20.00     0.143 C 
HETATM    4  C4  UNL     1     -33.483  17.149  -3.921  1.00 20.00     0.032 C 
HETATM    5  C5  UNL     1     -32.546  14.744  -4.187  1.00 20.00     0.018 A 
HETATM    6  C6  UNL     1     -34.000  14.687  -4.580  1.00 20.00     0.061 A 
HETATM    7  C7  UNL     1     -33.529  15.695  -3.564  1.00 20.00     0.001 A 
HETATM    8  C8  UNL     1     -35.782  15.973  -5.910  1.00 20.00     0.031 C 
HETATM    9  C9  UNL     1     -36.902  15.075  -5.359  1.00 20.00     0.027 C 
HETATM   10  C10 UNL     1     -36.121  16.328  -7.372  1.00 20.00     0.027 C 
HETATM   11  O11 UNL     1     -33.776  14.980  -6.897  1.00 20.00    -0.296 OA
ENDROOT
TORSDOF 0
ENDMDL
MODEL 7
REMARK VINA RESULT:      -3.8     12.523     14.059
REMARK  0 active torsions:
REMARK  status: ('A' for Active; 'I' for Inactive)
ROOT
HETATM    1  C1  UNL     1     -33.234  15.651  -3.617  1.00 20.00    -0.029 C 
HETATM    2  C2  UNL     1     -33.510  16.957  -3.481  1.00 20.00    -0.014 C 
HETATM    3  C3  UNL     1     -34.757  17.276  -5.694  1.00 20.00     0.143 C 
HETATM    4  C4  UNL     1     -33.694  14.717  -4.696  1.00 20.00     0.032 C 
HETATM    5  C5  UNL     1     -35.527  14.931  -6.520  1.00 20.00     0.018 A 
HETATM    6  C6  UNL     1     -35.685  16.121  -5.608  1.00 20.00     0.061 A 
HETATM    7  C7  UNL     1     -35.141  14.822  -5.071  1.00 20.00     0.001 A 
HETATM    8  C8  UNL     1     -34.316  17.898  -4.356  1.00 20.00     0.031 C 
HETATM    9  C9  UNL     1     -35.558  18.371  -3.582  1.00 20.00     0.027 C 
HETATM   10  C10 UNL     1     -33.440  19.130  -4.663  1.00 20.00     0.027 C 
HETATM   11  O11 UNL     1     -34.390  17.678  -6.792  1.00 20.00    -0.296 OA
ENDROOT
TORSDOF 0
ENDMDL
MODEL 8
REMARK VINA RESULT:      -3.7     12.287     13.862
REMARK  0 active torsions:
REMARK  status: ('A' for Active; 'I' for Inactive)
ROOT
HETATM    1  C1  UNL     1     -33.485  15.705  -3.047  1.00 20.00    -0.029 C 
HETATM    2  C2  UNL     1     -33.445  16.771  -2.233  1.00 20.00    -0.014 C 
HETATM    3  C3  UNL     1     -33.659  18.581  -4.030  1.00 20.00     0.143 C 
HETATM    4  C4  UNL     1     -33.739  15.679  -4.524  1.00 20.00     0.032 C 
HETATM    5  C5  UNL     1     -34.647  17.470  -6.167  1.00 20.00     0.018 A 
HETATM    6  C6  UNL     1     -34.817  18.032  -4.778  1.00 20.00     0.061 A 
HETATM    7  C7  UNL     1     -34.864  16.543  -5.004  1.00 20.00     0.001 A 
HETATM    8  C8  UNL     1     -33.599  18.251  -2.528  1.00 20.00     0.031 C 
HETATM    9  C9  UNL     1     -34.872  18.774  -1.841  1.00 20.00     0.027 C 
HETATM   10  C10 UNL     1     -32.386  18.985  -1.921  1.00 20.00     0.027 C 
HETATM   11  O11 UNL     1     -32.822  19.256  -4.619  1.00 20.00    -0.296 OA
ENDROOT
TORSDOF 0
ENDMDL
MODEL 9
REMARK VINA RESULT:      -3.7      8.339     10.388
REMARK  0 active torsions:
REMARK  status: ('A' for Active; 'I' for Inactive)
ROOT
HETATM    1  C1  UNL     1     -43.309   5.496   1.936  1.00 20.00    -0.029 C 
HETATM    2  C2  UNL     1     -42.831   6.739   1.769  1.00 20.00    -0.014 C 
HETATM    3  C3  UNL     1     -41.501   6.307  -0.376  1.00 20.00     0.143 C 
HETATM    4  C4  UNL     1     -43.177   4.322   1.013  1.00 20.00     0.032 C 
HETATM    5  C5  UNL     1     -42.428   4.132  -1.464  1.00 20.00     0.018 A 
HETATM    6  C6  UNL     1     -42.546   5.604  -1.161  1.00 20.00     0.061 A 
HETATM    7  C7  UNL     1     -43.417   4.609  -0.438  1.00 20.00     0.001 A 
HETATM    8  C8  UNL     1     -41.999   7.340   0.651  1.00 20.00     0.031 C 
HETATM    9  C9  UNL     1     -42.826   8.417  -0.071  1.00 20.00     0.027 C 
HETATM   10  C10 UNL     1     -40.770   8.019   1.287  1.00 20.00     0.027 C 
HETATM   11  O11 UNL     1     -40.319   6.047  -0.570  1.00 20.00    -0.296 OA
ENDROOT
TORSDOF 0
ENDMDL
