MODEL 1
REMARK VINA RESULT:      -4.6      0.000      0.000
REMARK  1 active torsions:
REMARK  status: ('A' for Active; 'I' for Inactive)
REMARK    1  A    between atoms: C6_6  and  O10_10 
ROOT
HETATM    1  C1  UNL     1     -32.872   5.955   2.655  1.00 20.00     0.003 C 
HETATM    2  C2  UNL     1     -33.881   5.768   3.800  1.00 20.00     0.032 C 
HETATM    3  C3  UNL     1     -31.876   7.099   2.868  1.00 20.00     0.010 C 
HETATM    4  C4  UNL     1     -32.217   8.863   4.755  1.00 20.00     0.017 A 
HETATM    5  C5  UNL     1     -33.497   8.097   4.562  1.00 20.00     0.023 A 
HETATM    6  C6  UNL     1     -33.624   6.670   5.012  1.00 20.00     0.125 C 
HETATM    7  C7  UNL     1     -32.578   8.337   3.384  1.00 20.00    -0.038 A 
HETATM    8  C8  UNL     1     -33.016   9.318   2.333  1.00 20.00     0.015 C 
ENDROOT
BRANCH   6   9
HETATM    9  O10 UNL     1     -34.705   6.561   5.931  1.00 20.00    -0.390 OA
HETATM   10  C9  UNL     1     -34.722   5.287   6.553  1.00 20.00     0.202 C 
ENDBRANCH   6   9
TORSDOF 1
ENDMDL
MODEL 2
REMARK VINA RESULT:      -4.4      1.908      3.612
REMARK  1 active torsions:
REMARK  status: ('A' for Active; 'I' for Inactive)
REMARK    1  A    between atoms: C6_6  and  O10_10 
ROOT
HETATM    1  C1  UNL     1     -34.093   4.795   3.866  1.00 20.00     0.003 C 
HETATM    2  C2  UNL     1     -32.983   5.400   2.991  1.00 20.00     0.032 C 
HETATM    3  C3  UNL     1     -34.914   5.825   4.650  1.00 20.00     0.010 C 
HETATM    4  C4  UNL     1     -34.142   8.305   4.855  1.00 20.00     0.017 A 
HETATM    5  C5  UNL     1     -32.994   7.474   4.350  1.00 20.00     0.023 A 
HETATM    6  C6  UNL     1     -32.985   6.931   2.950  1.00 20.00     0.125 C 
HETATM    7  C7  UNL     1     -34.013   6.861   5.287  1.00 20.00    -0.038 A 
HETATM    8  C8  UNL     1     -33.591   6.572   6.700  1.00 20.00     0.015 C 
ENDROOT
BRANCH   6   9
HETATM    9  O10 UNL     1     -31.821   7.396   2.274  1.00 20.00    -0.390 OA
HETATM   10  C9  UNL     1     -32.160   8.291   1.228  1.00 20.00     0.202 C 
ENDBRANCH   6   9
TORSDOF 1
ENDMDL
MODEL 3
REMARK VINA RESULT:      -4.3      1.833      4.005
REMARK  1 active torsions:
REMARK  status: ('A' for Active; 'I' for Inactive)
REMARK    1  A    between atoms: C6_6  and  O10_10 
ROOT
HETATM    1  C1  UNL     1     -33.455   8.145   5.475  1.00 20.00     0.003 C 
HETATM    2  C2  UNL     1     -32.811   8.448   4.112  1.00 20.00     0.032 C 
HETATM    3  C3  UNL     1     -33.674   6.655   5.756  1.00 20.00     0.010 C 
HETATM    4  C4  UNL     1     -33.441   4.869   3.873  1.00 20.00     0.017 A 
HETATM    5  C5  UNL     1     -33.522   6.235   3.247  1.00 20.00     0.023 A 
HETATM    6  C6  UNL     1     -32.376   7.200   3.337  1.00 20.00     0.125 C 
HETATM    7  C7  UNL     1     -34.251   5.956   4.544  1.00 20.00    -0.038 A 
HETATM    8  C8  UNL     1     -35.750   5.858   4.507  1.00 20.00     0.015 C 
ENDROOT
BRANCH   6   9
HETATM    9  O10 UNL     1     -31.967   7.568   2.024  1.00 20.00    -0.390 OA
HETATM   10  C9  UNL     1     -32.544   8.803   1.635  1.00 20.00     0.202 C 
ENDBRANCH   6   9
TORSDOF 1
ENDMDL
MODEL 4
REMARK VINA RESULT:      -4.2     15.258     16.576
REMARK  1 active torsions:
REMARK  status: ('A' for Active; 'I' for Inactive)
REMARK    1  A    between atoms: C6_6  and  O10_10 
ROOT
HETATM    1  C1  UNL     1     -25.049  19.093   9.345  1.00 20.00     0.003 C 
HETATM    2  C2  UNL     1     -23.708  19.173   8.596  1.00 20.00     0.032 C 
HETATM    3  C3  UNL     1     -24.918  18.918  10.861  1.00 20.00     0.010 C 
HETATM    4  C4  UNL     1     -22.641  18.301  11.967  1.00 20.00     0.017 A 
HETATM    5  C5  UNL     1     -22.549  18.060  10.485  1.00 20.00     0.023 A 
HETATM    6  C6  UNL     1     -22.482  19.203   9.514  1.00 20.00     0.125 C 
HETATM    7  C7  UNL     1     -23.872  17.877  11.197  1.00 20.00    -0.038 A 
HETATM    8  C8  UNL     1     -24.388  16.478  11.385  1.00 20.00     0.015 C 
ENDROOT
BRANCH   6   9
HETATM    9  O10 UNL     1     -21.296  19.089   8.735  1.00 20.00    -0.390 OA
HETATM   10  C9  UNL     1     -21.443  18.113   7.717  1.00 20.00     0.202 C 
ENDBRANCH   6   9
TORSDOF 1
ENDMDL
MODEL 5
REMARK VINA RESULT:      -4.0      1.425      3.404
REMARK  1 active torsions:
REMARK  status: ('A' for Active; 'I' for Inactive)
REMARK    1  A    between atoms: C6_6  and  O10_10 
ROOT
HETATM    1  C1  UNL     1     -32.393   6.197   2.662  1.00 20.00     0.003 C 
HETATM    2  C2  UNL     1     -32.330   7.451   3.549  1.00 20.00     0.032 C 
HETATM    3  C3  UNL     1     -33.703   5.410   2.770  1.00 20.00     0.010 C 
HETATM    4  C4  UNL     1     -35.426   5.893   4.664  1.00 20.00     0.017 A 
HETATM    5  C5  UNL     1     -34.118   6.549   5.011  1.00 20.00     0.023 A 
HETATM    6  C6  UNL     1     -33.640   7.768   4.276  1.00 20.00     0.125 C 
HETATM    7  C7  UNL     1     -34.127   5.261   4.215  1.00 20.00    -0.038 A 
HETATM    8  C8  UNL     1     -33.669   4.004   4.897  1.00 20.00     0.015 C 
ENDROOT
BRANCH   6   9
HETATM    9  O10 UNL     1     -33.430   8.825   5.206  1.00 20.00    -0.390 OA
HETATM   10  C9  UNL     1     -32.103   9.319   5.130  1.00 20.00     0.202 C 
ENDBRANCH   6   9
TORSDOF 1
ENDMDL
MODEL 6
REMARK VINA RESULT:      -3.7      1.413      2.922
REMARK  1 active torsions:
REMARK  status: ('A' for Active; 'I' for Inactive)
REMARK    1  A    between atoms: C6_6  and  O10_10 
ROOT
HETATM    1  C1  UNL     1     -34.245   7.104   6.557  1.00 20.00     0.003 C 
HETATM    2  C2  UNL     1     -34.118   5.794   5.763  1.00 20.00     0.032 C 
HETATM    3  C3  UNL     1     -34.166   8.374   5.703  1.00 20.00     0.010 C 
HETATM    4  C4  UNL     1     -33.377   8.294   3.221  1.00 20.00     0.017 A 
HETATM    5  C5  UNL     1     -33.020   6.996   3.892  1.00 20.00     0.023 A 
HETATM    6  C6  UNL     1     -34.075   5.987   4.244  1.00 20.00     0.125 C 
HETATM    7  C7  UNL     1     -33.041   8.278   4.696  1.00 20.00    -0.038 A 
HETATM    8  C8  UNL     1     -31.727   8.859   5.137  1.00 20.00     0.015 C 
ENDROOT
BRANCH   6   9
HETATM    9  O10 UNL     1     -33.771   4.749   3.610  1.00 20.00    -0.390 OA
HETATM   10  C9  UNL     1     -32.871   4.934   2.530  1.00 20.00     0.202 C 
ENDBRANCH   6   9
TORSDOF 1
ENDMDL
MODEL 7
REMARK VINA RESULT:      -3.6     11.672     12.915
REMARK  1 active torsions:
REMARK  status: ('A' for Active; 'I' for Inactive)
REMARK    1  A    between atoms: C6_6  and  O10_10 
ROOT
HETATM    1  C1  UNL     1     -33.616  14.664  -4.385  1.00 20.00     0.003 C 
HETATM    2  C2  UNL     1     -33.423  15.746  -3.310  1.00 20.00     0.032 C 
HETATM    3  C3  UNL     1     -34.081  15.196  -5.744  1.00 20.00     0.010 C 
HETATM    4  C4  UNL     1     -34.944  17.639  -6.023  1.00 20.00     0.017 A 
HETATM    5  C5  UNL     1     -34.900  17.298  -4.559  1.00 20.00     0.023 A 
HETATM    6  C6  UNL     1     -33.594  17.177  -3.828  1.00 20.00     0.125 C 
HETATM    7  C7  UNL     1     -35.188  16.214  -5.576  1.00 20.00    -0.038 A 
HETATM    8  C8  UNL     1     -36.585  15.669  -5.653  1.00 20.00     0.015 C 
ENDROOT
BRANCH   6   9
HETATM    9  O10 UNL     1     -33.581  18.089  -2.735  1.00 20.00    -0.390 OA
HETATM   10  C9  UNL     1     -33.568  17.401  -1.495  1.00 20.00     0.202 C 
ENDBRANCH   6   9
TORSDOF 1
ENDMDL
MODEL 8
REMARK VINA RESULT:      -3.5     11.587     12.786
REMARK  1 active torsions:
REMARK  status: ('A' for Active; 'I' for Inactive)
REMARK    1  A    between atoms: C6_6  and  O10_10 
ROOT
HETATM    1  C1  UNL     1     -34.844  18.254  -4.746  1.00 20.00     0.003 C 
HETATM    2  C2  UNL     1     -35.664  17.080  -5.307  1.00 20.00     0.032 C 
HETATM    3  C3  UNL     1     -33.428  17.880  -4.295  1.00 20.00     0.010 C 
HETATM    4  C4  UNL     1     -32.696  15.393  -4.040  1.00 20.00     0.017 A 
HETATM    5  C5  UNL     1     -34.195  15.455  -4.143  1.00 20.00     0.023 A 
HETATM    6  C6  UNL     1     -34.872  15.776  -5.445  1.00 20.00     0.125 C 
HETATM    7  C7  UNL     1     -33.437  16.595  -3.497  1.00 20.00    -0.038 A 
HETATM    8  C8  UNL     1     -33.541  16.759  -2.007  1.00 20.00     0.015 C 
ENDROOT
BRANCH   6   9
HETATM    9  O10 UNL     1     -35.753  14.713  -5.791  1.00 20.00    -0.390 OA
HETATM   10  C9  UNL     1     -35.875  13.782  -4.728  1.00 20.00     0.202 C 
ENDBRANCH   6   9
TORSDOF 1
ENDMDL
MODEL 9
REMARK VINA RESULT:      -3.5     11.892     13.347
REMARK  1 active torsions:
REMARK  status: ('A' for Active; 'I' for Inactive)
REMARK    1  A    between atoms: C6_6  and  O10_10 
ROOT
HETATM    1  C1  UNL     1     -33.388  15.879  -3.363  1.00 20.00     0.003 C 
HETATM    2  C2  UNL     1     -34.047  17.228  -3.693  1.00 20.00     0.032 C 
HETATM    3  C3  UNL     1     -33.409  14.866  -4.512  1.00 20.00     0.010 C 
HETATM    4  C4  UNL     1     -34.881  15.243  -6.629  1.00 20.00     0.017 A 
HETATM    5  C5  UNL     1     -35.324  16.190  -5.548  1.00 20.00     0.023 A 
HETATM    6  C6  UNL     1     -34.483  17.369  -5.155  1.00 20.00     0.125 C 
HETATM    7  C7  UNL     1     -34.768  14.832  -5.177  1.00 20.00    -0.038 A 
HETATM    8  C8  UNL     1     -35.720  13.796  -4.650  1.00 20.00     0.015 C 
ENDROOT
BRANCH   6   9
HETATM    9  O10 UNL     1     -35.241  18.563  -5.317  1.00 20.00    -0.390 OA
HETATM   10  C9  UNL     1     -36.604  18.353  -4.985  1.00 20.00     0.202 C 
ENDBRANCH   6   9
TORSDOF 1
ENDMDL
