MODEL 1
REMARK VINA RESULT:      -5.8      0.000      0.000
REMARK  1 active torsions:
REMARK  status: ('A' for Active; 'I' for Inactive)
REMARK    1  A    between atoms: C6_6  and  O8_8 
ROOT
HETATM    1  C1  UNL     1     -34.079   7.071   6.432  1.00 20.00    -0.023 C 
HETATM    2  C2  UNL     1     -34.652   5.905   6.080  1.00 20.00     0.001 C 
HETATM    3  C3  UNL     1     -32.394   8.358   4.722  1.00 20.00     0.009 C 
HETATM    4  C4  UNL     1     -32.705   7.608   3.360  1.00 20.00     0.009 C 
HETATM    5  C5  UNL     1     -33.703   7.728   5.181  1.00 20.00     0.015 C 
HETATM    6  C6  UNL     1     -34.503   5.651   4.585  1.00 20.00     0.145 C 
HETATM    7  C7  UNL     1     -33.266   6.493   4.292  1.00 20.00     0.026 C 
ENDROOT
BRANCH   6   8
HETATM    8  O8  UNL     1     -34.224   4.282   4.347  1.00 20.00    -0.391 OA
HETATM    9  H18 UNL     1     -34.732   3.770   5.000  1.00 20.00     0.210 HD
ENDBRANCH   6   8
TORSDOF 1
ENDMDL
MODEL 2
REMARK VINA RESULT:      -5.4      1.928      3.428
REMARK  1 active torsions:
REMARK  status: ('A' for Active; 'I' for Inactive)
REMARK    1  A    between atoms: C6_6  and  O8_8 
ROOT
HETATM    1  C1  UNL     1     -33.193   5.998   3.328  1.00 20.00    -0.023 C 
HETATM    2  C2  UNL     1     -32.604   7.206   3.380  1.00 20.00     0.001 C 
HETATM    3  C3  UNL     1     -34.523   5.014   5.493  1.00 20.00     0.009 C 
HETATM    4  C4  UNL     1     -34.677   6.319   6.379  1.00 20.00     0.009 C 
HETATM    5  C5  UNL     1     -34.213   6.004   4.377  1.00 20.00     0.015 C 
HETATM    6  C6  UNL     1     -33.075   7.996   4.594  1.00 20.00     0.145 C 
HETATM    7  C7  UNL     1     -33.500   6.852   5.509  1.00 20.00     0.026 C 
ENDROOT
BRANCH   6   8
HETATM    8  O8  UNL     1     -31.990   8.700   5.172  1.00 20.00    -0.391 OA
HETATM    9  H18 UNL     1     -32.348   9.528   5.535  1.00 20.00     0.210 HD
ENDBRANCH   6   8
TORSDOF 1
ENDMDL
MODEL 3
REMARK VINA RESULT:      -5.0      1.666      2.887
REMARK  1 active torsions:
REMARK  status: ('A' for Active; 'I' for Inactive)
REMARK    1  A    between atoms: C6_6  and  O8_8 
ROOT
HETATM    1  C1  UNL     1     -33.646   8.179   5.432  1.00 20.00    -0.023 C 
HETATM    2  C2  UNL     1     -32.751   8.461   4.467  1.00 20.00     0.001 C 
HETATM    3  C3  UNL     1     -35.020   5.827   5.400  1.00 20.00     0.009 C 
HETATM    4  C4  UNL     1     -34.176   4.992   4.349  1.00 20.00     0.009 C 
HETATM    5  C5  UNL     1     -33.789   6.723   5.433  1.00 20.00     0.015 C 
HETATM    6  C6  UNL     1     -32.409   7.219   3.655  1.00 20.00     0.145 C 
HETATM    7  C7  UNL     1     -33.668   6.390   3.890  1.00 20.00     0.026 C 
ENDROOT
BRANCH   6   8
HETATM    8  O8  UNL     1     -32.296   7.547   2.281  1.00 20.00    -0.391 OA
HETATM    9  H18 UNL     1     -32.273   6.709   1.789  1.00 20.00     0.210 HD
ENDBRANCH   6   8
TORSDOF 1
ENDMDL
MODEL 4
REMARK VINA RESULT:      -5.0      1.162      2.168
REMARK  1 active torsions:
REMARK  status: ('A' for Active; 'I' for Inactive)
REMARK    1  A    between atoms: C6_6  and  O8_8 
ROOT
HETATM    1  C1  UNL     1     -32.927   5.924   2.810  1.00 20.00    -0.023 C 
HETATM    2  C2  UNL     1     -33.697   4.975   3.374  1.00 20.00     0.001 C 
HETATM    3  C3  UNL     1     -32.818   8.431   3.871  1.00 20.00     0.009 C 
HETATM    4  C4  UNL     1     -33.465   8.189   5.299  1.00 20.00     0.009 C 
HETATM    5  C5  UNL     1     -32.677   6.914   3.857  1.00 20.00     0.015 C 
HETATM    6  C6  UNL     1     -34.152   5.394   4.767  1.00 20.00     0.145 C 
HETATM    7  C7  UNL     1     -34.057   6.911   4.634  1.00 20.00     0.026 C 
ENDROOT
BRANCH   6   8
HETATM    8  O8  UNL     1     -35.500   5.011   4.977  1.00 20.00    -0.391 OA
HETATM    9  H18 UNL     1     -35.635   4.962   5.939  1.00 20.00     0.210 HD
ENDBRANCH   6   8
TORSDOF 1
ENDMDL
MODEL 5
REMARK VINA RESULT:      -4.6      1.080      2.633
REMARK  1 active torsions:
REMARK  status: ('A' for Active; 'I' for Inactive)
REMARK    1  A    between atoms: C6_6  and  O8_8 
ROOT
HETATM    1  C1  UNL     1     -32.729   8.248   4.449  1.00 20.00    -0.023 C 
HETATM    2  C2  UNL     1     -32.400   7.532   3.359  1.00 20.00     0.001 C 
HETATM    3  C3  UNL     1     -34.413   7.216   6.325  1.00 20.00     0.009 C 
HETATM    4  C4  UNL     1     -34.415   5.681   5.927  1.00 20.00     0.009 C 
HETATM    5  C5  UNL     1     -33.168   7.275   5.450  1.00 20.00     0.015 C 
HETATM    6  C6  UNL     1     -32.792   6.069   3.523  1.00 20.00     0.145 C 
HETATM    7  C7  UNL     1     -33.912   6.205   4.550  1.00 20.00     0.026 C 
ENDROOT
BRANCH   6   8
HETATM    8  O8  UNL     1     -33.311   5.561   2.306  1.00 20.00    -0.391 OA
HETATM    9  H18 UNL     1     -33.357   4.594   2.398  1.00 20.00     0.210 HD
ENDBRANCH   6   8
TORSDOF 1
ENDMDL
MODEL 6
REMARK VINA RESULT:      -4.4      1.840      2.539
REMARK  1 active torsions:
REMARK  status: ('A' for Active; 'I' for Inactive)
REMARK    1  A    between atoms: C6_6  and  O8_8 
ROOT
HETATM    1  C1  UNL     1     -34.702   5.138   4.900  1.00 20.00    -0.023 C 
HETATM    2  C2  UNL     1     -34.724   6.091   5.850  1.00 20.00     0.001 C 
HETATM    3  C3  UNL     1     -33.262   5.494   2.615  1.00 20.00     0.009 C 
HETATM    4  C4  UNL     1     -32.342   6.721   3.019  1.00 20.00     0.009 C 
HETATM    5  C5  UNL     1     -33.490   5.379   4.117  1.00 20.00     0.015 C 
HETATM    6  C6  UNL     1     -33.628   7.123   5.617  1.00 20.00     0.145 C 
HETATM    7  C7  UNL     1     -33.423   6.961   4.114  1.00 20.00     0.026 C 
ENDROOT
BRANCH   6   8
HETATM    8  O8  UNL     1     -34.113   8.425   5.900  1.00 20.00    -0.391 OA
HETATM    9  H18 UNL     1     -33.341   8.975   6.118  1.00 20.00     0.210 HD
ENDBRANCH   6   8
TORSDOF 1
ENDMDL
MODEL 7
REMARK VINA RESULT:      -4.3      1.656      2.921
REMARK  1 active torsions:
REMARK  status: ('A' for Active; 'I' for Inactive)
REMARK    1  A    between atoms: C6_6  and  O8_8 
ROOT
HETATM    1  C1  UNL     1     -32.167   7.821   3.747  1.00 20.00    -0.023 C 
HETATM    2  C2  UNL     1     -32.772   8.328   4.836  1.00 20.00     0.001 C 
HETATM    3  C3  UNL     1     -32.796   5.326   2.851  1.00 20.00     0.009 C 
HETATM    4  C4  UNL     1     -34.141   5.045   3.642  1.00 20.00     0.009 C 
HETATM    5  C5  UNL     1     -33.057   6.774   3.244  1.00 20.00     0.015 C 
HETATM    6  C6  UNL     1     -33.998   7.508   5.216  1.00 20.00     0.145 C 
HETATM    7  C7  UNL     1     -33.626   6.167   4.591  1.00 20.00     0.026 C 
ENDROOT
BRANCH   6   8
HETATM    8  O8  UNL     1     -34.083   7.378   6.625  1.00 20.00    -0.391 OA
HETATM    9  H18 UNL     1     -33.257   7.736   6.993  1.00 20.00     0.210 HD
ENDBRANCH   6   8
TORSDOF 1
ENDMDL
MODEL 8
REMARK VINA RESULT:      -3.8      8.802      9.565
REMARK  1 active torsions:
REMARK  status: ('A' for Active; 'I' for Inactive)
REMARK    1  A    between atoms: C6_6  and  O8_8 
ROOT
HETATM    1  C1  UNL     1     -41.716   8.045   0.040  1.00 20.00    -0.023 C 
HETATM    2  C2  UNL     1     -40.810   7.326  -0.648  1.00 20.00     0.001 C 
HETATM    3  C3  UNL     1     -43.417   6.826   1.783  1.00 20.00     0.009 C 
HETATM    4  C4  UNL     1     -42.726   5.409   1.948  1.00 20.00     0.009 C 
HETATM    5  C5  UNL     1     -42.068   7.237   1.207  1.00 20.00     0.015 C 
HETATM    6  C6  UNL     1     -40.669   5.923  -0.069  1.00 20.00     0.145 C 
HETATM    7  C7  UNL     1     -42.030   5.773   0.603  1.00 20.00     0.026 C 
ENDROOT
BRANCH   6   8
HETATM    8  O8  UNL     1     -40.538   4.974  -1.113  1.00 20.00    -0.391 OA
HETATM    9  H18 UNL     1     -41.307   5.087  -1.699  1.00 20.00     0.210 HD
ENDBRANCH   6   8
TORSDOF 1
ENDMDL
MODEL 9
REMARK VINA RESULT:      -3.8     12.380     13.208
REMARK  1 active torsions:
REMARK  status: ('A' for Active; 'I' for Inactive)
REMARK    1  A    between atoms: C6_6  and  O8_8 
ROOT
HETATM    1  C1  UNL     1     -34.860  16.712  -5.245  1.00 20.00    -0.023 C 
HETATM    2  C2  UNL     1     -34.308  15.544  -5.622  1.00 20.00     0.001 C 
HETATM    3  C3  UNL     1     -34.373  17.738  -2.769  1.00 20.00     0.009 C 
HETATM    4  C4  UNL     1     -33.129  16.867  -2.314  1.00 20.00     0.009 C 
HETATM    5  C5  UNL     1     -34.023  17.219  -4.158  1.00 20.00     0.015 C 
HETATM    6  C6  UNL     1     -33.194  15.131  -4.669  1.00 20.00     0.145 C 
HETATM    7  C7  UNL     1     -33.625  15.880  -3.412  1.00 20.00     0.026 C 
ENDROOT
BRANCH   6   8
HETATM    8  O8  UNL     1     -33.240  13.733  -4.438  1.00 20.00    -0.391 OA
HETATM    9  H18 UNL     1     -33.658  13.330  -5.218  1.00 20.00     0.210 HD
ENDBRANCH   6   8
TORSDOF 1
ENDMDL
