MODEL 1
REMARK VINA RESULT:      -3.4      0.000      0.000
REMARK  4 active torsions:
REMARK  status: ('A' for Active; 'I' for Inactive)
REMARK    1  A    between atoms: C1_1  and  C7_7 
REMARK    2  A    between atoms: C7_7  and  N10_10 
REMARK    3  A    between atoms: C8_8  and  C9_9 
REMARK    4  A    between atoms: C8_8  and  N10_10 
ROOT
HETATM    1  C2  UNL     1     -33.310  16.135  -3.268  1.00 20.00     0.043 C 
HETATM    2  C8  UNL     1     -33.348  17.647  -3.502  1.00 20.00     0.226 C 
ENDROOT
BRANCH   2   3
HETATM    3  C9  UNL     1     -34.377  18.125  -4.577  1.00 20.00    -0.021 C 
HETATM    4  C3  UNL     1     -35.677  18.654  -3.941  1.00 20.00     0.016 C 
HETATM    5  C4  UNL     1     -33.769  19.245  -5.445  1.00 20.00     0.016 C 
HETATM    6  C5  UNL     1     -34.737  16.952  -5.515  1.00 20.00     0.016 C 
ENDBRANCH   2   3
BRANCH   2   7
HETATM    7  N10 UNL     1     -33.559  18.312  -2.233  1.00 20.00     0.095 N 
HETATM    8  C6  UNL     1     -33.747  17.337  -1.153  1.00 20.00     0.310 C 
BRANCH   7   9
HETATM    9  C7  UNL     1     -32.436  19.201  -1.913  1.00 20.00     0.341 C 
BRANCH   9  10
HETATM   10  C1  UNL     1     -31.794  18.717  -0.644  1.00 20.00     0.261 C 
HETATM   11  O11 UNL     1     -30.575  18.672  -0.495  1.00 20.00    -0.305 OA
ENDBRANCH   9  10
ENDBRANCH   7   9
ENDBRANCH   2   7
TORSDOF 4
ENDMDL
MODEL 2
REMARK VINA RESULT:      -3.1     12.184     13.798
REMARK  4 active torsions:
REMARK  status: ('A' for Active; 'I' for Inactive)
REMARK    1  A    between atoms: C1_1  and  C7_7 
REMARK    2  A    between atoms: C7_7  and  N10_10 
REMARK    3  A    between atoms: C8_8  and  C9_9 
REMARK    4  A    between atoms: C8_8  and  N10_10 
ROOT
HETATM    1  C2  UNL     1     -33.403   7.483   6.507  1.00 20.00     0.043 C 
HETATM    2  C8  UNL     1     -33.327   6.685   5.204  1.00 20.00     0.226 C 
ENDROOT
BRANCH   2   3
HETATM    3  C9  UNL     1     -34.457   5.621   5.013  1.00 20.00    -0.021 C 
HETATM    4  C3  UNL     1     -35.670   6.191   4.254  1.00 20.00     0.016 C 
HETATM    5  C4  UNL     1     -33.922   4.403   4.232  1.00 20.00     0.016 C 
HETATM    6  C5  UNL     1     -34.938   5.116   6.391  1.00 20.00     0.016 C 
ENDBRANCH   2   3
BRANCH   2   7
HETATM    7  N10 UNL     1     -33.277   7.610   4.090  1.00 20.00     0.095 N 
HETATM    8  C6  UNL     1     -32.866   8.946   4.535  1.00 20.00     0.310 C 
BRANCH   7   9
HETATM    9  C7  UNL     1     -32.363   7.127   3.049  1.00 20.00     0.341 C 
BRANCH   9  10
HETATM   10  C1  UNL     1     -32.085   8.258   2.099  1.00 20.00     0.261 C 
HETATM   11  O11 UNL     1     -32.092   8.115   0.879  1.00 20.00    -0.305 OA
ENDBRANCH   9  10
ENDBRANCH   7   9
ENDBRANCH   2   7
TORSDOF 4
ENDMDL
MODEL 3
REMARK VINA RESULT:      -3.1     12.575     13.659
REMARK  4 active torsions:
REMARK  status: ('A' for Active; 'I' for Inactive)
REMARK    1  A    between atoms: C1_1  and  C7_7 
REMARK    2  A    between atoms: C7_7  and  N10_10 
REMARK    3  A    between atoms: C8_8  and  C9_9 
REMARK    4  A    between atoms: C8_8  and  N10_10 
ROOT
HETATM    1  C2  UNL     1     -42.976  14.857   5.927  1.00 20.00     0.043 C 
HETATM    2  C8  UNL     1     -41.557  14.714   6.484  1.00 20.00     0.226 C 
ENDROOT
BRANCH   2   3
HETATM    3  C9  UNL     1     -41.284  15.498   7.809  1.00 20.00    -0.021 C 
HETATM    4  C3  UNL     1     -40.300  14.754   8.731  1.00 20.00     0.016 C 
HETATM    5  C4  UNL     1     -40.703  16.893   7.500  1.00 20.00     0.016 C 
HETATM    6  C5  UNL     1     -42.609  15.705   8.577  1.00 20.00     0.016 C 
ENDBRANCH   2   3
BRANCH   2   7
HETATM    7  N10 UNL     1     -41.250  13.306   6.628  1.00 20.00     0.095 N 
HETATM    8  C6  UNL     1     -42.471  12.520   6.831  1.00 20.00     0.310 C 
BRANCH   7   9
HETATM    9  C7  UNL     1     -40.523  12.806   5.456  1.00 20.00     0.341 C 
BRANCH   9  10
HETATM   10  C1  UNL     1     -39.443  11.874   5.929  1.00 20.00     0.261 C 
HETATM   11  O11 UNL     1     -38.984  11.918   7.068  1.00 20.00    -0.305 OA
ENDBRANCH   9  10
ENDBRANCH   7   9
ENDBRANCH   2   7
TORSDOF 4
ENDMDL
MODEL 4
REMARK VINA RESULT:      -3.1      3.312      4.965
REMARK  4 active torsions:
REMARK  status: ('A' for Active; 'I' for Inactive)
REMARK    1  A    between atoms: C1_1  and  C7_7 
REMARK    2  A    between atoms: C7_7  and  N10_10 
REMARK    3  A    between atoms: C8_8  and  C9_9 
REMARK    4  A    between atoms: C8_8  and  N10_10 
ROOT
HETATM    1  C2  UNL     1     -34.627  19.029  -5.368  1.00 20.00     0.043 C 
HETATM    2  C8  UNL     1     -34.176  17.790  -4.591  1.00 20.00     0.226 C 
ENDROOT
BRANCH   2   3
HETATM    3  C9  UNL     1     -33.876  18.031  -3.075  1.00 20.00    -0.021 C 
HETATM    4  C3  UNL     1     -35.107  18.566  -2.318  1.00 20.00     0.016 C 
HETATM    5  C4  UNL     1     -33.421  16.721  -2.402  1.00 20.00     0.016 C 
HETATM    6  C5  UNL     1     -32.730  19.055  -2.926  1.00 20.00     0.016 C 
ENDBRANCH   2   3
BRANCH   2   7
HETATM    7  N10 UNL     1     -35.155  16.738  -4.777  1.00 20.00     0.095 N 
HETATM    8  C6  UNL     1     -36.412  17.278  -5.307  1.00 20.00     0.310 C 
BRANCH   7   9
HETATM    9  C7  UNL     1     -34.641  15.695  -5.672  1.00 20.00     0.341 C 
BRANCH   9  10
HETATM   10  C1  UNL     1     -35.741  14.705  -5.928  1.00 20.00     0.261 C 
HETATM   11  O11 UNL     1     -35.974  14.248  -7.044  1.00 20.00    -0.305 OA
ENDBRANCH   9  10
ENDBRANCH   7   9
ENDBRANCH   2   7
TORSDOF 4
ENDMDL
MODEL 5
REMARK VINA RESULT:      -3.1      1.962      3.508
REMARK  4 active torsions:
REMARK  status: ('A' for Active; 'I' for Inactive)
REMARK    1  A    between atoms: C1_1  and  C7_7 
REMARK    2  A    between atoms: C7_7  and  N10_10 
REMARK    3  A    between atoms: C8_8  and  C9_9 
REMARK    4  A    between atoms: C8_8  and  N10_10 
ROOT
HETATM    1  C2  UNL     1     -35.653  17.586  -6.329  1.00 20.00     0.043 C 
HETATM    2  C8  UNL     1     -35.303  16.803  -5.061  1.00 20.00     0.226 C 
ENDROOT
BRANCH   2   3
HETATM    3  C9  UNL     1     -34.777  15.351  -5.304  1.00 20.00    -0.021 C 
HETATM    4  C3  UNL     1     -33.784  14.903  -4.214  1.00 20.00     0.016 C 
HETATM    5  C4  UNL     1     -35.951  14.351  -5.334  1.00 20.00     0.016 C 
HETATM    6  C5  UNL     1     -34.065  15.274  -6.673  1.00 20.00     0.016 C 
ENDBRANCH   2   3
BRANCH   2   7
HETATM    7  N10 UNL     1     -34.369  17.580  -4.273  1.00 20.00     0.095 N 
HETATM    8  C6  UNL     1     -33.785  18.665  -5.069  1.00 20.00     0.310 C 
BRANCH   7   9
HETATM    9  C7  UNL     1     -35.021  18.131  -3.080  1.00 20.00     0.341 C 
BRANCH   9  10
HETATM   10  C1  UNL     1     -34.044  18.086  -1.940  1.00 20.00     0.261 C 
HETATM   11  O11 UNL     1     -33.685  17.034  -1.417  1.00 20.00    -0.305 OA
ENDBRANCH   9  10
ENDBRANCH   7   9
ENDBRANCH   2   7
TORSDOF 4
ENDMDL
MODEL 6
REMARK VINA RESULT:      -3.0     24.875     26.071
REMARK  4 active torsions:
REMARK  status: ('A' for Active; 'I' for Inactive)
REMARK    1  A    between atoms: C1_1  and  C7_7 
REMARK    2  A    between atoms: C7_7  and  N10_10 
REMARK    3  A    between atoms: C8_8  and  C9_9 
REMARK    4  A    between atoms: C8_8  and  N10_10 
ROOT
HETATM    1  C2  UNL     1     -26.650  -0.252  11.703  1.00 20.00     0.043 C 
HETATM    2  C8  UNL     1     -26.618  -1.603  10.986  1.00 20.00     0.226 C 
ENDROOT
BRANCH   2   3
HETATM    3  C9  UNL     1     -25.348  -2.472  11.265  1.00 20.00    -0.021 C 
HETATM    4  C3  UNL     1     -25.644  -3.643  12.221  1.00 20.00     0.016 C 
HETATM    5  C4  UNL     1     -24.789  -3.047   9.948  1.00 20.00     0.016 C 
HETATM    6  C5  UNL     1     -24.244  -1.595  11.896  1.00 20.00     0.016 C 
ENDBRANCH   2   3
BRANCH   2   7
HETATM    7  N10 UNL     1     -27.834  -2.327  11.295  1.00 20.00     0.095 N 
HETATM    8  C6  UNL     1     -28.704  -1.540  12.176  1.00 20.00     0.310 C 
BRANCH   7   9
HETATM    9  C7  UNL     1     -28.556  -2.687  10.070  1.00 20.00     0.341 C 
BRANCH   9  10
HETATM   10  C1  UNL     1     -29.023  -4.110  10.195  1.00 20.00     0.261 C 
HETATM   11  O11 UNL     1     -29.784  -4.630   9.383  1.00 20.00    -0.305 OA
ENDBRANCH   9  10
ENDBRANCH   7   9
ENDBRANCH   2   7
TORSDOF 4
ENDMDL
MODEL 7
REMARK VINA RESULT:      -3.0      3.438      4.666
REMARK  4 active torsions:
REMARK  status: ('A' for Active; 'I' for Inactive)
REMARK    1  A    between atoms: C1_1  and  C7_7 
REMARK    2  A    between atoms: C7_7  and  N10_10 
REMARK    3  A    between atoms: C8_8  and  C9_9 
REMARK    4  A    between atoms: C8_8  and  N10_10 
ROOT
HETATM    1  C2  UNL     1     -33.294  16.632  -2.664  1.00 20.00     0.043 C 
HETATM    2  C8  UNL     1     -34.277  17.015  -3.773  1.00 20.00     0.226 C 
ENDROOT
BRANCH   2   3
HETATM    3  C9  UNL     1     -34.174  18.495  -4.267  1.00 20.00    -0.021 C 
HETATM    4  C3  UNL     1     -32.969  19.230  -3.652  1.00 20.00     0.016 C 
HETATM    5  C4  UNL     1     -34.043  18.542  -5.802  1.00 20.00     0.016 C 
HETATM    6  C5  UNL     1     -35.459  19.263  -3.885  1.00 20.00     0.016 C 
ENDBRANCH   2   3
BRANCH   2   7
HETATM    7  N10 UNL     1     -34.134  16.079  -4.869  1.00 20.00     0.095 N 
HETATM    8  C6  UNL     1     -33.250  14.968  -4.500  1.00 20.00     0.310 C 
BRANCH   7   9
HETATM    9  C7  UNL     1     -35.440  15.559  -5.289  1.00 20.00     0.341 C 
BRANCH   9  10
HETATM   10  C1  UNL     1     -35.362  15.200  -6.746  1.00 20.00     0.261 C 
HETATM   11  O11 UNL     1     -36.114  14.379  -7.266  1.00 20.00    -0.305 OA
ENDBRANCH   9  10
ENDBRANCH   7   9
ENDBRANCH   2   7
TORSDOF 4
ENDMDL
MODEL 8
REMARK VINA RESULT:      -3.0      3.473      4.961
REMARK  4 active torsions:
REMARK  status: ('A' for Active; 'I' for Inactive)
REMARK    1  A    between atoms: C1_1  and  C7_7 
REMARK    2  A    between atoms: C7_7  and  N10_10 
REMARK    3  A    between atoms: C8_8  and  C9_9 
REMARK    4  A    between atoms: C8_8  and  N10_10 
ROOT
HETATM    1  C2  UNL     1     -33.679  15.022  -4.132  1.00 20.00     0.043 C 
HETATM    2  C8  UNL     1     -34.515  16.288  -4.327  1.00 20.00     0.226 C 
ENDROOT
BRANCH   2   3
HETATM    3  C9  UNL     1     -34.058  17.521  -3.482  1.00 20.00    -0.021 C 
HETATM    4  C3  UNL     1     -33.187  18.494  -4.299  1.00 20.00     0.016 C 
HETATM    5  C4  UNL     1     -35.283  18.293  -2.950  1.00 20.00     0.016 C 
HETATM    6  C5  UNL     1     -33.242  17.044  -2.261  1.00 20.00     0.016 C 
ENDBRANCH   2   3
BRANCH   2   7
HETATM    7  N10 UNL     1     -34.565  16.603  -5.740  1.00 20.00     0.095 N 
HETATM    8  C6  UNL     1     -34.085  15.476  -6.547  1.00 20.00     0.310 C 
BRANCH   7   9
HETATM    9  C7  UNL     1     -35.927  16.965  -6.149  1.00 20.00     0.341 C 
BRANCH   9  10
HETATM   10  C1  UNL     1     -36.881  15.960  -5.568  1.00 20.00     0.261 C 
HETATM   11  O11 UNL     1     -38.069  15.922  -5.875  1.00 20.00    -0.305 OA
ENDBRANCH   9  10
ENDBRANCH   7   9
ENDBRANCH   2   7
TORSDOF 4
ENDMDL
MODEL 9
REMARK VINA RESULT:      -2.9      2.405      3.386
REMARK  4 active torsions:
REMARK  status: ('A' for Active; 'I' for Inactive)
REMARK    1  A    between atoms: C1_1  and  C7_7 
REMARK    2  A    between atoms: C7_7  and  N10_10 
REMARK    3  A    between atoms: C8_8  and  C9_9 
REMARK    4  A    between atoms: C8_8  and  N10_10 
ROOT
HETATM    1  C2  UNL     1     -33.945  15.209  -6.830  1.00 20.00     0.043 C 
HETATM    2  C8  UNL     1     -34.636  16.328  -6.048  1.00 20.00     0.226 C 
ENDROOT
BRANCH   2   3
HETATM    3  C9  UNL     1     -36.109  16.625  -6.478  1.00 20.00    -0.021 C 
HETATM    4  C3  UNL     1     -37.133  16.051  -5.481  1.00 20.00     0.016 C 
HETATM    5  C4  UNL     1     -36.341  18.146  -6.592  1.00 20.00     0.016 C 
HETATM    6  C5  UNL     1     -36.383  16.007  -7.867  1.00 20.00     0.016 C 
ENDBRANCH   2   3
BRANCH   2   7
HETATM    7  N10 UNL     1     -34.546  16.034  -4.632  1.00 20.00     0.095 N 
HETATM    8  C6  UNL     1     -33.819  14.782  -4.401  1.00 20.00     0.310 C 
BRANCH   7   9
HETATM    9  C7  UNL     1     -33.895  17.132  -3.908  1.00 20.00     0.341 C 
BRANCH   9  10
HETATM   10  C1  UNL     1     -33.285  16.577  -2.652  1.00 20.00     0.261 C 
HETATM   11  O11 UNL     1     -33.656  16.914  -1.531  1.00 20.00    -0.305 OA
ENDBRANCH   9  10
ENDBRANCH   7   9
ENDBRANCH   2   7
TORSDOF 4
ENDMDL
