MODEL 1
REMARK VINA RESULT:      -4.2      0.000      0.000
REMARK  4 active torsions:
REMARK  status: ('A' for Active; 'I' for Inactive)
REMARK    1  A    between atoms: C1_1  and  C3_3 
REMARK    2  A    between atoms: C3_3  and  N6_6 
REMARK    3  A    between atoms: C4_4  and  C5_5 
REMARK    4  A    between atoms: C4_4  and  N6_6 
ROOT
HETATM    1  C4  UNL     1     -34.095   7.180   4.905  1.00 20.00     0.389 C 
ENDROOT
BRANCH   1   2
HETATM    2  C5  UNL     1     -34.222   6.601   6.292  1.00 20.00     0.413 C 
HETATM    3  F8  UNL     1     -33.033   6.120   6.715  1.00 20.00    -0.169 F 
HETATM    4  F9  UNL     1     -34.625   7.534   7.181  1.00 20.00    -0.169 F 
HETATM    5  F10 UNL     1     -35.109   5.583   6.322  1.00 20.00    -0.169 F 
ENDBRANCH   1   2
BRANCH   1   6
HETATM    6  N6  UNL     1     -32.701   7.454   4.560  1.00 20.00     0.099 N 
HETATM    7  C2  UNL     1     -32.393   8.870   4.761  1.00 20.00     0.310 C 
BRANCH   6   8
HETATM    8  C3  UNL     1     -32.430   7.063   3.177  1.00 20.00     0.341 C 
BRANCH   8   9
HETATM    9  C1  UNL     1     -33.200   5.807   2.879  1.00 20.00     0.261 C 
HETATM   10  O7  UNL     1     -32.660   4.783   2.467  1.00 20.00    -0.305 OA
ENDBRANCH   8   9
ENDBRANCH   6   8
ENDBRANCH   1   6
TORSDOF 4
ENDMDL
MODEL 2
REMARK VINA RESULT:      -4.0      2.108      2.872
REMARK  4 active torsions:
REMARK  status: ('A' for Active; 'I' for Inactive)
REMARK    1  A    between atoms: C1_1  and  C3_3 
REMARK    2  A    between atoms: C3_3  and  N6_6 
REMARK    3  A    between atoms: C4_4  and  C5_5 
REMARK    4  A    between atoms: C4_4  and  N6_6 
ROOT
HETATM    1  C4  UNL     1     -33.574   6.349   4.898  1.00 20.00     0.389 C 
ENDROOT
BRANCH   1   2
HETATM    2  C5  UNL     1     -34.826   5.544   5.147  1.00 20.00     0.413 C 
HETATM    3  F8  UNL     1     -35.217   5.665   6.434  1.00 20.00    -0.169 F 
HETATM    4  F9  UNL     1     -35.845   5.964   4.367  1.00 20.00    -0.169 F 
HETATM    5  F10 UNL     1     -34.624   4.232   4.902  1.00 20.00    -0.169 F 
ENDBRANCH   1   2
BRANCH   1   6
HETATM    6  N6  UNL     1     -33.359   6.587   3.471  1.00 20.00     0.099 N 
HETATM    7  C2  UNL     1     -32.907   5.362   2.812  1.00 20.00     0.310 C 
BRANCH   6   8
HETATM    8  C3  UNL     1     -32.390   7.662   3.272  1.00 20.00     0.341 C 
BRANCH   8   9
HETATM    9  C1  UNL     1     -32.152   8.339   4.592  1.00 20.00     0.261 C 
HETATM   10  O7  UNL     1     -32.157   9.561   4.719  1.00 20.00    -0.305 OA
ENDBRANCH   8   9
ENDBRANCH   6   8
ENDBRANCH   1   6
TORSDOF 4
ENDMDL
MODEL 3
REMARK VINA RESULT:      -4.0      2.121      3.032
REMARK  4 active torsions:
REMARK  status: ('A' for Active; 'I' for Inactive)
REMARK    1  A    between atoms: C1_1  and  C3_3 
REMARK    2  A    between atoms: C3_3  and  N6_6 
REMARK    3  A    between atoms: C4_4  and  C5_5 
REMARK    4  A    between atoms: C4_4  and  N6_6 
ROOT
HETATM    1  C4  UNL     1     -33.572   6.311   4.871  1.00 20.00     0.389 C 
ENDROOT
BRANCH   1   2
HETATM    2  C5  UNL     1     -34.834   5.518   5.103  1.00 20.00     0.413 C 
HETATM    3  F8  UNL     1     -35.847   6.012   4.358  1.00 20.00    -0.169 F 
HETATM    4  F9  UNL     1     -34.671   4.222   4.764  1.00 20.00    -0.169 F 
HETATM    5  F10 UNL     1     -35.217   5.568   6.397  1.00 20.00    -0.169 F 
ENDBRANCH   1   2
BRANCH   1   6
HETATM    6  N6  UNL     1     -33.342   6.556   3.448  1.00 20.00     0.099 N 
HETATM    7  C2  UNL     1     -32.884   5.334   2.788  1.00 20.00     0.310 C 
BRANCH   6   8
HETATM    8  C3  UNL     1     -32.368   7.631   3.265  1.00 20.00     0.341 C 
BRANCH   8   9
HETATM    9  C1  UNL     1     -32.173   8.325   4.583  1.00 20.00     0.261 C 
HETATM   10  O7  UNL     1     -32.166   9.548   4.692  1.00 20.00    -0.305 OA
ENDBRANCH   8   9
ENDBRANCH   6   8
ENDBRANCH   1   6
TORSDOF 4
ENDMDL
MODEL 4
REMARK VINA RESULT:      -3.9      2.300      3.065
REMARK  4 active torsions:
REMARK  status: ('A' for Active; 'I' for Inactive)
REMARK    1  A    between atoms: C1_1  and  C3_3 
REMARK    2  A    between atoms: C3_3  and  N6_6 
REMARK    3  A    between atoms: C4_4  and  C5_5 
REMARK    4  A    between atoms: C4_4  and  N6_6 
ROOT
HETATM    1  C4  UNL     1     -33.099   7.622   3.820  1.00 20.00     0.389 C 
ENDROOT
BRANCH   1   2
HETATM    2  C5  UNL     1     -32.992   8.302   5.162  1.00 20.00     0.413 C 
HETATM    3  F8  UNL     1     -32.614   7.419   6.112  1.00 20.00    -0.169 F 
HETATM    4  F9  UNL     1     -32.076   9.295   5.140  1.00 20.00    -0.169 F 
HETATM    5  F10 UNL     1     -34.174   8.831   5.543  1.00 20.00    -0.169 F 
ENDBRANCH   1   2
BRANCH   1   6
HETATM    6  N6  UNL     1     -33.329   6.185   3.961  1.00 20.00     0.099 N 
HETATM    7  C2  UNL     1     -32.911   5.479   2.749  1.00 20.00     0.310 C 
BRANCH   6   8
HETATM    8  C3  UNL     1     -34.738   5.918   4.247  1.00 20.00     0.341 C 
BRANCH   8   9
HETATM    9  C1  UNL     1     -34.817   5.024   5.452  1.00 20.00     0.261 C 
HETATM   10  O7  UNL     1     -34.784   5.458   6.600  1.00 20.00    -0.305 OA
ENDBRANCH   8   9
ENDBRANCH   6   8
ENDBRANCH   1   6
TORSDOF 4
ENDMDL
MODEL 5
REMARK VINA RESULT:      -3.8      1.766      2.216
REMARK  4 active torsions:
REMARK  status: ('A' for Active; 'I' for Inactive)
REMARK    1  A    between atoms: C1_1  and  C3_3 
REMARK    2  A    between atoms: C3_3  and  N6_6 
REMARK    3  A    between atoms: C4_4  and  C5_5 
REMARK    4  A    between atoms: C4_4  and  N6_6 
ROOT
HETATM    1  C4  UNL     1     -33.669   7.560   4.098  1.00 20.00     0.389 C 
ENDROOT
BRANCH   1   2
HETATM    2  C5  UNL     1     -33.186   8.151   5.400  1.00 20.00     0.413 C 
HETATM    3  F8  UNL     1     -32.012   8.795   5.220  1.00 20.00    -0.169 F 
HETATM    4  F9  UNL     1     -34.070   9.043   5.894  1.00 20.00    -0.169 F 
HETATM    5  F10 UNL     1     -32.989   7.195   6.332  1.00 20.00    -0.169 F 
ENDBRANCH   1   2
BRANCH   1   6
HETATM    6  N6  UNL     1     -32.590   6.883   3.380  1.00 20.00     0.099 N 
HETATM    7  C2  UNL     1     -32.221   7.637   2.182  1.00 20.00     0.310 C 
BRANCH   6   8
HETATM    8  C3  UNL     1     -32.989   5.522   3.024  1.00 20.00     0.341 C 
BRANCH   8   9
HETATM    9  C1  UNL     1     -34.142   5.120   3.899  1.00 20.00     0.261 C 
HETATM   10  O7  UNL     1     -34.146   4.079   4.551  1.00 20.00    -0.305 OA
ENDBRANCH   8   9
ENDBRANCH   6   8
ENDBRANCH   1   6
TORSDOF 4
ENDMDL
MODEL 6
REMARK VINA RESULT:      -3.8      2.573      3.279
REMARK  4 active torsions:
REMARK  status: ('A' for Active; 'I' for Inactive)
REMARK    1  A    between atoms: C1_1  and  C3_3 
REMARK    2  A    between atoms: C3_3  and  N6_6 
REMARK    3  A    between atoms: C4_4  and  C5_5 
REMARK    4  A    between atoms: C4_4  and  N6_6 
ROOT
HETATM    1  C4  UNL     1     -33.197   7.167   4.078  1.00 20.00     0.389 C 
ENDROOT
BRANCH   1   2
HETATM    2  C5  UNL     1     -32.479   8.493   4.139  1.00 20.00     0.413 C 
HETATM    3  F8  UNL     1     -31.163   8.308   4.376  1.00 20.00    -0.169 F 
HETATM    4  F9  UNL     1     -32.595   9.169   2.976  1.00 20.00    -0.169 F 
HETATM    5  F10 UNL     1     -32.967   9.273   5.127  1.00 20.00    -0.169 F 
ENDBRANCH   1   2
BRANCH   1   6
HETATM    6  N6  UNL     1     -34.267   7.087   5.072  1.00 20.00     0.099 N 
HETATM    7  C2  UNL     1     -33.709   6.880   6.408  1.00 20.00     0.310 C 
BRANCH   6   8
HETATM    8  C3  UNL     1     -35.198   6.011   4.734  1.00 20.00     0.341 C 
BRANCH   8   9
HETATM    9  C1  UNL     1     -34.586   4.704   5.152  1.00 20.00     0.261 C 
HETATM   10  O7  UNL     1     -34.049   3.940   4.353  1.00 20.00    -0.305 OA
ENDBRANCH   8   9
ENDBRANCH   6   8
ENDBRANCH   1   6
TORSDOF 4
ENDMDL
MODEL 7
REMARK VINA RESULT:      -3.8      1.707      2.051
REMARK  4 active torsions:
REMARK  status: ('A' for Active; 'I' for Inactive)
REMARK    1  A    between atoms: C1_1  and  C3_3 
REMARK    2  A    between atoms: C3_3  and  N6_6 
REMARK    3  A    between atoms: C4_4  and  C5_5 
REMARK    4  A    between atoms: C4_4  and  N6_6 
ROOT
HETATM    1  C4  UNL     1     -33.840   6.329   4.124  1.00 20.00     0.389 C 
ENDROOT
BRANCH   1   2
HETATM    2  C5  UNL     1     -34.456   5.296   5.035  1.00 20.00     0.413 C 
HETATM    3  F8  UNL     1     -34.083   4.053   4.660  1.00 20.00    -0.169 F 
HETATM    4  F9  UNL     1     -34.065   5.472   6.315  1.00 20.00    -0.169 F 
HETATM    5  F10 UNL     1     -35.804   5.347   4.997  1.00 20.00    -0.169 F 
ENDBRANCH   1   2
BRANCH   1   6
HETATM    6  N6  UNL     1     -33.109   7.346   4.878  1.00 20.00     0.099 N 
HETATM    7  C2  UNL     1     -34.035   8.330   5.440  1.00 20.00     0.310 C 
BRANCH   6   8
HETATM    8  C3  UNL     1     -32.121   8.004   4.024  1.00 20.00     0.341 C 
BRANCH   8   9
HETATM    9  C1  UNL     1     -32.137   7.337   2.678  1.00 20.00     0.261 C 
HETATM   10  O7  UNL     1     -32.098   7.971   1.626  1.00 20.00    -0.305 OA
ENDBRANCH   8   9
ENDBRANCH   6   8
ENDBRANCH   1   6
TORSDOF 4
ENDMDL
MODEL 8
REMARK VINA RESULT:      -3.7      2.158      2.876
REMARK  4 active torsions:
REMARK  status: ('A' for Active; 'I' for Inactive)
REMARK    1  A    between atoms: C1_1  and  C3_3 
REMARK    2  A    between atoms: C3_3  and  N6_6 
REMARK    3  A    between atoms: C4_4  and  C5_5 
REMARK    4  A    between atoms: C4_4  and  N6_6 
ROOT
HETATM    1  C4  UNL     1     -33.153   6.997   5.442  1.00 20.00     0.389 C 
ENDROOT
BRANCH   1   2
HETATM    2  C5  UNL     1     -33.186   8.450   5.035  1.00 20.00     0.413 C 
HETATM    3  F8  UNL     1     -32.006   9.045   5.311  1.00 20.00    -0.169 F 
HETATM    4  F9  UNL     1     -33.414   8.585   3.712  1.00 20.00    -0.169 F 
HETATM    5  F10 UNL     1     -34.149   9.125   5.698  1.00 20.00    -0.169 F 
ENDBRANCH   1   2
BRANCH   1   6
HETATM    6  N6  UNL     1     -34.495   6.419   5.488  1.00 20.00     0.099 N 
HETATM    7  C2  UNL     1     -34.588   5.429   6.561  1.00 20.00     0.310 C 
BRANCH   6   8
HETATM    8  C3  UNL     1     -34.835   5.813   4.202  1.00 20.00     0.341 C 
BRANCH   8   9
HETATM    9  C1  UNL     1     -33.649   5.028   3.718  1.00 20.00     0.261 C 
HETATM   10  O7  UNL     1     -33.105   5.251   2.639  1.00 20.00    -0.305 OA
ENDBRANCH   8   9
ENDBRANCH   6   8
ENDBRANCH   1   6
TORSDOF 4
ENDMDL
MODEL 9
REMARK VINA RESULT:      -3.7      9.245     10.062
REMARK  4 active torsions:
REMARK  status: ('A' for Active; 'I' for Inactive)
REMARK    1  A    between atoms: C1_1  and  C3_3 
REMARK    2  A    between atoms: C3_3  and  N6_6 
REMARK    3  A    between atoms: C4_4  and  C5_5 
REMARK    4  A    between atoms: C4_4  and  N6_6 
ROOT
HETATM    1  C4  UNL     1     -40.308  12.999   5.598  1.00 20.00     0.389 C 
ENDROOT
BRANCH   1   2
HETATM    2  C5  UNL     1     -39.253  11.936   5.781  1.00 20.00     0.413 C 
HETATM    3  F8  UNL     1     -38.775  11.957   7.044  1.00 20.00    -0.169 F 
HETATM    4  F9  UNL     1     -39.751  10.703   5.552  1.00 20.00    -0.169 F 
HETATM    5  F10 UNL     1     -38.210  12.129   4.946  1.00 20.00    -0.169 F 
ENDBRANCH   1   2
BRANCH   1   6
HETATM    6  N6  UNL     1     -41.023  13.271   6.845  1.00 20.00     0.099 N 
HETATM    7  C2  UNL     1     -42.429  12.887   6.723  1.00 20.00     0.310 C 
BRANCH   6   8
HETATM    8  C3  UNL     1     -40.908  14.684   7.202  1.00 20.00     0.341 C 
BRANCH   8   9
HETATM    9  C1  UNL     1     -40.350  14.779   8.594  1.00 20.00     0.261 C 
HETATM   10  O7  UNL     1     -40.229  13.800   9.326  1.00 20.00    -0.305 OA
ENDBRANCH   8   9
ENDBRANCH   6   8
ENDBRANCH   1   6
TORSDOF 4
ENDMDL
