MODEL 1
REMARK VINA RESULT:      -4.3      0.000      0.000
REMARK  2 active torsions:
REMARK  status: ('A' for Active; 'I' for Inactive)
REMARK    1  A    between atoms: C2_2  and  C8_8 
REMARK    2  A    between atoms: C8_8  and  O9_9 
ROOT
HETATM    1  C3  UNL     1     -24.956  18.554  11.438  1.00 20.00     0.012 C 
HETATM    2  C4  UNL     1     -24.214  16.620  11.675  1.00 20.00     0.012 C 
HETATM    3  C5  UNL     1     -22.512  18.399  11.637  1.00 20.00     0.047 C 
HETATM    4  C6  UNL     1     -23.813  17.978  12.332  1.00 20.00    -0.010 C 
HETATM    5  C7  UNL     1     -24.314  17.551  10.418  1.00 20.00     0.024 C 
HETATM    6  C8  UNL     1     -22.883  18.049  10.184  1.00 20.00     0.079 C 
ENDROOT
BRANCH   6   7
HETATM    7  C2  UNL     1     -22.878  19.193   9.227  1.00 20.00     0.001 C 
HETATM    8  C1  UNL     1     -23.547  19.203   8.070  1.00 20.00     0.010 C 
ENDBRANCH   6   7
BRANCH   6   9
HETATM    9  O9  UNL     1     -22.079  17.008   9.648  1.00 20.00    -0.385 OA
HETATM   10  H21 UNL     1     -21.399  16.808  10.311  1.00 20.00     0.211 HD
ENDBRANCH   6   9
TORSDOF 2
ENDMDL
MODEL 2
REMARK VINA RESULT:      -4.1     15.876     16.808
REMARK  2 active torsions:
REMARK  status: ('A' for Active; 'I' for Inactive)
REMARK    1  A    between atoms: C2_2  and  C8_8 
REMARK    2  A    between atoms: C8_8  and  O9_9 
ROOT
HETATM    1  C3  UNL     1     -32.573   7.586   4.972  1.00 20.00     0.012 C 
HETATM    2  C4  UNL     1     -34.479   8.318   5.398  1.00 20.00     0.012 C 
HETATM    3  C5  UNL     1     -34.040   6.022   6.171  1.00 20.00     0.047 C 
HETATM    4  C6  UNL     1     -33.485   7.451   6.232  1.00 20.00    -0.010 C 
HETATM    5  C7  UNL     1     -33.956   7.369   4.265  1.00 20.00     0.024 C 
HETATM    6  C8  UNL     1     -34.423   5.969   4.681  1.00 20.00     0.079 C 
ENDROOT
BRANCH   6   7
HETATM    7  C2  UNL     1     -33.726   4.925   3.876  1.00 20.00     0.001 C 
HETATM    8  C1  UNL     1     -33.098   5.166   2.720  1.00 20.00     0.010 C 
ENDBRANCH   6   7
BRANCH   6   9
HETATM    9  O9  UNL     1     -35.823   5.834   4.479  1.00 20.00    -0.385 OA
HETATM   10  H21 UNL     1     -35.976   5.899   3.522  1.00 20.00     0.211 HD
ENDBRANCH   6   9
TORSDOF 2
ENDMDL
MODEL 3
REMARK VINA RESULT:      -4.0     15.956     16.861
REMARK  2 active torsions:
REMARK  status: ('A' for Active; 'I' for Inactive)
REMARK    1  A    between atoms: C2_2  and  C8_8 
REMARK    2  A    between atoms: C8_8  and  O9_9 
ROOT
HETATM    1  C3  UNL     1     -33.659   5.000   6.142  1.00 20.00     0.012 C 
HETATM    2  C4  UNL     1     -34.583   6.754   6.787  1.00 20.00     0.012 C 
HETATM    3  C5  UNL     1     -35.126   6.067   4.486  1.00 20.00     0.047 C 
HETATM    4  C6  UNL     1     -35.103   5.556   5.932  1.00 20.00    -0.010 C 
HETATM    5  C7  UNL     1     -33.318   6.509   5.895  1.00 20.00     0.024 C 
HETATM    6  C8  UNL     1     -33.781   6.815   4.465  1.00 20.00     0.079 C 
ENDROOT
BRANCH   6   7
HETATM    7  C2  UNL     1     -32.784   6.316   3.475  1.00 20.00     0.001 C 
HETATM    8  C1  UNL     1     -32.996   5.278   2.658  1.00 20.00     0.010 C 
ENDBRANCH   6   7
BRANCH   6   9
HETATM    9  O9  UNL     1     -33.935   8.215   4.284  1.00 20.00    -0.385 OA
HETATM   10  H21 UNL     1     -34.278   8.347   3.385  1.00 20.00     0.211 HD
ENDBRANCH   6   9
TORSDOF 2
ENDMDL
MODEL 4
REMARK VINA RESULT:      -4.0     23.501     24.382
REMARK  2 active torsions:
REMARK  status: ('A' for Active; 'I' for Inactive)
REMARK    1  A    between atoms: C2_2  and  C8_8 
REMARK    2  A    between atoms: C8_8  and  O9_9 
ROOT
HETATM    1  C3  UNL     1     -42.257   7.907  -0.422  1.00 20.00     0.012 C 
HETATM    2  C4  UNL     1     -40.871   7.753   1.129  1.00 20.00     0.012 C 
HETATM    3  C5  UNL     1     -40.945   5.830  -0.408  1.00 20.00     0.047 C 
HETATM    4  C6  UNL     1     -40.797   7.356  -0.379  1.00 20.00    -0.010 C 
HETATM    5  C7  UNL     1     -42.308   7.152   0.951  1.00 20.00     0.024 C 
HETATM    6  C8  UNL     1     -42.077   5.672   0.625  1.00 20.00     0.079 C 
ENDROOT
BRANCH   6   7
HETATM    7  C2  UNL     1     -43.330   5.048   0.112  1.00 20.00     0.001 C 
HETATM    8  C1  UNL     1     -43.417   4.383  -1.045  1.00 20.00     0.010 C 
ENDBRANCH   6   7
BRANCH   6   9
HETATM    9  O9  UNL     1     -41.664   4.968   1.787  1.00 20.00    -0.385 OA
HETATM   10  H21 UNL     1     -40.696   5.028   1.824  1.00 20.00     0.211 HD
ENDBRANCH   6   9
TORSDOF 2
ENDMDL
MODEL 5
REMARK VINA RESULT:      -3.9     17.141     18.812
REMARK  2 active torsions:
REMARK  status: ('A' for Active; 'I' for Inactive)
REMARK    1  A    between atoms: C2_2  and  C8_8 
REMARK    2  A    between atoms: C8_8  and  O9_9 
ROOT
HETATM    1  C3  UNL     1     -35.665  16.221  -5.226  1.00 20.00     0.012 C 
HETATM    2  C4  UNL     1     -34.384  15.234  -6.543  1.00 20.00     0.012 C 
HETATM    3  C5  UNL     1     -34.573  14.223  -4.305  1.00 20.00     0.047 C 
HETATM    4  C6  UNL     1     -35.413  14.704  -5.495  1.00 20.00    -0.010 C 
HETATM    5  C7  UNL     1     -34.105  16.244  -5.376  1.00 20.00     0.024 C 
HETATM    6  C8  UNL     1     -33.561  15.381  -4.232  1.00 20.00     0.079 C 
ENDROOT
BRANCH   6   7
HETATM    7  C2  UNL     1     -33.557  16.149  -2.954  1.00 20.00     0.001 C 
HETATM    8  C1  UNL     1     -33.142  17.416  -2.843  1.00 20.00     0.010 C 
ENDBRANCH   6   7
BRANCH   6   9
HETATM    9  O9  UNL     1     -32.232  14.966  -4.514  1.00 20.00    -0.385 OA
HETATM   10  H21 UNL     1     -32.061  15.182  -5.445  1.00 20.00     0.211 HD
ENDBRANCH   6   9
TORSDOF 2
ENDMDL
MODEL 6
REMARK VINA RESULT:      -3.9     23.456     24.381
REMARK  2 active torsions:
REMARK  status: ('A' for Active; 'I' for Inactive)
REMARK    1  A    between atoms: C2_2  and  C8_8 
REMARK    2  A    between atoms: C8_8  and  O9_9 
ROOT
HETATM    1  C3  UNL     1     -42.450   7.749   1.262  1.00 20.00     0.012 C 
HETATM    2  C4  UNL     1     -41.129   8.034  -0.326  1.00 20.00     0.012 C 
HETATM    3  C5  UNL     1     -42.814   6.271  -0.666  1.00 20.00     0.047 C 
HETATM    4  C6  UNL     1     -42.663   7.749  -0.284  1.00 20.00    -0.010 C 
HETATM    5  C7  UNL     1     -41.161   6.972   0.827  1.00 20.00     0.024 C 
HETATM    6  C8  UNL     1     -41.654   5.683   0.158  1.00 20.00     0.079 C 
ENDROOT
BRANCH   6   7
HETATM    7  C2  UNL     1     -42.043   4.677   1.187  1.00 20.00     0.001 C 
HETATM    8  C1  UNL     1     -43.255   4.115   1.265  1.00 20.00     0.010 C 
ENDBRANCH   6   7
BRANCH   6   9
HETATM    9  O9  UNL     1     -40.631   5.125  -0.655  1.00 20.00    -0.385 OA
HETATM   10  H21 UNL     1     -40.342   5.825  -1.262  1.00 20.00     0.211 HD
ENDBRANCH   6   9
TORSDOF 2
ENDMDL
MODEL 7
REMARK VINA RESULT:      -3.8     15.756     16.701
REMARK  2 active torsions:
REMARK  status: ('A' for Active; 'I' for Inactive)
REMARK    1  A    between atoms: C2_2  and  C8_8 
REMARK    2  A    between atoms: C8_8  and  O9_9 
ROOT
HETATM    1  C3  UNL     1     -33.906   4.608   4.764  1.00 20.00     0.012 C 
HETATM    2  C4  UNL     1     -34.835   5.386   6.462  1.00 20.00     0.012 C 
HETATM    3  C5  UNL     1     -35.257   6.622   4.374  1.00 20.00     0.047 C 
HETATM    4  C6  UNL     1     -35.325   5.219   4.989  1.00 20.00    -0.010 C 
HETATM    5  C7  UNL     1     -33.525   5.801   5.706  1.00 20.00     0.024 C 
HETATM    6  C8  UNL     1     -33.900   7.075   4.941  1.00 20.00     0.079 C 
ENDROOT
BRANCH   6   7
HETATM    7  C2  UNL     1     -32.857   7.402   3.927  1.00 20.00     0.001 C 
HETATM    8  C1  UNL     1     -32.199   8.565   3.877  1.00 20.00     0.010 C 
ENDBRANCH   6   7
BRANCH   6   9
HETATM    9  O9  UNL     1     -34.019   8.172   5.836  1.00 20.00    -0.385 OA
HETATM   10  H21 UNL     1     -34.474   7.842   6.627  1.00 20.00     0.211 HD
ENDBRANCH   6   9
TORSDOF 2
ENDMDL
MODEL 8
REMARK VINA RESULT:      -3.7     18.375     20.084
REMARK  2 active torsions:
REMARK  status: ('A' for Active; 'I' for Inactive)
REMARK    1  A    between atoms: C2_2  and  C8_8 
REMARK    2  A    between atoms: C8_8  and  O9_9 
ROOT
HETATM    1  C3  UNL     1     -36.041  16.920  -5.307  1.00 20.00     0.012 C 
HETATM    2  C4  UNL     1     -35.411  16.698  -7.283  1.00 20.00     0.012 C 
HETATM    3  C5  UNL     1     -35.730  14.596  -6.040  1.00 20.00     0.047 C 
HETATM    4  C6  UNL     1     -36.440  15.901  -6.421  1.00 20.00    -0.010 C 
HETATM    5  C7  UNL     1     -34.627  16.651  -5.926  1.00 20.00     0.024 C 
HETATM    6  C8  UNL     1     -34.342  15.163  -5.689  1.00 20.00     0.079 C 
ENDROOT
BRANCH   6   7
HETATM    7  C2  UNL     1     -33.891  14.934  -4.287  1.00 20.00     0.001 C 
HETATM    8  C1  UNL     1     -33.183  15.817  -3.574  1.00 20.00     0.010 C 
ENDBRANCH   6   7
BRANCH   6   9
HETATM    9  O9  UNL     1     -33.325  14.707  -6.570  1.00 20.00    -0.385 OA
HETATM   10  H21 UNL     1     -33.214  15.392  -7.250  1.00 20.00     0.211 HD
ENDBRANCH   6   9
TORSDOF 2
ENDMDL
MODEL 9
REMARK VINA RESULT:      -3.5     23.514     24.299
REMARK  2 active torsions:
REMARK  status: ('A' for Active; 'I' for Inactive)
REMARK    1  A    between atoms: C2_2  and  C8_8 
REMARK    2  A    between atoms: C8_8  and  O9_9 
ROOT
HETATM    1  C3  UNL     1     -43.381   5.278  -0.055  1.00 20.00     0.012 C 
HETATM    2  C4  UNL     1     -41.997   4.747   1.412  1.00 20.00     0.012 C 
HETATM    3  C5  UNL     1     -43.171   6.876   1.800  1.00 20.00     0.047 C 
HETATM    4  C6  UNL     1     -43.415   5.391   1.502  1.00 20.00    -0.010 C 
HETATM    5  C7  UNL     1     -41.905   5.739   0.201  1.00 20.00     0.024 C 
HETATM    6  C8  UNL     1     -42.004   7.134   0.830  1.00 20.00     0.079 C 
ENDROOT
BRANCH   6   7
HETATM    7  C2  UNL     1     -42.258   8.163  -0.220  1.00 20.00     0.001 C 
HETATM    8  C1  UNL     1     -43.355   8.925  -0.271  1.00 20.00     0.010 C 
ENDBRANCH   6   7
BRANCH   6   9
HETATM    9  O9  UNL     1     -40.796   7.462   1.500  1.00 20.00    -0.385 OA
HETATM   10  H21 UNL     1     -40.894   7.164   2.419  1.00 20.00     0.211 HD
ENDBRANCH   6   9
TORSDOF 2
ENDMDL
