MODEL 1
REMARK VINA RESULT:      -3.9      0.000      0.000
REMARK  1 active torsions:
REMARK  status: ('A' for Active; 'I' for Inactive)
REMARK    1  A    between atoms: C3_3  and  C7_7 
ROOT
HETATM    1  C1  UNL     1     -40.299  14.018   6.752  1.00 20.00     0.034 A 
HETATM    2  C2  UNL     1     -42.066  12.512   6.649  1.00 20.00     0.058 A 
HETATM    3  C3  UNL     1     -40.726  12.706   6.398  1.00 20.00    -0.046 A 
HETATM    4  C4  UNL     1     -41.330  14.778   7.261  1.00 20.00     0.051 A 
HETATM    5  S8  UNL     1     -42.805  13.909   7.309  1.00 20.00    -0.094 SA
HETATM    6 BR9  UNL     1     -41.152  16.577   7.844  1.00 20.00    -0.043 Br
ENDROOT
BRANCH   3   7
HETATM    7  C7  UNL     1     -39.804  11.640   5.810  1.00 20.00     0.019 A 
HETATM    8  C5  UNL     1     -38.382  12.020   5.443  1.00 20.00     0.010 A 
HETATM    9  C6  UNL     1     -39.380  11.755   4.358  1.00 20.00     0.010 A 
ENDBRANCH   3   7
TORSDOF 1
ENDMDL
MODEL 2
REMARK VINA RESULT:      -3.8     11.657     12.365
REMARK  1 active torsions:
REMARK  status: ('A' for Active; 'I' for Inactive)
REMARK    1  A    between atoms: C3_3  and  C7_7 
ROOT
HETATM    1  C1  UNL     1     -33.490  16.763  -1.924  1.00 20.00     0.034 A 
HETATM    2  C2  UNL     1     -33.761  17.807  -3.982  1.00 20.00     0.058 A 
HETATM    3  C3  UNL     1     -33.478  16.622  -3.341  1.00 20.00    -0.046 A 
HETATM    4  C4  UNL     1     -33.783  18.052  -1.535  1.00 20.00     0.051 A 
HETATM    5  S8  UNL     1     -34.041  19.084  -2.876  1.00 20.00    -0.094 SA
HETATM    6 BR9  UNL     1     -33.892  18.631   0.271  1.00 20.00    -0.043 Br
ENDROOT
BRANCH   3   7
HETATM    7  C7  UNL     1     -33.184  15.308  -4.063  1.00 20.00     0.019 A 
HETATM    8  C5  UNL     1     -33.842  15.043  -5.402  1.00 20.00     0.010 A 
HETATM    9  C6  UNL     1     -34.289  14.278  -4.194  1.00 20.00     0.010 A 
ENDBRANCH   3   7
TORSDOF 1
ENDMDL
MODEL 3
REMARK VINA RESULT:      -3.7     12.216     12.819
REMARK  1 active torsions:
REMARK  status: ('A' for Active; 'I' for Inactive)
REMARK    1  A    between atoms: C3_3  and  C7_7 
ROOT
HETATM    1  C1  UNL     1     -33.376  16.361  -2.878  1.00 20.00     0.034 A 
HETATM    2  C2  UNL     1     -34.389  18.452  -2.831  1.00 20.00     0.058 A 
HETATM    3  C3  UNL     1     -33.597  17.561  -2.143  1.00 20.00    -0.046 A 
HETATM    4  C4  UNL     1     -34.008  16.381  -4.102  1.00 20.00     0.051 A 
HETATM    5  S8  UNL     1     -34.864  17.842  -4.359  1.00 20.00    -0.094 SA
HETATM    6 BR9  UNL     1     -33.948  14.964  -5.366  1.00 20.00    -0.043 Br
ENDROOT
BRANCH   3   7
HETATM    7  C7  UNL     1     -33.021  17.825  -0.753  1.00 20.00     0.019 A 
HETATM    8  C5  UNL     1     -32.884  19.258  -0.275  1.00 20.00     0.010 A 
HETATM    9  C6  UNL     1     -31.657  18.478  -0.634  1.00 20.00     0.010 A 
ENDBRANCH   3   7
TORSDOF 1
ENDMDL
MODEL 4
REMARK VINA RESULT:      -3.5     11.718     12.208
REMARK  1 active torsions:
REMARK  status: ('A' for Active; 'I' for Inactive)
REMARK    1  A    between atoms: C3_3  and  C7_7 
ROOT
HETATM    1  C1  UNL     1     -32.333  17.747  -1.229  1.00 20.00     0.034 A 
HETATM    2  C2  UNL     1     -33.915  19.263  -0.457  1.00 20.00     0.058 A 
HETATM    3  C3  UNL     1     -32.640  18.770  -0.288  1.00 20.00    -0.046 A 
HETATM    4  C4  UNL     1     -33.384  17.496  -2.083  1.00 20.00     0.051 A 
HETATM    5  S8  UNL     1     -34.736  18.492  -1.747  1.00 20.00    -0.094 SA
HETATM    6 BR9  UNL     1     -33.355  16.202  -3.473  1.00 20.00    -0.043 Br
ENDROOT
BRANCH   3   7
HETATM    7  C7  UNL     1     -31.669  19.262   0.783  1.00 20.00     0.019 A 
HETATM    8  C5  UNL     1     -30.658  18.291   1.360  1.00 20.00     0.010 A 
HETATM    9  C6  UNL     1     -31.812  18.743   2.201  1.00 20.00     0.010 A 
ENDBRANCH   3   7
TORSDOF 1
ENDMDL
MODEL 5
REMARK VINA RESULT:      -3.5      1.884      1.941
REMARK  1 active torsions:
REMARK  status: ('A' for Active; 'I' for Inactive)
REMARK    1  A    between atoms: C3_3  and  C7_7 
ROOT
HETATM    1  C1  UNL     1     -41.435  13.652   4.687  1.00 20.00     0.034 A 
HETATM    2  C2  UNL     1     -41.200  13.402   6.985  1.00 20.00     0.058 A 
HETATM    3  C3  UNL     1     -40.820  12.929   5.749  1.00 20.00    -0.046 A 
HETATM    4  C4  UNL     1     -42.262  14.652   5.152  1.00 20.00     0.051 A 
HETATM    5  S8  UNL     1     -42.294  14.713   6.863  1.00 20.00    -0.094 SA
HETATM    6 BR9  UNL     1     -43.255  15.829   4.041  1.00 20.00    -0.043 Br
ENDROOT
BRANCH   3   7
HETATM    7  C7  UNL     1     -39.853  11.766   5.538  1.00 20.00     0.019 A 
HETATM    8  C5  UNL     1     -38.363  12.045   5.507  1.00 20.00     0.010 A 
HETATM    9  C6  UNL     1     -39.074  11.683   4.240  1.00 20.00     0.010 A 
ENDBRANCH   3   7
TORSDOF 1
ENDMDL
MODEL 6
REMARK VINA RESULT:      -3.5     12.371     13.273
REMARK  1 active torsions:
REMARK  status: ('A' for Active; 'I' for Inactive)
REMARK    1  A    between atoms: C3_3  and  C7_7 
ROOT
HETATM    1  C1  UNL     1     -34.514  17.255  -4.326  1.00 20.00     0.034 A 
HETATM    2  C2  UNL     1     -33.439  15.211  -4.068  1.00 20.00     0.058 A 
HETATM    3  C3  UNL     1     -33.779  16.398  -3.458  1.00 20.00    -0.046 A 
HETATM    4  C4  UNL     1     -34.708  16.690  -5.568  1.00 20.00     0.051 A 
HETATM    5  S8  UNL     1     -34.004  15.133  -5.682  1.00 20.00    -0.094 SA
HETATM    6 BR9  UNL     1     -35.642  17.525  -6.995  1.00 20.00    -0.043 Br
ENDROOT
BRANCH   3   7
HETATM    7  C7  UNL     1     -33.413  16.756  -2.019  1.00 20.00     0.019 A 
HETATM    8  C5  UNL     1     -34.038  17.984  -1.386  1.00 20.00     0.010 A 
HETATM    9  C6  UNL     1     -32.587  18.001  -1.758  1.00 20.00     0.010 A 
ENDBRANCH   3   7
TORSDOF 1
ENDMDL
MODEL 7
REMARK VINA RESULT:      -3.4      9.859     10.363
REMARK  1 active torsions:
REMARK  status: ('A' for Active; 'I' for Inactive)
REMARK    1  A    between atoms: C3_3  and  C7_7 
ROOT
HETATM    1  C1  UNL     1     -33.507   7.049   3.316  1.00 20.00     0.034 A 
HETATM    2  C2  UNL     1     -33.183   8.013   5.404  1.00 20.00     0.058 A 
HETATM    3  C3  UNL     1     -33.842   7.031   4.700  1.00 20.00    -0.046 A 
HETATM    4  C4  UNL     1     -32.604   8.044   3.014  1.00 20.00     0.051 A 
HETATM    5  S8  UNL     1     -32.164   8.952   4.398  1.00 20.00    -0.094 SA
HETATM    6 BR9  UNL     1     -31.918   8.383   1.276  1.00 20.00    -0.043 Br
ENDROOT
BRANCH   3   7
HETATM    7  C7  UNL     1     -34.818   6.038   5.327  1.00 20.00     0.019 A 
HETATM    8  C5  UNL     1     -34.401   5.287   6.577  1.00 20.00     0.010 A 
HETATM    9  C6  UNL     1     -34.497   4.557   5.273  1.00 20.00     0.010 A 
ENDBRANCH   3   7
TORSDOF 1
ENDMDL
MODEL 8
REMARK VINA RESULT:      -3.2      1.494      1.718
REMARK  1 active torsions:
REMARK  status: ('A' for Active; 'I' for Inactive)
REMARK    1  A    between atoms: C3_3  and  C7_7 
ROOT
HETATM    1  C1  UNL     1     -41.027  14.098   8.030  1.00 20.00     0.034 A 
HETATM    2  C2  UNL     1     -42.220  12.530   6.798  1.00 20.00     0.058 A 
HETATM    3  C3  UNL     1     -41.040  13.232   6.900  1.00 20.00    -0.046 A 
HETATM    4  C4  UNL     1     -42.199  14.026   8.751  1.00 20.00     0.051 A 
HETATM    5  S8  UNL     1     -43.308  12.917   8.063  1.00 20.00    -0.094 SA
HETATM    6 BR9  UNL     1     -42.559  15.031  10.322  1.00 20.00    -0.043 Br
ENDROOT
BRANCH   3   7
HETATM    7  C7  UNL     1     -39.878  13.099   5.916  1.00 20.00     0.019 A 
HETATM    8  C5  UNL     1     -39.864  11.930   4.950  1.00 20.00     0.010 A 
HETATM    9  C6  UNL     1     -38.894  11.958   6.091  1.00 20.00     0.010 A 
ENDBRANCH   3   7
TORSDOF 1
ENDMDL
MODEL 9
REMARK VINA RESULT:      -3.2     10.629     11.548
REMARK  1 active torsions:
REMARK  status: ('A' for Active; 'I' for Inactive)
REMARK    1  A    between atoms: C3_3  and  C7_7 
ROOT
HETATM    1  C1  UNL     1     -34.211  18.443  -0.514  1.00 20.00     0.034 A 
HETATM    2  C2  UNL     1     -31.888  18.402  -0.484  1.00 20.00     0.058 A 
HETATM    3  C3  UNL     1     -33.016  18.192  -1.246  1.00 20.00    -0.046 A 
HETATM    4  C4  UNL     1     -33.952  18.836   0.781  1.00 20.00     0.051 A 
HETATM    5  S8  UNL     1     -32.273  18.900   1.108  1.00 20.00    -0.094 SA
HETATM    6 BR9  UNL     1     -35.288  19.261   2.063  1.00 20.00    -0.043 Br
ENDROOT
BRANCH   3   7
HETATM    7  C7  UNL     1     -32.990  17.742  -2.705  1.00 20.00     0.019 A 
HETATM    8  C5  UNL     1     -34.292  17.350  -3.376  1.00 20.00     0.010 A 
HETATM    9  C6  UNL     1     -33.289  16.292  -3.033  1.00 20.00     0.010 A 
ENDBRANCH   3   7
TORSDOF 1
ENDMDL
