MODEL 1
REMARK VINA RESULT:      -5.2      0.000      0.000
REMARK  1 active torsions:
REMARK  status: ('A' for Active; 'I' for Inactive)
REMARK    1  A    between atoms: C4_4  and  C7_7 
ROOT
HETATM    1  C1  UNL     1     -34.377   6.159   6.539  1.00 20.00     0.056 A 
HETATM    2  C2  UNL     1     -33.885   7.382   6.370  1.00 20.00     0.010 A 
HETATM    3  C3  UNL     1     -34.638   5.643   5.200  1.00 20.00     0.157 A 
HETATM    4  C4  UNL     1     -33.798   7.742   4.936  1.00 20.00     0.157 A 
HETATM    5  N8  UNL     1     -35.113   4.495   4.881  1.00 20.00    -0.278 NA
HETATM    6  O9  UNL     1     -34.301   6.577   4.266  1.00 20.00    -0.325 OA
HETATM    7  H20 UNL     1     -35.182   4.423   3.859  1.00 20.00     0.189 HD
ENDROOT
BRANCH   4   8
HETATM    8  C7  UNL     1     -32.377   8.014   4.474  1.00 20.00     0.011 C 
HETATM    9  C5  UNL     1     -32.229   7.737   2.976  1.00 20.00     0.012 C 
HETATM   10  C6  UNL     1     -31.967   9.453   4.790  1.00 20.00     0.012 C 
ENDBRANCH   4   8
TORSDOF 1
ENDMDL
MODEL 2
REMARK VINA RESULT:      -4.9      1.204      1.736
REMARK  1 active torsions:
REMARK  status: ('A' for Active; 'I' for Inactive)
REMARK    1  A    between atoms: C4_4  and  C7_7 
ROOT
HETATM    1  C1  UNL     1     -33.681   7.152   6.395  1.00 20.00     0.056 A 
HETATM    2  C2  UNL     1     -33.216   7.843   5.359  1.00 20.00     0.010 A 
HETATM    3  C3  UNL     1     -34.464   6.060   5.829  1.00 20.00     0.157 A 
HETATM    4  C4  UNL     1     -33.660   7.261   4.071  1.00 20.00     0.157 A 
HETATM    5  N8  UNL     1     -35.095   5.138   6.461  1.00 20.00    -0.278 NA
HETATM    6  O9  UNL     1     -34.452   6.132   4.468  1.00 20.00    -0.325 OA
HETATM    7  H20 UNL     1     -35.553   4.511   5.789  1.00 20.00     0.189 HD
ENDROOT
BRANCH   4   8
HETATM    8  C7  UNL     1     -32.509   6.788   3.201  1.00 20.00     0.011 C 
HETATM    9  C5  UNL     1     -32.805   5.407   2.611  1.00 20.00     0.012 C 
HETATM   10  C6  UNL     1     -32.223   7.792   2.083  1.00 20.00     0.012 C 
ENDBRANCH   4   8
TORSDOF 1
ENDMDL
MODEL 3
REMARK VINA RESULT:      -4.8      0.495      1.282
REMARK  1 active torsions:
REMARK  status: ('A' for Active; 'I' for Inactive)
REMARK    1  A    between atoms: C4_4  and  C7_7 
ROOT
HETATM    1  C1  UNL     1     -34.067   6.140   6.367  1.00 20.00     0.056 A 
HETATM    2  C2  UNL     1     -33.978   7.442   6.117  1.00 20.00     0.010 A 
HETATM    3  C3  UNL     1     -34.337   5.502   5.085  1.00 20.00     0.157 A 
HETATM    4  C4  UNL     1     -34.184   7.737   4.680  1.00 20.00     0.157 A 
HETATM    5  N8  UNL     1     -34.495   4.251   4.849  1.00 20.00    -0.278 NA
HETATM    6  O9  UNL     1     -34.410   6.443   4.101  1.00 20.00    -0.325 OA
HETATM    7  H20 UNL     1     -34.672   4.108   3.847  1.00 20.00     0.189 HD
ENDROOT
BRANCH   4   8
HETATM    8  C7  UNL     1     -32.975   8.379   4.022  1.00 20.00     0.011 C 
HETATM    9  C5  UNL     1     -32.061   9.019   5.069  1.00 20.00     0.012 C 
HETATM   10  C6  UNL     1     -32.197   7.354   3.195  1.00 20.00     0.012 C 
ENDBRANCH   4   8
TORSDOF 1
ENDMDL
MODEL 4
REMARK VINA RESULT:      -4.7      2.140      3.699
REMARK  1 active torsions:
REMARK  status: ('A' for Active; 'I' for Inactive)
REMARK    1  A    between atoms: C4_4  and  C7_7 
ROOT
HETATM    1  C1  UNL     1     -32.198   7.312   3.501  1.00 20.00     0.056 A 
HETATM    2  C2  UNL     1     -33.207   6.487   3.237  1.00 20.00     0.010 A 
HETATM    3  C3  UNL     1     -32.663   8.183   4.573  1.00 20.00     0.157 A 
HETATM    4  C4  UNL     1     -34.377   6.763   4.102  1.00 20.00     0.157 A 
HETATM    5  N8  UNL     1     -32.017   9.131   5.149  1.00 20.00    -0.278 NA
HETATM    6  O9  UNL     1     -33.941   7.860   4.918  1.00 20.00    -0.325 OA
HETATM    7  H20 UNL     1     -32.608   9.564   5.868  1.00 20.00     0.189 HD
ENDROOT
BRANCH   4   8
HETATM    8  C7  UNL     1     -34.751   5.590   4.993  1.00 20.00     0.011 C 
HETATM    9  C5  UNL     1     -34.024   4.318   4.552  1.00 20.00     0.012 C 
HETATM   10  C6  UNL     1     -34.438   5.899   6.458  1.00 20.00     0.012 C 
ENDBRANCH   4   8
TORSDOF 1
ENDMDL
MODEL 5
REMARK VINA RESULT:      -4.5      2.157      3.624
REMARK  1 active torsions:
REMARK  status: ('A' for Active; 'I' for Inactive)
REMARK    1  A    between atoms: C4_4  and  C7_7 
ROOT
HETATM    1  C1  UNL     1     -32.551   8.973   3.723  1.00 20.00     0.056 A 
HETATM    2  C2  UNL     1     -32.882   8.410   4.881  1.00 20.00     0.010 A 
HETATM    3  C3  UNL     1     -32.404   7.878   2.772  1.00 20.00     0.157 A 
HETATM    4  C4  UNL     1     -32.969   6.936   4.765  1.00 20.00     0.157 A 
HETATM    5  N8  UNL     1     -32.095   7.956   1.529  1.00 20.00    -0.278 NA
HETATM    6  O9  UNL     1     -32.646   6.687   3.389  1.00 20.00    -0.325 OA
HETATM    7  H20 UNL     1     -32.069   7.014   1.121  1.00 20.00     0.189 HD
ENDROOT
BRANCH   4   8
HETATM    8  C7  UNL     1     -34.356   6.393   5.062  1.00 20.00     0.011 C 
HETATM    9  C5  UNL     1     -34.532   4.993   4.470  1.00 20.00     0.012 C 
HETATM   10  C6  UNL     1     -34.621   6.369   6.568  1.00 20.00     0.012 C 
ENDBRANCH   4   8
TORSDOF 1
ENDMDL
MODEL 6
REMARK VINA RESULT:      -4.3     15.286     16.143
REMARK  1 active torsions:
REMARK  status: ('A' for Active; 'I' for Inactive)
REMARK    1  A    between atoms: C4_4  and  C7_7 
ROOT
HETATM    1  C1  UNL     1     -22.995  18.525   8.545  1.00 20.00     0.056 A 
HETATM    2  C2  UNL     1     -23.835  19.089   9.407  1.00 20.00     0.010 A 
HETATM    3  C3  UNL     1     -22.236  17.542   9.309  1.00 20.00     0.157 A 
HETATM    4  C4  UNL     1     -23.681  18.524  10.768  1.00 20.00     0.157 A 
HETATM    5  N8  UNL     1     -21.314  16.758   8.882  1.00 20.00    -0.278 NA
HETATM    6  O9  UNL     1     -22.639  17.549  10.611  1.00 20.00    -0.325 OA
HETATM    7  H20 UNL     1     -20.968  16.179   9.656  1.00 20.00     0.189 HD
ENDROOT
BRANCH   4   8
HETATM    8  C7  UNL     1     -24.938  17.840  11.277  1.00 20.00     0.011 C 
HETATM    9  C5  UNL     1     -24.612  16.458  11.848  1.00 20.00     0.012 C 
HETATM   10  C6  UNL     1     -25.636  18.699  12.332  1.00 20.00     0.012 C 
ENDBRANCH   4   8
TORSDOF 1
ENDMDL
MODEL 7
REMARK VINA RESULT:      -4.2      2.199      3.511
REMARK  1 active torsions:
REMARK  status: ('A' for Active; 'I' for Inactive)
REMARK    1  A    between atoms: C4_4  and  C7_7 
ROOT
HETATM    1  C1  UNL     1     -32.952   5.474   3.063  1.00 20.00     0.056 A 
HETATM    2  C2  UNL     1     -34.045   5.121   3.732  1.00 20.00     0.010 A 
HETATM    3  C3  UNL     1     -32.801   6.909   3.271  1.00 20.00     0.157 A 
HETATM    4  C4  UNL     1     -34.671   6.282   4.407  1.00 20.00     0.157 A 
HETATM    5  N8  UNL     1     -31.879   7.675   2.812  1.00 20.00    -0.278 NA
HETATM    6  O9  UNL     1     -33.813   7.377   4.055  1.00 20.00    -0.325 OA
HETATM    7  H20 UNL     1     -32.040   8.637   3.131  1.00 20.00     0.189 HD
ENDROOT
BRANCH   4   8
HETATM    8  C7  UNL     1     -34.714   6.143   5.919  1.00 20.00     0.011 C 
HETATM    9  C5  UNL     1     -34.130   4.799   6.359  1.00 20.00     0.012 C 
HETATM   10  C6  UNL     1     -33.965   7.293   6.593  1.00 20.00     0.012 C 
ENDBRANCH   4   8
TORSDOF 1
ENDMDL
MODEL 8
REMARK VINA RESULT:      -4.1     12.383     12.959
REMARK  1 active torsions:
REMARK  status: ('A' for Active; 'I' for Inactive)
REMARK    1  A    between atoms: C4_4  and  C7_7 
ROOT
HETATM    1  C1  UNL     1     -34.599  15.990  -5.008  1.00 20.00     0.056 A 
HETATM    2  C2  UNL     1     -34.425  17.181  -4.444  1.00 20.00     0.010 A 
HETATM    3  C3  UNL     1     -33.590  15.117  -4.422  1.00 20.00     0.157 A 
HETATM    4  C4  UNL     1     -33.308  17.165  -3.472  1.00 20.00     0.157 A 
HETATM    5  N8  UNL     1     -33.390  13.873  -4.668  1.00 20.00    -0.278 NA
HETATM    6  O9  UNL     1     -32.834  15.812  -3.526  1.00 20.00    -0.325 OA
HETATM    7  H20 UNL     1     -32.607  13.531  -4.099  1.00 20.00     0.189 HD
ENDROOT
BRANCH   4   8
HETATM    8  C7  UNL     1     -33.746  17.489  -2.054  1.00 20.00     0.011 C 
HETATM    9  C5  UNL     1     -32.565  17.990  -1.220  1.00 20.00     0.012 C 
HETATM   10  C6  UNL     1     -34.872  18.524  -2.054  1.00 20.00     0.012 C 
ENDBRANCH   4   8
TORSDOF 1
ENDMDL
MODEL 9
REMARK VINA RESULT:      -4.0     11.916     12.895
REMARK  1 active torsions:
REMARK  status: ('A' for Active; 'I' for Inactive)
REMARK    1  A    between atoms: C4_4  and  C7_7 
ROOT
HETATM    1  C1  UNL     1     -35.616  14.972  -5.820  1.00 20.00     0.056 A 
HETATM    2  C2  UNL     1     -34.833  16.045  -5.760  1.00 20.00     0.010 A 
HETATM    3  C3  UNL     1     -35.201  14.111  -4.720  1.00 20.00     0.157 A 
HETATM    4  C4  UNL     1     -33.871  15.955  -4.638  1.00 20.00     0.157 A 
HETATM    5  N8  UNL     1     -35.685  12.968  -4.393  1.00 20.00    -0.278 NA
HETATM    6  O9  UNL     1     -34.175  14.690  -4.034  1.00 20.00    -0.325 OA
HETATM    7  H20 UNL     1     -35.185  12.604  -3.572  1.00 20.00     0.189 HD
ENDROOT
BRANCH   4   8
HETATM    8  C7  UNL     1     -34.047  17.059  -3.610  1.00 20.00     0.011 C 
HETATM    9  C5  UNL     1     -33.429  16.657  -2.269  1.00 20.00     0.012 C 
HETATM   10  C6  UNL     1     -33.431  18.369  -4.106  1.00 20.00     0.012 C 
ENDBRANCH   4   8
TORSDOF 1
ENDMDL
