MODEL 1
REMARK VINA RESULT:      -4.3      0.000      0.000
REMARK  1 active torsions:
REMARK  status: ('A' for Active; 'I' for Inactive)
REMARK    1  A    between atoms: C5_5  and  C8_8 
ROOT
HETATM    1  C1  UNL     1     -33.485  15.423  -4.000  1.00 20.00     0.047 C 
HETATM    2  C2  UNL     1     -33.274  16.422  -3.135  1.00 20.00    -0.009 C 
HETATM    3  C3  UNL     1     -34.363  15.622  -5.178  1.00 20.00     0.149 C 
HETATM    4  C6  UNL     1     -34.933  16.999  -5.426  1.00 20.00     0.084 C 
HETATM    5  C7  UNL     1     -35.174  17.737  -4.115  1.00 20.00     0.025 C 
HETATM    6  C8  UNL     1     -33.918  17.790  -3.215  1.00 20.00    -0.003 C 
HETATM    7  C11 UNL     1     -32.890  18.794  -3.761  1.00 20.00     0.024 C 
HETATM    8  O12 UNL     1     -34.559  14.691  -5.958  1.00 20.00    -0.293 OA
ENDROOT
BRANCH   6   9
HETATM    9  C5  UNL     1     -34.342  18.253  -1.840  1.00 20.00    -0.076 C 
HETATM   10  C4  UNL     1     -33.689  17.843  -0.736  1.00 20.00    -0.027 C 
HETATM   11  C9  UNL     1     -33.975  18.201   0.666  1.00 20.00     0.036 C 
HETATM   12  C10 UNL     1     -35.520  19.183  -1.818  1.00 20.00     0.044 C 
ENDBRANCH   6   9
TORSDOF 1
ENDMDL
MODEL 2
REMARK VINA RESULT:      -4.3      1.498      2.534
REMARK  1 active torsions:
REMARK  status: ('A' for Active; 'I' for Inactive)
REMARK    1  A    between atoms: C5_5  and  C8_8 
ROOT
HETATM    1  C1  UNL     1     -35.953  14.386  -5.430  1.00 20.00     0.047 C 
HETATM    2  C2  UNL     1     -35.235  14.851  -4.400  1.00 20.00    -0.009 C 
HETATM    3  C3  UNL     1     -35.591  14.746  -6.822  1.00 20.00     0.149 C 
HETATM    4  C6  UNL     1     -34.345  15.569  -7.051  1.00 20.00     0.084 C 
HETATM    5  C7  UNL     1     -34.094  16.521  -5.888  1.00 20.00     0.025 C 
HETATM    6  C8  UNL     1     -34.063  15.803  -4.519  1.00 20.00    -0.003 C 
HETATM    7  C11 UNL     1     -32.758  15.009  -4.343  1.00 20.00     0.024 C 
HETATM    8  O12 UNL     1     -36.267  14.321  -7.757  1.00 20.00    -0.293 OA
ENDROOT
BRANCH   6   9
HETATM    9  C5  UNL     1     -34.125  16.852  -3.433  1.00 20.00    -0.076 C 
HETATM   10  C4  UNL     1     -33.464  16.691  -2.271  1.00 20.00    -0.027 C 
HETATM   11  C9  UNL     1     -33.423  17.615  -1.122  1.00 20.00     0.036 C 
HETATM   12  C10 UNL     1     -34.964  18.054  -3.759  1.00 20.00     0.044 C 
ENDBRANCH   6   9
TORSDOF 1
ENDMDL
MODEL 3
REMARK VINA RESULT:      -4.2     11.490     13.573
REMARK  1 active torsions:
REMARK  status: ('A' for Active; 'I' for Inactive)
REMARK    1  A    between atoms: C5_5  and  C8_8 
ROOT
HETATM    1  C1  UNL     1     -42.987  12.689   7.943  1.00 20.00     0.047 C 
HETATM    2  C2  UNL     1     -42.302  12.451   6.818  1.00 20.00    -0.009 C 
HETATM    3  C3  UNL     1     -42.791  13.954   8.690  1.00 20.00     0.149 C 
HETATM    4  C6  UNL     1     -41.873  15.001   8.102  1.00 20.00     0.084 C 
HETATM    5  C7  UNL     1     -40.743  14.357   7.308  1.00 20.00     0.025 C 
HETATM    6  C8  UNL     1     -41.251  13.370   6.231  1.00 20.00    -0.003 C 
HETATM    7  C11 UNL     1     -41.860  14.123   5.037  1.00 20.00     0.024 C 
HETATM    8  O12 UNL     1     -43.417  14.154   9.728  1.00 20.00    -0.293 OA
ENDROOT
BRANCH   6   9
HETATM    9  C5  UNL     1     -40.072  12.569   5.730  1.00 20.00    -0.076 C 
HETATM   10  C4  UNL     1     -39.901  12.329   4.417  1.00 20.00    -0.027 C 
HETATM   11  C9  UNL     1     -38.811  11.571   3.773  1.00 20.00     0.036 C 
HETATM   12  C10 UNL     1     -39.136  12.081   6.798  1.00 20.00     0.044 C 
ENDBRANCH   6   9
TORSDOF 1
ENDMDL
MODEL 4
REMARK VINA RESULT:      -4.2     10.817     12.676
REMARK  1 active torsions:
REMARK  status: ('A' for Active; 'I' for Inactive)
REMARK    1  A    between atoms: C5_5  and  C8_8 
ROOT
HETATM    1  C1  UNL     1     -41.179  15.695   7.280  1.00 20.00     0.047 C 
HETATM    2  C2  UNL     1     -40.763  14.424   7.222  1.00 20.00    -0.009 C 
HETATM    3  C3  UNL     1     -42.208  16.194   6.337  1.00 20.00     0.149 C 
HETATM    4  C6  UNL     1     -42.839  15.212   5.376  1.00 20.00     0.084 C 
HETATM    5  C7  UNL     1     -41.852  14.121   4.980  1.00 20.00     0.025 C 
HETATM    6  C8  UNL     1     -41.224  13.406   6.199  1.00 20.00    -0.003 C 
HETATM    7  C11 UNL     1     -42.235  12.457   6.863  1.00 20.00     0.024 C 
HETATM    8  O12 UNL     1     -42.571  17.367   6.394  1.00 20.00    -0.293 OA
ENDROOT
BRANCH   6   9
HETATM    9  C5  UNL     1     -40.055  12.582   5.713  1.00 20.00    -0.076 C 
HETATM   10  C4  UNL     1     -39.878  12.330   4.402  1.00 20.00    -0.027 C 
HETATM   11  C9  UNL     1     -38.796  11.549   3.772  1.00 20.00     0.036 C 
HETATM   12  C10 UNL     1     -39.135  12.086   6.792  1.00 20.00     0.044 C 
ENDBRANCH   6   9
TORSDOF 1
ENDMDL
MODEL 5
REMARK VINA RESULT:      -4.1      2.696      4.695
REMARK  1 active torsions:
REMARK  status: ('A' for Active; 'I' for Inactive)
REMARK    1  A    between atoms: C5_5  and  C8_8 
ROOT
HETATM    1  C1  UNL     1     -34.796  19.038  -0.632  1.00 20.00     0.047 C 
HETATM    2  C2  UNL     1     -34.757  18.693  -1.924  1.00 20.00    -0.009 C 
HETATM    3  C3  UNL     1     -33.575  18.954   0.205  1.00 20.00     0.149 C 
HETATM    4  C6  UNL     1     -32.275  18.562  -0.457  1.00 20.00     0.084 C 
HETATM    5  C7  UNL     1     -32.517  17.603  -1.617  1.00 20.00     0.025 C 
HETATM    6  C8  UNL     1     -33.540  18.146  -2.641  1.00 20.00    -0.003 C 
HETATM    7  C11 UNL     1     -32.924  19.263  -3.498  1.00 20.00     0.024 C 
HETATM    8  O12 UNL     1     -33.629  19.261   1.395  1.00 20.00    -0.293 OA
ENDROOT
BRANCH   6   9
HETATM    9  C5  UNL     1     -33.936  17.013  -3.559  1.00 20.00    -0.076 C 
HETATM   10  C4  UNL     1     -33.421  15.778  -3.403  1.00 20.00    -0.027 C 
HETATM   11  C9  UNL     1     -33.703  14.575  -4.208  1.00 20.00     0.036 C 
HETATM   12  C10 UNL     1     -34.926  17.377  -4.628  1.00 20.00     0.044 C 
ENDBRANCH   6   9
TORSDOF 1
ENDMDL
MODEL 6
REMARK VINA RESULT:      -4.0     11.641     13.525
REMARK  1 active torsions:
REMARK  status: ('A' for Active; 'I' for Inactive)
REMARK    1  A    between atoms: C5_5  and  C8_8 
ROOT
HETATM    1  C1  UNL     1     -40.277  15.165   8.855  1.00 20.00     0.047 C 
HETATM    2  C2  UNL     1     -40.433  14.108   8.048  1.00 20.00    -0.009 C 
HETATM    3  C3  UNL     1     -41.251  16.282   8.828  1.00 20.00     0.149 C 
HETATM    4  C6  UNL     1     -42.467  16.154   7.941  1.00 20.00     0.084 C 
HETATM    5  C7  UNL     1     -42.153  15.336   6.693  1.00 20.00     0.025 C 
HETATM    6  C8  UNL     1     -41.534  13.957   7.019  1.00 20.00    -0.003 C 
HETATM    7  C11 UNL     1     -42.597  12.990   7.565  1.00 20.00     0.024 C 
HETATM    8  O12 UNL     1     -41.088  17.252   9.566  1.00 20.00    -0.293 OA
ENDROOT
BRANCH   6   9
HETATM    9  C5  UNL     1     -40.981  13.374   5.739  1.00 20.00    -0.076 C 
HETATM   10  C4  UNL     1     -40.001  12.452   5.761  1.00 20.00    -0.027 C 
HETATM   11  C9  UNL     1     -39.359  11.790   4.609  1.00 20.00     0.036 C 
HETATM   12  C10 UNL     1     -41.606  13.901   4.479  1.00 20.00     0.044 C 
ENDBRANCH   6   9
TORSDOF 1
ENDMDL
MODEL 7
REMARK VINA RESULT:      -3.9      2.463      4.588
REMARK  1 active torsions:
REMARK  status: ('A' for Active; 'I' for Inactive)
REMARK    1  A    between atoms: C5_5  and  C8_8 
ROOT
HETATM    1  C1  UNL     1     -32.980  17.414  -1.255  1.00 20.00     0.047 C 
HETATM    2  C2  UNL     1     -33.854  16.848  -2.095  1.00 20.00    -0.009 C 
HETATM    3  C3  UNL     1     -32.232  18.630  -1.655  1.00 20.00     0.149 C 
HETATM    4  C6  UNL     1     -32.550  19.263  -2.990  1.00 20.00     0.084 C 
HETATM    5  C7  UNL     1     -32.972  18.212  -4.009  1.00 20.00     0.025 C 
HETATM    6  C8  UNL     1     -34.130  17.319  -3.508  1.00 20.00    -0.003 C 
HETATM    7  C11 UNL     1     -35.464  18.084  -3.525  1.00 20.00     0.024 C 
HETATM    8  O12 UNL     1     -31.422  19.132  -0.878  1.00 20.00    -0.293 OA
ENDROOT
BRANCH   6   9
HETATM    9  C5  UNL     1     -34.254  16.137  -4.442  1.00 20.00    -0.076 C 
HETATM   10  C4  UNL     1     -35.163  16.127  -5.435  1.00 20.00    -0.027 C 
HETATM   11  C9  UNL     1     -35.408  15.059  -6.423  1.00 20.00     0.036 C 
HETATM   12  C10 UNL     1     -33.300  15.010  -4.170  1.00 20.00     0.044 C 
ENDBRANCH   6   9
TORSDOF 1
ENDMDL
MODEL 8
REMARK VINA RESULT:      -3.9     24.724     26.116
REMARK  1 active torsions:
REMARK  status: ('A' for Active; 'I' for Inactive)
REMARK    1  A    between atoms: C5_5  and  C8_8 
ROOT
HETATM    1  C1  UNL     1     -26.127  -0.790  11.960  1.00 20.00     0.047 C 
HETATM    2  C2  UNL     1     -25.088  -1.622  11.824  1.00 20.00    -0.009 C 
HETATM    3  C3  UNL     1     -27.482  -1.202  11.521  1.00 20.00     0.149 C 
HETATM    4  C6  UNL     1     -27.675  -2.610  11.009  1.00 20.00     0.084 C 
HETATM    5  C7  UNL     1     -26.419  -3.116  10.309  1.00 20.00     0.025 C 
HETATM    6  C8  UNL     1     -25.151  -2.994  11.185  1.00 20.00    -0.003 C 
HETATM    7  C11 UNL     1     -25.141  -4.059  12.293  1.00 20.00     0.024 C 
HETATM    8  O12 UNL     1     -28.425  -0.422  11.640  1.00 20.00    -0.293 OA
ENDROOT
BRANCH   6   9
HETATM    9  C5  UNL     1     -23.944  -3.220  10.305  1.00 20.00    -0.076 C 
HETATM   10  C4  UNL     1     -24.031  -3.116   8.965  1.00 20.00    -0.027 C 
HETATM   11  C9  UNL     1     -22.954  -3.305   7.975  1.00 20.00     0.036 C 
HETATM   12  C10 UNL     1     -22.678  -3.560  11.037  1.00 20.00     0.044 C 
ENDBRANCH   6   9
TORSDOF 1
ENDMDL
MODEL 9
REMARK VINA RESULT:      -3.8      2.506      4.748
REMARK  1 active torsions:
REMARK  status: ('A' for Active; 'I' for Inactive)
REMARK    1  A    between atoms: C5_5  and  C8_8 
ROOT
HETATM    1  C1  UNL     1     -35.262  18.990  -1.355  1.00 20.00     0.047 C 
HETATM    2  C2  UNL     1     -35.053  18.604  -2.619  1.00 20.00    -0.009 C 
HETATM    3  C3  UNL     1     -34.226  18.766  -0.319  1.00 20.00     0.149 C 
HETATM    4  C6  UNL     1     -32.899  18.181  -0.744  1.00 20.00     0.084 C 
HETATM    5  C7  UNL     1     -33.071  17.229  -1.922  1.00 20.00     0.025 C 
HETATM    6  C8  UNL     1     -33.820  17.874  -3.111  1.00 20.00    -0.003 C 
HETATM    7  C11 UNL     1     -32.917  18.870  -3.857  1.00 20.00     0.024 C 
HETATM    8  O12 UNL     1     -34.437  19.115   0.841  1.00 20.00    -0.293 OA
ENDROOT
BRANCH   6   9
HETATM    9  C5  UNL     1     -34.207  16.778  -4.076  1.00 20.00    -0.076 C 
HETATM   10  C4  UNL     1     -35.106  16.996  -5.055  1.00 20.00    -0.027 C 
HETATM   11  C9  UNL     1     -35.586  16.039  -6.068  1.00 20.00     0.036 C 
HETATM   12  C10 UNL     1     -33.520  15.461  -3.851  1.00 20.00     0.044 C 
ENDBRANCH   6   9
TORSDOF 1
ENDMDL
