MODEL 1
REMARK VINA RESULT:      -6.2      0.000      0.000
REMARK  0 active torsions:
REMARK  status: ('A' for Active; 'I' for Inactive)
ROOT
HETATM    1  C1  UNL     1     -34.381   5.426   4.628  1.00 20.00     0.136 C 
HETATM    2  C2  UNL     1     -32.918   4.904   2.439  1.00 20.00     0.018 A 
HETATM    3  C3  UNL     1     -33.711   7.060   6.500  1.00 20.00     0.018 A 
HETATM    4  C4  UNL     1     -32.471   8.922   3.140  1.00 20.00     0.011 A 
HETATM    5  C5  UNL     1     -33.141   5.299   3.854  1.00 20.00     0.060 A 
HETATM    6  C6  UNL     1     -34.603   6.722   5.337  1.00 20.00     0.060 A 
HETATM    7  C7  UNL     1     -33.074   6.357   2.742  1.00 20.00     0.002 A 
HETATM    8  C8  UNL     1     -33.700   7.951   5.281  1.00 20.00     0.002 A 
HETATM    9  C9  UNL     1     -32.114   7.464   3.128  1.00 20.00    -0.005 A 
HETATM   10  C10 UNL     1     -32.416   8.175   4.451  1.00 20.00    -0.005 A 
HETATM   11  O11 UNL     1     -35.179   4.502   4.719  1.00 20.00    -0.297 OA
ENDROOT
TORSDOF 0
ENDMDL
MODEL 2
REMARK VINA RESULT:      -6.1      0.845      2.795
REMARK  0 active torsions:
REMARK  status: ('A' for Active; 'I' for Inactive)
ROOT
HETATM    1  C1  UNL     1     -33.846   5.008   4.244  1.00 20.00     0.136 C 
HETATM    2  C2  UNL     1     -34.891   6.192   6.414  1.00 20.00     0.018 A 
HETATM    3  C3  UNL     1     -33.231   6.212   2.054  1.00 20.00     0.018 A 
HETATM    4  C4  UNL     1     -32.151   8.851   4.912  1.00 20.00     0.011 A 
HETATM    5  C5  UNL     1     -34.621   6.026   4.963  1.00 20.00     0.060 A 
HETATM    6  C6  UNL     1     -32.793   5.501   3.306  1.00 20.00     0.060 A 
HETATM    7  C7  UNL     1     -33.708   6.897   5.839  1.00 20.00     0.002 A 
HETATM    8  C8  UNL     1     -32.399   6.957   3.071  1.00 20.00     0.002 A 
HETATM    9  C9  UNL     1     -33.498   8.252   5.193  1.00 20.00    -0.005 A 
HETATM   10  C10 UNL     1     -32.923   8.229   3.773  1.00 20.00    -0.005 A 
HETATM   11  O11 UNL     1     -34.075   3.813   4.379  1.00 20.00    -0.297 OA
ENDROOT
TORSDOF 0
ENDMDL
MODEL 3
REMARK VINA RESULT:      -5.9      1.745      3.129
REMARK  0 active torsions:
REMARK  status: ('A' for Active; 'I' for Inactive)
ROOT
HETATM    1  C1  UNL     1     -32.412   7.348   3.504  1.00 20.00     0.136 C 
HETATM    2  C2  UNL     1     -33.091   4.985   2.429  1.00 20.00     0.018 A 
HETATM    3  C3  UNL     1     -33.880   8.716   5.116  1.00 20.00     0.018 A 
HETATM    4  C4  UNL     1     -34.515   4.901   6.276  1.00 20.00     0.011 A 
HETATM    5  C5  UNL     1     -33.344   6.329   3.008  1.00 20.00     0.060 A 
HETATM    6  C6  UNL     1     -32.657   7.871   4.882  1.00 20.00     0.060 A 
HETATM    7  C7  UNL     1     -33.320   5.078   3.900  1.00 20.00     0.002 A 
HETATM    8  C8  UNL     1     -33.741   7.403   5.849  1.00 20.00     0.002 A 
HETATM    9  C9  UNL     1     -34.552   5.039   4.782  1.00 20.00    -0.005 A 
HETATM   10  C10 UNL     1     -34.770   6.264   5.676  1.00 20.00    -0.005 A 
HETATM   11  O11 UNL     1     -31.499   7.776   2.810  1.00 20.00    -0.297 OA
ENDROOT
TORSDOF 0
ENDMDL
MODEL 4
REMARK VINA RESULT:      -5.6      1.813      3.805
REMARK  0 active torsions:
REMARK  status: ('A' for Active; 'I' for Inactive)
ROOT
HETATM    1  C1  UNL     1     -32.532   7.302   2.800  1.00 20.00     0.136 C 
HETATM    2  C2  UNL     1     -32.378   8.993   4.878  1.00 20.00     0.018 A 
HETATM    3  C3  UNL     1     -32.724   4.742   2.987  1.00 20.00     0.018 A 
HETATM    4  C4  UNL     1     -35.036   6.081   6.015  1.00 20.00     0.011 A 
HETATM    5  C5  UNL     1     -32.195   7.699   4.172  1.00 20.00     0.060 A 
HETATM    6  C6  UNL     1     -33.353   6.064   2.640  1.00 20.00     0.060 A 
HETATM    7  C7  UNL     1     -33.462   7.975   4.994  1.00 20.00     0.002 A 
HETATM    8  C8  UNL     1     -33.932   5.209   3.765  1.00 20.00     0.002 A 
HETATM    9  C9  UNL     1     -33.733   6.824   5.942  1.00 20.00    -0.005 A 
HETATM   10  C10 UNL     1     -33.873   5.444   5.291  1.00 20.00    -0.005 A 
HETATM   11  O11 UNL     1     -32.131   7.933   1.831  1.00 20.00    -0.297 OA
ENDROOT
TORSDOF 0
ENDMDL
MODEL 5
REMARK VINA RESULT:      -5.4      1.461      3.001
REMARK  0 active torsions:
REMARK  status: ('A' for Active; 'I' for Inactive)
ROOT
HETATM    1  C1  UNL     1     -33.993   7.198   5.859  1.00 20.00     0.136 C 
HETATM    2  C2  UNL     1     -32.413   8.790   4.385  1.00 20.00     0.018 A 
HETATM    3  C3  UNL     1     -35.586   5.411   4.915  1.00 20.00     0.018 A 
HETATM    4  C4  UNL     1     -32.341   5.131   2.529  1.00 20.00     0.011 A 
HETATM    5  C5  UNL     1     -33.607   7.950   4.660  1.00 20.00     0.060 A 
HETATM    6  C6  UNL     1     -34.331   5.755   5.670  1.00 20.00     0.060 A 
HETATM    7  C7  UNL     1     -32.352   7.347   4.010  1.00 20.00     0.002 A 
HETATM    8  C8  UNL     1     -34.251   4.970   4.364  1.00 20.00     0.002 A 
HETATM    9  C9  UNL     1     -32.729   6.561   2.771  1.00 20.00    -0.005 A 
HETATM   10  C10 UNL     1     -33.750   5.438   2.979  1.00 20.00    -0.005 A 
HETATM   11  O11 UNL     1     -34.069   7.735   6.957  1.00 20.00    -0.297 OA
ENDROOT
TORSDOF 0
ENDMDL
MODEL 6
REMARK VINA RESULT:      -5.3      1.601      3.320
REMARK  0 active torsions:
REMARK  status: ('A' for Active; 'I' for Inactive)
ROOT
HETATM    1  C1  UNL     1     -33.670   7.951   5.287  1.00 20.00     0.136 C 
HETATM    2  C2  UNL     1     -34.872   5.709   6.142  1.00 20.00     0.018 A 
HETATM    3  C3  UNL     1     -31.551   8.029   3.828  1.00 20.00     0.018 A 
HETATM    4  C4  UNL     1     -33.615   4.904   2.320  1.00 20.00     0.011 A 
HETATM    5  C5  UNL     1     -33.727   6.542   5.695  1.00 20.00     0.060 A 
HETATM    6  C6  UNL     1     -33.034   8.245   3.968  1.00 20.00     0.060 A 
HETATM    7  C7  UNL     1     -34.535   5.709   4.688  1.00 20.00     0.002 A 
HETATM    8  C8  UNL     1     -32.497   7.220   2.972  1.00 20.00     0.002 A 
HETATM    9  C9  UNL     1     -33.603   4.887   3.821  1.00 20.00    -0.005 A 
HETATM   10  C10 UNL     1     -32.542   5.677   3.049  1.00 20.00    -0.005 A 
HETATM   11  O11 UNL     1     -34.090   8.846   6.009  1.00 20.00    -0.297 OA
ENDROOT
TORSDOF 0
ENDMDL
MODEL 7
REMARK VINA RESULT:      -5.3      1.195      2.296
REMARK  0 active torsions:
REMARK  status: ('A' for Active; 'I' for Inactive)
ROOT
HETATM    1  C1  UNL     1     -33.553   5.516   3.254  1.00 20.00     0.136 C 
HETATM    2  C2  UNL     1     -31.955   7.578   2.623  1.00 20.00     0.018 A 
HETATM    3  C3  UNL     1     -34.117   4.760   5.649  1.00 20.00     0.018 A 
HETATM    4  C4  UNL     1     -34.076   8.788   5.921  1.00 20.00     0.011 A 
HETATM    5  C5  UNL     1     -32.450   6.460   3.467  1.00 20.00     0.060 A 
HETATM    6  C6  UNL     1     -34.555   5.392   4.355  1.00 20.00     0.060 A 
HETATM    7  C7  UNL     1     -32.976   7.889   3.666  1.00 20.00     0.002 A 
HETATM    8  C8  UNL     1     -34.581   6.197   5.652  1.00 20.00     0.002 A 
HETATM    9  C9  UNL     1     -32.908   8.275   5.129  1.00 20.00    -0.005 A 
HETATM   10  C10 UNL     1     -33.652   7.349   6.097  1.00 20.00    -0.005 A 
HETATM   11  O11 UNL     1     -33.630   4.836   2.239  1.00 20.00    -0.297 OA
ENDROOT
TORSDOF 0
ENDMDL
MODEL 8
REMARK VINA RESULT:      -5.2      1.926      3.164
REMARK  0 active torsions:
REMARK  status: ('A' for Active; 'I' for Inactive)
ROOT
HETATM    1  C1  UNL     1     -32.681   8.144   4.994  1.00 20.00     0.136 C 
HETATM    2  C2  UNL     1     -32.359   7.551   2.395  1.00 20.00     0.018 A 
HETATM    3  C3  UNL     1     -34.612   7.306   6.473  1.00 20.00     0.018 A 
HETATM    4  C4  UNL     1     -33.758   4.116   4.150  1.00 20.00     0.011 A 
HETATM    5  C5  UNL     1     -33.130   7.782   3.644  1.00 20.00     0.060 A 
HETATM    6  C6  UNL     1     -33.151   7.277   6.115  1.00 20.00     0.060 A 
HETATM    7  C7  UNL     1     -32.652   6.373   3.263  1.00 20.00     0.002 A 
HETATM    8  C8  UNL     1     -33.999   6.013   5.990  1.00 20.00     0.002 A 
HETATM    9  C9  UNL     1     -33.800   5.387   3.352  1.00 20.00    -0.005 A 
HETATM   10  C10 UNL     1     -34.502   5.306   4.711  1.00 20.00    -0.005 A 
HETATM   11  O11 UNL     1     -31.983   9.129   5.196  1.00 20.00    -0.297 OA
ENDROOT
TORSDOF 0
ENDMDL
MODEL 9
REMARK VINA RESULT:      -5.1      1.266      2.926
REMARK  0 active torsions:
REMARK  status: ('A' for Active; 'I' for Inactive)
ROOT
HETATM    1  C1  UNL     1     -33.031   5.860   3.120  1.00 20.00     0.136 C 
HETATM    2  C2  UNL     1     -34.769   4.709   4.811  1.00 20.00     0.018 A 
HETATM    3  C3  UNL     1     -32.760   8.396   2.776  1.00 20.00     0.018 A 
HETATM    4  C4  UNL     1     -33.383   8.049   6.750  1.00 20.00     0.011 A 
HETATM    5  C5  UNL     1     -34.270   5.773   3.901  1.00 20.00     0.060 A 
HETATM    6  C6  UNL     1     -32.210   7.095   3.295  1.00 20.00     0.060 A 
HETATM    7  C7  UNL     1     -33.978   5.825   5.408  1.00 20.00     0.002 A 
HETATM    8  C8  UNL     1     -32.499   8.247   4.256  1.00 20.00     0.002 A 
HETATM    9  C9  UNL     1     -34.330   7.189   5.964  1.00 20.00    -0.005 A 
HETATM   10  C10 UNL     1     -33.633   8.379   5.297  1.00 20.00    -0.005 A 
HETATM   11  O11 UNL     1     -32.702   4.979   2.335  1.00 20.00    -0.297 OA
ENDROOT
TORSDOF 0
ENDMDL
