MODEL 1
REMARK VINA RESULT:      -5.8      0.000      0.000
REMARK  1 active torsions:
REMARK  status: ('A' for Active; 'I' for Inactive)
REMARK    1  A    between atoms: C10_10  and  O11_11 
ROOT
HETATM    1  C1  UNL     1     -35.570   5.607   4.764  1.00 20.00     0.011 A 
HETATM    2  C2  UNL     1     -34.068   8.471   5.148  1.00 20.00     0.013 A 
HETATM    3  C3  UNL     1     -32.949   5.097   2.254  1.00 20.00     0.013 A 
HETATM    4  C4  UNL     1     -34.485   5.887   5.771  1.00 20.00    -0.005 A 
HETATM    5  C5  UNL     1     -34.279   4.841   4.674  1.00 20.00    -0.005 A 
HETATM    6  C6  UNL     1     -33.687   7.204   5.881  1.00 20.00    -0.003 A 
HETATM    7  C7  UNL     1     -33.126   5.092   3.734  1.00 20.00    -0.003 A 
HETATM    8  C8  UNL     1     -32.704   7.878   4.912  1.00 20.00     0.019 A 
HETATM    9  C9  UNL     1     -33.207   6.397   2.960  1.00 20.00     0.019 A 
HETATM   10  C10 UNL     1     -32.283   7.406   3.536  1.00 20.00     0.127 C 
ENDROOT
BRANCH  10  11
HETATM   11  O11 UNL     1     -32.216   8.538   2.669  1.00 20.00    -0.395 OA
HETATM   12  H25 UNL     1     -32.360   8.203   1.770  1.00 20.00     0.210 HD
ENDBRANCH  10  11
TORSDOF 1
ENDMDL
MODEL 2
REMARK VINA RESULT:      -5.5      1.803      3.080
REMARK  1 active torsions:
REMARK  status: ('A' for Active; 'I' for Inactive)
REMARK    1  A    between atoms: C10_10  and  O11_11 
ROOT
HETATM    1  C1  UNL     1     -31.423   7.801   4.039  1.00 20.00     0.011 A 
HETATM    2  C2  UNL     1     -33.797   7.219   6.191  1.00 20.00     0.013 A 
HETATM    3  C3  UNL     1     -32.892   4.909   2.336  1.00 20.00     0.013 A 
HETATM    4  C4  UNL     1     -32.785   8.444   4.020  1.00 20.00    -0.005 A 
HETATM    5  C5  UNL     1     -32.319   7.572   2.853  1.00 20.00    -0.005 A 
HETATM    6  C6  UNL     1     -33.954   8.089   4.964  1.00 20.00    -0.003 A 
HETATM    7  C7  UNL     1     -33.164   6.356   2.563  1.00 20.00    -0.003 A 
HETATM    8  C8  UNL     1     -34.771   6.798   5.123  1.00 20.00     0.019 A 
HETATM    9  C9  UNL     1     -33.278   5.370   3.712  1.00 20.00     0.019 A 
HETATM   10  C10 UNL     1     -34.600   5.490   4.378  1.00 20.00     0.127 C 
ENDROOT
BRANCH  10  11
HETATM   11  O11 UNL     1     -34.765   4.416   5.303  1.00 20.00    -0.395 OA
HETATM   12  H25 UNL     1     -34.581   3.600   4.811  1.00 20.00     0.210 HD
ENDBRANCH  10  11
TORSDOF 1
ENDMDL
MODEL 3
REMARK VINA RESULT:      -5.3      1.383      2.966
REMARK  1 active torsions:
REMARK  status: ('A' for Active; 'I' for Inactive)
REMARK    1  A    between atoms: C10_10  and  O11_11 
ROOT
HETATM    1  C1  UNL     1     -33.225   7.021   6.819  1.00 20.00     0.011 A 
HETATM    2  C2  UNL     1     -33.881   4.316   5.129  1.00 20.00     0.013 A 
HETATM    3  C3  UNL     1     -32.401   8.337   3.500  1.00 20.00     0.013 A 
HETATM    4  C4  UNL     1     -34.580   6.645   6.282  1.00 20.00    -0.005 A 
HETATM    5  C5  UNL     1     -33.881   7.920   5.808  1.00 20.00    -0.005 A 
HETATM    6  C6  UNL     1     -34.878   5.426   5.381  1.00 20.00    -0.003 A 
HETATM    7  C7  UNL     1     -33.593   8.001   4.329  1.00 20.00    -0.003 A 
HETATM    8  C8  UNL     1     -34.423   5.086   3.954  1.00 20.00     0.019 A 
HETATM    9  C9  UNL     1     -32.703   6.895   3.790  1.00 20.00     0.019 A 
HETATM   10  C10 UNL     1     -33.506   5.887   3.053  1.00 20.00     0.127 C 
ENDROOT
BRANCH  10  11
HETATM   11  O11 UNL     1     -32.631   4.985   2.378  1.00 20.00    -0.395 OA
HETATM   12  H25 UNL     1     -31.988   4.682   3.036  1.00 20.00     0.210 HD
ENDBRANCH  10  11
TORSDOF 1
ENDMDL
MODEL 4
REMARK VINA RESULT:      -5.1      1.881      3.887
REMARK  1 active torsions:
REMARK  status: ('A' for Active; 'I' for Inactive)
REMARK    1  A    between atoms: C10_10  and  O11_11 
ROOT
HETATM    1  C1  UNL     1     -33.031   8.654   3.347  1.00 20.00     0.011 A 
HETATM    2  C2  UNL     1     -33.860   5.651   2.397  1.00 20.00     0.013 A 
HETATM    3  C3  UNL     1     -34.238   7.458   6.593  1.00 20.00     0.013 A 
HETATM    4  C4  UNL     1     -32.101   7.470   3.310  1.00 20.00    -0.005 A 
HETATM    5  C5  UNL     1     -32.414   8.174   4.631  1.00 20.00    -0.005 A 
HETATM    6  C6  UNL     1     -32.512   6.020   2.974  1.00 20.00    -0.003 A 
HETATM    7  C7  UNL     1     -33.057   7.319   5.695  1.00 20.00    -0.003 A 
HETATM    8  C8  UNL     1     -33.436   5.034   3.703  1.00 20.00     0.019 A 
HETATM    9  C9  UNL     1     -34.389   6.706   5.302  1.00 20.00     0.019 A 
HETATM   10  C10 UNL     1     -34.229   5.267   4.973  1.00 20.00     0.127 C 
ENDROOT
BRANCH  10  11
HETATM   11  O11 UNL     1     -35.516   4.669   4.821  1.00 20.00    -0.395 OA
HETATM   12  H25 UNL     1     -35.673   4.150   5.624  1.00 20.00     0.210 HD
ENDBRANCH  10  11
TORSDOF 1
ENDMDL
MODEL 5
REMARK VINA RESULT:      -4.8      1.359      2.841
REMARK  1 active torsions:
REMARK  status: ('A' for Active; 'I' for Inactive)
REMARK    1  A    between atoms: C10_10  and  O11_11 
ROOT
HETATM    1  C1  UNL     1     -34.278   8.641   5.246  1.00 20.00     0.011 A 
HETATM    2  C2  UNL     1     -32.627   7.998   2.514  1.00 20.00     0.013 A 
HETATM    3  C3  UNL     1     -34.830   5.018   5.213  1.00 20.00     0.013 A 
HETATM    4  C4  UNL     1     -32.798   8.368   5.173  1.00 20.00    -0.005 A 
HETATM    5  C5  UNL     1     -33.722   7.445   5.970  1.00 20.00    -0.005 A 
HETATM    6  C6  UNL     1     -32.029   7.948   3.902  1.00 20.00    -0.003 A 
HETATM    7  C7  UNL     1     -33.756   6.005   5.523  1.00 20.00    -0.003 A 
HETATM    8  C8  UNL     1     -32.116   6.682   3.037  1.00 20.00     0.019 A 
HETATM    9  C9  UNL     1     -34.205   5.792   4.088  1.00 20.00     0.019 A 
HETATM   10  C10 UNL     1     -33.043   5.496   3.213  1.00 20.00     0.127 C 
ENDROOT
BRANCH  10  11
HETATM   11  O11 UNL     1     -33.508   5.089   1.927  1.00 20.00    -0.395 OA
HETATM   12  H25 UNL     1     -34.462   4.938   2.016  1.00 20.00     0.210 HD
ENDBRANCH  10  11
TORSDOF 1
ENDMDL
MODEL 6
REMARK VINA RESULT:      -4.7      1.130      2.870
REMARK  1 active torsions:
REMARK  status: ('A' for Active; 'I' for Inactive)
REMARK    1  A    between atoms: C10_10  and  O11_11 
ROOT
HETATM    1  C1  UNL     1     -33.378   4.329   4.318  1.00 20.00     0.011 A 
HETATM    2  C2  UNL     1     -31.750   6.849   3.054  1.00 20.00     0.013 A 
HETATM    3  C3  UNL     1     -34.433   6.839   6.770  1.00 20.00     0.013 A 
HETATM    4  C4  UNL     1     -33.896   5.238   3.235  1.00 20.00    -0.005 A 
HETATM    5  C5  UNL     1     -34.613   5.144   4.582  1.00 20.00    -0.005 A 
HETATM    6  C6  UNL     1     -33.182   6.503   2.712  1.00 20.00    -0.003 A 
HETATM    7  C7  UNL     1     -34.714   6.431   5.365  1.00 20.00    -0.003 A 
HETATM    8  C8  UNL     1     -32.837   7.830   3.403  1.00 20.00     0.019 A 
HETATM    9  C9  UNL     1     -33.382   7.065   5.722  1.00 20.00     0.019 A 
HETATM   10  C10 UNL     1     -33.101   8.227   4.842  1.00 20.00     0.127 C 
ENDROOT
BRANCH  10  11
HETATM   11  O11 UNL     1     -31.962   8.932   5.334  1.00 20.00    -0.395 OA
HETATM   12  H25 UNL     1     -31.877   9.730   4.791  1.00 20.00     0.210 HD
ENDBRANCH  10  11
TORSDOF 1
ENDMDL
MODEL 7
REMARK VINA RESULT:      -4.4     12.413     13.703
REMARK  1 active torsions:
REMARK  status: ('A' for Active; 'I' for Inactive)
REMARK    1  A    between atoms: C10_10  and  O11_11 
ROOT
HETATM    1  C1  UNL     1     -36.263  17.609  -4.558  1.00 20.00     0.011 A 
HETATM    2  C2  UNL     1     -35.432  15.004  -6.325  1.00 20.00     0.013 A 
HETATM    3  C3  UNL     1     -33.300  16.662  -2.622  1.00 20.00     0.013 A 
HETATM    4  C4  UNL     1     -35.393  17.639  -5.786  1.00 20.00    -0.005 A 
HETATM    5  C5  UNL     1     -34.843  18.088  -4.431  1.00 20.00    -0.005 A 
HETATM    6  C6  UNL     1     -34.898  16.399  -6.561  1.00 20.00    -0.003 A 
HETATM    7  C7  UNL     1     -33.656  17.314  -3.914  1.00 20.00    -0.003 A 
HETATM    8  C8  UNL     1     -33.958  15.256  -6.151  1.00 20.00     0.019 A 
HETATM    9  C9  UNL     1     -33.901  15.828  -3.716  1.00 20.00     0.019 A 
HETATM   10  C10 UNL     1     -33.280  15.043  -4.813  1.00 20.00     0.127 C 
ENDROOT
BRANCH  10  11
HETATM   11  O11 UNL     1     -33.335  13.654  -4.492  1.00 20.00    -0.395 OA
HETATM   12  H25 UNL     1     -33.159  13.584  -3.541  1.00 20.00     0.210 HD
ENDBRANCH  10  11
TORSDOF 1
ENDMDL
MODEL 8
REMARK VINA RESULT:      -4.1     12.424     13.692
REMARK  1 active torsions:
REMARK  status: ('A' for Active; 'I' for Inactive)
REMARK    1  A    between atoms: C10_10  and  O11_11 
ROOT
HETATM    1  C1  UNL     1     -36.086  15.980  -6.224  1.00 20.00     0.011 A 
HETATM    2  C2  UNL     1     -34.272  14.313  -4.094  1.00 20.00     0.013 A 
HETATM    3  C3  UNL     1     -34.882  18.852  -4.293  1.00 20.00     0.013 A 
HETATM    4  C4  UNL     1     -34.650  15.581  -6.437  1.00 20.00    -0.005 A 
HETATM    5  C5  UNL     1     -35.051  17.056  -6.399  1.00 20.00    -0.005 A 
HETATM    6  C6  UNL     1     -33.747  14.895  -5.388  1.00 20.00    -0.003 A 
HETATM    7  C7  UNL     1     -34.400  17.888  -5.322  1.00 20.00    -0.003 A 
HETATM    8  C8  UNL     1     -33.216  15.385  -4.032  1.00 20.00     0.019 A 
HETATM    9  C9  UNL     1     -34.669  17.418  -3.903  1.00 20.00     0.019 A 
HETATM   10  C10 UNL     1     -33.485  16.711  -3.352  1.00 20.00     0.127 C 
ENDROOT
BRANCH  10  11
HETATM   11  O11 UNL     1     -33.681  16.474  -1.958  1.00 20.00    -0.395 OA
HETATM   12  H25 UNL     1     -34.406  15.835  -1.887  1.00 20.00     0.210 HD
ENDBRANCH  10  11
TORSDOF 1
ENDMDL
MODEL 9
REMARK VINA RESULT:      -4.0      1.620      3.233
REMARK  1 active torsions:
REMARK  status: ('A' for Active; 'I' for Inactive)
REMARK    1  A    between atoms: C10_10  and  O11_11 
ROOT
HETATM    1  C1  UNL     1     -33.902   6.053   2.184  1.00 20.00     0.011 A 
HETATM    2  C2  UNL     1     -35.161   5.130   5.042  1.00 20.00     0.013 A 
HETATM    3  C3  UNL     1     -32.383   8.685   4.232  1.00 20.00     0.013 A 
HETATM    4  C4  UNL     1     -33.286   5.040   3.114  1.00 20.00    -0.005 A 
HETATM    5  C5  UNL     1     -32.546   6.333   2.771  1.00 20.00    -0.005 A 
HETATM    6  C6  UNL     1     -33.813   4.683   4.521  1.00 20.00    -0.003 A 
HETATM    7  C7  UNL     1     -32.218   7.233   3.937  1.00 20.00    -0.003 A 
HETATM    8  C8  UNL     1     -33.923   5.519   5.804  1.00 20.00     0.019 A 
HETATM    9  C9  UNL     1     -33.422   7.720   4.724  1.00 20.00     0.019 A 
HETATM   10  C10 UNL     1     -33.550   6.974   6.002  1.00 20.00     0.127 C 
ENDROOT
BRANCH  10  11
HETATM   11  O11 UNL     1     -34.547   7.592   6.814  1.00 20.00    -0.395 OA
HETATM   12  H25 UNL     1     -34.109   7.845   7.641  1.00 20.00     0.210 HD
ENDBRANCH  10  11
TORSDOF 1
ENDMDL
