MODEL 1
REMARK VINA RESULT:      -4.0      0.000      0.000
REMARK  0 active torsions:
REMARK  status: ('A' for Active; 'I' for Inactive)
ROOT
HETATM    1  C1  UNL     1     -32.884   5.677   2.865  1.00 20.00     0.069 C 
HETATM    2  C2  UNL     1     -32.370   8.772   4.847  1.00 20.00     0.007 C 
HETATM    3  C3  UNL     1     -32.001   7.856   3.676  1.00 20.00     0.025 C 
HETATM    4  C4  UNL     1     -33.767   8.348   5.295  1.00 20.00     0.070 C 
HETATM    5  C5  UNL     1     -34.256   5.361   6.399  1.00 20.00     0.197 C 
HETATM    6  C6  UNL     1     -35.376   5.298   5.394  1.00 20.00     0.197 C 
HETATM    7  C7  UNL     1     -33.236   6.988   3.422  1.00 20.00     0.155 C 
HETATM    8  C8  UNL     1     -33.909   6.911   4.796  1.00 20.00     0.180 C 
HETATM    9  N9  UNL     1     -32.605   4.640   2.423  1.00 20.00    -0.197 NA
HETATM   10  O10 UNL     1     -33.213   6.026   5.686  1.00 20.00    -0.352 OA
HETATM   11  O11 UNL     1     -35.286   6.547   4.708  1.00 20.00    -0.352 OA
ENDROOT
TORSDOF 0
ENDMDL
MODEL 2
REMARK VINA RESULT:      -4.0     13.261     14.235
REMARK  0 active torsions:
REMARK  status: ('A' for Active; 'I' for Inactive)
ROOT
HETATM    1  C1  UNL     1     -35.173  14.937  -6.278  1.00 20.00     0.069 C 
HETATM    2  C2  UNL     1     -33.469  16.037  -3.171  1.00 20.00     0.007 C 
HETATM    3  C3  UNL     1     -33.919  14.931  -4.131  1.00 20.00     0.025 C 
HETATM    4  C4  UNL     1     -33.540  17.342  -3.961  1.00 20.00     0.070 C 
HETATM    5  C5  UNL     1     -36.368  18.358  -5.122  1.00 20.00     0.197 C 
HETATM    6  C6  UNL     1     -35.653  18.472  -6.442  1.00 20.00     0.197 C 
HETATM    7  C7  UNL     1     -34.150  15.620  -5.478  1.00 20.00     0.155 C 
HETATM    8  C8  UNL     1     -34.528  17.052  -5.090  1.00 20.00     0.180 C 
HETATM    9  N9  UNL     1     -35.983  14.397  -6.912  1.00 20.00    -0.197 NA
HETATM   10  O10 UNL     1     -35.869  17.135  -4.583  1.00 20.00    -0.352 OA
HETATM   11  O11 UNL     1     -34.345  17.974  -6.163  1.00 20.00    -0.352 OA
ENDROOT
TORSDOF 0
ENDMDL
MODEL 3
REMARK VINA RESULT:      -3.7     12.751     13.778
REMARK  0 active torsions:
REMARK  status: ('A' for Active; 'I' for Inactive)
ROOT
HETATM    1  C1  UNL     1     -33.739  15.197  -3.881  1.00 20.00     0.069 C 
HETATM    2  C2  UNL     1     -33.749  18.326  -1.887  1.00 20.00     0.007 C 
HETATM    3  C3  UNL     1     -33.469  16.826  -2.022  1.00 20.00     0.025 C 
HETATM    4  C4  UNL     1     -33.861  18.868  -3.311  1.00 20.00     0.070 C 
HETATM    5  C5  UNL     1     -36.176  17.770  -5.263  1.00 20.00     0.197 C 
HETATM    6  C6  UNL     1     -35.064  17.519  -6.248  1.00 20.00     0.197 C 
HETATM    7  C7  UNL     1     -33.337  16.562  -3.524  1.00 20.00     0.155 C 
HETATM    8  C8  UNL     1     -34.212  17.646  -4.158  1.00 20.00     0.180 C 
HETATM    9  N9  UNL     1     -34.057  14.116  -4.164  1.00 20.00    -0.197 NA
HETATM   10  O10 UNL     1     -35.612  17.356  -4.019  1.00 20.00    -0.352 OA
HETATM   11  O11 UNL     1     -33.886  17.879  -5.528  1.00 20.00    -0.352 OA
ENDROOT
TORSDOF 0
ENDMDL
MODEL 4
REMARK VINA RESULT:      -3.5      9.895     10.989
REMARK  0 active torsions:
REMARK  status: ('A' for Active; 'I' for Inactive)
ROOT
HETATM    1  C1  UNL     1     -39.881  12.454   6.192  1.00 20.00     0.069 C 
HETATM    2  C2  UNL     1     -42.537  14.818   5.130  1.00 20.00     0.007 C 
HETATM    3  C3  UNL     1     -41.526  13.711   4.815  1.00 20.00     0.025 C 
HETATM    4  C4  UNL     1     -42.729  14.800   6.645  1.00 20.00     0.070 C 
HETATM    5  C5  UNL     1     -40.224  15.394   8.582  1.00 20.00     0.197 C 
HETATM    6  C6  UNL     1     -40.604  14.110   9.272  1.00 20.00     0.197 C 
HETATM    7  C7  UNL     1     -41.233  13.024   6.151  1.00 20.00     0.155 C 
HETATM    8  C8  UNL     1     -41.465  14.131   7.182  1.00 20.00     0.180 C 
HETATM    9  N9  UNL     1     -38.811  12.003   6.226  1.00 20.00    -0.197 NA
HETATM   10  O10 UNL     1     -40.391  15.084   7.199  1.00 20.00    -0.352 OA
HETATM   11  O11 UNL     1     -41.692  13.615   8.494  1.00 20.00    -0.352 OA
ENDROOT
TORSDOF 0
ENDMDL
MODEL 5
REMARK VINA RESULT:      -3.5     13.301     14.322
REMARK  0 active torsions:
REMARK  status: ('A' for Active; 'I' for Inactive)
ROOT
HETATM    1  C1  UNL     1     -34.042  18.052  -4.622  1.00 20.00     0.069 C 
HETATM    2  C2  UNL     1     -33.665  14.388  -4.168  1.00 20.00     0.007 C 
HETATM    3  C3  UNL     1     -33.293  15.827  -3.800  1.00 20.00     0.025 C 
HETATM    4  C4  UNL     1     -34.995  14.470  -4.915  1.00 20.00     0.070 C 
HETATM    5  C5  UNL     1     -35.174  16.103  -7.687  1.00 20.00     0.197 C 
HETATM    6  C6  UNL     1     -36.342  16.814  -7.057  1.00 20.00     0.197 C 
HETATM    7  C7  UNL     1     -34.466  16.693  -4.266  1.00 20.00     0.155 C 
HETATM    8  C8  UNL     1     -35.048  15.903  -5.442  1.00 20.00     0.180 C 
HETATM    9  N9  UNL     1     -33.707  19.127  -4.903  1.00 20.00    -0.197 NA
HETATM   10  O10 UNL     1     -34.232  16.010  -6.618  1.00 20.00    -0.352 OA
HETATM   11  O11 UNL     1     -36.395  16.277  -5.736  1.00 20.00    -0.352 OA
ENDROOT
TORSDOF 0
ENDMDL
MODEL 6
REMARK VINA RESULT:      -3.4     13.586     14.403
REMARK  0 active torsions:
REMARK  status: ('A' for Active; 'I' for Inactive)
ROOT
HETATM    1  C1  UNL     1     -35.813  14.010  -5.325  1.00 20.00     0.069 C 
HETATM    2  C2  UNL     1     -34.362  16.688  -7.444  1.00 20.00     0.007 C 
HETATM    3  C3  UNL     1     -34.267  15.316  -6.770  1.00 20.00     0.025 C 
HETATM    4  C4  UNL     1     -35.845  17.054  -7.459  1.00 20.00     0.070 C 
HETATM    5  C5  UNL     1     -37.438  17.388  -4.679  1.00 20.00     0.197 C 
HETATM    6  C6  UNL     1     -38.438  16.430  -5.272  1.00 20.00     0.197 C 
HETATM    7  C7  UNL     1     -35.711  14.887  -6.497  1.00 20.00     0.155 C 
HETATM    8  C8  UNL     1     -36.456  16.215  -6.338  1.00 20.00     0.180 C 
HETATM    9  N9  UNL     1     -35.895  13.315  -4.398  1.00 20.00    -0.197 NA
HETATM   10  O10 UNL     1     -36.182  16.836  -5.073  1.00 20.00    -0.352 OA
HETATM   11  O11 UNL     1     -37.864  16.076  -6.529  1.00 20.00    -0.352 OA
ENDROOT
TORSDOF 0
ENDMDL
MODEL 7
REMARK VINA RESULT:      -3.3     12.941     14.057
REMARK  0 active torsions:
REMARK  status: ('A' for Active; 'I' for Inactive)
ROOT
HETATM    1  C1  UNL     1     -33.012  17.410  -2.200  1.00 20.00     0.069 C 
HETATM    2  C2  UNL     1     -33.656  15.149  -5.071  1.00 20.00     0.007 C 
HETATM    3  C3  UNL     1     -32.920  15.484  -3.770  1.00 20.00     0.025 C 
HETATM    4  C4  UNL     1     -34.888  16.051  -5.107  1.00 20.00     0.070 C 
HETATM    5  C5  UNL     1     -34.527  19.252  -5.164  1.00 20.00     0.197 C 
HETATM    6  C6  UNL     1     -35.479  19.263  -3.997  1.00 20.00     0.197 C 
HETATM    7  C7  UNL     1     -33.799  16.507  -3.046  1.00 20.00     0.155 C 
HETATM    8  C8  UNL     1     -34.534  17.218  -4.186  1.00 20.00     0.180 C 
HETATM    9  N9  UNL     1     -32.389  18.125  -1.529  1.00 20.00    -0.197 NA
HETATM   10  O10 UNL     1     -33.681  18.136  -4.886  1.00 20.00    -0.352 OA
HETATM   11  O11 UNL     1     -35.719  17.880  -3.742  1.00 20.00    -0.352 OA
ENDROOT
TORSDOF 0
ENDMDL
MODEL 8
REMARK VINA RESULT:      -3.3      9.688     10.752
REMARK  0 active torsions:
REMARK  status: ('A' for Active; 'I' for Inactive)
ROOT
HETATM    1  C1  UNL     1     -42.061  14.405   4.699  1.00 20.00     0.069 C 
HETATM    2  C2  UNL     1     -40.856  15.528   8.024  1.00 20.00     0.007 C 
HETATM    3  C3  UNL     1     -41.616  15.785   6.719  1.00 20.00     0.025 C 
HETATM    4  C4  UNL     1     -40.708  14.012   8.139  1.00 20.00     0.070 C 
HETATM    5  C5  UNL     1     -39.064  12.389   5.893  1.00 20.00     0.197 C 
HETATM    6  C6  UNL     1     -40.284  11.511   5.803  1.00 20.00     0.197 C 
HETATM    7  C7  UNL     1     -41.966  14.403   6.163  1.00 20.00     0.155 C 
HETATM    8  C8  UNL     1     -40.851  13.505   6.705  1.00 20.00     0.180 C 
HETATM    9  N9  UNL     1     -42.137  14.406   3.540  1.00 20.00    -0.197 NA
HETATM   10  O10 UNL     1     -39.613  13.702   6.004  1.00 20.00    -0.352 OA
HETATM   11  O11 UNL     1     -41.211  12.123   6.698  1.00 20.00    -0.352 OA
ENDROOT
TORSDOF 0
ENDMDL
MODEL 9
REMARK VINA RESULT:      -3.3     11.493     13.022
REMARK  0 active torsions:
REMARK  status: ('A' for Active; 'I' for Inactive)
ROOT
HETATM    1  C1  UNL     1     -29.937  -2.902  11.099  1.00 20.00     0.069 C 
HETATM    2  C2  UNL     1     -26.703  -4.677  11.500  1.00 20.00     0.007 C 
HETATM    3  C3  UNL     1     -28.234  -4.661  11.538  1.00 20.00     0.025 C 
HETATM    4  C4  UNL     1     -26.284  -3.455  10.685  1.00 20.00     0.070 C 
HETATM    5  C5  UNL     1     -27.052  -0.502  11.722  1.00 20.00     0.197 C 
HETATM    6  C6  UNL     1     -27.620  -0.293  10.342  1.00 20.00     0.197 C 
HETATM    7  C7  UNL     1     -28.659  -3.477  10.665  1.00 20.00     0.155 C 
HETATM    8  C8  UNL     1     -27.479  -2.507  10.777  1.00 20.00     0.180 C 
HETATM    9  N9  UNL     1     -30.949  -2.448  11.442  1.00 20.00    -0.197 NA
HETATM   10  O10 UNL     1     -27.457  -1.833  12.044  1.00 20.00    -0.352 OA
HETATM   11  O11 UNL     1     -27.448  -1.560   9.709  1.00 20.00    -0.352 OA
ENDROOT
TORSDOF 0
ENDMDL
