MODEL 1
REMARK VINA RESULT:      -5.0      0.000      0.000
REMARK  2 active torsions:
REMARK  status: ('A' for Active; 'I' for Inactive)
REMARK    1  A    between atoms: C3_3  and  C6_6 
REMARK    2  A    between atoms: C3_3  and  O10_10 
ROOT
HETATM    1  C1  UNL     1     -34.796   5.033   5.712  1.00 20.00    -0.003 C 
HETATM    2  C2  UNL     1     -34.326   4.992   4.459  1.00 20.00     0.132 C 
HETATM    3  C4  UNL     1     -34.569   6.219   6.596  1.00 20.00     0.032 C 
HETATM    4  C5  UNL     1     -33.500   7.134   6.003  1.00 20.00     0.046 C 
HETATM    5  C6  UNL     1     -33.704   7.260   4.496  1.00 20.00     0.227 C 
HETATM    6  O9  UNL     1     -33.649   5.999   3.821  1.00 20.00    -0.348 OA
ENDROOT
BRANCH   5   7
HETATM    7  C3  UNL     1     -32.601   8.053   3.878  1.00 20.00     0.288 C 
HETATM    8  O8  UNL     1     -32.188   9.116   4.323  1.00 20.00    -0.262 OA
BRANCH   7   9
HETATM    9  O10 UNL     1     -32.146   7.412   2.764  1.00 20.00    -0.324 OA
HETATM   10  C7  UNL     1     -32.142   8.192   1.564  1.00 20.00     0.213 C 
ENDBRANCH   7   9
ENDBRANCH   5   7
TORSDOF 2
ENDMDL
MODEL 2
REMARK VINA RESULT:      -4.5      0.954      1.606
REMARK  2 active torsions:
REMARK  status: ('A' for Active; 'I' for Inactive)
REMARK    1  A    between atoms: C3_3  and  C6_6 
REMARK    2  A    between atoms: C3_3  and  O10_10 
ROOT
HETATM    1  C1  UNL     1     -34.750   5.469   6.069  1.00 20.00    -0.003 C 
HETATM    2  C2  UNL     1     -34.294   6.682   6.404  1.00 20.00     0.132 C 
HETATM    3  C4  UNL     1     -34.471   4.868   4.727  1.00 20.00     0.032 C 
HETATM    4  C5  UNL     1     -33.934   5.927   3.766  1.00 20.00     0.046 C 
HETATM    5  C6  UNL     1     -32.934   6.824   4.490  1.00 20.00     0.227 C 
HETATM    6  O9  UNL     1     -33.501   7.485   5.626  1.00 20.00    -0.348 OA
ENDROOT
BRANCH   5   7
HETATM    7  C3  UNL     1     -32.485   7.938   3.604  1.00 20.00     0.288 C 
HETATM    8  O8  UNL     1     -32.379   9.102   3.967  1.00 20.00    -0.262 OA
BRANCH   7   9
HETATM    9  O10 UNL     1     -32.224   7.452   2.357  1.00 20.00    -0.324 OA
HETATM   10  C7  UNL     1     -32.255   8.419   1.302  1.00 20.00     0.213 C 
ENDBRANCH   7   9
ENDBRANCH   5   7
TORSDOF 2
ENDMDL
MODEL 3
REMARK VINA RESULT:      -3.9      1.559      3.874
REMARK  2 active torsions:
REMARK  status: ('A' for Active; 'I' for Inactive)
REMARK    1  A    between atoms: C3_3  and  C6_6 
REMARK    2  A    between atoms: C3_3  and  O10_10 
ROOT
HETATM    1  C1  UNL     1     -31.818   8.199   3.591  1.00 20.00    -0.003 C 
HETATM    2  C2  UNL     1     -32.198   7.084   2.955  1.00 20.00     0.132 C 
HETATM    3  C4  UNL     1     -32.555   8.711   4.788  1.00 20.00     0.032 C 
HETATM    4  C5  UNL     1     -33.903   8.007   4.928  1.00 20.00     0.046 C 
HETATM    5  C6  UNL     1     -33.744   6.518   4.634  1.00 20.00     0.227 C 
HETATM    6  O9  UNL     1     -33.232   6.263   3.322  1.00 20.00    -0.348 OA
ENDROOT
BRANCH   5   7
HETATM    7  C3  UNL     1     -35.070   5.832   4.649  1.00 20.00     0.288 C 
HETATM    8  O8  UNL     1     -36.031   6.182   3.978  1.00 20.00    -0.262 OA
BRANCH   7   9
HETATM    9  O10 UNL     1     -35.029   4.779   5.515  1.00 20.00    -0.324 OA
HETATM   10  C7  UNL     1     -34.223   4.974   6.682  1.00 20.00     0.213 C 
ENDBRANCH   7   9
ENDBRANCH   5   7
TORSDOF 2
ENDMDL
MODEL 4
REMARK VINA RESULT:      -3.9     12.211     12.648
REMARK  2 active torsions:
REMARK  status: ('A' for Active; 'I' for Inactive)
REMARK    1  A    between atoms: C3_3  and  C6_6 
REMARK    2  A    between atoms: C3_3  and  O10_10 
ROOT
HETATM    1  C1  UNL     1     -29.787  19.262   4.134  1.00 20.00    -0.003 C 
HETATM    2  C2  UNL     1     -29.106  19.207   2.982  1.00 20.00     0.132 C 
HETATM    3  C4  UNL     1     -31.269  19.060   4.180  1.00 20.00     0.032 C 
HETATM    4  C5  UNL     1     -31.864  19.132   2.775  1.00 20.00     0.046 C 
HETATM    5  C6  UNL     1     -30.963  18.391   1.791  1.00 20.00     0.227 C 
HETATM    6  O9  UNL     1     -29.633  18.920   1.750  1.00 20.00    -0.348 OA
ENDROOT
BRANCH   5   7
HETATM    7  C3  UNL     1     -31.463  18.550   0.394  1.00 20.00     0.288 C 
HETATM    8  O8  UNL     1     -30.744  18.766  -0.572  1.00 20.00    -0.262 OA
BRANCH   7   9
HETATM    9  O10 UNL     1     -32.821  18.418   0.378  1.00 20.00    -0.324 OA
HETATM   10  C7  UNL     1     -33.381  17.982  -0.865  1.00 20.00     0.213 C 
ENDBRANCH   7   9
ENDBRANCH   5   7
TORSDOF 2
ENDMDL
MODEL 5
REMARK VINA RESULT:      -3.8     11.622     13.025
REMARK  2 active torsions:
REMARK  status: ('A' for Active; 'I' for Inactive)
REMARK    1  A    between atoms: C3_3  and  C6_6 
REMARK    2  A    between atoms: C3_3  and  O10_10 
ROOT
HETATM    1  C1  UNL     1     -32.948  18.844  -2.650  1.00 20.00    -0.003 C 
HETATM    2  C2  UNL     1     -33.375  18.664  -3.906  1.00 20.00     0.132 C 
HETATM    3  C4  UNL     1     -32.824  17.700  -1.692  1.00 20.00     0.032 C 
HETATM    4  C5  UNL     1     -33.545  16.467  -2.233  1.00 20.00     0.046 C 
HETATM    5  C6  UNL     1     -33.273  16.321  -3.727  1.00 20.00     0.227 C 
HETATM    6  O9  UNL     1     -33.694  17.462  -4.482  1.00 20.00    -0.348 OA
ENDROOT
BRANCH   5   7
HETATM    7  C3  UNL     1     -34.063  15.192  -4.300  1.00 20.00     0.288 C 
HETATM    8  O8  UNL     1     -33.868  14.013  -4.032  1.00 20.00    -0.262 OA
BRANCH   7   9
HETATM    9  O10 UNL     1     -35.010  15.682  -5.150  1.00 20.00    -0.324 OA
HETATM   10  C7  UNL     1     -35.825  14.699  -5.796  1.00 20.00     0.213 C 
ENDBRANCH   7   9
ENDBRANCH   5   7
TORSDOF 2
ENDMDL
MODEL 6
REMARK VINA RESULT:      -3.7     11.577     12.921
REMARK  2 active torsions:
REMARK  status: ('A' for Active; 'I' for Inactive)
REMARK    1  A    between atoms: C3_3  and  C6_6 
REMARK    2  A    between atoms: C3_3  and  O10_10 
ROOT
HETATM    1  C1  UNL     1     -34.350  18.239  -2.657  1.00 20.00    -0.003 C 
HETATM    2  C2  UNL     1     -35.134  18.043  -3.724  1.00 20.00     0.132 C 
HETATM    3  C4  UNL     1     -33.268  17.271  -2.290  1.00 20.00     0.032 C 
HETATM    4  C5  UNL     1     -33.435  15.963  -3.060  1.00 20.00     0.046 C 
HETATM    5  C6  UNL     1     -33.818  16.257  -4.507  1.00 20.00     0.227 C 
HETATM    6  O9  UNL     1     -35.032  17.009  -4.618  1.00 20.00    -0.348 OA
ENDROOT
BRANCH   5   7
HETATM    7  C3  UNL     1     -34.103  14.992  -5.246  1.00 20.00     0.288 C 
HETATM    8  O8  UNL     1     -33.945  14.852  -6.452  1.00 20.00    -0.262 OA
BRANCH   7   9
HETATM    9  O10 UNL     1     -34.556  14.046  -4.374  1.00 20.00    -0.324 OA
HETATM   10  C7  UNL     1     -35.895  13.594  -4.600  1.00 20.00     0.213 C 
ENDBRANCH   7   9
ENDBRANCH   5   7
TORSDOF 2
ENDMDL
MODEL 7
REMARK VINA RESULT:      -3.6      1.585      4.267
REMARK  2 active torsions:
REMARK  status: ('A' for Active; 'I' for Inactive)
REMARK    1  A    between atoms: C3_3  and  C6_6 
REMARK    2  A    between atoms: C3_3  and  O10_10 
ROOT
HETATM    1  C1  UNL     1     -32.159   8.509   3.586  1.00 20.00    -0.003 C 
HETATM    2  C2  UNL     1     -32.801   8.302   4.743  1.00 20.00     0.132 C 
HETATM    3  C4  UNL     1     -32.189   7.501   2.481  1.00 20.00     0.032 C 
HETATM    4  C5  UNL     1     -32.726   6.164   2.988  1.00 20.00     0.046 C 
HETATM    5  C6  UNL     1     -33.913   6.401   3.917  1.00 20.00     0.227 C 
HETATM    6  O9  UNL     1     -33.581   7.216   5.046  1.00 20.00    -0.348 OA
ENDROOT
BRANCH   5   7
HETATM    7  C3  UNL     1     -34.379   5.116   4.517  1.00 20.00     0.288 C 
HETATM    8  O8  UNL     1     -34.022   4.010   4.133  1.00 20.00    -0.262 OA
BRANCH   7   9
HETATM    9  O10 UNL     1     -35.246   5.378   5.537  1.00 20.00    -0.324 OA
HETATM   10  C7  UNL     1     -34.696   5.269   6.854  1.00 20.00     0.213 C 
ENDBRANCH   7   9
ENDBRANCH   5   7
TORSDOF 2
ENDMDL
MODEL 8
REMARK VINA RESULT:      -3.6     12.204     12.934
REMARK  2 active torsions:
REMARK  status: ('A' for Active; 'I' for Inactive)
REMARK    1  A    between atoms: C3_3  and  C6_6 
REMARK    2  A    between atoms: C3_3  and  O10_10 
ROOT
HETATM    1  C1  UNL     1     -32.278  18.709   0.813  1.00 20.00    -0.003 C 
HETATM    2  C2  UNL     1     -31.439  18.915  -0.210  1.00 20.00     0.132 C 
HETATM    3  C4  UNL     1     -33.664  18.187   0.599  1.00 20.00     0.032 C 
HETATM    4  C5  UNL     1     -34.044  18.264  -0.878  1.00 20.00     0.046 C 
HETATM    5  C6  UNL     1     -32.862  17.836  -1.741  1.00 20.00     0.227 C 
HETATM    6  O9  UNL     1     -31.698  18.641  -1.528  1.00 20.00    -0.348 OA
ENDROOT
BRANCH   5   7
HETATM    7  C3  UNL     1     -33.172  18.018  -3.190  1.00 20.00     0.288 C 
HETATM    8  O8  UNL     1     -32.771  18.956  -3.865  1.00 20.00    -0.262 OA
BRANCH   7   9
HETATM    9  O10 UNL     1     -33.958  16.989  -3.621  1.00 20.00    -0.324 OA
HETATM   10  C7  UNL     1     -33.293  15.732  -3.781  1.00 20.00     0.213 C 
ENDBRANCH   7   9
ENDBRANCH   5   7
TORSDOF 2
ENDMDL
MODEL 9
REMARK VINA RESULT:      -3.6     15.030     15.826
REMARK  2 active torsions:
REMARK  status: ('A' for Active; 'I' for Inactive)
REMARK    1  A    between atoms: C3_3  and  C6_6 
REMARK    2  A    between atoms: C3_3  and  O10_10 
ROOT
HETATM    1  C1  UNL     1     -25.690  17.264  12.289  1.00 20.00    -0.003 C 
HETATM    2  C2  UNL     1     -24.803  16.308  11.987  1.00 20.00     0.132 C 
HETATM    3  C4  UNL     1     -25.561  18.654  11.749  1.00 20.00     0.032 C 
HETATM    4  C5  UNL     1     -24.176  18.867  11.142  1.00 20.00     0.046 C 
HETATM    5  C6  UNL     1     -23.763  17.633  10.345  1.00 20.00     0.227 C 
HETATM    6  O9  UNL     1     -23.733  16.443  11.140  1.00 20.00    -0.348 OA
ENDROOT
BRANCH   5   7
HETATM    7  C3  UNL     1     -22.365  17.772   9.843  1.00 20.00     0.288 C 
HETATM    8  O8  UNL     1     -21.522  18.501  10.351  1.00 20.00    -0.262 OA
BRANCH   7   9
HETATM    9  O10 UNL     1     -22.191  16.973   8.751  1.00 20.00    -0.324 OA
HETATM   10  C7  UNL     1     -21.455  17.559   7.672  1.00 20.00     0.213 C 
ENDBRANCH   7   9
ENDBRANCH   5   7
TORSDOF 2
ENDMDL
