MODEL 1
REMARK VINA RESULT:      -4.4      0.000      0.000
REMARK  1 active torsions:
REMARK  status: ('A' for Active; 'I' for Inactive)
REMARK    1  A    between atoms: C4_4  and  C8_8 
ROOT
HETATM    1  C1  UNL     1     -32.826   8.428   4.028  1.00 20.00     0.012 A 
HETATM    2  C2  UNL     1     -33.448   7.747   5.067  1.00 20.00     0.040 A 
HETATM    3  C3  UNL     1     -32.897   6.427   2.743  1.00 20.00     0.125 A 
HETATM    4  C4  UNL     1     -32.541   7.763   2.840  1.00 20.00    -0.036 A 
HETATM    5  C5  UNL     1     -33.764   6.412   4.871  1.00 20.00     0.102 A 
HETATM    6  N9  UNL     1     -33.502   5.732   3.731  1.00 20.00    -0.253 NA
HETATM    7 BR10 UNL     1     -34.614   5.461   6.279  1.00 20.00    -0.029 Br
ENDROOT
BRANCH   4   8
HETATM    8  C8  UNL     1     -31.878   8.465   1.709  1.00 20.00     0.020 A 
HETATM    9  C6  UNL     1     -32.678   9.436   0.876  1.00 20.00     0.010 A 
HETATM   10  C7  UNL     1     -32.272   8.118   0.294  1.00 20.00     0.010 A 
ENDBRANCH   4   8
TORSDOF 1
ENDMDL
MODEL 2
REMARK VINA RESULT:      -4.2     11.145     11.648
REMARK  1 active torsions:
REMARK  status: ('A' for Active; 'I' for Inactive)
REMARK    1  A    between atoms: C4_4  and  C8_8 
ROOT
HETATM    1  C1  UNL     1     -31.780  18.318  -0.951  1.00 20.00     0.012 A 
HETATM    2  C2  UNL     1     -31.117  18.692   0.212  1.00 20.00     0.040 A 
HETATM    3  C3  UNL     1     -33.781  18.113   0.318  1.00 20.00     0.125 A 
HETATM    4  C4  UNL     1     -33.138  18.021  -0.905  1.00 20.00    -0.036 A 
HETATM    5  C5  UNL     1     -31.851  18.754   1.386  1.00 20.00     0.102 A 
HETATM    6  N9  UNL     1     -33.171  18.473   1.469  1.00 20.00    -0.253 NA
HETATM    7 BR10 UNL     1     -30.964  19.263   2.988  1.00 20.00    -0.029 Br
ENDROOT
BRANCH   4   8
HETATM    8  C8  UNL     1     -33.876  17.620  -2.133  1.00 20.00     0.020 A 
HETATM    9  C6  UNL     1     -33.485  16.348  -2.843  1.00 20.00     0.010 A 
HETATM   10  C7  UNL     1     -33.171  17.672  -3.466  1.00 20.00     0.010 A 
ENDBRANCH   4   8
TORSDOF 1
ENDMDL
MODEL 3
REMARK VINA RESULT:      -4.1     11.521     12.393
REMARK  1 active torsions:
REMARK  status: ('A' for Active; 'I' for Inactive)
REMARK    1  A    between atoms: C4_4  and  C8_8 
ROOT
HETATM    1  C1  UNL     1     -33.660  15.259  -3.792  1.00 20.00     0.012 A 
HETATM    2  C2  UNL     1     -34.296  14.871  -4.965  1.00 20.00     0.040 A 
HETATM    3  C3  UNL     1     -34.135  17.523  -4.344  1.00 20.00     0.125 A 
HETATM    4  C4  UNL     1     -33.574  16.608  -3.468  1.00 20.00    -0.036 A 
HETATM    5  C5  UNL     1     -34.825  15.863  -5.775  1.00 20.00     0.102 A 
HETATM    6  N9  UNL     1     -34.760  17.184  -5.493  1.00 20.00    -0.253 NA
HETATM    7 BR10 UNL     1     -35.699  15.355  -7.384  1.00 20.00    -0.029 Br
ENDROOT
BRANCH   4   8
HETATM    8  C8  UNL     1     -32.901  17.054  -2.218  1.00 20.00     0.020 A 
HETATM    9  C6  UNL     1     -33.743  17.532  -1.061  1.00 20.00     0.010 A 
HETATM   10  C7  UNL     1     -32.934  18.516  -1.847  1.00 20.00     0.010 A 
ENDBRANCH   4   8
TORSDOF 1
ENDMDL
MODEL 4
REMARK VINA RESULT:      -4.0     10.253     11.032
REMARK  1 active torsions:
REMARK  status: ('A' for Active; 'I' for Inactive)
REMARK    1  A    between atoms: C4_4  and  C8_8 
ROOT
HETATM    1  C1  UNL     1     -41.506  13.684   5.127  1.00 20.00     0.012 A 
HETATM    2  C2  UNL     1     -42.226  14.835   5.425  1.00 20.00     0.040 A 
HETATM    3  C3  UNL     1     -40.514  13.806   7.285  1.00 20.00     0.125 A 
HETATM    4  C4  UNL     1     -40.632  13.153   6.069  1.00 20.00    -0.036 A 
HETATM    5  C5  UNL     1     -42.037  15.413   6.670  1.00 20.00     0.102 A 
HETATM    6  N9  UNL     1     -41.196  14.927   7.611  1.00 20.00    -0.253 NA
HETATM    7 BR10 UNL     1     -43.010  16.988   7.099  1.00 20.00    -0.029 Br
ENDROOT
BRANCH   4   8
HETATM    8  C8  UNL     1     -39.850  11.921   5.780  1.00 20.00     0.020 A 
HETATM    9  C6  UNL     1     -38.373  12.039   5.492  1.00 20.00     0.010 A 
HETATM   10  C7  UNL     1     -39.322  11.695   4.385  1.00 20.00     0.010 A 
ENDBRANCH   4   8
TORSDOF 1
ENDMDL
MODEL 5
REMARK VINA RESULT:      -4.0     11.598     12.493
REMARK  1 active torsions:
REMARK  status: ('A' for Active; 'I' for Inactive)
REMARK    1  A    between atoms: C4_4  and  C8_8 
ROOT
HETATM    1  C1  UNL     1     -33.201  17.062  -1.754  1.00 20.00     0.012 A 
HETATM    2  C2  UNL     1     -33.704  16.377  -2.853  1.00 20.00     0.040 A 
HETATM    3  C3  UNL     1     -32.953  18.985  -3.130  1.00 20.00     0.125 A 
HETATM    4  C4  UNL     1     -32.815  18.391  -1.886  1.00 20.00    -0.036 A 
HETATM    5  C5  UNL     1     -33.802  17.061  -4.054  1.00 20.00     0.102 A 
HETATM    6  N9  UNL     1     -33.438  18.353  -4.221  1.00 20.00    -0.253 NA
HETATM    7 BR10 UNL     1     -34.488  16.144  -5.571  1.00 20.00    -0.029 Br
ENDROOT
BRANCH   4   8
HETATM    8  C8  UNL     1     -32.274  19.151  -0.727  1.00 20.00     0.020 A 
HETATM    9  C6  UNL     1     -31.046  18.636  -0.019  1.00 20.00     0.010 A 
HETATM   10  C7  UNL     1     -32.380  18.558   0.656  1.00 20.00     0.010 A 
ENDBRANCH   4   8
TORSDOF 1
ENDMDL
MODEL 6
REMARK VINA RESULT:      -4.0     10.226     10.977
REMARK  1 active torsions:
REMARK  status: ('A' for Active; 'I' for Inactive)
REMARK    1  A    between atoms: C4_4  and  C8_8 
ROOT
HETATM    1  C1  UNL     1     -40.424  13.892   7.259  1.00 20.00     0.012 A 
HETATM    2  C2  UNL     1     -41.142  15.060   7.482  1.00 20.00     0.040 A 
HETATM    3  C3  UNL     1     -41.478  13.711   5.134  1.00 20.00     0.125 A 
HETATM    4  C4  UNL     1     -40.589  13.198   6.065  1.00 20.00    -0.036 A 
HETATM    5  C5  UNL     1     -42.006  15.491   6.488  1.00 20.00     0.102 A 
HETATM    6  N9  UNL     1     -42.193  14.843   5.316  1.00 20.00    -0.253 NA
HETATM    7 BR10 UNL     1     -42.999  17.086   6.773  1.00 20.00    -0.029 Br
ENDROOT
BRANCH   4   8
HETATM    8  C8  UNL     1     -39.833  11.945   5.796  1.00 20.00     0.020 A 
HETATM    9  C6  UNL     1     -38.363  12.030   5.466  1.00 20.00     0.010 A 
HETATM   10  C7  UNL     1     -39.345  11.667   4.396  1.00 20.00     0.010 A 
ENDBRANCH   4   8
TORSDOF 1
ENDMDL
MODEL 7
REMARK VINA RESULT:      -3.9     11.267     12.127
REMARK  1 active torsions:
REMARK  status: ('A' for Active; 'I' for Inactive)
REMARK    1  A    between atoms: C4_4  and  C8_8 
ROOT
HETATM    1  C1  UNL     1     -33.513  16.177  -3.624  1.00 20.00     0.012 A 
HETATM    2  C2  UNL     1     -33.309  16.615  -2.321  1.00 20.00     0.040 A 
HETATM    3  C3  UNL     1     -35.080  17.942  -3.917  1.00 20.00     0.125 A 
HETATM    4  C4  UNL     1     -34.414  16.848  -4.444  1.00 20.00    -0.036 A 
HETATM    5  C5  UNL     1     -34.025  17.720  -1.888  1.00 20.00     0.102 A 
HETATM    6  N9  UNL     1     -34.908  18.397  -2.656  1.00 20.00    -0.253 NA
HETATM    7 BR10 UNL     1     -33.762  18.335  -0.110  1.00 20.00    -0.029 Br
ENDROOT
BRANCH   4   8
HETATM    8  C8  UNL     1     -34.652  16.405  -5.844  1.00 20.00     0.020 A 
HETATM    9  C6  UNL     1     -35.539  15.211  -6.096  1.00 20.00     0.010 A 
HETATM   10  C7  UNL     1     -34.062  15.098  -6.313  1.00 20.00     0.010 A 
ENDBRANCH   4   8
TORSDOF 1
ENDMDL
MODEL 8
REMARK VINA RESULT:      -3.9     11.338     12.338
REMARK  1 active torsions:
REMARK  status: ('A' for Active; 'I' for Inactive)
REMARK    1  A    between atoms: C4_4  and  C8_8 
ROOT
HETATM    1  C1  UNL     1     -34.262  17.606  -4.225  1.00 20.00     0.012 A 
HETATM    2  C2  UNL     1     -34.896  17.227  -5.402  1.00 20.00     0.040 A 
HETATM    3  C3  UNL     1     -33.649  15.334  -3.884  1.00 20.00     0.125 A 
HETATM    4  C4  UNL     1     -33.624  16.648  -3.446  1.00 20.00    -0.036 A 
HETATM    5  C5  UNL     1     -34.865  15.888  -5.754  1.00 20.00     0.102 A 
HETATM    6  N9  UNL     1     -34.255  14.927  -5.022  1.00 20.00    -0.253 NA
HETATM    7 BR10 UNL     1     -35.726  15.347  -7.359  1.00 20.00    -0.029 Br
ENDROOT
BRANCH   4   8
HETATM    8  C8  UNL     1     -32.935  17.022  -2.182  1.00 20.00     0.020 A 
HETATM    9  C6  UNL     1     -33.750  17.560  -1.032  1.00 20.00     0.010 A 
HETATM   10  C7  UNL     1     -32.847  18.478  -1.795  1.00 20.00     0.010 A 
ENDBRANCH   4   8
TORSDOF 1
ENDMDL
MODEL 9
REMARK VINA RESULT:      -3.9      2.517      4.479
REMARK  1 active torsions:
REMARK  status: ('A' for Active; 'I' for Inactive)
REMARK    1  A    between atoms: C4_4  and  C8_8 
ROOT
HETATM    1  C1  UNL     1     -33.128   8.370   4.693  1.00 20.00     0.012 A 
HETATM    2  C2  UNL     1     -32.596   8.777   3.475  1.00 20.00     0.040 A 
HETATM    3  C3  UNL     1     -33.393   6.186   3.790  1.00 20.00     0.125 A 
HETATM    4  C4  UNL     1     -33.537   7.051   4.862  1.00 20.00    -0.036 A 
HETATM    5  C5  UNL     1     -32.494   7.834   2.465  1.00 20.00     0.102 A 
HETATM    6  N9  UNL     1     -32.880   6.544   2.591  1.00 20.00    -0.253 NA
HETATM    7 BR10 UNL     1     -31.769   8.368   0.791  1.00 20.00    -0.029 Br
ENDROOT
BRANCH   4   8
HETATM    8  C8  UNL     1     -34.108   6.586   6.154  1.00 20.00     0.020 A 
HETATM    9  C6  UNL     1     -33.648   5.269   6.729  1.00 20.00     0.010 A 
HETATM   10  C7  UNL     1     -35.029   5.390   6.163  1.00 20.00     0.010 A 
ENDBRANCH   4   8
TORSDOF 1
ENDMDL
