MODEL 1
REMARK VINA RESULT:      -3.6      0.000      0.000
REMARK  1 active torsions:
REMARK  status: ('A' for Active; 'I' for Inactive)
REMARK    1  A    between atoms: C2_2  and  C6_6 
ROOT
HETATM    1  C1  UNL     1     -41.537  13.804   5.113  1.00 20.00     0.133 A 
HETATM    2  C2  UNL     1     -40.687  13.200   6.014  1.00 20.00     0.007 A 
HETATM    3  C3  UNL     1     -41.787  15.197   6.789  1.00 20.00     0.143 A 
HETATM    4  N7  UNL     1     -42.169  14.950   5.555  1.00 20.00    -0.245 NA
HETATM    5  S8  UNL     1     -40.668  14.094   7.477  1.00 20.00    -0.066 SA
HETATM    6 BR9  UNL     1     -42.442  16.705   7.762  1.00 20.00    -0.021 Br
ENDROOT
BRANCH   2   7
HETATM    7  C6  UNL     1     -39.875  11.919   5.753  1.00 20.00     0.027 A 
HETATM    8  C4  UNL     1     -38.391  12.042   5.502  1.00 20.00     0.010 A 
HETATM    9  C5  UNL     1     -39.307  11.690   4.373  1.00 20.00     0.010 A 
ENDBRANCH   2   7
TORSDOF 1
ENDMDL
MODEL 2
REMARK VINA RESULT:      -3.5     11.472     11.791
REMARK  1 active torsions:
REMARK  status: ('A' for Active; 'I' for Inactive)
REMARK    1  A    between atoms: C2_2  and  C6_6 
ROOT
HETATM    1  C1  UNL     1     -31.368  18.534  -0.671  1.00 20.00     0.133 A 
HETATM    2  C2  UNL     1     -32.725  18.317  -0.560  1.00 20.00     0.007 A 
HETATM    3  C3  UNL     1     -31.577  18.851   1.489  1.00 20.00     0.143 A 
HETATM    4  N7  UNL     1     -30.708  18.841   0.503  1.00 20.00    -0.245 NA
HETATM    5  S8  UNL     1     -33.205  18.499   1.076  1.00 20.00    -0.066 SA
HETATM    6 BR9  UNL     1     -31.055  19.237   3.286  1.00 20.00    -0.021 Br
ENDROOT
BRANCH   2   7
HETATM    7  C6  UNL     1     -33.670  17.965  -1.722  1.00 20.00     0.027 A 
HETATM    8  C4  UNL     1     -33.547  16.604  -2.366  1.00 20.00     0.010 A 
HETATM    9  C5  UNL     1     -33.090  17.820  -3.109  1.00 20.00     0.010 A 
ENDBRANCH   2   7
TORSDOF 1
ENDMDL
MODEL 3
REMARK VINA RESULT:      -3.4     12.231     12.942
REMARK  1 active torsions:
REMARK  status: ('A' for Active; 'I' for Inactive)
REMARK    1  A    between atoms: C2_2  and  C6_6 
ROOT
HETATM    1  C1  UNL     1     -33.653  15.012  -3.988  1.00 20.00     0.133 A 
HETATM    2  C2  UNL     1     -33.641  16.350  -3.660  1.00 20.00     0.007 A 
HETATM    3  C3  UNL     1     -34.872  15.769  -5.647  1.00 20.00     0.143 A 
HETATM    4  N7  UNL     1     -34.359  14.676  -5.127  1.00 20.00    -0.245 NA
HETATM    5  S8  UNL     1     -34.545  17.236  -4.818  1.00 20.00    -0.066 SA
HETATM    6 BR9  UNL     1     -35.926  15.727  -7.240  1.00 20.00    -0.021 Br
ENDROOT
BRANCH   2   7
HETATM    7  C6  UNL     1     -32.928  16.964  -2.443  1.00 20.00     0.027 A 
HETATM    8  C4  UNL     1     -33.762  17.401  -1.261  1.00 20.00     0.010 A 
HETATM    9  C5  UNL     1     -33.134  18.431  -2.148  1.00 20.00     0.010 A 
ENDBRANCH   2   7
TORSDOF 1
ENDMDL
MODEL 4
REMARK VINA RESULT:      -3.4     10.287     10.627
REMARK  1 active torsions:
REMARK  status: ('A' for Active; 'I' for Inactive)
REMARK    1  A    between atoms: C2_2  and  C6_6 
ROOT
HETATM    1  C1  UNL     1     -32.874   8.522   5.112  1.00 20.00     0.133 A 
HETATM    2  C2  UNL     1     -33.488   7.289   5.070  1.00 20.00     0.007 A 
HETATM    3  C3  UNL     1     -32.550   8.065   2.992  1.00 20.00     0.143 A 
HETATM    4  N7  UNL     1     -32.335   8.969   3.922  1.00 20.00    -0.245 NA
HETATM    5  S8  UNL     1     -33.396   6.654   3.480  1.00 20.00    -0.066 SA
HETATM    6 BR9  UNL     1     -31.953   8.310   1.193  1.00 20.00    -0.021 Br
ENDROOT
BRANCH   2   7
HETATM    7  C6  UNL     1     -34.157   6.583   6.262  1.00 20.00     0.027 A 
HETATM    8  C4  UNL     1     -33.702   5.189   6.625  1.00 20.00     0.010 A 
HETATM    9  C5  UNL     1     -35.044   5.391   5.993  1.00 20.00     0.010 A 
ENDBRANCH   2   7
TORSDOF 1
ENDMDL
MODEL 5
REMARK VINA RESULT:      -3.3     11.266     11.757
REMARK  1 active torsions:
REMARK  status: ('A' for Active; 'I' for Inactive)
REMARK    1  A    between atoms: C2_2  and  C6_6 
ROOT
HETATM    1  C1  UNL     1     -33.278  19.024   1.215  1.00 20.00     0.133 A 
HETATM    2  C2  UNL     1     -32.788  18.632  -0.012  1.00 20.00     0.007 A 
HETATM    3  C3  UNL     1     -31.138  19.044   1.694  1.00 20.00     0.143 A 
HETATM    4  N7  UNL     1     -32.334  19.261   2.195  1.00 20.00    -0.245 NA
HETATM    5  S8  UNL     1     -31.075  18.555   0.050  1.00 20.00    -0.066 SA
HETATM    6 BR9  UNL     1     -29.555  19.263   2.740  1.00 20.00    -0.021 Br
ENDROOT
BRANCH   2   7
HETATM    7  C6  UNL     1     -33.639  18.311  -1.253  1.00 20.00     0.027 A 
HETATM    8  C4  UNL     1     -33.559  16.924  -1.845  1.00 20.00     0.010 A 
HETATM    9  C5  UNL     1     -32.938  18.076  -2.570  1.00 20.00     0.010 A 
ENDBRANCH   2   7
TORSDOF 1
ENDMDL
MODEL 6
REMARK VINA RESULT:      -3.3     10.495     10.929
REMARK  1 active torsions:
REMARK  status: ('A' for Active; 'I' for Inactive)
REMARK    1  A    between atoms: C2_2  and  C6_6 
ROOT
HETATM    1  C1  UNL     1     -32.927   6.108   2.670  1.00 20.00     0.133 A 
HETATM    2  C2  UNL     1     -32.670   7.430   2.965  1.00 20.00     0.007 A 
HETATM    3  C3  UNL     1     -33.786   6.168   4.687  1.00 20.00     0.143 A 
HETATM    4  N7  UNL     1     -33.566   5.382   3.656  1.00 20.00    -0.245 NA
HETATM    5  S8  UNL     1     -33.250   7.791   4.538  1.00 20.00    -0.066 SA
HETATM    6 BR9  UNL     1     -34.654   5.535   6.267  1.00 20.00    -0.021 Br
ENDROOT
BRANCH   2   7
HETATM    7  C6  UNL     1     -31.971   8.434   2.032  1.00 20.00     0.027 A 
HETATM    8  C4  UNL     1     -32.806   9.500   1.363  1.00 20.00     0.010 A 
HETATM    9  C5  UNL     1     -32.260   8.367   0.551  1.00 20.00     0.010 A 
ENDBRANCH   2   7
TORSDOF 1
ENDMDL
MODEL 7
REMARK VINA RESULT:      -3.2     12.472     13.100
REMARK  1 active torsions:
REMARK  status: ('A' for Active; 'I' for Inactive)
REMARK    1  A    between atoms: C2_2  and  C6_6 
ROOT
HETATM    1  C1  UNL     1     -34.127  17.877  -4.557  1.00 20.00     0.133 A 
HETATM    2  C2  UNL     1     -33.724  16.806  -3.790  1.00 20.00     0.007 A 
HETATM    3  C3  UNL     1     -34.854  16.258  -5.845  1.00 20.00     0.143 A 
HETATM    4  N7  UNL     1     -34.776  17.566  -5.736  1.00 20.00    -0.245 NA
HETATM    5  S8  UNL     1     -34.170  15.342  -4.564  1.00 20.00    -0.066 SA
HETATM    6 BR9  UNL     1     -35.686  15.421  -7.348  1.00 20.00    -0.021 Br
ENDROOT
BRANCH   2   7
HETATM    7  C6  UNL     1     -32.985  16.899  -2.443  1.00 20.00     0.027 A 
HETATM    8  C4  UNL     1     -33.754  17.363  -1.228  1.00 20.00     0.010 A 
HETATM    9  C5  UNL     1     -32.734  18.265  -1.850  1.00 20.00     0.010 A 
ENDBRANCH   2   7
TORSDOF 1
ENDMDL
MODEL 8
REMARK VINA RESULT:      -3.2     12.209     12.778
REMARK  1 active torsions:
REMARK  status: ('A' for Active; 'I' for Inactive)
REMARK    1  A    between atoms: C2_2  and  C6_6 
ROOT
HETATM    1  C1  UNL     1     -32.842  19.263  -3.204  1.00 20.00     0.133 A 
HETATM    2  C2  UNL     1     -32.733  18.616  -1.992  1.00 20.00     0.007 A 
HETATM    3  C3  UNL     1     -33.661  17.316  -3.795  1.00 20.00     0.143 A 
HETATM    4  N7  UNL     1     -33.373  18.519  -4.240  1.00 20.00    -0.245 NA
HETATM    5  S8  UNL     1     -33.319  17.011  -2.141  1.00 20.00    -0.066 SA
HETATM    6 BR9  UNL     1     -34.418  15.978  -4.929  1.00 20.00    -0.021 Br
ENDROOT
BRANCH   2   7
HETATM    7  C6  UNL     1     -32.173  19.232  -0.698  1.00 20.00     0.027 A 
HETATM    8  C4  UNL     1     -31.046  18.521   0.013  1.00 20.00     0.010 A 
HETATM    9  C5  UNL     1     -32.419  18.517   0.609  1.00 20.00     0.010 A 
ENDBRANCH   2   7
TORSDOF 1
ENDMDL
MODEL 9
REMARK VINA RESULT:      -3.1     12.581     12.960
REMARK  1 active torsions:
REMARK  status: ('A' for Active; 'I' for Inactive)
REMARK    1  A    between atoms: C2_2  and  C6_6 
ROOT
HETATM    1  C1  UNL     1     -33.212  18.838  -3.912  1.00 20.00     0.133 A 
HETATM    2  C2  UNL     1     -33.888  17.658  -3.691  1.00 20.00     0.007 A 
HETATM    3  C3  UNL     1     -32.453  18.394  -1.903  1.00 20.00     0.143 A 
HETATM    4  N7  UNL     1     -32.388  19.263  -2.888  1.00 20.00    -0.245 NA
HETATM    5  S8  UNL     1     -33.483  17.043  -2.142  1.00 20.00    -0.066 SA
HETATM    6 BR9  UNL     1     -31.452  18.624  -0.291  1.00 20.00    -0.021 Br
ENDROOT
BRANCH   2   7
HETATM    7  C6  UNL     1     -34.859  16.988  -4.678  1.00 20.00     0.027 A 
HETATM    8  C4  UNL     1     -34.355  15.840  -5.521  1.00 20.00     0.010 A 
HETATM    9  C5  UNL     1     -34.624  17.167  -6.159  1.00 20.00     0.010 A 
ENDBRANCH   2   7
TORSDOF 1
ENDMDL
