MODEL 1
REMARK VINA RESULT:      -6.6      0.000      0.000
REMARK  1 active torsions:
REMARK  status: ('A' for Active; 'I' for Inactive)
REMARK    1  A    between atoms: C9_9  and  C10_10 
ROOT
HETATM    1  C1  UNL     1     -32.465   8.802   1.278  1.00 20.00     0.063 C 
HETATM    2  C10 UNL     1     -31.937   7.625   1.939  1.00 20.00     0.163 C 
HETATM    3  N11 UNL     1     -32.868   9.736   0.720  1.00 20.00    -0.197 NA
ENDROOT
BRANCH   2   4
HETATM    4  C9  UNL     1     -32.541   7.543   3.344  1.00 20.00    -0.033 A 
HETATM    5  C6  UNL     1     -32.487   8.401   4.516  1.00 20.00     0.021 A 
HETATM    6  C7  UNL     1     -33.269   7.531   5.165  1.00 20.00    -0.025 A 
HETATM    7  C4  UNL     1     -33.981   7.154   6.393  1.00 20.00     0.012 A 
HETATM    8  C8  UNL     1     -33.322   6.696   4.024  1.00 20.00    -0.019 A 
HETATM    9  C2  UNL     1     -34.678   5.998   6.385  1.00 20.00     0.001 A 
HETATM   10  C3  UNL     1     -34.735   5.133   5.201  1.00 20.00     0.001 A 
HETATM   11  C5  UNL     1     -34.093   5.446   4.056  1.00 20.00     0.013 A 
ENDBRANCH   2   4
TORSDOF 1
ENDMDL
MODEL 2
REMARK VINA RESULT:      -6.0      0.766      1.849
REMARK  1 active torsions:
REMARK  status: ('A' for Active; 'I' for Inactive)
REMARK    1  A    between atoms: C9_9  and  C10_10 
ROOT
HETATM    1  C1  UNL     1     -32.409   8.504   1.107  1.00 20.00     0.063 C 
HETATM    2  C10 UNL     1     -31.767   8.170   2.363  1.00 20.00     0.163 C 
HETATM    3  N11 UNL     1     -32.898   8.794   0.096  1.00 20.00    -0.197 NA
ENDROOT
BRANCH   2   4
HETATM    4  C9  UNL     1     -32.605   7.102   3.071  1.00 20.00    -0.033 A 
HETATM    5  C6  UNL     1     -33.068   5.775   2.702  1.00 20.00     0.021 A 
HETATM    6  C7  UNL     1     -33.666   5.672   3.895  1.00 20.00    -0.025 A 
HETATM    7  C4  UNL     1     -34.475   4.881   4.831  1.00 20.00     0.012 A 
HETATM    8  C8  UNL     1     -33.214   6.963   4.255  1.00 20.00    -0.019 A 
HETATM    9  C2  UNL     1     -34.762   5.430   6.031  1.00 20.00     0.001 A 
HETATM   10  C3  UNL     1     -34.292   6.768   6.405  1.00 20.00     0.001 A 
HETATM   11  C5  UNL     1     -33.548   7.524   5.571  1.00 20.00     0.013 A 
ENDBRANCH   2   4
TORSDOF 1
ENDMDL
MODEL 3
REMARK VINA RESULT:      -4.6     11.635     12.706
REMARK  1 active torsions:
REMARK  status: ('A' for Active; 'I' for Inactive)
REMARK    1  A    between atoms: C9_9  and  C10_10 
ROOT
HETATM    1  C1  UNL     1     -31.774  18.506  -0.105  1.00 20.00     0.063 C 
HETATM    2  C10 UNL     1     -33.187  18.284   0.129  1.00 20.00     0.163 C 
HETATM    3  N11 UNL     1     -30.638  18.684  -0.257  1.00 20.00    -0.197 NA
ENDROOT
BRANCH   2   4
HETATM    4  C9  UNL     1     -33.899  18.196  -1.223  1.00 20.00    -0.033 A 
HETATM    5  C6  UNL     1     -34.927  18.990  -1.874  1.00 20.00     0.021 A 
HETATM    6  C7  UNL     1     -34.863  18.172  -2.931  1.00 20.00    -0.025 A 
HETATM    7  C4  UNL     1     -35.340  17.811  -4.272  1.00 20.00     0.012 A 
HETATM    8  C8  UNL     1     -33.860  17.400  -2.298  1.00 20.00    -0.019 A 
HETATM    9  C2  UNL     1     -34.789  16.730  -4.865  1.00 20.00     0.001 A 
HETATM   10  C3  UNL     1     -33.748  15.931  -4.210  1.00 20.00     0.001 A 
HETATM   11  C5  UNL     1     -33.286  16.232  -2.978  1.00 20.00     0.013 A 
ENDBRANCH   2   4
TORSDOF 1
ENDMDL
MODEL 4
REMARK VINA RESULT:      -4.5     11.451     12.766
REMARK  1 active torsions:
REMARK  status: ('A' for Active; 'I' for Inactive)
REMARK    1  A    between atoms: C9_9  and  C10_10 
ROOT
HETATM    1  C1  UNL     1     -32.106  18.296  -0.864  1.00 20.00     0.063 C 
HETATM    2  C10 UNL     1     -33.398  17.647  -0.952  1.00 20.00     0.163 C 
HETATM    3  N11 UNL     1     -31.072  18.814  -0.757  1.00 20.00    -0.197 NA
ENDROOT
BRANCH   2   4
HETATM    4  C9  UNL     1     -33.792  17.542  -2.428  1.00 20.00    -0.033 A 
HETATM    5  C6  UNL     1     -34.344  18.478  -3.392  1.00 20.00     0.021 A 
HETATM    6  C7  UNL     1     -34.323  17.510  -4.316  1.00 20.00    -0.025 A 
HETATM    7  C4  UNL     1     -34.592  17.082  -5.695  1.00 20.00     0.012 A 
HETATM    8  C8  UNL     1     -33.784  16.599  -3.377  1.00 20.00    -0.019 A 
HETATM    9  C2  UNL     1     -34.306  15.804  -6.022  1.00 20.00     0.001 A 
HETATM   10  C3  UNL     1     -33.745  14.859  -5.050  1.00 20.00     0.001 A 
HETATM   11  C5  UNL     1     -33.486  15.217  -3.774  1.00 20.00     0.013 A 
ENDBRANCH   2   4
TORSDOF 1
ENDMDL
MODEL 5
REMARK VINA RESULT:      -4.5     11.580     12.677
REMARK  1 active torsions:
REMARK  status: ('A' for Active; 'I' for Inactive)
REMARK    1  A    between atoms: C9_9  and  C10_10 
ROOT
HETATM    1  C1  UNL     1     -35.600  15.221  -6.761  1.00 20.00     0.063 C 
HETATM    2  C10 UNL     1     -34.175  15.119  -6.516  1.00 20.00     0.163 C 
HETATM    3  N11 UNL     1     -36.735  15.289  -6.990  1.00 20.00    -0.197 NA
ENDROOT
BRANCH   2   4
HETATM    4  C9  UNL     1     -33.887  15.614  -5.096  1.00 20.00    -0.033 A 
HETATM    5  C6  UNL     1     -33.024  15.151  -4.023  1.00 20.00     0.021 A 
HETATM    6  C7  UNL     1     -33.448  16.170  -3.267  1.00 20.00    -0.025 A 
HETATM    7  C4  UNL     1     -33.400  16.892  -1.989  1.00 20.00     0.012 A 
HETATM    8  C8  UNL     1     -34.288  16.622  -4.312  1.00 20.00    -0.019 A 
HETATM    9  C2  UNL     1     -34.178  17.989  -1.859  1.00 20.00     0.001 A 
HETATM   10  C3  UNL     1     -35.047  18.458  -2.943  1.00 20.00     0.001 A 
HETATM   11  C5  UNL     1     -35.118  17.820  -4.130  1.00 20.00     0.013 A 
ENDBRANCH   2   4
TORSDOF 1
ENDMDL
MODEL 6
REMARK VINA RESULT:      -4.4     11.403     13.284
REMARK  1 active torsions:
REMARK  status: ('A' for Active; 'I' for Inactive)
REMARK    1  A    between atoms: C9_9  and  C10_10 
ROOT
HETATM    1  C1  UNL     1     -32.758  18.248  -2.067  1.00 20.00     0.063 C 
HETATM    2  C10 UNL     1     -33.451  16.986  -1.901  1.00 20.00     0.163 C 
HETATM    3  N11 UNL     1     -32.204  19.263  -2.165  1.00 20.00    -0.197 NA
ENDROOT
BRANCH   2   4
HETATM    4  C9  UNL     1     -33.664  16.361  -3.282  1.00 20.00    -0.033 A 
HETATM    5  C6  UNL     1     -33.538  15.012  -3.808  1.00 20.00     0.021 A 
HETATM    6  C7  UNL     1     -33.913  15.465  -5.010  1.00 20.00    -0.025 A 
HETATM    7  C4  UNL     1     -34.200  15.190  -6.423  1.00 20.00     0.012 A 
HETATM    8  C8  UNL     1     -34.037  16.778  -4.498  1.00 20.00    -0.019 A 
HETATM    9  C2  UNL     1     -34.583  16.227  -7.199  1.00 20.00     0.001 A 
HETATM   10  C3  UNL     1     -34.714  17.588  -6.668  1.00 20.00     0.001 A 
HETATM   11  C5  UNL     1     -34.457  17.878  -5.375  1.00 20.00     0.013 A 
ENDBRANCH   2   4
TORSDOF 1
ENDMDL
MODEL 7
REMARK VINA RESULT:      -4.3      2.472      4.364
REMARK  1 active torsions:
REMARK  status: ('A' for Active; 'I' for Inactive)
REMARK    1  A    between atoms: C9_9  and  C10_10 
ROOT
HETATM    1  C1  UNL     1     -34.539   5.640   6.308  1.00 20.00     0.063 C 
HETATM    2  C10 UNL     1     -34.063   6.964   6.655  1.00 20.00     0.163 C 
HETATM    3  N11 UNL     1     -34.931   4.575   6.064  1.00 20.00    -0.197 NA
ENDROOT
BRANCH   2   4
HETATM    4  C9  UNL     1     -33.491   7.622   5.396  1.00 20.00    -0.033 A 
HETATM    5  C6  UNL     1     -33.113   8.983   5.053  1.00 20.00     0.021 A 
HETATM    6  C7  UNL     1     -32.756   8.557   3.836  1.00 20.00    -0.025 A 
HETATM    7  C4  UNL     1     -32.222   8.865   2.503  1.00 20.00     0.012 A 
HETATM    8  C8  UNL     1     -33.123   7.232   4.170  1.00 20.00    -0.019 A 
HETATM    9  C2  UNL     1     -32.096   7.846   1.626  1.00 20.00     0.001 A 
HETATM   10  C3  UNL     1     -32.475   6.471   1.973  1.00 20.00     0.001 A 
HETATM   11  C5  UNL     1     -32.970   6.152   3.187  1.00 20.00     0.013 A 
ENDBRANCH   2   4
TORSDOF 1
ENDMDL
MODEL 8
REMARK VINA RESULT:      -4.3     11.748     12.070
REMARK  1 active torsions:
REMARK  status: ('A' for Active; 'I' for Inactive)
REMARK    1  A    between atoms: C9_9  and  C10_10 
ROOT
HETATM    1  C1  UNL     1     -33.500  17.593  -1.547  1.00 20.00     0.063 C 
HETATM    2  C10 UNL     1     -33.391  18.854  -0.840  1.00 20.00     0.163 C 
HETATM    3  N11 UNL     1     -33.615  16.597  -2.131  1.00 20.00    -0.197 NA
ENDROOT
BRANCH   2   4
HETATM    4  C9  UNL     1     -32.225  18.761   0.147  1.00 20.00    -0.033 A 
HETATM    5  C6  UNL     1     -30.814  18.441   0.013  1.00 20.00     0.021 A 
HETATM    6  C7  UNL     1     -30.667  18.619   1.331  1.00 20.00    -0.025 A 
HETATM    7  C4  UNL     1     -29.791  18.619   2.509  1.00 20.00     0.012 A 
HETATM    8  C8  UNL     1     -32.041  18.932   1.461  1.00 20.00    -0.019 A 
HETATM    9  C2  UNL     1     -30.343  18.928   3.702  1.00 20.00     0.001 A 
HETATM   10  C3  UNL     1     -31.767  19.254   3.838  1.00 20.00     0.001 A 
HETATM   11  C5  UNL     1     -32.602  19.263   2.777  1.00 20.00     0.013 A 
ENDBRANCH   2   4
TORSDOF 1
ENDMDL
MODEL 9
REMARK VINA RESULT:      -4.2      2.550      4.615
REMARK  1 active torsions:
REMARK  status: ('A' for Active; 'I' for Inactive)
REMARK    1  A    between atoms: C9_9  and  C10_10 
ROOT
HETATM    1  C1  UNL     1     -34.595   4.987   5.899  1.00 20.00     0.063 C 
HETATM    2  C10 UNL     1     -34.165   4.317   4.689  1.00 20.00     0.163 C 
HETATM    3  N11 UNL     1     -34.953   5.493   6.881  1.00 20.00    -0.197 NA
ENDROOT
BRANCH   2   4
HETATM    4  C9  UNL     1     -33.518   5.350   3.762  1.00 20.00    -0.033 A 
HETATM    5  C6  UNL     1     -32.942   5.288   2.430  1.00 20.00     0.021 A 
HETATM    6  C7  UNL     1     -32.678   6.598   2.503  1.00 20.00    -0.025 A 
HETATM    7  C4  UNL     1     -32.127   7.806   1.876  1.00 20.00     0.012 A 
HETATM    8  C8  UNL     1     -33.241   6.659   3.800  1.00 20.00    -0.019 A 
HETATM    9  C2  UNL     1     -32.180   8.958   2.579  1.00 20.00     0.001 A 
HETATM   10  C3  UNL     1     -32.765   9.021   3.922  1.00 20.00     0.001 A 
HETATM   11  C5  UNL     1     -33.280   7.932   4.530  1.00 20.00     0.013 A 
ENDBRANCH   2   4
TORSDOF 1
ENDMDL
