MODEL 1
REMARK VINA RESULT:      -4.7      0.000      0.000
REMARK  2 active torsions:
REMARK  status: ('A' for Active; 'I' for Inactive)
REMARK    1  A    between atoms: C5_5  and  C9_9 
REMARK    2  A    between atoms: C6_6  and  C10_10 
ROOT
HETATM    1  C1  UNL     1     -33.737   7.239   5.745  1.00 20.00     0.131 C 
HETATM    2  C2  UNL     1     -33.146   8.606   5.472  1.00 20.00     0.079 C 
HETATM    3  C3  UNL     1     -32.206   8.553   4.275  1.00 20.00     0.012 C 
HETATM    4  C4  UNL     1     -33.407   6.528   3.374  1.00 20.00     0.016 C 
HETATM    5  C5  UNL     1     -34.383   6.541   4.554  1.00 20.00     0.055 C 
HETATM    6  C6  UNL     1     -32.887   7.937   3.045  1.00 20.00    -0.014 C 
HETATM    7  O11 UNL     1     -33.763   6.778   6.884  1.00 20.00    -0.298 OA
ENDROOT
BRANCH   5   8
HETATM    8  C9  UNL     1     -34.828   5.124   4.903  1.00 20.00     0.007 C 
HETATM    9  C7  UNL     1     -33.851   4.104   4.416  1.00 20.00     0.006 C 
ENDBRANCH   5   8
BRANCH   6  10
HETATM   10  C10 UNL     1     -31.919   7.890   1.863  1.00 20.00     0.000 C 
HETATM   11  C8  UNL     1     -32.384   8.751   0.736  1.00 20.00     0.005 C 
ENDBRANCH   6  10
TORSDOF 2
ENDMDL
MODEL 2
REMARK VINA RESULT:      -4.5      2.120      3.811
REMARK  2 active torsions:
REMARK  status: ('A' for Active; 'I' for Inactive)
REMARK    1  A    between atoms: C5_5  and  C9_9 
REMARK    2  A    between atoms: C6_6  and  C10_10 
ROOT
HETATM    1  C1  UNL     1     -32.530   8.523   3.321  1.00 20.00     0.131 C 
HETATM    2  C2  UNL     1     -32.528   9.273   4.637  1.00 20.00     0.079 C 
HETATM    3  C3  UNL     1     -33.568   8.691   5.584  1.00 20.00     0.012 C 
HETATM    4  C4  UNL     1     -33.468   6.472   4.392  1.00 20.00     0.016 C 
HETATM    5  C5  UNL     1     -32.415   7.007   3.417  1.00 20.00     0.055 C 
HETATM    6  C6  UNL     1     -33.393   7.175   5.757  1.00 20.00    -0.014 C 
HETATM    7  O11 UNL     1     -32.533   9.127   2.250  1.00 20.00    -0.298 OA
ENDROOT
BRANCH   5   8
HETATM    8  C9  UNL     1     -32.557   6.342   2.051  1.00 20.00     0.007 C 
HETATM    9  C7  UNL     1     -32.976   4.913   2.173  1.00 20.00     0.006 C 
ENDBRANCH   5   8
BRANCH   6  10
HETATM   10  C10 UNL     1     -34.453   6.618   6.707  1.00 20.00     0.000 C 
HETATM   11  C8  UNL     1     -34.854   5.230   6.332  1.00 20.00     0.005 C 
ENDBRANCH   6  10
TORSDOF 2
ENDMDL
MODEL 3
REMARK VINA RESULT:      -4.3      1.766      3.207
REMARK  2 active torsions:
REMARK  status: ('A' for Active; 'I' for Inactive)
REMARK    1  A    between atoms: C5_5  and  C9_9 
REMARK    2  A    between atoms: C6_6  and  C10_10 
ROOT
HETATM    1  C1  UNL     1     -34.176   4.764   4.914  1.00 20.00     0.131 C 
HETATM    2  C2  UNL     1     -34.820   5.362   6.147  1.00 20.00     0.079 C 
HETATM    3  C3  UNL     1     -34.124   6.659   6.538  1.00 20.00     0.012 C 
HETATM    4  C4  UNL     1     -33.337   6.994   4.167  1.00 20.00     0.016 C 
HETATM    5  C5  UNL     1     -34.024   5.700   3.721  1.00 20.00     0.055 C 
HETATM    6  C6  UNL     1     -34.055   7.642   5.361  1.00 20.00    -0.014 C 
HETATM    7  O11 UNL     1     -33.884   3.571   4.869  1.00 20.00    -0.298 OA
ENDROOT
BRANCH   5   8
HETATM    8  C9  UNL     1     -33.251   5.042   2.582  1.00 20.00     0.007 C 
HETATM    9  C7  UNL     1     -32.374   6.022   1.872  1.00 20.00     0.006 C 
ENDBRANCH   5   8
BRANCH   6  10
HETATM   10  C10 UNL     1     -33.348   8.930   5.779  1.00 20.00     0.000 C 
HETATM   11  C8  UNL     1     -32.165   9.216   4.913  1.00 20.00     0.005 C 
ENDBRANCH   6  10
TORSDOF 2
ENDMDL
MODEL 4
REMARK VINA RESULT:      -4.0     11.933     13.649
REMARK  2 active torsions:
REMARK  status: ('A' for Active; 'I' for Inactive)
REMARK    1  A    between atoms: C5_5  and  C9_9 
REMARK    2  A    between atoms: C6_6  and  C10_10 
ROOT
HETATM    1  C1  UNL     1     -34.288  15.350  -5.972  1.00 20.00     0.131 C 
HETATM    2  C2  UNL     1     -33.797  14.508  -4.814  1.00 20.00     0.079 C 
HETATM    3  C3  UNL     1     -33.011  15.361  -3.828  1.00 20.00     0.012 C 
HETATM    4  C4  UNL     1     -34.224  17.432  -4.596  1.00 20.00     0.016 C 
HETATM    5  C5  UNL     1     -35.046  16.618  -5.600  1.00 20.00     0.055 C 
HETATM    6  C6  UNL     1     -33.812  16.592  -3.378  1.00 20.00    -0.014 C 
HETATM    7  O11 UNL     1     -34.152  14.969  -7.133  1.00 20.00    -0.298 OA
ENDROOT
BRANCH   5   8
HETATM    8  C9  UNL     1     -35.381  17.457  -6.830  1.00 20.00     0.007 C 
HETATM    9  C7  UNL     1     -34.374  18.538  -7.052  1.00 20.00     0.006 C 
ENDBRANCH   5   8
BRANCH   6  10
HETATM   10  C10 UNL     1     -32.997  17.432  -2.396  1.00 20.00     0.000 C 
HETATM   11  C8  UNL     1     -33.690  17.569  -1.080  1.00 20.00     0.005 C 
ENDBRANCH   6  10
TORSDOF 2
ENDMDL
MODEL 5
REMARK VINA RESULT:      -4.0     10.033     10.826
REMARK  2 active torsions:
REMARK  status: ('A' for Active; 'I' for Inactive)
REMARK    1  A    between atoms: C5_5  and  C9_9 
REMARK    2  A    between atoms: C6_6  and  C10_10 
ROOT
HETATM    1  C1  UNL     1     -40.926  13.616   7.285  1.00 20.00     0.131 C 
HETATM    2  C2  UNL     1     -42.116  14.542   7.408  1.00 20.00     0.079 C 
HETATM    3  C3  UNL     1     -42.348  15.291   6.103  1.00 20.00     0.012 C 
HETATM    4  C4  UNL     1     -41.190  13.466   4.807  1.00 20.00     0.016 C 
HETATM    5  C5  UNL     1     -40.938  12.669   6.091  1.00 20.00     0.055 C 
HETATM    6  C6  UNL     1     -42.456  14.332   4.910  1.00 20.00    -0.014 C 
HETATM    7  O11 UNL     1     -40.059  13.582   8.156  1.00 20.00    -0.298 OA
ENDROOT
BRANCH   5   8
HETATM    8  C9  UNL     1     -39.639  11.875   5.986  1.00 20.00     0.007 C 
HETATM    9  C7  UNL     1     -39.189  11.737   4.568  1.00 20.00     0.006 C 
ENDBRANCH   5   8
BRANCH   6  10
HETATM   10  C10 UNL     1     -42.681  15.110   3.614  1.00 20.00     0.000 C 
HETATM   11  C8  UNL     1     -42.754  16.580   3.859  1.00 20.00     0.005 C 
ENDBRANCH   6  10
TORSDOF 2
ENDMDL
MODEL 6
REMARK VINA RESULT:      -3.9     10.007     11.191
REMARK  2 active torsions:
REMARK  status: ('A' for Active; 'I' for Inactive)
REMARK    1  A    between atoms: C5_5  and  C9_9 
REMARK    2  A    between atoms: C6_6  and  C10_10 
ROOT
HETATM    1  C1  UNL     1     -42.023  15.340   6.270  1.00 20.00     0.131 C 
HETATM    2  C2  UNL     1     -42.337  14.400   5.126  1.00 20.00     0.079 C 
HETATM    3  C3  UNL     1     -41.182  13.435   4.894  1.00 20.00     0.012 C 
HETATM    4  C4  UNL     1     -40.423  13.712   7.282  1.00 20.00     0.016 C 
HETATM    5  C5  UNL     1     -41.572  14.683   7.569  1.00 20.00     0.055 C 
HETATM    6  C6  UNL     1     -40.789  12.701   6.184  1.00 20.00    -0.014 C 
HETATM    7  O11 UNL     1     -42.213  16.550   6.164  1.00 20.00    -0.298 OA
ENDROOT
BRANCH   5   8
HETATM    8  C9  UNL     1     -41.157  15.718   8.611  1.00 20.00     0.007 C 
HETATM    9  C7  UNL     1     -40.105  15.186   9.529  1.00 20.00     0.006 C 
ENDBRANCH   5   8
BRANCH   6  10
HETATM   10  C10 UNL     1     -39.624  11.746   5.924  1.00 20.00     0.000 C 
HETATM   11  C8  UNL     1     -39.221  11.746   4.487  1.00 20.00     0.005 C 
ENDBRANCH   6  10
TORSDOF 2
ENDMDL
MODEL 7
REMARK VINA RESULT:      -3.8     11.913     12.965
REMARK  2 active torsions:
REMARK  status: ('A' for Active; 'I' for Inactive)
REMARK    1  A    between atoms: C5_5  and  C9_9 
REMARK    2  A    between atoms: C6_6  and  C10_10 
ROOT
HETATM    1  C1  UNL     1     -34.743  17.629  -4.067  1.00 20.00     0.131 C 
HETATM    2  C2  UNL     1     -34.476  19.061  -3.655  1.00 20.00     0.079 C 
HETATM    3  C3  UNL     1     -34.109  19.133  -2.180  1.00 20.00     0.012 C 
HETATM    4  C4  UNL     1     -33.313  16.742  -2.223  1.00 20.00     0.016 C 
HETATM    5  C5  UNL     1     -33.659  16.619  -3.710  1.00 20.00     0.055 C 
HETATM    6  C6  UNL     1     -32.951  18.185  -1.836  1.00 20.00    -0.014 C 
HETATM    7  O11 UNL     1     -35.737  17.336  -4.729  1.00 20.00    -0.298 OA
ENDROOT
BRANCH   5   8
HETATM    8  C9  UNL     1     -34.081  15.193  -4.050  1.00 20.00     0.007 C 
HETATM    9  C7  UNL     1     -33.752  14.841  -5.464  1.00 20.00     0.006 C 
ENDBRANCH   5   8
BRANCH   6  10
HETATM   10  C10 UNL     1     -32.608  18.273  -0.350  1.00 20.00     0.000 C 
HETATM   11  C8  UNL     1     -31.164  18.582  -0.134  1.00 20.00     0.005 C 
ENDBRANCH   6  10
TORSDOF 2
ENDMDL
MODEL 8
REMARK VINA RESULT:      -3.7      1.528      2.657
REMARK  2 active torsions:
REMARK  status: ('A' for Active; 'I' for Inactive)
REMARK    1  A    between atoms: C5_5  and  C9_9 
REMARK    2  A    between atoms: C6_6  and  C10_10 
ROOT
HETATM    1  C1  UNL     1     -32.830   8.469   4.720  1.00 20.00     0.131 C 
HETATM    2  C2  UNL     1     -32.399   8.730   3.293  1.00 20.00     0.079 C 
HETATM    3  C3  UNL     1     -32.069   7.423   2.586  1.00 20.00     0.012 C 
HETATM    4  C4  UNL     1     -33.565   6.149   4.163  1.00 20.00     0.016 C 
HETATM    5  C5  UNL     1     -33.936   7.437   4.904  1.00 20.00     0.055 C 
HETATM    6  C6  UNL     1     -33.222   6.415   2.689  1.00 20.00    -0.014 C 
HETATM    7  O11 UNL     1     -32.367   9.125   5.650  1.00 20.00    -0.298 OA
ENDROOT
BRANCH   5   8
HETATM    8  C9  UNL     1     -34.204   7.153   6.379  1.00 20.00     0.007 C 
HETATM    9  C7  UNL     1     -34.531   5.714   6.614  1.00 20.00     0.006 C 
ENDBRANCH   5   8
BRANCH   6  10
HETATM   10  C10 UNL     1     -32.860   5.112   1.978  1.00 20.00     0.000 C 
HETATM   11  C8  UNL     1     -32.963   3.937   2.893  1.00 20.00     0.005 C 
ENDBRANCH   6  10
TORSDOF 2
ENDMDL
MODEL 9
REMARK VINA RESULT:      -3.7      1.606      2.386
REMARK  2 active torsions:
REMARK  status: ('A' for Active; 'I' for Inactive)
REMARK    1  A    between atoms: C5_5  and  C9_9 
REMARK    2  A    between atoms: C6_6  and  C10_10 
ROOT
HETATM    1  C1  UNL     1     -33.718   5.428   4.031  1.00 20.00     0.131 C 
HETATM    2  C2  UNL     1     -32.819   5.374   2.815  1.00 20.00     0.079 C 
HETATM    3  C3  UNL     1     -32.819   6.712   2.089  1.00 20.00     0.012 C 
HETATM    4  C4  UNL     1     -33.467   7.905   4.213  1.00 20.00     0.016 C 
HETATM    5  C5  UNL     1     -33.474   6.585   4.991  1.00 20.00     0.055 C 
HETATM    6  C6  UNL     1     -32.478   7.871   3.037  1.00 20.00    -0.014 C 
HETATM    7  O11 UNL     1     -34.529   4.532   4.257  1.00 20.00    -0.298 OA
ENDROOT
BRANCH   5   8
HETATM    8  C9  UNL     1     -34.513   6.622   6.108  1.00 20.00     0.007 C 
HETATM    9  C7  UNL     1     -34.609   5.310   6.816  1.00 20.00     0.006 C 
ENDBRANCH   5   8
BRANCH   6  10
HETATM   10  C10 UNL     1     -32.493   9.201   2.285  1.00 20.00     0.000 C 
HETATM   11  C8  UNL     1     -32.548   8.999   0.807  1.00 20.00     0.005 C 
ENDBRANCH   6  10
TORSDOF 2
ENDMDL
