MODEL 1
REMARK VINA RESULT:      -4.5      0.000      0.000
REMARK  0 active torsions:
REMARK  status: ('A' for Active; 'I' for Inactive)
ROOT
HETATM    1  C1  UNL     1     -34.183   5.684   4.362  1.00 20.00     0.050 C 
HETATM    2  C2  UNL     1     -34.132   6.169   5.615  1.00 20.00     0.003 C 
HETATM    3  C3  UNL     1     -33.189   6.037   3.305  1.00 20.00     0.027 C 
HETATM    4  C4  UNL     1     -31.904   8.897   4.715  1.00 20.00     0.056 A 
HETATM    5  C5  UNL     1     -32.975   8.380   3.785  1.00 20.00     0.133 A 
HETATM    6  C6  UNL     1     -33.202   8.392   5.266  1.00 20.00     0.108 A 
HETATM    7  C7  UNL     1     -35.028   5.573   6.672  1.00 20.00     0.068 C 
HETATM    8  C8  UNL     1     -32.781   4.891   2.403  1.00 20.00     0.070 C 
HETATM    9  N9  UNL     1     -32.637   7.175   3.044  1.00 20.00    -0.287 NA
HETATM   10  N10 UNL     1     -33.303   7.177   6.063  1.00 20.00    -0.387 N 
HETATM   11  H22 UNL     1     -33.199   7.245   7.071  1.00 20.00     0.159 HD
ENDROOT
TORSDOF 0
ENDMDL
MODEL 2
REMARK VINA RESULT:      -4.4      1.183      3.583
REMARK  0 active torsions:
REMARK  status: ('A' for Active; 'I' for Inactive)
ROOT
HETATM    1  C1  UNL     1     -33.000   6.742   3.136  1.00 20.00     0.050 C 
HETATM    2  C2  UNL     1     -33.171   5.409   3.099  1.00 20.00     0.003 C 
HETATM    3  C3  UNL     1     -33.037   7.538   4.399  1.00 20.00     0.027 C 
HETATM    4  C4  UNL     1     -34.671   5.277   6.407  1.00 20.00     0.056 A 
HETATM    5  C5  UNL     1     -34.885   6.434   5.463  1.00 20.00     0.133 A 
HETATM    6  C6  UNL     1     -34.733   5.042   4.930  1.00 20.00     0.108 A 
HETATM    7  C7  UNL     1     -32.877   4.665   1.820  1.00 20.00     0.068 C 
HETATM    8  C8  UNL     1     -32.015   8.653   4.482  1.00 20.00     0.070 C 
HETATM    9  N9  UNL     1     -33.816   7.420   5.422  1.00 20.00    -0.287 NA
HETATM   10  N10 UNL     1     -33.582   4.613   4.148  1.00 20.00    -0.387 N 
HETATM   11  H22 UNL     1     -33.411   3.617   4.037  1.00 20.00     0.159 HD
ENDROOT
TORSDOF 0
ENDMDL
MODEL 3
REMARK VINA RESULT:      -4.2      1.133      3.471
REMARK  0 active torsions:
REMARK  status: ('A' for Active; 'I' for Inactive)
ROOT
HETATM    1  C1  UNL     1     -33.824   7.476   5.308  1.00 20.00     0.050 C 
HETATM    2  C2  UNL     1     -32.766   7.907   4.600  1.00 20.00     0.003 C 
HETATM    3  C3  UNL     1     -34.268   6.050   5.335  1.00 20.00     0.027 C 
HETATM    4  C4  UNL     1     -32.679   4.944   2.495  1.00 20.00     0.056 A 
HETATM    5  C5  UNL     1     -33.967   5.540   3.008  1.00 20.00     0.133 A 
HETATM    6  C6  UNL     1     -32.808   6.426   2.667  1.00 20.00     0.108 A 
HETATM    7  C7  UNL     1     -32.251   9.306   4.825  1.00 20.00     0.068 C 
HETATM    8  C8  UNL     1     -34.732   5.550   6.688  1.00 20.00     0.070 C 
HETATM    9  N9  UNL     1     -34.323   5.189   4.374  1.00 20.00    -0.287 NA
HETATM   10  N10 UNL     1     -32.060   7.174   3.668  1.00 20.00    -0.387 N 
HETATM   11  H22 UNL     1     -31.147   7.544   3.419  1.00 20.00     0.159 HD
ENDROOT
TORSDOF 0
ENDMDL
MODEL 4
REMARK VINA RESULT:      -3.8     12.128     13.430
REMARK  0 active torsions:
REMARK  status: ('A' for Active; 'I' for Inactive)
ROOT
HETATM    1  C1  UNL     1     -33.196  16.699  -2.662  1.00 20.00     0.050 C 
HETATM    2  C2  UNL     1     -33.722  16.014  -3.693  1.00 20.00     0.003 C 
HETATM    3  C3  UNL     1     -33.957  17.717  -1.880  1.00 20.00     0.027 C 
HETATM    4  C4  UNL     1     -36.477  18.345  -4.132  1.00 20.00     0.056 A 
HETATM    5  C5  UNL     1     -35.099  18.786  -3.702  1.00 20.00     0.133 A 
HETATM    6  C6  UNL     1     -35.263  17.638  -4.651  1.00 20.00     0.108 A 
HETATM    7  C7  UNL     1     -32.963  14.842  -4.262  1.00 20.00     0.068 C 
HETATM    8  C8  UNL     1     -33.697  17.703  -0.388  1.00 20.00     0.070 C 
HETATM    9  N9  UNL     1     -34.794  18.611  -2.290  1.00 20.00    -0.287 NA
HETATM   10  N10 UNL     1     -34.937  16.264  -4.297  1.00 20.00    -0.387 N 
HETATM   11  H22 UNL     1     -35.303  15.511  -4.874  1.00 20.00     0.159 HD
ENDROOT
TORSDOF 0
ENDMDL
MODEL 5
REMARK VINA RESULT:      -3.8     11.981     13.257
REMARK  0 active torsions:
REMARK  status: ('A' for Active; 'I' for Inactive)
ROOT
HETATM    1  C1  UNL     1     -34.635  16.903  -4.744  1.00 20.00     0.050 C 
HETATM    2  C2  UNL     1     -35.463  17.812  -4.201  1.00 20.00     0.003 C 
HETATM    3  C3  UNL     1     -33.782  15.984  -3.933  1.00 20.00     0.027 C 
HETATM    4  C4  UNL     1     -33.836  17.696  -0.953  1.00 20.00     0.056 A 
HETATM    5  C5  UNL     1     -33.078  17.543  -2.249  1.00 20.00     0.133 A 
HETATM    6  C6  UNL     1     -34.272  18.444  -2.175  1.00 20.00     0.108 A 
HETATM    7  C7  UNL     1     -36.457  18.522  -5.086  1.00 20.00     0.068 C 
HETATM    8  C8  UNL     1     -33.674  14.572  -4.471  1.00 20.00     0.070 C 
HETATM    9  N9  UNL     1     -33.118  16.219  -2.850  1.00 20.00    -0.287 NA
HETATM   10  N10 UNL     1     -35.521  18.165  -2.869  1.00 20.00    -0.387 N 
HETATM   11  H22 UNL     1     -36.360  18.661  -2.582  1.00 20.00     0.159 HD
ENDROOT
TORSDOF 0
ENDMDL
MODEL 6
REMARK VINA RESULT:      -3.7     12.342     13.615
REMARK  0 active torsions:
REMARK  status: ('A' for Active; 'I' for Inactive)
ROOT
HETATM    1  C1  UNL     1     -33.311  16.661  -2.484  1.00 20.00     0.050 C 
HETATM    2  C2  UNL     1     -32.867  17.903  -2.225  1.00 20.00     0.003 C 
HETATM    3  C3  UNL     1     -33.704  16.198  -3.849  1.00 20.00     0.027 C 
HETATM    4  C4  UNL     1     -34.154  19.263  -5.340  1.00 20.00     0.056 A 
HETATM    5  C5  UNL     1     -34.862  18.172  -4.574  1.00 20.00     0.133 A 
HETATM    6  C6  UNL     1     -34.102  19.237  -3.844  1.00 20.00     0.108 A 
HETATM    7  C7  UNL     1     -32.268  18.202  -0.873  1.00 20.00     0.068 C 
HETATM    8  C8  UNL     1     -33.291  14.781  -4.187  1.00 20.00     0.070 C 
HETATM    9  N9  UNL     1     -34.349  16.826  -4.775  1.00 20.00    -0.287 NA
HETATM   10  N10 UNL     1     -32.879  18.969  -3.100  1.00 20.00    -0.387 N 
HETATM   11  H22 UNL     1     -32.280  19.750  -2.849  1.00 20.00     0.159 HD
ENDROOT
TORSDOF 0
ENDMDL
MODEL 7
REMARK VINA RESULT:      -3.7     11.932     13.436
REMARK  0 active torsions:
REMARK  status: ('A' for Active; 'I' for Inactive)
ROOT
HETATM    1  C1  UNL     1     -34.312  18.217  -3.512  1.00 20.00     0.050 C 
HETATM    2  C2  UNL     1     -33.648  17.419  -2.657  1.00 20.00     0.003 C 
HETATM    3  C3  UNL     1     -35.338  17.715  -4.474  1.00 20.00     0.027 C 
HETATM    4  C4  UNL     1     -34.475  14.388  -4.485  1.00 20.00     0.056 A 
HETATM    5  C5  UNL     1     -34.221  15.708  -5.171  1.00 20.00     0.133 A 
HETATM    6  C6  UNL     1     -33.472  15.348  -3.924  1.00 20.00     0.108 A 
HETATM    7  C7  UNL     1     -32.815  18.042  -1.565  1.00 20.00     0.068 C 
HETATM    8  C8  UNL     1     -36.546  18.612  -4.645  1.00 20.00     0.070 C 
HETATM    9  N9  UNL     1     -35.340  16.637  -5.184  1.00 20.00    -0.287 NA
HETATM   10  N10 UNL     1     -33.661  16.040  -2.657  1.00 20.00    -0.387 N 
HETATM   11  H22 UNL     1     -33.329  15.597  -1.805  1.00 20.00     0.159 HD
ENDROOT
TORSDOF 0
ENDMDL
MODEL 8
REMARK VINA RESULT:      -3.7      1.221      3.014
REMARK  0 active torsions:
REMARK  status: ('A' for Active; 'I' for Inactive)
ROOT
HETATM    1  C1  UNL     1     -32.532   6.791   3.597  1.00 20.00     0.050 C 
HETATM    2  C2  UNL     1     -32.953   7.757   4.431  1.00 20.00     0.003 C 
HETATM    3  C3  UNL     1     -33.262   5.503   3.397  1.00 20.00     0.027 C 
HETATM    4  C4  UNL     1     -35.187   5.535   6.245  1.00 20.00     0.056 A 
HETATM    5  C5  UNL     1     -33.864   5.077   5.682  1.00 20.00     0.133 A 
HETATM    6  C6  UNL     1     -34.020   6.473   6.204  1.00 20.00     0.108 A 
HETATM    7  C7  UNL     1     -32.289   9.110   4.385  1.00 20.00     0.068 C 
HETATM    8  C8  UNL     1     -33.293   5.001   1.968  1.00 20.00     0.070 C 
HETATM    9  N9  UNL     1     -33.861   4.755   4.264  1.00 20.00    -0.287 NA
HETATM   10  N10 UNL     1     -33.980   7.649   5.347  1.00 20.00    -0.387 N 
HETATM   11  H22 UNL     1     -34.342   8.528   5.706  1.00 20.00     0.159 HD
ENDROOT
TORSDOF 0
ENDMDL
MODEL 9
REMARK VINA RESULT:      -3.7      1.163      2.924
REMARK  0 active torsions:
REMARK  status: ('A' for Active; 'I' for Inactive)
ROOT
HETATM    1  C1  UNL     1     -33.313   7.318   5.327  1.00 20.00     0.050 C 
HETATM    2  C2  UNL     1     -34.223   6.329   5.363  1.00 20.00     0.003 C 
HETATM    3  C3  UNL     1     -32.704   7.827   4.062  1.00 20.00     0.027 C 
HETATM    4  C4  UNL     1     -33.429   5.164   2.012  1.00 20.00     0.056 A 
HETATM    5  C5  UNL     1     -32.385   5.725   2.948  1.00 20.00     0.133 A 
HETATM    6  C6  UNL     1     -33.538   4.935   3.488  1.00 20.00     0.108 A 
HETATM    7  C7  UNL     1     -34.956   6.050   6.651  1.00 20.00     0.068 C 
HETATM    8  C8  UNL     1     -32.508   9.328   4.006  1.00 20.00     0.070 C 
HETATM    9  N9  UNL     1     -32.315   7.175   3.017  1.00 20.00    -0.287 NA
HETATM   10  N10 UNL     1     -34.590   5.524   4.304  1.00 20.00    -0.387 N 
HETATM   11  H22 UNL     1     -35.461   5.014   4.422  1.00 20.00     0.159 HD
ENDROOT
TORSDOF 0
ENDMDL
