MODEL 1
REMARK VINA RESULT:      -5.6      0.000      0.000
REMARK  2 active torsions:
REMARK  status: ('A' for Active; 'I' for Inactive)
REMARK    1  A    between atoms: C7_7  and  C9_9 
REMARK    2  A    between atoms: C8_8  and  C9_9 
ROOT
HETATM    1  C1  UNL     1     -32.791   9.470   0.750  1.00 20.00     0.012 C 
HETATM    2  C2  UNL     1     -32.464   8.754   1.656  1.00 20.00    -0.117 C 
HETATM    3  C8  UNL     1     -32.061   7.876   2.763  1.00 20.00     0.093 C 
ENDROOT
BRANCH   3   4
HETATM    4  C9  UNL     1     -32.511   8.456   4.093  1.00 20.00     0.017 C 
BRANCH   4   5
HETATM    5  C7  UNL     1     -33.675   7.666   4.668  1.00 20.00    -0.006 C 
HETATM    6  C5  UNL     1     -33.832   6.286   4.024  1.00 20.00     0.082 C 
HETATM    7  C3  UNL     1     -34.523   5.514   5.117  1.00 20.00     0.127 C 
HETATM    8  C4  UNL     1     -34.515   6.251   6.432  1.00 20.00     0.079 C 
HETATM    9  O10 UNL     1     -35.036   4.414   4.957  1.00 20.00    -0.298 OA
HETATM   10  C6  UNL     1     -33.507   7.361   6.157  1.00 20.00     0.012 C 
ENDBRANCH   4   5
ENDBRANCH   3   4
TORSDOF 2
ENDMDL
MODEL 2
REMARK VINA RESULT:      -4.6      0.997      1.602
REMARK  2 active torsions:
REMARK  status: ('A' for Active; 'I' for Inactive)
REMARK    1  A    between atoms: C7_7  and  C9_9 
REMARK    2  A    between atoms: C8_8  and  C9_9 
ROOT
HETATM    1  C1  UNL     1     -32.816   9.521   0.257  1.00 20.00     0.012 C 
HETATM    2  C2  UNL     1     -32.502   8.702   1.077  1.00 20.00    -0.117 C 
HETATM    3  C8  UNL     1     -32.115   7.698   2.077  1.00 20.00     0.093 C 
ENDROOT
BRANCH   3   4
HETATM    4  C9  UNL     1     -32.540   8.141   3.466  1.00 20.00     0.017 C 
BRANCH   4   5
HETATM    5  C7  UNL     1     -32.919   6.949   4.329  1.00 20.00    -0.006 C 
HETATM    6  C5  UNL     1     -33.802   7.334   5.519  1.00 20.00     0.082 C 
HETATM    7  C3  UNL     1     -34.536   6.045   5.785  1.00 20.00     0.127 C 
HETATM    8  C4  UNL     1     -34.359   5.045   4.672  1.00 20.00     0.079 C 
HETATM    9  O10 UNL     1     -35.199   5.832   6.792  1.00 20.00    -0.298 OA
HETATM   10  C6  UNL     1     -33.748   5.909   3.575  1.00 20.00     0.012 C 
ENDBRANCH   4   5
ENDBRANCH   3   4
TORSDOF 2
ENDMDL
MODEL 3
REMARK VINA RESULT:      -4.4      2.437      4.667
REMARK  2 active torsions:
REMARK  status: ('A' for Active; 'I' for Inactive)
REMARK    1  A    between atoms: C7_7  and  C9_9 
REMARK    2  A    between atoms: C8_8  and  C9_9 
ROOT
HETATM    1  C1  UNL     1     -34.765   5.046   5.129  1.00 20.00     0.012 C 
HETATM    2  C2  UNL     1     -34.419   6.097   5.592  1.00 20.00    -0.117 C 
HETATM    3  C8  UNL     1     -33.997   7.384   6.163  1.00 20.00     0.093 C 
ENDROOT
BRANCH   3   4
HETATM    4  C9  UNL     1     -32.815   7.944   5.392  1.00 20.00     0.017 C 
BRANCH   4   5
HETATM    5  C7  UNL     1     -33.096   7.968   3.899  1.00 20.00    -0.006 C 
HETATM    6  C5  UNL     1     -33.019   9.375   3.302  1.00 20.00     0.082 C 
HETATM    7  C3  UNL     1     -32.679   9.079   1.864  1.00 20.00     0.127 C 
HETATM    8  C4  UNL     1     -32.274   7.643   1.655  1.00 20.00     0.079 C 
HETATM    9  O10 UNL     1     -32.728   9.910   0.967  1.00 20.00    -0.298 OA
HETATM   10  C6  UNL     1     -32.077   7.166   3.089  1.00 20.00     0.012 C 
ENDBRANCH   4   5
ENDBRANCH   3   4
TORSDOF 2
ENDMDL
MODEL 4
REMARK VINA RESULT:      -4.4     15.475     16.847
REMARK  2 active torsions:
REMARK  status: ('A' for Active; 'I' for Inactive)
REMARK    1  A    between atoms: C7_7  and  C9_9 
REMARK    2  A    between atoms: C8_8  and  C9_9 
ROOT
HETATM    1  C1  UNL     1     -24.448  15.995  11.916  1.00 20.00     0.012 C 
HETATM    2  C2  UNL     1     -24.033  17.120  11.871  1.00 20.00    -0.117 C 
HETATM    3  C8  UNL     1     -23.529  18.499  11.820  1.00 20.00     0.093 C 
ENDROOT
BRANCH   3   4
HETATM    4  C9  UNL     1     -22.045  18.510  11.499  1.00 20.00     0.017 C 
BRANCH   4   5
HETATM    5  C7  UNL     1     -21.808  18.724  10.013  1.00 20.00    -0.006 C 
HETATM    6  C5  UNL     1     -21.360  17.449   9.293  1.00 20.00     0.082 C 
HETATM    7  C3  UNL     1     -21.818  17.717   7.883  1.00 20.00     0.127 C 
HETATM    8  C4  UNL     1     -22.741  18.904   7.796  1.00 20.00     0.079 C 
HETATM    9  O10 UNL     1     -21.478  17.047   6.917  1.00 20.00    -0.298 OA
HETATM   10  C6  UNL     1     -23.073  19.146   9.264  1.00 20.00     0.012 C 
ENDBRANCH   4   5
ENDBRANCH   3   4
TORSDOF 2
ENDMDL
MODEL 5
REMARK VINA RESULT:      -4.3     11.673     12.781
REMARK  2 active torsions:
REMARK  status: ('A' for Active; 'I' for Inactive)
REMARK    1  A    between atoms: C7_7  and  C9_9 
REMARK    2  A    between atoms: C8_8  and  C9_9 
ROOT
HETATM    1  C1  UNL     1     -31.230  18.520  -0.101  1.00 20.00     0.012 C 
HETATM    2  C2  UNL     1     -32.218  18.312  -0.749  1.00 20.00    -0.117 C 
HETATM    3  C8  UNL     1     -33.429  18.063  -1.543  1.00 20.00     0.093 C 
ENDROOT
BRANCH   3   4
HETATM    4  C9  UNL     1     -33.432  16.640  -2.074  1.00 20.00     0.017 C 
BRANCH   4   5
HETATM    5  C7  UNL     1     -33.411  16.622  -3.593  1.00 20.00    -0.006 C 
HETATM    6  C5  UNL     1     -33.680  15.232  -4.175  1.00 20.00     0.082 C 
HETATM    7  C3  UNL     1     -34.240  15.572  -5.532  1.00 20.00     0.127 C 
HETATM    8  C4  UNL     1     -34.580  17.033  -5.662  1.00 20.00     0.079 C 
HETATM    9  O10 UNL     1     -34.398  14.753  -6.429  1.00 20.00    -0.298 OA
HETATM   10  C6  UNL     1     -34.499  17.500  -4.213  1.00 20.00     0.012 C 
ENDBRANCH   4   5
ENDBRANCH   3   4
TORSDOF 2
ENDMDL
MODEL 6
REMARK VINA RESULT:      -4.2     11.587     12.191
REMARK  2 active torsions:
REMARK  status: ('A' for Active; 'I' for Inactive)
REMARK    1  A    between atoms: C7_7  and  C9_9 
REMARK    2  A    between atoms: C8_8  and  C9_9 
ROOT
HETATM    1  C1  UNL     1     -34.006  14.805  -4.102  1.00 20.00     0.012 C 
HETATM    2  C2  UNL     1     -33.487  15.696  -3.488  1.00 20.00    -0.117 C 
HETATM    3  C8  UNL     1     -32.848  16.788  -2.739  1.00 20.00     0.093 C 
ENDROOT
BRANCH   3   4
HETATM    4  C9  UNL     1     -33.861  17.484  -1.847  1.00 20.00     0.017 C 
BRANCH   4   5
HETATM    5  C7  UNL     1     -33.186  18.502  -0.943  1.00 20.00    -0.006 C 
HETATM    6  C5  UNL     1     -33.633  18.389   0.516  1.00 20.00     0.082 C 
HETATM    7  C3  UNL     1     -32.446  18.961   1.246  1.00 20.00     0.127 C 
HETATM    8  C4  UNL     1     -31.247  19.125   0.348  1.00 20.00     0.079 C 
HETATM    9  O10 UNL     1     -32.454  19.262   2.433  1.00 20.00    -0.298 OA
HETATM   10  C6  UNL     1     -31.668  18.326  -0.879  1.00 20.00     0.012 C 
ENDBRANCH   4   5
ENDBRANCH   3   4
TORSDOF 2
ENDMDL
MODEL 7
REMARK VINA RESULT:      -4.0     15.399     16.436
REMARK  2 active torsions:
REMARK  status: ('A' for Active; 'I' for Inactive)
REMARK    1  A    between atoms: C7_7  and  C9_9 
REMARK    2  A    between atoms: C8_8  and  C9_9 
ROOT
HETATM    1  C1  UNL     1     -27.686  18.375  12.329  1.00 20.00     0.012 C 
HETATM    2  C2  UNL     1     -26.544  18.741  12.328  1.00 20.00    -0.117 C 
HETATM    3  C8  UNL     1     -25.145  19.193  12.329  1.00 20.00     0.093 C 
ENDROOT
BRANCH   3   4
HETATM    4  C9  UNL     1     -24.237  18.112  11.770  1.00 20.00     0.017 C 
BRANCH   4   5
HETATM    5  C7  UNL     1     -23.485  18.608  10.546  1.00 20.00    -0.006 C 
HETATM    6  C5  UNL     1     -22.740  17.490   9.813  1.00 20.00     0.082 C 
HETATM    7  C3  UNL     1     -22.664  18.040   8.412  1.00 20.00     0.127 C 
HETATM    8  C4  UNL     1     -23.551  19.242   8.220  1.00 20.00     0.079 C 
HETATM    9  O10 UNL     1     -21.960  17.565   7.530  1.00 20.00    -0.298 OA
HETATM   10  C6  UNL     1     -24.408  19.198   9.479  1.00 20.00     0.012 C 
ENDBRANCH   4   5
ENDBRANCH   3   4
TORSDOF 2
ENDMDL
MODEL 8
REMARK VINA RESULT:      -3.9     10.139     10.774
REMARK  2 active torsions:
REMARK  status: ('A' for Active; 'I' for Inactive)
REMARK    1  A    between atoms: C7_7  and  C9_9 
REMARK    2  A    between atoms: C8_8  and  C9_9 
ROOT
HETATM    1  C1  UNL     1     -38.943  11.644   3.749  1.00 20.00     0.012 C 
HETATM    2  C2  UNL     1     -39.295  11.914   4.864  1.00 20.00    -0.117 C 
HETATM    3  C8  UNL     1     -39.723  12.247   6.230  1.00 20.00     0.093 C 
ENDROOT
BRANCH   3   4
HETATM    4  C9  UNL     1     -41.238  12.331   6.306  1.00 20.00     0.017 C 
BRANCH   4   5
HETATM    5  C7  UNL     1     -41.686  13.685   6.829  1.00 20.00    -0.006 C 
HETATM    6  C5  UNL     1     -40.578  14.427   7.582  1.00 20.00     0.082 C 
HETATM    7  C3  UNL     1     -40.999  15.863   7.410  1.00 20.00     0.127 C 
HETATM    8  C4  UNL     1     -42.090  16.021   6.382  1.00 20.00     0.079 C 
HETATM    9  O10 UNL     1     -40.512  16.797   8.034  1.00 20.00    -0.298 OA
HETATM   10  C6  UNL     1     -42.084  14.651   5.713  1.00 20.00     0.012 C 
ENDBRANCH   4   5
ENDBRANCH   3   4
TORSDOF 2
ENDMDL
MODEL 9
REMARK VINA RESULT:      -3.9     12.005     12.859
REMARK  2 active torsions:
REMARK  status: ('A' for Active; 'I' for Inactive)
REMARK    1  A    between atoms: C7_7  and  C9_9 
REMARK    2  A    between atoms: C8_8  and  C9_9 
ROOT
HETATM    1  C1  UNL     1     -27.601  18.468   4.033  1.00 20.00     0.012 C 
HETATM    2  C2  UNL     1     -28.716  18.790   3.728  1.00 20.00    -0.117 C 
HETATM    3  C8  UNL     1     -30.080  19.189   3.355  1.00 20.00     0.093 C 
ENDROOT
BRANCH   3   4
HETATM    4  C9  UNL     1     -30.648  18.233   2.320  1.00 20.00     0.017 C 
BRANCH   4   5
HETATM    5  C7  UNL     1     -31.357  18.988   1.208  1.00 20.00    -0.006 C 
HETATM    6  C5  UNL     1     -30.943  18.518  -0.188  1.00 20.00     0.082 C 
HETATM    7  C3  UNL     1     -32.154  18.882  -1.006  1.00 20.00     0.127 C 
HETATM    8  C4  UNL     1     -33.334  19.256  -0.147  1.00 20.00     0.079 C 
HETATM    9  O10 UNL     1     -32.177  18.877  -2.230  1.00 20.00    -0.298 OA
HETATM   10  C6  UNL     1     -32.874  18.792   1.229  1.00 20.00     0.012 C 
ENDBRANCH   4   5
ENDBRANCH   3   4
TORSDOF 2
ENDMDL
