MODEL 1
REMARK VINA RESULT:      -5.7      0.000      0.000
REMARK  1 active torsions:
REMARK  status: ('A' for Active; 'I' for Inactive)
REMARK    1  A    between atoms: C10_10  and  O12_12 
ROOT
HETATM    1  C1  UNL     1     -33.377   6.106   6.838  1.00 20.00     0.011 A 
HETATM    2  C2  UNL     1     -32.405   8.747   5.064  1.00 20.00     0.013 A 
HETATM    3  C3  UNL     1     -33.923   4.327   4.082  1.00 20.00     0.013 A 
HETATM    4  C4  UNL     1     -34.193   7.299   6.422  1.00 20.00    -0.005 A 
HETATM    5  C5  UNL     1     -34.676   5.894   6.110  1.00 20.00    -0.005 A 
HETATM    6  C6  UNL     1     -33.822   8.310   5.342  1.00 20.00    -0.003 A 
HETATM    7  C7  UNL     1     -34.834   5.365   4.688  1.00 20.00    -0.003 A 
HETATM    8  C8  UNL     1     -33.176   8.005   4.007  1.00 20.00     0.020 A 
HETATM    9  C9  UNL     1     -33.964   5.712   3.497  1.00 20.00     0.020 A 
HETATM   10  C10 UNL     1     -32.774   6.615   3.615  1.00 20.00     0.129 C 
ENDROOT
BRANCH  10  11
HETATM   11  O12 UNL     1     -32.113   6.680   2.348  1.00 20.00    -0.390 OA
HETATM   12  C11 UNL     1     -32.260   7.961   1.758  1.00 20.00     0.202 C 
ENDBRANCH  10  11
TORSDOF 1
ENDMDL
MODEL 2
REMARK VINA RESULT:      -5.3      1.046      2.868
REMARK  1 active torsions:
REMARK  status: ('A' for Active; 'I' for Inactive)
REMARK    1  A    between atoms: C10_10  and  O12_12 
ROOT
HETATM    1  C1  UNL     1     -35.577   5.803   4.571  1.00 20.00     0.011 A 
HETATM    2  C2  UNL     1     -33.250   5.448   2.220  1.00 20.00     0.013 A 
HETATM    3  C3  UNL     1     -34.029   8.455   5.847  1.00 20.00     0.013 A 
HETATM    4  C4  UNL     1     -34.376   4.897   4.580  1.00 20.00    -0.005 A 
HETATM    5  C5  UNL     1     -34.623   5.853   5.733  1.00 20.00    -0.005 A 
HETATM    6  C6  UNL     1     -33.164   5.001   3.659  1.00 20.00    -0.003 A 
HETATM    7  C7  UNL     1     -33.684   7.004   6.076  1.00 20.00    -0.003 A 
HETATM    8  C8  UNL     1     -32.480   6.276   3.212  1.00 20.00     0.020 A 
HETATM    9  C9  UNL     1     -32.884   7.836   5.094  1.00 20.00     0.020 A 
HETATM   10  C10 UNL     1     -32.979   7.631   3.613  1.00 20.00     0.129 C 
ENDROOT
BRANCH  10  11
HETATM   11  O12 UNL     1     -32.178   8.617   2.955  1.00 20.00    -0.390 OA
HETATM   12  C11 UNL     1     -32.843   9.143   1.819  1.00 20.00     0.202 C 
ENDBRANCH  10  11
TORSDOF 1
ENDMDL
MODEL 3
REMARK VINA RESULT:      -4.5      1.632      3.450
REMARK  1 active torsions:
REMARK  status: ('A' for Active; 'I' for Inactive)
REMARK    1  A    between atoms: C10_10  and  O12_12 
ROOT
HETATM    1  C1  UNL     1     -33.027   8.692   2.484  1.00 20.00     0.011 A 
HETATM    2  C2  UNL     1     -33.907   8.738   5.691  1.00 20.00     0.013 A 
HETATM    3  C3  UNL     1     -33.545   5.414   2.282  1.00 20.00     0.013 A 
HETATM    4  C4  UNL     1     -32.135   8.639   3.694  1.00 20.00    -0.005 A 
HETATM    5  C5  UNL     1     -32.019   7.582   2.610  1.00 20.00    -0.005 A 
HETATM    6  C6  UNL     1     -32.573   8.323   5.120  1.00 20.00    -0.003 A 
HETATM    7  C7  UNL     1     -32.332   6.108   2.849  1.00 20.00    -0.003 A 
HETATM    8  C8  UNL     1     -33.584   7.277   5.541  1.00 20.00     0.020 A 
HETATM    9  C9  UNL     1     -33.395   5.552   3.772  1.00 20.00     0.020 A 
HETATM   10  C10 UNL     1     -34.325   6.438   4.543  1.00 20.00     0.129 C 
ENDROOT
BRANCH  10  11
HETATM   11  O12 UNL     1     -35.264   5.624   5.252  1.00 20.00    -0.390 OA
HETATM   12  C11 UNL     1     -34.716   5.152   6.471  1.00 20.00     0.202 C 
ENDBRANCH  10  11
TORSDOF 1
ENDMDL
MODEL 4
REMARK VINA RESULT:      -4.2     12.130     13.792
REMARK  1 active torsions:
REMARK  status: ('A' for Active; 'I' for Inactive)
REMARK    1  A    between atoms: C10_10  and  O12_12 
ROOT
HETATM    1  C1  UNL     1     -34.700  14.301  -4.299  1.00 20.00     0.011 A 
HETATM    2  C2  UNL     1     -35.948  16.581  -6.376  1.00 20.00     0.013 A 
HETATM    3  C3  UNL     1     -33.534  16.652  -2.257  1.00 20.00     0.013 A 
HETATM    4  C4  UNL     1     -34.080  14.856  -5.553  1.00 20.00    -0.005 A 
HETATM    5  C5  UNL     1     -33.312  14.880  -4.243  1.00 20.00    -0.005 A 
HETATM    6  C6  UNL     1     -34.513  16.123  -6.285  1.00 20.00    -0.003 A 
HETATM    7  C7  UNL     1     -32.904  16.170  -3.540  1.00 20.00    -0.003 A 
HETATM    8  C8  UNL     1     -34.941  17.429  -5.649  1.00 20.00     0.020 A 
HETATM    9  C9  UNL     1     -33.688  17.466  -3.512  1.00 20.00     0.020 A 
HETATM   10  C10 UNL     1     -35.031  17.600  -4.163  1.00 20.00     0.129 C 
ENDROOT
BRANCH  10  11
HETATM   11  O12 UNL     1     -35.551  18.905  -3.892  1.00 20.00    -0.390 OA
HETATM   12  C11 UNL     1     -36.515  18.868  -2.854  1.00 20.00     0.202 C 
ENDBRANCH  10  11
TORSDOF 1
ENDMDL
MODEL 5
REMARK VINA RESULT:      -4.1     12.208     13.805
REMARK  1 active torsions:
REMARK  status: ('A' for Active; 'I' for Inactive)
REMARK    1  A    between atoms: C10_10  and  O12_12 
ROOT
HETATM    1  C1  UNL     1     -34.457  15.916  -6.856  1.00 20.00     0.011 A 
HETATM    2  C2  UNL     1     -32.709  14.818  -4.247  1.00 20.00     0.013 A 
HETATM    3  C3  UNL     1     -35.437  18.622  -5.190  1.00 20.00     0.013 A 
HETATM    4  C4  UNL     1     -34.876  14.922  -5.807  1.00 20.00    -0.005 A 
HETATM    5  C5  UNL     1     -35.744  16.131  -6.106  1.00 20.00    -0.005 A 
HETATM    6  C6  UNL     1     -34.198  14.698  -4.459  1.00 20.00    -0.003 A 
HETATM    7  C7  UNL     1     -36.016  17.233  -5.087  1.00 20.00    -0.003 A 
HETATM    8  C8  UNL     1     -33.639  15.767  -3.544  1.00 20.00     0.020 A 
HETATM    9  C9  UNL     1     -35.055  17.741  -4.033  1.00 20.00     0.020 A 
HETATM   10  C10 UNL     1     -33.655  17.221  -3.912  1.00 20.00     0.129 C 
ENDROOT
BRANCH  10  11
HETATM   11  O12 UNL     1     -32.974  17.950  -2.888  1.00 20.00    -0.390 OA
HETATM   12  C11 UNL     1     -33.303  17.456  -1.600  1.00 20.00     0.202 C 
ENDBRANCH  10  11
TORSDOF 1
ENDMDL
MODEL 6
REMARK VINA RESULT:      -4.0     11.911     13.862
REMARK  1 active torsions:
REMARK  status: ('A' for Active; 'I' for Inactive)
REMARK    1  A    between atoms: C10_10  and  O12_12 
ROOT
HETATM    1  C1  UNL     1     -33.939  17.173  -2.254  1.00 20.00     0.011 A 
HETATM    2  C2  UNL     1     -34.229  14.372  -4.025  1.00 20.00     0.013 A 
HETATM    3  C3  UNL     1     -35.165  18.998  -4.750  1.00 20.00     0.013 A 
HETATM    4  C4  UNL     1     -32.885  16.474  -3.069  1.00 20.00    -0.005 A 
HETATM    5  C5  UNL     1     -33.183  17.945  -3.301  1.00 20.00    -0.005 A 
HETATM    6  C6  UNL     1     -33.131  15.401  -4.125  1.00 20.00    -0.003 A 
HETATM    7  C7  UNL     1     -33.754  18.483  -4.608  1.00 20.00    -0.003 A 
HETATM    8  C8  UNL     1     -34.253  15.378  -5.142  1.00 20.00     0.020 A 
HETATM    9  C9  UNL     1     -34.738  17.778  -5.519  1.00 20.00     0.020 A 
HETATM   10  C10 UNL     1     -35.313  16.436  -5.183  1.00 20.00     0.129 C 
ENDROOT
BRANCH  10  11
HETATM   11  O12 UNL     1     -36.268  16.075  -6.186  1.00 20.00    -0.390 OA
HETATM   12  C11 UNL     1     -35.633  15.499  -7.315  1.00 20.00     0.202 C 
ENDBRANCH  10  11
TORSDOF 1
ENDMDL
MODEL 7
REMARK VINA RESULT:      -3.9     11.710     13.690
REMARK  1 active torsions:
REMARK  status: ('A' for Active; 'I' for Inactive)
REMARK    1  A    between atoms: C10_10  and  O12_12 
ROOT
HETATM    1  C1  UNL     1     -36.276  16.446  -5.386  1.00 20.00     0.011 A 
HETATM    2  C2  UNL     1     -34.640  19.093  -4.210  1.00 20.00     0.013 A 
HETATM    3  C3  UNL     1     -34.077  14.355  -4.028  1.00 20.00     0.013 A 
HETATM    4  C4  UNL     1     -35.265  17.305  -6.095  1.00 20.00    -0.005 A 
HETATM    5  C5  UNL     1     -35.085  15.798  -6.037  1.00 20.00    -0.005 A 
HETATM    6  C6  UNL     1     -34.297  18.283  -5.436  1.00 20.00    -0.003 A 
HETATM    7  C7  UNL     1     -33.922  15.126  -5.315  1.00 20.00    -0.003 A 
HETATM    8  C8  UNL     1     -33.542  18.069  -4.142  1.00 20.00     0.020 A 
HETATM    9  C9  UNL     1     -33.249  15.610  -4.047  1.00 20.00     0.020 A 
HETATM   10  C10 UNL     1     -33.714  16.831  -3.314  1.00 20.00     0.129 C 
ENDROOT
BRANCH  10  11
HETATM   11  O12 UNL     1     -32.940  16.979  -2.119  1.00 20.00    -0.390 OA
HETATM   12  C11 UNL     1     -33.730  17.485  -1.056  1.00 20.00     0.202 C 
ENDBRANCH  10  11
TORSDOF 1
ENDMDL
MODEL 8
REMARK VINA RESULT:      -3.9     12.221     13.694
REMARK  1 active torsions:
REMARK  status: ('A' for Active; 'I' for Inactive)
REMARK    1  A    between atoms: C10_10  and  O12_12 
ROOT
HETATM    1  C1  UNL     1     -32.940  18.355  -3.262  1.00 20.00     0.011 A 
HETATM    2  C2  UNL     1     -35.619  18.876  -5.164  1.00 20.00     0.013 A 
HETATM    3  C3  UNL     1     -32.770  15.169  -4.197  1.00 20.00     0.013 A 
HETATM    4  C4  UNL     1     -34.389  18.326  -2.857  1.00 20.00    -0.005 A 
HETATM    5  C5  UNL     1     -33.483  17.147  -2.549  1.00 20.00    -0.005 A 
HETATM    6  C6  UNL     1     -35.584  18.233  -3.800  1.00 20.00    -0.003 A 
HETATM    7  C7  UNL     1     -33.685  15.762  -3.155  1.00 20.00    -0.003 A 
HETATM    8  C8  UNL     1     -35.683  17.379  -5.047  1.00 20.00     0.020 A 
HETATM    9  C9  UNL     1     -34.205  15.454  -4.545  1.00 20.00     0.020 A 
HETATM   10  C10 UNL     1     -34.541  16.534  -5.527  1.00 20.00     0.129 C 
ENDROOT
BRANCH  10  11
HETATM   11  O12 UNL     1     -34.920  15.932  -6.768  1.00 20.00    -0.390 OA
HETATM   12  C11 UNL     1     -35.796  14.836  -6.561  1.00 20.00     0.202 C 
ENDBRANCH  10  11
TORSDOF 1
ENDMDL
MODEL 9
REMARK VINA RESULT:      -3.7     11.651     13.739
REMARK  1 active torsions:
REMARK  status: ('A' for Active; 'I' for Inactive)
REMARK    1  A    between atoms: C10_10  and  O12_12 
ROOT
HETATM    1  C1  UNL     1     -35.509  18.659  -3.947  1.00 20.00     0.011 A 
HETATM    2  C2  UNL     1     -33.503  16.617  -2.253  1.00 20.00     0.013 A 
HETATM    3  C3  UNL     1     -35.711  16.521  -6.486  1.00 20.00     0.013 A 
HETATM    4  C4  UNL     1     -34.007  18.680  -3.874  1.00 20.00    -0.005 A 
HETATM    5  C5  UNL     1     -34.708  18.650  -5.220  1.00 20.00    -0.005 A 
HETATM    6  C6  UNL     1     -33.115  17.547  -3.375  1.00 20.00    -0.003 A 
HETATM    7  C7  UNL     1     -34.586  17.484  -6.196  1.00 20.00    -0.003 A 
HETATM    8  C8  UNL     1     -33.307  16.068  -3.639  1.00 20.00     0.020 A 
HETATM    9  C9  UNL     1     -34.451  16.019  -5.836  1.00 20.00     0.020 A 
HETATM   10  C10 UNL     1     -34.475  15.541  -4.416  1.00 20.00     0.129 C 
ENDROOT
BRANCH  10  11
HETATM   11  O12 UNL     1     -34.414  14.112  -4.404  1.00 20.00    -0.390 OA
HETATM   12  C11 UNL     1     -35.708  13.542  -4.508  1.00 20.00     0.202 C 
ENDBRANCH  10  11
TORSDOF 1
ENDMDL
