MODEL 1
REMARK VINA RESULT:      -4.5      0.000      0.000
REMARK  0 active torsions:
REMARK  status: ('A' for Active; 'I' for Inactive)
ROOT
HETATM    1  C1  UNL     1     -33.713   6.947   6.437  1.00 20.00    -0.023 C 
HETATM    2  C2  UNL     1     -34.184   5.766   5.991  1.00 20.00    -0.013 C 
HETATM    3  C3  UNL     1     -33.344   5.887   3.593  1.00 20.00     0.140 C 
HETATM    4  C4  UNL     1     -32.272   6.960   3.609  1.00 20.00     0.088 C 
HETATM    5  C5  UNL     1     -34.089   7.697   5.167  1.00 20.00     0.035 C 
HETATM    6  C6  UNL     1     -34.477   6.298   4.600  1.00 20.00     0.042 C 
HETATM    7  C7  UNL     1     -32.970   8.204   4.220  1.00 20.00    -0.033 C 
HETATM    8  C8  UNL     1     -35.892   6.123   4.087  1.00 20.00     0.029 C 
HETATM    9  C9  UNL     1     -31.974   9.085   4.980  1.00 20.00     0.016 C 
HETATM   10  C10 UNL     1     -33.620   9.038   3.100  1.00 20.00     0.016 C 
HETATM   11  O11 UNL     1     -33.253   4.865   2.924  1.00 20.00    -0.297 OA
ENDROOT
TORSDOF 0
ENDMDL
MODEL 2
REMARK VINA RESULT:      -3.8     11.809     13.341
REMARK  0 active torsions:
REMARK  status: ('A' for Active; 'I' for Inactive)
ROOT
HETATM    1  C1  UNL     1     -35.686  18.938  -2.315  1.00 20.00    -0.023 C 
HETATM    2  C2  UNL     1     -35.599  18.532  -3.596  1.00 20.00    -0.013 C 
HETATM    3  C3  UNL     1     -33.597  16.978  -3.382  1.00 20.00     0.140 C 
HETATM    4  C4  UNL     1     -33.479  16.696  -1.896  1.00 20.00     0.088 C 
HETATM    5  C5  UNL     1     -34.181  19.087  -2.148  1.00 20.00     0.035 C 
HETATM    6  C6  UNL     1     -34.083  18.459  -3.571  1.00 20.00     0.042 C 
HETATM    7  C7  UNL     1     -33.412  18.097  -1.234  1.00 20.00    -0.033 C 
HETATM    8  C8  UNL     1     -33.345  19.251  -4.632  1.00 20.00     0.029 C 
HETATM    9  C9  UNL     1     -34.016  18.077   0.173  1.00 20.00     0.016 C 
HETATM   10  C10 UNL     1     -31.946  18.558  -1.140  1.00 20.00     0.016 C 
HETATM   11  O11 UNL     1     -33.385  16.129  -4.240  1.00 20.00    -0.297 OA
ENDROOT
TORSDOF 0
ENDMDL
MODEL 3
REMARK VINA RESULT:      -3.7     12.088     13.396
REMARK  0 active torsions:
REMARK  status: ('A' for Active; 'I' for Inactive)
ROOT
HETATM    1  C1  UNL     1     -33.221  15.785  -3.794  1.00 20.00    -0.023 C 
HETATM    2  C2  UNL     1     -33.332  14.635  -4.486  1.00 20.00    -0.013 C 
HETATM    3  C3  UNL     1     -34.557  15.521  -6.531  1.00 20.00     0.140 C 
HETATM    4  C4  UNL     1     -34.347  17.023  -6.491  1.00 20.00     0.088 C 
HETATM    5  C5  UNL     1     -34.633  16.246  -4.127  1.00 20.00     0.035 C 
HETATM    6  C6  UNL     1     -34.691  14.996  -5.057  1.00 20.00     0.042 C 
HETATM    7  C7  UNL     1     -34.838  17.451  -5.082  1.00 20.00    -0.033 C 
HETATM    8  C8  UNL     1     -35.814  14.006  -4.822  1.00 20.00     0.029 C 
HETATM    9  C9  UNL     1     -34.076  18.679  -4.577  1.00 20.00     0.016 C 
HETATM   10  C10 UNL     1     -36.341  17.782  -5.134  1.00 20.00     0.016 C 
HETATM   11  O11 UNL     1     -34.556  14.876  -7.573  1.00 20.00    -0.297 OA
ENDROOT
TORSDOF 0
ENDMDL
MODEL 4
REMARK VINA RESULT:      -3.6     10.281     11.218
REMARK  0 active torsions:
REMARK  status: ('A' for Active; 'I' for Inactive)
ROOT
HETATM    1  C1  UNL     1     -40.508  12.943   5.086  1.00 20.00    -0.023 C 
HETATM    2  C2  UNL     1     -40.309  12.345   6.276  1.00 20.00    -0.013 C 
HETATM    3  C3  UNL     1     -42.495  12.979   7.409  1.00 20.00     0.140 C 
HETATM    4  C4  UNL     1     -43.416  13.391   6.277  1.00 20.00     0.088 C 
HETATM    5  C5  UNL     1     -41.116  14.197   5.699  1.00 20.00     0.035 C 
HETATM    6  C6  UNL     1     -41.034  13.429   7.053  1.00 20.00     0.042 C 
HETATM    7  C7  UNL     1     -42.628  14.484   5.507  1.00 20.00    -0.033 C 
HETATM    8  C8  UNL     1     -40.267  14.088   8.181  1.00 20.00     0.029 C 
HETATM    9  C9  UNL     1     -42.995  14.493   4.020  1.00 20.00     0.016 C 
HETATM   10  C10 UNL     1     -42.941  15.868   6.106  1.00 20.00     0.016 C 
HETATM   11  O11 UNL     1     -42.883  12.352   8.388  1.00 20.00    -0.297 OA
ENDROOT
TORSDOF 0
ENDMDL
MODEL 5
REMARK VINA RESULT:      -3.4     10.207     10.929
REMARK  0 active torsions:
REMARK  status: ('A' for Active; 'I' for Inactive)
ROOT
HETATM    1  C1  UNL     1     -43.033  13.024   8.067  1.00 20.00    -0.023 C 
HETATM    2  C2  UNL     1     -43.145  12.547   6.813  1.00 20.00    -0.013 C 
HETATM    3  C3  UNL     1     -40.862  13.230   5.924  1.00 20.00     0.140 C 
HETATM    4  C4  UNL     1     -40.030  13.509   7.161  1.00 20.00     0.088 C 
HETATM    5  C5  UNL     1     -42.355  14.315   7.629  1.00 20.00     0.035 C 
HETATM    6  C6  UNL     1     -42.340  13.680   6.205  1.00 20.00     0.042 C 
HETATM    7  C7  UNL     1     -40.859  14.544   7.967  1.00 20.00    -0.033 C 
HETATM    8  C8  UNL     1     -43.000  14.463   5.087  1.00 20.00     0.029 C 
HETATM    9  C9  UNL     1     -40.615  14.402   9.472  1.00 20.00     0.016 C 
HETATM   10  C10 UNL     1     -40.474  15.970   7.532  1.00 20.00     0.016 C 
HETATM   11  O11 UNL     1     -40.407  12.688   4.924  1.00 20.00    -0.297 OA
ENDROOT
TORSDOF 0
ENDMDL
MODEL 6
REMARK VINA RESULT:      -3.4     12.553     13.636
REMARK  0 active torsions:
REMARK  status: ('A' for Active; 'I' for Inactive)
ROOT
HETATM    1  C1  UNL     1     -36.629  15.574  -5.463  1.00 20.00    -0.023 C 
HETATM    2  C2  UNL     1     -35.766  14.555  -5.638  1.00 20.00    -0.013 C 
HETATM    3  C3  UNL     1     -33.695  15.607  -4.604  1.00 20.00     0.140 C 
HETATM    4  C4  UNL     1     -34.218  16.766  -3.778  1.00 20.00     0.088 C 
HETATM    5  C5  UNL     1     -35.615  16.640  -5.853  1.00 20.00     0.035 C 
HETATM    6  C6  UNL     1     -34.584  15.471  -5.891  1.00 20.00     0.042 C 
HETATM    7  C7  UNL     1     -35.067  17.605  -4.770  1.00 20.00    -0.033 C 
HETATM    8  C8  UNL     1     -33.821  15.259  -7.184  1.00 20.00     0.029 C 
HETATM    9  C9  UNL     1     -36.214  18.323  -4.053  1.00 20.00     0.016 C 
HETATM   10  C10 UNL     1     -34.174  18.654  -5.458  1.00 20.00     0.016 C 
HETATM   11  O11 UNL     1     -32.763  14.898  -4.242  1.00 20.00    -0.297 OA
ENDROOT
TORSDOF 0
ENDMDL
MODEL 7
REMARK VINA RESULT:      -3.4     10.607     11.491
REMARK  0 active torsions:
REMARK  status: ('A' for Active; 'I' for Inactive)
ROOT
HETATM    1  C1  UNL     1     -42.121  15.261   5.715  1.00 20.00    -0.023 C 
HETATM    2  C2  UNL     1     -42.415  14.016   5.295  1.00 20.00    -0.013 C 
HETATM    3  C3  UNL     1     -42.529  12.853   7.553  1.00 20.00     0.140 C 
HETATM    4  C4  UNL     1     -42.677  13.975   8.563  1.00 20.00     0.088 C 
HETATM    5  C5  UNL     1     -41.130  14.785   6.768  1.00 20.00     0.035 C 
HETATM    6  C6  UNL     1     -41.601  13.349   6.388  1.00 20.00     0.042 C 
HETATM    7  C7  UNL     1     -41.487  14.926   8.271  1.00 20.00    -0.033 C 
HETATM    8  C8  UNL     1     -40.539  12.363   5.943  1.00 20.00     0.029 C 
HETATM    9  C9  UNL     1     -41.837  16.377   8.612  1.00 20.00     0.016 C 
HETATM   10  C10 UNL     1     -40.264  14.499   9.105  1.00 20.00     0.016 C 
HETATM   11  O11 UNL     1     -43.110  11.779   7.661  1.00 20.00    -0.297 OA
ENDROOT
TORSDOF 0
ENDMDL
MODEL 8
REMARK VINA RESULT:      -3.3     12.287     14.000
REMARK  0 active torsions:
REMARK  status: ('A' for Active; 'I' for Inactive)
ROOT
HETATM    1  C1  UNL     1     -34.718  17.515  -3.908  1.00 20.00    -0.023 C 
HETATM    2  C2  UNL     1     -35.930  17.987  -4.259  1.00 20.00    -0.013 C 
HETATM    3  C3  UNL     1     -36.720  16.030  -5.679  1.00 20.00     0.140 C 
HETATM    4  C4  UNL     1     -35.814  14.877  -5.292  1.00 20.00     0.088 C 
HETATM    5  C5  UNL     1     -34.417  16.956  -5.291  1.00 20.00     0.035 C 
HETATM    6  C6  UNL     1     -35.883  17.358  -5.639  1.00 20.00     0.042 C 
HETATM    7  C7  UNL     1     -34.376  15.420  -5.502  1.00 20.00    -0.033 C 
HETATM    8  C8  UNL     1     -36.088  18.287  -6.819  1.00 20.00     0.029 C 
HETATM    9  C9  UNL     1     -33.387  14.766  -4.533  1.00 20.00     0.016 C 
HETATM   10  C10 UNL     1     -33.920  15.138  -6.946  1.00 20.00     0.016 C 
HETATM   11  O11 UNL     1     -37.914  15.889  -5.916  1.00 20.00    -0.297 OA
ENDROOT
TORSDOF 0
ENDMDL
MODEL 9
REMARK VINA RESULT:      -3.3     12.061     14.076
REMARK  0 active torsions:
REMARK  status: ('A' for Active; 'I' for Inactive)
ROOT
HETATM    1  C1  UNL     1     -34.311  16.391  -7.264  1.00 20.00    -0.023 C 
HETATM    2  C2  UNL     1     -34.127  15.141  -6.797  1.00 20.00    -0.013 C 
HETATM    3  C3  UNL     1     -36.188  14.962  -5.319  1.00 20.00     0.140 C 
HETATM    4  C4  UNL     1     -37.107  16.071  -5.795  1.00 20.00     0.088 C 
HETATM    5  C5  UNL     1     -34.762  16.941  -5.918  1.00 20.00     0.035 C 
HETATM    6  C6  UNL     1     -34.704  15.461  -5.431  1.00 20.00     0.042 C 
HETATM    7  C7  UNL     1     -36.242  17.358  -5.720  1.00 20.00    -0.033 C 
HETATM    8  C8  UNL     1     -33.828  15.157  -4.232  1.00 20.00     0.029 C 
HETATM    9  C9  UNL     1     -36.666  18.376  -6.781  1.00 20.00     0.016 C 
HETATM   10  C10 UNL     1     -36.386  17.999  -4.327  1.00 20.00     0.016 C 
HETATM   11  O11 UNL     1     -36.598  13.861  -4.970  1.00 20.00    -0.297 OA
ENDROOT
TORSDOF 0
ENDMDL
