MODEL 1
REMARK VINA RESULT:      -4.6      0.000      0.000
REMARK  2 active torsions:
REMARK  status: ('A' for Active; 'I' for Inactive)
REMARK    1  A    between atoms: C6_6  and  C10_10 
REMARK    2  A    between atoms: C10_10  and  O11_11 
ROOT
HETATM    1  C1  UNL     1     -34.099   4.570   4.772  1.00 20.00    -0.024 C 
HETATM    2  C2  UNL     1     -33.699   5.504   3.888  1.00 20.00    -0.081 C 
HETATM    3  C3  UNL     1     -34.562   4.875   6.164  1.00 20.00     0.027 C 
HETATM    4  C4  UNL     1     -34.878   6.353   6.375  1.00 20.00     0.004 C 
HETATM    5  C5  UNL     1     -33.790   7.227   5.766  1.00 20.00     0.012 C 
HETATM    6  C6  UNL     1     -33.643   6.982   4.250  1.00 20.00     0.042 C 
HETATM    7  C7  UNL     1     -33.341   5.114   2.480  1.00 20.00     0.043 C 
ENDROOT
BRANCH   6   8
HETATM    8  C10 UNL     1     -32.365   7.673   3.763  1.00 20.00     0.124 C 
HETATM    9  C8  UNL     1     -32.658   8.668   2.657  1.00 20.00     0.040 C 
BRANCH   8  10
HETATM   10  O11 UNL     1     -31.761   8.343   4.861  1.00 20.00    -0.390 OA
HETATM   11  C9  UNL     1     -32.058   9.732   4.852  1.00 20.00     0.202 C 
ENDBRANCH   8  10
ENDBRANCH   6   8
TORSDOF 2
ENDMDL
MODEL 2
REMARK VINA RESULT:      -4.1     11.891     13.503
REMARK  2 active torsions:
REMARK  status: ('A' for Active; 'I' for Inactive)
REMARK    1  A    between atoms: C6_6  and  C10_10 
REMARK    2  A    between atoms: C10_10  and  O11_11 
ROOT
HETATM    1  C1  UNL     1     -35.072  18.398  -2.943  1.00 20.00    -0.024 C 
HETATM    2  C2  UNL     1     -35.010  17.837  -4.165  1.00 20.00    -0.081 C 
HETATM    3  C3  UNL     1     -34.220  17.981  -1.783  1.00 20.00     0.027 C 
HETATM    4  C4  UNL     1     -33.034  17.114  -2.198  1.00 20.00     0.004 C 
HETATM    5  C5  UNL     1     -33.471  16.049  -3.195  1.00 20.00     0.012 C 
HETATM    6  C6  UNL     1     -34.074  16.675  -4.470  1.00 20.00     0.042 C 
HETATM    7  C7  UNL     1     -35.837  18.384  -5.296  1.00 20.00     0.043 C 
ENDROOT
BRANCH   6   8
HETATM    8  C10 UNL     1     -34.739  15.566  -5.293  1.00 20.00     0.124 C 
HETATM    9  C8  UNL     1     -34.011  15.335  -6.603  1.00 20.00     0.040 C 
BRANCH   8  10
HETATM   10  O11 UNL     1     -34.739  14.368  -4.529  1.00 20.00    -0.390 OA
HETATM   11  C9  UNL     1     -35.973  13.673  -4.648  1.00 20.00     0.202 C 
ENDBRANCH   8  10
ENDBRANCH   6   8
TORSDOF 2
ENDMDL
MODEL 3
REMARK VINA RESULT:      -4.1     12.310     13.331
REMARK  2 active torsions:
REMARK  status: ('A' for Active; 'I' for Inactive)
REMARK    1  A    between atoms: C6_6  and  C10_10 
REMARK    2  A    between atoms: C10_10  and  O11_11 
ROOT
HETATM    1  C1  UNL     1     -35.089  17.826  -4.144  1.00 20.00    -0.024 C 
HETATM    2  C2  UNL     1     -35.003  18.221  -2.860  1.00 20.00    -0.081 C 
HETATM    3  C3  UNL     1     -34.258  16.734  -4.745  1.00 20.00     0.027 C 
HETATM    4  C4  UNL     1     -33.562  15.871  -3.695  1.00 20.00     0.004 C 
HETATM    5  C5  UNL     1     -32.940  16.741  -2.612  1.00 20.00     0.012 C 
HETATM    6  C6  UNL     1     -34.000  17.603  -1.895  1.00 20.00     0.042 C 
HETATM    7  C7  UNL     1     -35.944  19.262  -2.320  1.00 20.00     0.043 C 
ENDROOT
BRANCH   6   8
HETATM    8  C10 UNL     1     -33.282  18.642  -1.027  1.00 20.00     0.124 C 
HETATM    9  C8  UNL     1     -33.500  18.378   0.451  1.00 20.00     0.040 C 
BRANCH   8  10
HETATM   10  O11 UNL     1     -31.893  18.600  -1.320  1.00 20.00    -0.390 OA
HETATM   11  C9  UNL     1     -31.106  18.716  -0.142  1.00 20.00     0.202 C 
ENDBRANCH   8  10
ENDBRANCH   6   8
TORSDOF 2
ENDMDL
MODEL 4
REMARK VINA RESULT:      -4.0     12.104     13.103
REMARK  2 active torsions:
REMARK  status: ('A' for Active; 'I' for Inactive)
REMARK    1  A    between atoms: C6_6  and  C10_10 
REMARK    2  A    between atoms: C10_10  and  O11_11 
ROOT
HETATM    1  C1  UNL     1     -32.904  18.697   1.752  1.00 20.00    -0.024 C 
HETATM    2  C2  UNL     1     -33.553  18.975   0.605  1.00 20.00    -0.081 C 
HETATM    3  C3  UNL     1     -31.423  18.487   1.849  1.00 20.00     0.027 C 
HETATM    4  C4  UNL     1     -30.673  18.964   0.609  1.00 20.00     0.004 C 
HETATM    5  C5  UNL     1     -31.386  18.510  -0.658  1.00 20.00     0.012 C 
HETATM    6  C6  UNL     1     -32.825  19.061  -0.730  1.00 20.00     0.042 C 
HETATM    7  C7  UNL     1     -35.029  19.263   0.618  1.00 20.00     0.043 C 
ENDROOT
BRANCH   6   8
HETATM    8  C10 UNL     1     -33.567  18.349  -1.866  1.00 20.00     0.124 C 
HETATM    9  C8  UNL     1     -33.053  18.788  -3.225  1.00 20.00     0.040 C 
BRANCH   8  10
HETATM   10  O11 UNL     1     -33.390  16.948  -1.719  1.00 20.00    -0.390 OA
HETATM   11  C9  UNL     1     -33.315  16.295  -2.979  1.00 20.00     0.202 C 
ENDBRANCH   8  10
ENDBRANCH   6   8
TORSDOF 2
ENDMDL
MODEL 5
REMARK VINA RESULT:      -4.0      1.754      3.782
REMARK  2 active torsions:
REMARK  status: ('A' for Active; 'I' for Inactive)
REMARK    1  A    between atoms: C6_6  and  C10_10 
REMARK    2  A    between atoms: C10_10  and  O11_11 
ROOT
HETATM    1  C1  UNL     1     -32.434   7.545   2.565  1.00 20.00    -0.024 C 
HETATM    2  C2  UNL     1     -32.822   6.446   3.238  1.00 20.00    -0.081 C 
HETATM    3  C3  UNL     1     -32.299   8.905   3.183  1.00 20.00     0.027 C 
HETATM    4  C4  UNL     1     -32.294   8.866   4.708  1.00 20.00     0.004 C 
HETATM    5  C5  UNL     1     -33.388   7.942   5.226  1.00 20.00     0.012 C 
HETATM    6  C6  UNL     1     -33.205   6.498   4.711  1.00 20.00     0.042 C 
HETATM    7  C7  UNL     1     -32.839   5.105   2.558  1.00 20.00     0.043 C 
ENDROOT
BRANCH   6   8
HETATM    8  C10 UNL     1     -34.473   5.699   5.032  1.00 20.00     0.124 C 
HETATM    9  C8  UNL     1     -34.446   5.160   6.450  1.00 20.00     0.040 C 
BRANCH   8  10
HETATM   10  O11 UNL     1     -35.601   6.546   4.865  1.00 20.00    -0.390 OA
HETATM   11  C9  UNL     1     -36.413   6.127   3.776  1.00 20.00     0.202 C 
ENDBRANCH   8  10
ENDBRANCH   6   8
TORSDOF 2
ENDMDL
MODEL 6
REMARK VINA RESULT:      -3.9     12.335     14.165
REMARK  2 active torsions:
REMARK  status: ('A' for Active; 'I' for Inactive)
REMARK    1  A    between atoms: C6_6  and  C10_10 
REMARK    2  A    between atoms: C10_10  and  O11_11 
ROOT
HETATM    1  C1  UNL     1     -33.902  17.352  -3.869  1.00 20.00    -0.024 C 
HETATM    2  C2  UNL     1     -34.466  17.385  -5.092  1.00 20.00    -0.081 C 
HETATM    3  C3  UNL     1     -33.394  16.105  -3.211  1.00 20.00     0.027 C 
HETATM    4  C4  UNL     1     -33.245  14.939  -4.184  1.00 20.00     0.004 C 
HETATM    5  C5  UNL     1     -34.467  14.833  -5.088  1.00 20.00     0.012 C 
HETATM    6  C6  UNL     1     -34.677  16.120  -5.914  1.00 20.00     0.042 C 
HETATM    7  C7  UNL     1     -34.862  18.696  -5.712  1.00 20.00     0.043 C 
ENDROOT
BRANCH   6   8
HETATM    8  C10 UNL     1     -36.056  16.056  -6.577  1.00 20.00     0.124 C 
HETATM    9  C8  UNL     1     -35.996  15.346  -7.916  1.00 20.00     0.040 C 
BRANCH   8  10
HETATM   10  O11 UNL     1     -36.948  15.368  -5.712  1.00 20.00    -0.390 OA
HETATM   11  C9  UNL     1     -37.986  16.220  -5.246  1.00 20.00     0.202 C 
ENDBRANCH   8  10
ENDBRANCH   6   8
TORSDOF 2
ENDMDL
MODEL 7
REMARK VINA RESULT:      -3.9      1.464      2.898
REMARK  2 active torsions:
REMARK  status: ('A' for Active; 'I' for Inactive)
REMARK    1  A    between atoms: C6_6  and  C10_10 
REMARK    2  A    between atoms: C10_10  and  O11_11 
ROOT
HETATM    1  C1  UNL     1     -34.123   7.116   5.130  1.00 20.00    -0.024 C 
HETATM    2  C2  UNL     1     -33.042   7.694   4.576  1.00 20.00    -0.081 C 
HETATM    3  C3  UNL     1     -34.717   5.821   4.662  1.00 20.00     0.027 C 
HETATM    4  C4  UNL     1     -33.785   5.040   3.740  1.00 20.00     0.004 C 
HETATM    5  C5  UNL     1     -33.155   5.963   2.706  1.00 20.00     0.012 C 
HETATM    6  C6  UNL     1     -32.335   7.088   3.370  1.00 20.00     0.042 C 
HETATM    7  C7  UNL     1     -32.460   8.947   5.171  1.00 20.00     0.043 C 
ENDROOT
BRANCH   6   8
HETATM    8  C10 UNL     1     -31.970   8.125   2.303  1.00 20.00     0.124 C 
HETATM    9  C8  UNL     1     -31.982   7.518   0.912  1.00 20.00     0.040 C 
BRANCH   8  10
HETATM   10  O11 UNL     1     -32.904   9.193   2.365  1.00 20.00    -0.390 OA
HETATM   11  C9  UNL     1     -33.018   9.862   1.117  1.00 20.00     0.202 C 
ENDBRANCH   8  10
ENDBRANCH   6   8
TORSDOF 2
ENDMDL
MODEL 8
REMARK VINA RESULT:      -3.9      1.154      2.664
REMARK  2 active torsions:
REMARK  status: ('A' for Active; 'I' for Inactive)
REMARK    1  A    between atoms: C6_6  and  C10_10 
REMARK    2  A    between atoms: C10_10  and  O11_11 
ROOT
HETATM    1  C1  UNL     1     -34.770   5.767   5.500  1.00 20.00    -0.024 C 
HETATM    2  C2  UNL     1     -33.953   6.837   5.473  1.00 20.00    -0.081 C 
HETATM    3  C3  UNL     1     -34.739   4.660   4.490  1.00 20.00     0.027 C 
HETATM    4  C4  UNL     1     -33.474   4.670   3.637  1.00 20.00     0.004 C 
HETATM    5  C5  UNL     1     -33.150   6.084   3.171  1.00 20.00     0.012 C 
HETATM    6  C6  UNL     1     -32.930   7.039   4.363  1.00 20.00     0.042 C 
HETATM    7  C7  UNL     1     -33.992   7.852   6.582  1.00 20.00     0.043 C 
ENDROOT
BRANCH   6   8
HETATM    8  C10 UNL     1     -32.890   8.478   3.837  1.00 20.00     0.124 C 
HETATM    9  C8  UNL     1     -31.968   9.348   4.669  1.00 20.00     0.040 C 
BRANCH   8  10
HETATM   10  O11 UNL     1     -32.440   8.459   2.489  1.00 20.00    -0.390 OA
HETATM   11  C9  UNL     1     -32.940   9.569   1.756  1.00 20.00     0.202 C 
ENDBRANCH   8  10
ENDBRANCH   6   8
TORSDOF 2
ENDMDL
MODEL 9
REMARK VINA RESULT:      -3.8     10.716     11.872
REMARK  2 active torsions:
REMARK  status: ('A' for Active; 'I' for Inactive)
REMARK    1  A    between atoms: C6_6  and  C10_10 
REMARK    2  A    between atoms: C10_10  and  O11_11 
ROOT
HETATM    1  C1  UNL     1     -42.470  16.238   6.463  1.00 20.00    -0.024 C 
HETATM    2  C2  UNL     1     -42.093  15.134   5.791  1.00 20.00    -0.081 C 
HETATM    3  C3  UNL     1     -41.836  16.703   7.739  1.00 20.00     0.027 C 
HETATM    4  C4  UNL     1     -40.500  16.021   8.020  1.00 20.00     0.004 C 
HETATM    5  C5  UNL     1     -40.597  14.523   7.765  1.00 20.00     0.012 C 
HETATM    6  C6  UNL     1     -40.989  14.218   6.304  1.00 20.00     0.042 C 
HETATM    7  C7  UNL     1     -42.724  14.795   4.468  1.00 20.00     0.043 C 
ENDROOT
BRANCH   6   8
HETATM    8  C10 UNL     1     -41.339  12.731   6.190  1.00 20.00     0.124 C 
HETATM    9  C8  UNL     1     -40.107  11.890   5.913  1.00 20.00     0.040 C 
BRANCH   8  10
HETATM   10  O11 UNL     1     -41.941  12.309   7.406  1.00 20.00    -0.390 OA
HETATM   11  C9  UNL     1     -43.311  11.979   7.224  1.00 20.00     0.202 C 
ENDBRANCH   8  10
ENDBRANCH   6   8
TORSDOF 2
ENDMDL
