MODEL 1
REMARK VINA RESULT:      -4.5      0.000      0.000
REMARK  0 active torsions:
REMARK  status: ('A' for Active; 'I' for Inactive)
ROOT
HETATM    1  C1  UNL     1     -33.369  16.127  -3.394  1.00 20.00     0.052 A 
HETATM    2  C2  UNL     1     -35.292  18.007  -4.130  1.00 20.00     0.126 A 
HETATM    3  C3  UNL     1     -34.216  15.896  -4.451  1.00 20.00    -0.043 A 
HETATM    4  C4  UNL     1     -35.182  16.835  -4.829  1.00 20.00    -0.028 A 
HETATM    5  C5  UNL     1     -33.555  17.337  -2.740  1.00 20.00     0.126 A 
HETATM    6  C6  UNL     1     -35.860  14.792  -5.633  1.00 20.00     0.020 C 
HETATM    7  C7  UNL     1     -33.819  15.243  -6.792  1.00 20.00     0.030 C 
HETATM    8  C8  UNL     1     -34.331  14.745  -5.420  1.00 20.00     0.021 C 
HETATM    9  C9  UNL     1     -35.894  16.284  -6.036  1.00 20.00     0.040 C 
HETATM   10  C10 UNL     1     -34.929  16.240  -7.244  1.00 20.00     0.091 C 
HETATM   11  N11 UNL     1     -34.488  18.277  -3.075  1.00 20.00    -0.248 NA
HETATM   12 CL12 UNL     1     -32.574  17.764  -1.396  1.00 20.00    -0.062 Cl
HETATM   13 CL13 UNL     1     -34.285  17.828  -7.701  1.00 20.00    -0.124 Cl
ENDROOT
TORSDOF 0
ENDMDL
MODEL 2
REMARK VINA RESULT:      -4.5      1.817      2.636
REMARK  0 active torsions:
REMARK  status: ('A' for Active; 'I' for Inactive)
ROOT
HETATM    1  C1  UNL     1     -34.967  18.053  -3.539  1.00 20.00     0.052 A 
HETATM    2  C2  UNL     1     -33.232  15.871  -3.542  1.00 20.00     0.126 A 
HETATM    3  C3  UNL     1     -34.920  17.190  -4.605  1.00 20.00    -0.043 A 
HETATM    4  C4  UNL     1     -34.054  16.090  -4.615  1.00 20.00    -0.028 A 
HETATM    5  C5  UNL     1     -34.096  17.759  -2.499  1.00 20.00     0.126 A 
HETATM    6  C6  UNL     1     -34.583  16.566  -6.800  1.00 20.00     0.020 C 
HETATM    7  C7  UNL     1     -36.662  15.929  -5.807  1.00 20.00     0.030 C 
HETATM    8  C8  UNL     1     -35.698  17.136  -5.897  1.00 20.00     0.021 C 
HETATM    9  C9  UNL     1     -34.293  15.343  -5.900  1.00 20.00     0.040 C 
HETATM   10  C10 UNL     1     -35.702  14.703  -5.885  1.00 20.00     0.091 C 
HETATM   11  N11 UNL     1     -33.233  16.699  -2.472  1.00 20.00    -0.248 NA
HETATM   12 CL12 UNL     1     -34.038  18.751  -1.098  1.00 20.00    -0.062 Cl
HETATM   13 CL13 UNL     1     -35.948  13.550  -4.560  1.00 20.00    -0.124 Cl
ENDROOT
TORSDOF 0
ENDMDL
MODEL 3
REMARK VINA RESULT:      -4.1      2.212      4.664
REMARK  0 active torsions:
REMARK  status: ('A' for Active; 'I' for Inactive)
ROOT
HETATM    1  C1  UNL     1     -33.694  15.743  -3.496  1.00 20.00     0.052 A 
HETATM    2  C2  UNL     1     -34.511  18.128  -4.686  1.00 20.00     0.126 A 
HETATM    3  C3  UNL     1     -33.487  16.950  -2.875  1.00 20.00    -0.043 A 
HETATM    4  C4  UNL     1     -33.895  18.153  -3.464  1.00 20.00    -0.028 A 
HETATM    5  C5  UNL     1     -34.319  15.814  -4.734  1.00 20.00     0.126 A 
HETATM    6  C6  UNL     1     -32.245  18.658  -1.947  1.00 20.00     0.020 C 
HETATM    7  C7  UNL     1     -34.027  17.778  -0.620  1.00 20.00     0.030 C 
HETATM    8  C8  UNL     1     -32.878  17.309  -1.542  1.00 20.00     0.021 C 
HETATM    9  C9  UNL     1     -33.556  19.260  -2.502  1.00 20.00     0.040 C 
HETATM   10  C10 UNL     1     -34.439  19.149  -1.236  1.00 20.00     0.091 C 
HETATM   11  N11 UNL     1     -34.729  16.966  -5.344  1.00 20.00    -0.248 NA
HETATM   12 CL12 UNL     1     -34.642  14.386  -5.633  1.00 20.00    -0.062 Cl
HETATM   13 CL13 UNL     1     -36.178  19.263  -1.567  1.00 20.00    -0.124 Cl
ENDROOT
TORSDOF 0
ENDMDL
MODEL 4
REMARK VINA RESULT:      -3.9     13.821     15.396
REMARK  0 active torsions:
REMARK  status: ('A' for Active; 'I' for Inactive)
ROOT
HETATM    1  C1  UNL     1     -40.018  13.722   6.724  1.00 20.00     0.052 A 
HETATM    2  C2  UNL     1     -42.575  12.943   7.514  1.00 20.00     0.126 A 
HETATM    3  C3  UNL     1     -40.754  14.491   7.590  1.00 20.00    -0.043 A 
HETATM    4  C4  UNL     1     -42.038  14.107   7.995  1.00 20.00    -0.028 A 
HETATM    5  C5  UNL     1     -40.642  12.563   6.283  1.00 20.00     0.126 A 
HETATM    6  C6  UNL     1     -41.872  16.377   8.307  1.00 20.00     0.020 C 
HETATM    7  C7  UNL     1     -40.257  15.449   9.804  1.00 20.00     0.030 C 
HETATM    8  C8  UNL     1     -40.447  15.784   8.306  1.00 20.00     0.021 C 
HETATM    9  C9  UNL     1     -42.531  15.145   8.967  1.00 20.00     0.040 C 
HETATM   10  C10 UNL     1     -41.699  15.085  10.271  1.00 20.00     0.091 C 
HETATM   11  N11 UNL     1     -41.893  12.155   6.651  1.00 20.00    -0.248 NA
HETATM   12 CL12 UNL     1     -39.845  11.501   5.192  1.00 20.00    -0.062 Cl
HETATM   13 CL13 UNL     1     -41.781  13.517  11.097  1.00 20.00    -0.124 Cl
ENDROOT
TORSDOF 0
ENDMDL
MODEL 5
REMARK VINA RESULT:      -3.8     13.249     14.433
REMARK  0 active torsions:
REMARK  status: ('A' for Active; 'I' for Inactive)
ROOT
HETATM    1  C1  UNL     1     -41.632  16.504   6.994  1.00 20.00     0.052 A 
HETATM    2  C2  UNL     1     -40.366  14.576   8.560  1.00 20.00     0.126 A 
HETATM    3  C3  UNL     1     -41.621  15.184   6.617  1.00 20.00    -0.043 A 
HETATM    4  C4  UNL     1     -40.990  14.208   7.398  1.00 20.00    -0.028 A 
HETATM    5  C5  UNL     1     -40.971  16.787   8.181  1.00 20.00     0.126 A 
HETATM    6  C6  UNL     1     -41.139  13.383   5.258  1.00 20.00     0.020 C 
HETATM    7  C7  UNL     1     -43.409  13.620   5.967  1.00 20.00     0.030 C 
HETATM    8  C8  UNL     1     -42.227  14.464   5.437  1.00 20.00     0.021 C 
HETATM    9  C9  UNL     1     -41.207  12.882   6.719  1.00 20.00     0.040 C 
HETATM   10  C10 UNL     1     -42.704  12.495   6.782  1.00 20.00     0.091 C 
HETATM   11  N11 UNL     1     -40.341  15.865   8.969  1.00 20.00    -0.248 NA
HETATM   12 CL12 UNL     1     -40.897  18.395   8.779  1.00 20.00    -0.062 Cl
HETATM   13 CL13 UNL     1     -43.332  12.343   8.434  1.00 20.00    -0.124 Cl
ENDROOT
TORSDOF 0
ENDMDL
MODEL 6
REMARK VINA RESULT:      -3.8     12.520     13.806
REMARK  0 active torsions:
REMARK  status: ('A' for Active; 'I' for Inactive)
ROOT
HETATM    1  C1  UNL     1     -40.792  13.002   4.816  1.00 20.00     0.052 A 
HETATM    2  C2  UNL     1     -40.010  13.034   7.492  1.00 20.00     0.126 A 
HETATM    3  C3  UNL     1     -41.543  13.652   5.764  1.00 20.00    -0.043 A 
HETATM    4  C4  UNL     1     -41.157  13.676   7.110  1.00 20.00    -0.028 A 
HETATM    5  C5  UNL     1     -39.650  12.374   5.294  1.00 20.00     0.126 A 
HETATM    6  C6  UNL     1     -43.417  14.085   7.037  1.00 20.00     0.020 C 
HETATM    7  C7  UNL     1     -42.437  15.943   5.898  1.00 20.00     0.030 C 
HETATM    8  C8  UNL     1     -42.813  14.461   5.667  1.00 20.00     0.021 C 
HETATM    9  C9  UNL     1     -42.172  14.503   7.852  1.00 20.00     0.040 C 
HETATM   10  C10 UNL     1     -42.071  15.984   7.412  1.00 20.00     0.091 C 
HETATM   11  N11 UNL     1     -39.241  12.371   6.598  1.00 20.00    -0.248 NA
HETATM   12 CL12 UNL     1     -38.612  11.517   4.227  1.00 20.00    -0.062 Cl
HETATM   13 CL13 UNL     1     -40.483  16.712   7.718  1.00 20.00    -0.124 Cl
ENDROOT
TORSDOF 0
ENDMDL
MODEL 7
REMARK VINA RESULT:      -3.8     24.923     26.317
REMARK  0 active torsions:
REMARK  status: ('A' for Active; 'I' for Inactive)
ROOT
HETATM    1  C1  UNL     1     -25.049  -3.834  10.516  1.00 20.00     0.052 A 
HETATM    2  C2  UNL     1     -25.122  -1.513  12.058  1.00 20.00     0.126 A 
HETATM    3  C3  UNL     1     -26.238  -3.341  10.996  1.00 20.00    -0.043 A 
HETATM    4  C4  UNL     1     -26.284  -2.175  11.769  1.00 20.00    -0.028 A 
HETATM    5  C5  UNL     1     -23.922  -3.102  10.862  1.00 20.00     0.126 A 
HETATM    6  C6  UNL     1     -28.193  -3.373  12.218  1.00 20.00     0.020 C 
HETATM    7  C7  UNL     1     -28.379  -2.799   9.906  1.00 20.00     0.030 C 
HETATM    8  C8  UNL     1     -27.664  -3.808  10.835  1.00 20.00     0.021 C 
HETATM    9  C9  UNL     1     -27.731  -1.904  12.084  1.00 20.00     0.040 C 
HETATM   10  C10 UNL     1     -28.490  -1.520  10.790  1.00 20.00     0.091 C 
HETATM   11  N11 UNL     1     -23.925  -1.963  11.617  1.00 20.00    -0.248 NA
HETATM   12 CL12 UNL     1     -22.363  -3.598  10.338  1.00 20.00    -0.062 Cl
HETATM   13 CL13 UNL     1     -27.851  -0.071   9.992  1.00 20.00    -0.124 Cl
ENDROOT
TORSDOF 0
ENDMDL
MODEL 8
REMARK VINA RESULT:      -3.7      2.345      3.690
REMARK  0 active torsions:
REMARK  status: ('A' for Active; 'I' for Inactive)
ROOT
HETATM    1  C1  UNL     1     -37.700  16.097  -5.243  1.00 20.00     0.052 A 
HETATM    2  C2  UNL     1     -35.806  18.139  -5.118  1.00 20.00     0.126 A 
HETATM    3  C3  UNL     1     -36.369  15.841  -5.467  1.00 20.00    -0.043 A 
HETATM    4  C4  UNL     1     -35.411  16.860  -5.404  1.00 20.00    -0.028 A 
HETATM    5  C5  UNL     1     -38.010  17.422  -4.966  1.00 20.00     0.126 A 
HETATM    6  C6  UNL     1     -34.527  15.164  -6.679  1.00 20.00     0.020 C 
HETATM    7  C7  UNL     1     -34.804  14.199  -4.510  1.00 20.00     0.030 C 
HETATM    8  C8  UNL     1     -35.622  14.566  -5.770  1.00 20.00     0.021 C 
HETATM    9  C9  UNL     1     -34.068  16.227  -5.655  1.00 20.00     0.040 C 
HETATM   10  C10 UNL     1     -33.696  15.295  -4.477  1.00 20.00     0.091 C 
HETATM   11  N11 UNL     1     -37.106  18.444  -4.899  1.00 20.00    -0.248 NA
HETATM   12 CL12 UNL     1     -39.634  17.895  -4.667  1.00 20.00    -0.062 Cl
HETATM   13 CL13 UNL     1     -33.595  16.127  -2.913  1.00 20.00    -0.124 Cl
ENDROOT
TORSDOF 0
ENDMDL
MODEL 9
REMARK VINA RESULT:      -3.7      1.806      2.612
REMARK  0 active torsions:
REMARK  status: ('A' for Active; 'I' for Inactive)
ROOT
HETATM    1  C1  UNL     1     -33.763  18.160  -3.910  1.00 20.00     0.052 A 
HETATM    2  C2  UNL     1     -33.850  15.396  -4.267  1.00 20.00     0.126 A 
HETATM    3  C3  UNL     1     -34.281  17.611  -5.058  1.00 20.00    -0.043 A 
HETATM    4  C4  UNL     1     -34.331  16.225  -5.245  1.00 20.00    -0.028 A 
HETATM    5  C5  UNL     1     -33.293  17.246  -2.977  1.00 20.00     0.126 A 
HETATM    6  C6  UNL     1     -34.418  17.201  -7.323  1.00 20.00     0.020 C 
HETATM    7  C7  UNL     1     -36.419  17.928  -6.238  1.00 20.00     0.030 C 
HETATM    8  C8  UNL     1     -34.903  18.234  -6.283  1.00 20.00     0.021 C 
HETATM    9  C9  UNL     1     -34.991  15.976  -6.575  1.00 20.00     0.040 C 
HETATM   10  C10 UNL     1     -36.479  16.395  -6.512  1.00 20.00     0.091 C 
HETATM   11  N11 UNL     1     -33.320  15.888  -3.123  1.00 20.00    -0.248 NA
HETATM   12 CL12 UNL     1     -32.613  17.783  -1.493  1.00 20.00    -0.062 Cl
HETATM   13 CL13 UNL     1     -37.418  15.513  -5.293  1.00 20.00    -0.124 Cl
ENDROOT
TORSDOF 0
ENDMDL
