MODEL 1
REMARK VINA RESULT:      -3.8      0.000      0.000
REMARK  0 active torsions:
REMARK  status: ('A' for Active; 'I' for Inactive)
ROOT
HETATM    1  C1  UNL     1     -25.055  16.991  12.067  1.00 20.00    -0.002 C 
HETATM    2  C2  UNL     1     -23.636  19.045  12.331  1.00 20.00    -0.002 C 
HETATM    3  C3  UNL     1     -24.293  16.200  11.296  1.00 20.00    -0.022 C 
HETATM    4  C4  UNL     1     -22.536  18.741  11.624  1.00 20.00    -0.022 C 
HETATM    5  C5  UNL     1     -24.778  18.668   9.488  1.00 20.00     0.079 C 
HETATM    6  C6  UNL     1     -24.990  18.489  12.008  1.00 20.00     0.128 C 
HETATM    7  C7  UNL     1     -23.308  16.623  10.292  1.00 20.00     0.028 A 
HETATM    8  C8  UNL     1     -22.453  17.860  10.451  1.00 20.00     0.028 A 
HETATM    9  C9  UNL     1     -23.548  17.827   9.407  1.00 20.00     0.063 A 
HETATM   10  N10 UNL     1     -25.404  18.945  10.685  1.00 20.00    -0.373 N 
HETATM   11  S11 UNL     1     -25.369  19.263   8.041  1.00 20.00    -0.065 SA
HETATM   12  H20 UNL     1     -26.236  19.525  10.642  1.00 20.00     0.161 HD
ENDROOT
TORSDOF 0
ENDMDL
MODEL 2
REMARK VINA RESULT:      -3.6     17.467     18.446
REMARK  0 active torsions:
REMARK  status: ('A' for Active; 'I' for Inactive)
ROOT
HETATM    1  C1  UNL     1     -41.764  15.839   6.654  1.00 20.00    -0.002 C 
HETATM    2  C2  UNL     1     -41.522  14.711   8.883  1.00 20.00    -0.002 C 
HETATM    3  C3  UNL     1     -42.691  15.089   6.040  1.00 20.00    -0.022 C 
HETATM    4  C4  UNL     1     -42.392  13.693   8.798  1.00 20.00    -0.022 C 
HETATM    5  C5  UNL     1     -40.383  13.081   6.522  1.00 20.00     0.079 C 
HETATM    6  C6  UNL     1     -40.827  15.288   7.687  1.00 20.00     0.128 C 
HETATM    7  C7  UNL     1     -42.947  13.657   6.240  1.00 20.00     0.028 A 
HETATM    8  C8  UNL     1     -42.802  12.976   7.582  1.00 20.00     0.028 A 
HETATM    9  C9  UNL     1     -41.818  12.676   6.472  1.00 20.00     0.063 A 
HETATM   10  N10 UNL     1     -39.972  14.273   7.080  1.00 20.00    -0.373 N 
HETATM   11  S11 UNL     1     -39.285  12.008   5.860  1.00 20.00    -0.065 SA
HETATM   12  H20 UNL     1     -38.975  14.463   7.067  1.00 20.00     0.161 HD
ENDROOT
TORSDOF 0
ENDMDL
MODEL 3
REMARK VINA RESULT:      -3.6     18.320     19.830
REMARK  0 active torsions:
REMARK  status: ('A' for Active; 'I' for Inactive)
ROOT
HETATM    1  C1  UNL     1     -35.711  14.699  -6.148  1.00 20.00    -0.002 C 
HETATM    2  C2  UNL     1     -34.160  16.257  -7.359  1.00 20.00    -0.002 C 
HETATM    3  C3  UNL     1     -36.649  15.527  -5.665  1.00 20.00    -0.022 C 
HETATM    4  C4  UNL     1     -34.730  17.456  -7.165  1.00 20.00    -0.022 C 
HETATM    5  C5  UNL     1     -34.063  16.529  -4.285  1.00 20.00     0.079 C 
HETATM    6  C6  UNL     1     -34.292  15.126  -6.384  1.00 20.00     0.128 C 
HETATM    7  C7  UNL     1     -36.476  16.935  -5.285  1.00 20.00     0.028 A 
HETATM    8  C8  UNL     1     -35.543  17.875  -6.014  1.00 20.00     0.028 A 
HETATM    9  C9  UNL     1     -35.214  17.423  -4.607  1.00 20.00     0.063 A 
HETATM   10  N10 UNL     1     -33.676  15.498  -5.115  1.00 20.00    -0.373 N 
HETATM   11  S11 UNL     1     -33.257  16.841  -2.854  1.00 20.00    -0.065 SA
HETATM   12  H20 UNL     1     -32.881  14.942  -4.812  1.00 20.00     0.161 HD
ENDROOT
TORSDOF 0
ENDMDL
MODEL 4
REMARK VINA RESULT:      -3.5     16.149     17.415
REMARK  0 active torsions:
REMARK  status: ('A' for Active; 'I' for Inactive)
ROOT
HETATM    1  C1  UNL     1     -33.296  16.768  -2.293  1.00 20.00    -0.002 C 
HETATM    2  C2  UNL     1     -32.738  19.167  -2.780  1.00 20.00    -0.002 C 
HETATM    3  C3  UNL     1     -33.654  16.295  -3.496  1.00 20.00    -0.022 C 
HETATM    4  C4  UNL     1     -32.963  19.263  -4.100  1.00 20.00    -0.022 C 
HETATM    5  C5  UNL     1     -35.749  18.516  -2.973  1.00 20.00     0.079 C 
HETATM    6  C6  UNL     1     -33.475  18.204  -1.898  1.00 20.00     0.128 C 
HETATM    7  C7  UNL     1     -34.268  17.049  -4.597  1.00 20.00     0.028 A 
HETATM    8  C8  UNL     1     -33.932  18.493  -4.892  1.00 20.00     0.028 A 
HETATM    9  C9  UNL     1     -35.294  18.131  -4.341  1.00 20.00     0.063 A 
HETATM   10  N10 UNL     1     -34.896  18.537  -1.890  1.00 20.00    -0.373 N 
HETATM   11  S11 UNL     1     -37.363  18.924  -2.815  1.00 20.00    -0.065 SA
HETATM   12  H20 UNL     1     -35.296  18.811  -0.999  1.00 20.00     0.161 HD
ENDROOT
TORSDOF 0
ENDMDL
MODEL 5
REMARK VINA RESULT:      -3.5     18.183     19.661
REMARK  0 active torsions:
REMARK  status: ('A' for Active; 'I' for Inactive)
ROOT
HETATM    1  C1  UNL     1     -35.328  17.249  -6.803  1.00 20.00    -0.002 C 
HETATM    2  C2  UNL     1     -36.964  15.959  -5.403  1.00 20.00    -0.002 C 
HETATM    3  C3  UNL     1     -34.397  16.329  -7.097  1.00 20.00    -0.022 C 
HETATM    4  C4  UNL     1     -36.421  14.732  -5.365  1.00 20.00    -0.022 C 
HETATM    5  C5  UNL     1     -34.262  16.489  -4.007  1.00 20.00     0.079 C 
HETATM    6  C6  UNL     1     -36.144  17.206  -5.545  1.00 20.00     0.128 C 
HETATM    7  C7  UNL     1     -34.009  15.170  -6.283  1.00 20.00     0.028 A 
HETATM    8  C8  UNL     1     -34.993  14.392  -5.440  1.00 20.00     0.028 A 
HETATM    9  C9  UNL     1     -33.940  15.250  -4.773  1.00 20.00     0.063 A 
HETATM   10  N10 UNL     1     -35.268  17.351  -4.388  1.00 20.00    -0.373 N 
HETATM   11  S11 UNL     1     -33.333  16.784  -2.648  1.00 20.00    -0.065 SA
HETATM   12  H20 UNL     1     -35.413  18.169  -3.804  1.00 20.00     0.161 HD
ENDROOT
TORSDOF 0
ENDMDL
MODEL 6
REMARK VINA RESULT:      -3.4     15.011     16.535
REMARK  0 active torsions:
REMARK  status: ('A' for Active; 'I' for Inactive)
ROOT
HETATM    1  C1  UNL     1     -32.627  18.640  -0.959  1.00 20.00    -0.002 C 
HETATM    2  C2  UNL     1     -35.112  18.601  -1.309  1.00 20.00    -0.002 C 
HETATM    3  C3  UNL     1     -32.181  19.260  -2.062  1.00 20.00    -0.022 C 
HETATM    4  C4  UNL     1     -35.256  19.213  -2.495  1.00 20.00    -0.022 C 
HETATM    5  C5  UNL     1     -33.550  16.725  -3.199  1.00 20.00     0.079 C 
HETATM    6  C6  UNL     1     -33.885  17.824  -0.939  1.00 20.00     0.128 C 
HETATM    7  C7  UNL     1     -32.798  19.251  -3.395  1.00 20.00     0.028 A 
HETATM    8  C8  UNL     1     -34.295  19.228  -3.606  1.00 20.00     0.028 A 
HETATM    9  C9  UNL     1     -33.464  18.011  -3.951  1.00 20.00     0.063 A 
HETATM   10  N10 UNL     1     -33.741  16.680  -1.834  1.00 20.00    -0.373 N 
HETATM   11  S11 UNL     1     -33.402  15.325  -4.102  1.00 20.00    -0.065 SA
HETATM   12  H20 UNL     1     -33.786  15.759  -1.409  1.00 20.00     0.161 HD
ENDROOT
TORSDOF 0
ENDMDL
MODEL 7
REMARK VINA RESULT:      -3.4     18.438     19.866
REMARK  0 active torsions:
REMARK  status: ('A' for Active; 'I' for Inactive)
ROOT
HETATM    1  C1  UNL     1     -34.350  15.159  -6.729  1.00 20.00    -0.002 C 
HETATM    2  C2  UNL     1     -33.999  15.441  -4.260  1.00 20.00    -0.002 C 
HETATM    3  C3  UNL     1     -34.332  16.423  -7.179  1.00 20.00    -0.022 C 
HETATM    4  C4  UNL     1     -33.896  16.772  -4.123  1.00 20.00    -0.022 C 
HETATM    5  C5  UNL     1     -36.757  16.408  -5.253  1.00 20.00     0.079 C 
HETATM    6  C6  UNL     1     -34.804  14.795  -5.347  1.00 20.00     0.128 C 
HETATM    7  C7  UNL     1     -34.741  17.629  -6.449  1.00 20.00     0.028 A 
HETATM    8  C8  UNL     1     -34.529  17.800  -4.961  1.00 20.00     0.028 A 
HETATM    9  C9  UNL     1     -35.929  17.622  -5.510  1.00 20.00     0.063 A 
HETATM   10  N10 UNL     1     -36.212  15.143  -5.186  1.00 20.00    -0.373 N 
HETATM   11  S11 UNL     1     -38.398  16.658  -5.048  1.00 20.00    -0.065 SA
HETATM   12  H20 UNL     1     -36.855  14.378  -5.008  1.00 20.00     0.161 HD
ENDROOT
TORSDOF 0
ENDMDL
MODEL 8
REMARK VINA RESULT:      -3.3     19.908     21.135
REMARK  0 active torsions:
REMARK  status: ('A' for Active; 'I' for Inactive)
ROOT
HETATM    1  C1  UNL     1     -26.951  -3.669  11.378  1.00 20.00    -0.002 C 
HETATM    2  C2  UNL     1     -26.064  -1.334  11.623  1.00 20.00    -0.002 C 
HETATM    3  C3  UNL     1     -26.035  -4.405  12.024  1.00 20.00    -0.022 C 
HETATM    4  C4  UNL     1     -24.937  -1.515  12.328  1.00 20.00    -0.022 C 
HETATM    5  C5  UNL     1     -24.398  -3.117   9.732  1.00 20.00     0.079 C 
HETATM    6  C6  UNL     1     -26.621  -2.373  10.698  1.00 20.00     0.128 C 
HETATM    7  C7  UNL     1     -24.604  -4.108  12.174  1.00 20.00     0.028 A 
HETATM    8  C8  UNL     1     -24.069  -2.702  12.322  1.00 20.00     0.028 A 
HETATM    9  C9  UNL     1     -23.805  -3.482  11.052  1.00 20.00     0.063 A 
HETATM   10  N10 UNL     1     -25.678  -2.618   9.612  1.00 20.00    -0.373 N 
HETATM   11  S11 UNL     1     -23.425  -3.346   8.392  1.00 20.00    -0.065 SA
HETATM   12  H20 UNL     1     -25.996  -2.399   8.672  1.00 20.00     0.161 HD
ENDROOT
TORSDOF 0
ENDMDL
MODEL 9
REMARK VINA RESULT:      -3.3     17.996     18.810
REMARK  0 active torsions:
REMARK  status: ('A' for Active; 'I' for Inactive)
ROOT
HETATM    1  C1  UNL     1     -43.333  13.556   7.745  1.00 20.00    -0.002 C 
HETATM    2  C2  UNL     1     -41.541  15.302   7.942  1.00 20.00    -0.002 C 
HETATM    3  C3  UNL     1     -42.670  12.504   7.241  1.00 20.00    -0.022 C 
HETATM    4  C4  UNL     1     -40.451  14.664   7.485  1.00 20.00    -0.022 C 
HETATM    5  C5  UNL     1     -42.344  14.651   5.033  1.00 20.00     0.079 C 
HETATM    6  C6  UNL     1     -42.928  14.975   7.478  1.00 20.00     0.128 C 
HETATM    7  C7  UNL     1     -41.489  12.536   6.368  1.00 20.00     0.028 A 
HETATM    8  C8  UNL     1     -40.409  13.587   6.486  1.00 20.00     0.028 A 
HETATM    9  C9  UNL     1     -41.332  13.584   5.287  1.00 20.00     0.063 A 
HETATM   10  N10 UNL     1     -43.047  15.258   6.051  1.00 20.00    -0.373 N 
HETATM   11  S11 UNL     1     -42.585  15.080   3.435  1.00 20.00    -0.065 SA
HETATM   12  H20 UNL     1     -43.715  15.974   5.782  1.00 20.00     0.161 HD
ENDROOT
TORSDOF 0
ENDMDL
