MODEL 1
REMARK VINA RESULT:      -6.9      0.000      0.000
REMARK  0 active torsions:
REMARK  status: ('A' for Active; 'I' for Inactive)
ROOT
HETATM    1  C1  UNL     1     -34.643   5.964   6.312  1.00 20.00    -0.021 C 
HETATM    2  C2  UNL     1     -33.472   8.468   6.000  1.00 20.00    -0.021 C 
HETATM    3  C3  UNL     1     -34.734   5.090   5.277  1.00 20.00    -0.018 C 
HETATM    4  C4  UNL     1     -32.815   8.819   4.851  1.00 20.00    -0.024 C 
HETATM    5  C5  UNL     1     -33.059   5.567   3.005  1.00 20.00     0.135 C 
HETATM    6  C6  UNL     1     -32.574   7.004   2.640  1.00 20.00     0.087 C 
HETATM    7  C7  UNL     1     -33.619   6.976   5.994  1.00 20.00     0.036 C 
HETATM    8  C8  UNL     1     -34.239   5.640   3.974  1.00 20.00     0.083 C 
HETATM    9  C9  UNL     1     -32.560   7.562   4.045  1.00 20.00     0.021 C 
HETATM   10  C10 UNL     1     -33.880   6.991   4.509  1.00 20.00     0.020 C 
HETATM   11  O11 UNL     1     -32.611   4.536   2.526  1.00 20.00    -0.297 OA
ENDROOT
TORSDOF 0
ENDMDL
MODEL 2
REMARK VINA RESULT:      -6.9      0.932      1.341
REMARK  0 active torsions:
REMARK  status: ('A' for Active; 'I' for Inactive)
ROOT
HETATM    1  C1  UNL     1     -34.198   7.197   6.633  1.00 20.00    -0.021 C 
HETATM    2  C2  UNL     1     -32.728   8.681   4.795  1.00 20.00    -0.021 C 
HETATM    3  C3  UNL     1     -34.775   6.016   6.292  1.00 20.00    -0.018 C 
HETATM    4  C4  UNL     1     -32.411   8.186   3.559  1.00 20.00    -0.024 C 
HETATM    5  C5  UNL     1     -33.838   4.739   3.908  1.00 20.00     0.135 C 
HETATM    6  C6  UNL     1     -33.227   5.561   2.731  1.00 20.00     0.087 C 
HETATM    7  C7  UNL     1     -33.152   7.521   5.646  1.00 20.00     0.036 C 
HETATM    8  C8  UNL     1     -34.618   5.661   4.845  1.00 20.00     0.083 C 
HETATM    9  C9  UNL     1     -32.666   6.693   3.562  1.00 20.00     0.021 C 
HETATM   10  C10 UNL     1     -33.858   6.895   4.470  1.00 20.00     0.020 C 
HETATM   11  O11 UNL     1     -33.769   3.524   4.020  1.00 20.00    -0.297 OA
ENDROOT
TORSDOF 0
ENDMDL
MODEL 3
REMARK VINA RESULT:      -6.4      1.130      2.739
REMARK  0 active torsions:
REMARK  status: ('A' for Active; 'I' for Inactive)
ROOT
HETATM    1  C1  UNL     1     -33.626   8.442   5.783  1.00 20.00    -0.021 C 
HETATM    2  C2  UNL     1     -34.764   5.905   5.840  1.00 20.00    -0.021 C 
HETATM    3  C3  UNL     1     -32.675   8.774   4.873  1.00 20.00    -0.018 C 
HETATM    4  C4  UNL     1     -34.518   4.983   4.858  1.00 20.00    -0.024 C 
HETATM    5  C5  UNL     1     -32.410   7.081   2.579  1.00 20.00     0.135 C 
HETATM    6  C6  UNL     1     -32.805   5.573   2.632  1.00 20.00     0.087 C 
HETATM    7  C7  UNL     1     -34.343   7.244   5.312  1.00 20.00     0.036 C 
HETATM    8  C8  UNL     1     -32.253   7.634   3.996  1.00 20.00     0.083 C 
HETATM    9  C9  UNL     1     -33.887   5.697   3.681  1.00 20.00     0.021 C 
HETATM   10  C10 UNL     1     -33.154   6.618   4.628  1.00 20.00     0.020 C 
HETATM   11  O11 UNL     1     -32.182   7.708   1.555  1.00 20.00    -0.297 OA
ENDROOT
TORSDOF 0
ENDMDL
MODEL 4
REMARK VINA RESULT:      -6.3      1.695      3.514
REMARK  0 active torsions:
REMARK  status: ('A' for Active; 'I' for Inactive)
ROOT
HETATM    1  C1  UNL     1     -32.937   5.452   2.798  1.00 20.00    -0.021 C 
HETATM    2  C2  UNL     1     -34.629   4.733   4.886  1.00 20.00    -0.021 C 
HETATM    3  C3  UNL     1     -32.495   6.727   2.650  1.00 20.00    -0.018 C 
HETATM    4  C4  UNL     1     -34.926   5.600   5.903  1.00 20.00    -0.024 C 
HETATM    5  C5  UNL     1     -32.727   8.467   4.911  1.00 20.00     0.135 C 
HETATM    6  C6  UNL     1     -33.831   8.252   5.993  1.00 20.00     0.087 C 
HETATM    7  C7  UNL     1     -33.420   5.271   4.179  1.00 20.00     0.036 C 
HETATM    8  C8  UNL     1     -33.074   7.688   3.642  1.00 20.00     0.083 C 
HETATM    9  C9  UNL     1     -33.942   6.750   5.853  1.00 20.00     0.021 C 
HETATM   10  C10 UNL     1     -33.931   6.680   4.343  1.00 20.00     0.020 C 
HETATM   11  O11 UNL     1     -31.766   9.212   5.033  1.00 20.00    -0.297 OA
ENDROOT
TORSDOF 0
ENDMDL
MODEL 5
REMARK VINA RESULT:      -6.1      1.591      3.271
REMARK  0 active torsions:
REMARK  status: ('A' for Active; 'I' for Inactive)
ROOT
HETATM    1  C1  UNL     1     -32.543   8.769   4.798  1.00 20.00    -0.021 C 
HETATM    2  C2  UNL     1     -32.179   7.182   2.542  1.00 20.00    -0.021 C 
HETATM    3  C3  UNL     1     -33.464   8.456   5.744  1.00 20.00    -0.018 C 
HETATM    4  C4  UNL     1     -32.798   5.968   2.408  1.00 20.00    -0.024 C 
HETATM    5  C5  UNL     1     -34.483   5.781   5.750  1.00 20.00     0.135 C 
HETATM    6  C6  UNL     1     -34.532   4.927   4.445  1.00 20.00     0.087 C 
HETATM    7  C7  UNL     1     -32.262   7.569   3.989  1.00 20.00     0.036 C 
HETATM    8  C8  UNL     1     -34.299   7.259   5.405  1.00 20.00     0.083 C 
HETATM    9  C9  UNL     1     -33.339   5.557   3.761  1.00 20.00     0.021 C 
HETATM   10  C10 UNL     1     -33.655   7.000   4.078  1.00 20.00     0.020 C 
HETATM   11  O11 UNL     1     -34.647   5.341   6.878  1.00 20.00    -0.297 OA
ENDROOT
TORSDOF 0
ENDMDL
MODEL 6
REMARK VINA RESULT:      -5.9      1.922      3.129
REMARK  0 active torsions:
REMARK  status: ('A' for Active; 'I' for Inactive)
ROOT
HETATM    1  C1  UNL     1     -34.775   4.985   5.165  1.00 20.00    -0.021 C 
HETATM    2  C2  UNL     1     -33.171   5.190   2.901  1.00 20.00    -0.021 C 
HETATM    3  C3  UNL     1     -34.718   5.906   6.161  1.00 20.00    -0.018 C 
HETATM    4  C4  UNL     1     -32.408   6.300   2.657  1.00 20.00    -0.024 C 
HETATM    5  C5  UNL     1     -33.483   8.417   5.556  1.00 20.00     0.135 C 
HETATM    6  C6  UNL     1     -32.385   8.539   4.453  1.00 20.00     0.087 C 
HETATM    7  C7  UNL     1     -34.181   5.562   3.945  1.00 20.00     0.036 C 
HETATM    8  C8  UNL     1     -33.665   6.954   5.957  1.00 20.00     0.083 C 
HETATM    9  C9  UNL     1     -32.876   7.412   3.573  1.00 20.00     0.021 C 
HETATM   10  C10 UNL     1     -33.155   6.402   4.662  1.00 20.00     0.020 C 
HETATM   11  O11 UNL     1     -34.056   9.362   6.078  1.00 20.00    -0.297 OA
ENDROOT
TORSDOF 0
ENDMDL
MODEL 7
REMARK VINA RESULT:      -5.5      1.331      2.817
REMARK  0 active torsions:
REMARK  status: ('A' for Active; 'I' for Inactive)
ROOT
HETATM    1  C1  UNL     1     -32.372   6.928   2.414  1.00 20.00    -0.021 C 
HETATM    2  C2  UNL     1     -32.219   8.926   4.344  1.00 20.00    -0.021 C 
HETATM    3  C3  UNL     1     -32.942   5.725   2.681  1.00 20.00    -0.018 C 
HETATM    4  C4  UNL     1     -32.854   8.810   5.551  1.00 20.00    -0.024 C 
HETATM    5  C5  UNL     1     -34.622   5.554   4.993  1.00 20.00     0.135 C 
HETATM    6  C6  UNL     1     -34.415   6.497   6.219  1.00 20.00     0.087 C 
HETATM    7  C7  UNL     1     -32.819   7.904   3.424  1.00 20.00     0.036 C 
HETATM    8  C8  UNL     1     -33.377   5.564   4.106  1.00 20.00     0.083 C 
HETATM    9  C9  UNL     1     -33.853   7.677   5.459  1.00 20.00     0.021 C 
HETATM   10  C10 UNL     1     -32.910   6.914   4.557  1.00 20.00     0.020 C 
HETATM   11  O11 UNL     1     -35.604   4.851   4.810  1.00 20.00    -0.297 OA
ENDROOT
TORSDOF 0
ENDMDL
MODEL 8
REMARK VINA RESULT:      -4.8     15.785     16.496
REMARK  0 active torsions:
REMARK  status: ('A' for Active; 'I' for Inactive)
ROOT
HETATM    1  C1  UNL     1     -25.375  19.263   8.926  1.00 20.00    -0.021 C 
HETATM    2  C2  UNL     1     -24.434  18.686  11.480  1.00 20.00    -0.021 C 
HETATM    3  C3  UNL     1     -24.550  19.259   7.849  1.00 20.00    -0.018 C 
HETATM    4  C4  UNL     1     -23.162  18.227  11.693  1.00 20.00    -0.024 C 
HETATM    5  C5  UNL     1     -22.026  17.938   8.134  1.00 20.00     0.135 C 
HETATM    6  C6  UNL     1     -21.330  17.806   9.524  1.00 20.00     0.087 C 
HETATM    7  C7  UNL     1     -24.735  18.511  10.021  1.00 20.00     0.036 C 
HETATM    8  C8  UNL     1     -23.111  19.013   8.188  1.00 20.00     0.083 C 
HETATM    9  C9  UNL     1     -22.587  17.783  10.364  1.00 20.00     0.021 C 
HETATM   10  C10 UNL     1     -23.324  18.904   9.666  1.00 20.00     0.020 C 
HETATM   11  O11 UNL     1     -21.698  17.326   7.128  1.00 20.00    -0.297 OA
ENDROOT
TORSDOF 0
ENDMDL
MODEL 9
REMARK VINA RESULT:      -4.2     12.716     13.937
REMARK  0 active torsions:
REMARK  status: ('A' for Active; 'I' for Inactive)
ROOT
HETATM    1  C1  UNL     1     -33.319  15.899  -3.381  1.00 20.00    -0.021 C 
HETATM    2  C2  UNL     1     -35.031  18.056  -3.776  1.00 20.00    -0.021 C 
HETATM    3  C3  UNL     1     -33.208  14.904  -4.299  1.00 20.00    -0.018 C 
HETATM    4  C4  UNL     1     -35.677  18.255  -4.966  1.00 20.00    -0.024 C 
HETATM    5  C5  UNL     1     -34.185  15.438  -6.936  1.00 20.00     0.135 C 
HETATM    6  C6  UNL     1     -35.330  16.468  -7.186  1.00 20.00     0.087 C 
HETATM    7  C7  UNL     1     -33.920  17.080  -4.026  1.00 20.00     0.036 C 
HETATM    8  C8  UNL     1     -34.145  15.044  -5.460  1.00 20.00     0.083 C 
HETATM    9  C9  UNL     1     -35.028  17.375  -6.014  1.00 20.00     0.021 C 
HETATM   10  C10 UNL     1     -34.797  16.302  -4.975  1.00 20.00     0.020 C 
HETATM   11  O11 UNL     1     -33.477  14.957  -7.807  1.00 20.00    -0.297 OA
ENDROOT
TORSDOF 0
ENDMDL
