MODEL 1
REMARK VINA RESULT:      -3.4      0.000      0.000
REMARK  3 active torsions:
REMARK  status: ('A' for Active; 'I' for Inactive)
REMARK    1  A    between atoms: C6_6  and  N10_10 
REMARK    2  A    between atoms: C7_7  and  C8_8 
REMARK    3  A    between atoms: C7_7  and  N10_10 
ROOT
HETATM    1  C1  UNL     1     -34.102  15.083  -6.339  1.00 20.00     0.086 C 
HETATM    2  C6  UNL     1     -34.516  14.993  -4.941  1.00 20.00     0.357 C 
HETATM    3  N9  UNL     1     -33.771  15.151  -7.449  1.00 20.00    -0.196 NA
ENDROOT
BRANCH   2   4
HETATM    4  N10 UNL     1     -35.128  16.302  -4.507  1.00 20.00    -0.062 N 
HETATM    5  C5  UNL     1     -36.340  16.641  -5.343  1.00 20.00     0.270 C 
HETATM    6  H27 UNL     1     -35.479  16.150  -3.546  1.00 20.00     0.280 HD
BRANCH   4   7
HETATM    7  C7  UNL     1     -34.140  17.407  -4.462  1.00 20.00     0.243 C 
BRANCH   7   8
HETATM    8  C8  UNL     1     -33.946  17.969  -3.038  1.00 20.00    -0.027 C 
HETATM    9  C2  UNL     1     -33.473  16.877  -2.063  1.00 20.00     0.016 C 
HETATM   10  C3  UNL     1     -32.866  19.065  -3.105  1.00 20.00     0.016 C 
HETATM   11  C4  UNL     1     -35.244  18.597  -2.501  1.00 20.00     0.016 C 
ENDBRANCH   7   8
ENDBRANCH   4   7
ENDBRANCH   2   4
TORSDOF 3
ENDMDL
MODEL 2
REMARK VINA RESULT:      -3.3      1.272      1.550
REMARK  3 active torsions:
REMARK  status: ('A' for Active; 'I' for Inactive)
REMARK    1  A    between atoms: C6_6  and  N10_10 
REMARK    2  A    between atoms: C7_7  and  C8_8 
REMARK    3  A    between atoms: C7_7  and  N10_10 
ROOT
HETATM    1  C1  UNL     1     -35.097  14.029  -4.537  1.00 20.00     0.086 C 
HETATM    2  C6  UNL     1     -34.167  15.143  -4.709  1.00 20.00     0.357 C 
HETATM    3  N9  UNL     1     -35.833  13.143  -4.402  1.00 20.00    -0.196 NA
ENDROOT
BRANCH   2   4
HETATM    4  N10 UNL     1     -34.854  16.438  -4.351  1.00 20.00    -0.062 N 
HETATM    5  C5  UNL     1     -35.970  16.749  -5.320  1.00 20.00     0.270 C 
HETATM    6  H27 UNL     1     -35.308  16.278  -3.436  1.00 20.00     0.280 HD
BRANCH   4   7
HETATM    7  C7  UNL     1     -33.902  17.565  -4.196  1.00 20.00     0.243 C 
BRANCH   7   8
HETATM    8  C8  UNL     1     -33.867  18.115  -2.755  1.00 20.00    -0.027 C 
HETATM    9  C2  UNL     1     -33.527  17.010  -1.740  1.00 20.00     0.016 C 
HETATM   10  C3  UNL     1     -32.770  19.195  -2.688  1.00 20.00     0.016 C 
HETATM   11  C4  UNL     1     -35.209  18.760  -2.368  1.00 20.00     0.016 C 
ENDBRANCH   7   8
ENDBRANCH   4   7
ENDBRANCH   2   4
TORSDOF 3
ENDMDL
MODEL 3
REMARK VINA RESULT:      -3.3      1.287      2.142
REMARK  3 active torsions:
REMARK  status: ('A' for Active; 'I' for Inactive)
REMARK    1  A    between atoms: C6_6  and  N10_10 
REMARK    2  A    between atoms: C7_7  and  C8_8 
REMARK    3  A    between atoms: C7_7  and  N10_10 
ROOT
HETATM    1  C1  UNL     1     -35.268  15.196  -6.747  1.00 20.00     0.086 C 
HETATM    2  C6  UNL     1     -34.259  16.228  -6.526  1.00 20.00     0.357 C 
HETATM    3  N9  UNL     1     -36.071  14.377  -6.926  1.00 20.00    -0.196 NA
ENDROOT
BRANCH   2   4
HETATM    4  N10 UNL     1     -33.806  16.196  -5.087  1.00 20.00    -0.062 N 
HETATM    5  C5  UNL     1     -33.403  14.801  -4.674  1.00 20.00     0.270 C 
HETATM    6  H27 UNL     1     -32.943  16.766  -5.046  1.00 20.00     0.280 HD
BRANCH   4   7
HETATM    7  C7  UNL     1     -34.796  16.801  -4.163  1.00 20.00     0.243 C 
BRANCH   7   8
HETATM    8  C8  UNL     1     -34.149  17.785  -3.165  1.00 20.00    -0.027 C 
HETATM    9  C2  UNL     1     -33.103  18.678  -3.855  1.00 20.00     0.016 C 
HETATM   10  C3  UNL     1     -35.264  18.685  -2.599  1.00 20.00     0.016 C 
HETATM   11  C4  UNL     1     -33.484  17.040  -1.995  1.00 20.00     0.016 C 
ENDBRANCH   7   8
ENDBRANCH   4   7
ENDBRANCH   2   4
TORSDOF 3
ENDMDL
MODEL 4
REMARK VINA RESULT:      -3.3     12.098     13.365
REMARK  3 active torsions:
REMARK  status: ('A' for Active; 'I' for Inactive)
REMARK    1  A    between atoms: C6_6  and  N10_10 
REMARK    2  A    between atoms: C7_7  and  C8_8 
REMARK    3  A    between atoms: C7_7  and  N10_10 
ROOT
HETATM    1  C1  UNL     1     -32.265   7.913   1.813  1.00 20.00     0.086 C 
HETATM    2  C6  UNL     1     -32.227   7.057   2.996  1.00 20.00     0.357 C 
HETATM    3  N9  UNL     1     -32.293   8.590   0.872  1.00 20.00    -0.196 NA
ENDROOT
BRANCH   2   4
HETATM    4  N10 UNL     1     -33.072   7.664   4.090  1.00 20.00    -0.062 N 
HETATM    5  C5  UNL     1     -32.570   9.037   4.467  1.00 20.00     0.270 C 
HETATM    6  H27 UNL     1     -34.011   7.806   3.680  1.00 20.00     0.280 HD
BRANCH   4   7
HETATM    7  C7  UNL     1     -33.218   6.768   5.262  1.00 20.00     0.243 C 
BRANCH   7   8
HETATM    8  C8  UNL     1     -34.383   5.768   5.101  1.00 20.00    -0.027 C 
HETATM    9  C2  UNL     1     -33.926   4.483   4.391  1.00 20.00     0.016 C 
HETATM   10  C3  UNL     1     -34.884   5.397   6.510  1.00 20.00     0.016 C 
HETATM   11  C4  UNL     1     -35.551   6.391   4.318  1.00 20.00     0.016 C 
ENDBRANCH   7   8
ENDBRANCH   4   7
ENDBRANCH   2   4
TORSDOF 3
ENDMDL
MODEL 5
REMARK VINA RESULT:      -3.2      1.751      4.369
REMARK  3 active torsions:
REMARK  status: ('A' for Active; 'I' for Inactive)
REMARK    1  A    between atoms: C6_6  and  N10_10 
REMARK    2  A    between atoms: C7_7  and  C8_8 
REMARK    3  A    between atoms: C7_7  and  N10_10 
ROOT
HETATM    1  C1  UNL     1     -33.500  16.805  -2.198  1.00 20.00     0.086 C 
HETATM    2  C6  UNL     1     -33.210  16.141  -3.466  1.00 20.00     0.357 C 
HETATM    3  N9  UNL     1     -33.729  17.330  -1.189  1.00 20.00    -0.196 NA
ENDROOT
BRANCH   2   4
HETATM    4  N10 UNL     1     -33.746  16.969  -4.607  1.00 20.00    -0.062 N 
HETATM    5  C5  UNL     1     -33.420  18.431  -4.421  1.00 20.00     0.270 C 
HETATM    6  H27 UNL     1     -33.227  16.666  -5.450  1.00 20.00     0.280 HD
BRANCH   4   7
HETATM    7  C7  UNL     1     -35.190  16.734  -4.854  1.00 20.00     0.243 C 
BRANCH   7   8
HETATM    8  C8  UNL     1     -35.438  15.683  -5.956  1.00 20.00    -0.027 C 
HETATM    9  C2  UNL     1     -35.914  14.346  -5.361  1.00 20.00     0.016 C 
HETATM   10  C3  UNL     1     -36.541  16.224  -6.886  1.00 20.00     0.016 C 
HETATM   11  C4  UNL     1     -34.171  15.439  -6.794  1.00 20.00     0.016 C 
ENDBRANCH   7   8
ENDBRANCH   4   7
ENDBRANCH   2   4
TORSDOF 3
ENDMDL
MODEL 6
REMARK VINA RESULT:      -3.1      1.905      4.429
REMARK  3 active torsions:
REMARK  status: ('A' for Active; 'I' for Inactive)
REMARK    1  A    between atoms: C6_6  and  N10_10 
REMARK    2  A    between atoms: C7_7  and  C8_8 
REMARK    3  A    between atoms: C7_7  and  N10_10 
ROOT
HETATM    1  C1  UNL     1     -32.925  18.569  -2.381  1.00 20.00     0.086 C 
HETATM    2  C6  UNL     1     -34.047  17.769  -2.867  1.00 20.00     0.357 C 
HETATM    3  N9  UNL     1     -32.036  19.204  -1.992  1.00 20.00    -0.196 NA
ENDROOT
BRANCH   2   4
HETATM    4  N10 UNL     1     -33.884  17.511  -4.345  1.00 20.00    -0.062 N 
HETATM    5  C5  UNL     1     -33.646  18.796  -5.100  1.00 20.00     0.270 C 
HETATM    6  H27 UNL     1     -33.015  16.957  -4.444  1.00 20.00     0.280 HD
BRANCH   4   7
HETATM    7  C7  UNL     1     -34.999  16.714  -4.911  1.00 20.00     0.243 C 
BRANCH   7   8
HETATM    8  C8  UNL     1     -34.552  15.306  -5.360  1.00 20.00    -0.027 C 
HETATM    9  C2  UNL     1     -33.490  14.726  -4.412  1.00 20.00     0.016 C 
HETATM   10  C3  UNL     1     -35.788  14.387  -5.331  1.00 20.00     0.016 C 
HETATM   11  C4  UNL     1     -33.994  15.326  -6.794  1.00 20.00     0.016 C 
ENDBRANCH   7   8
ENDBRANCH   4   7
ENDBRANCH   2   4
TORSDOF 3
ENDMDL
MODEL 7
REMARK VINA RESULT:      -3.0      3.250      5.037
REMARK  3 active torsions:
REMARK  status: ('A' for Active; 'I' for Inactive)
REMARK    1  A    between atoms: C6_6  and  N10_10 
REMARK    2  A    between atoms: C7_7  and  C8_8 
REMARK    3  A    between atoms: C7_7  and  N10_10 
ROOT
HETATM    1  C1  UNL     1     -31.725  18.755  -0.040  1.00 20.00     0.086 C 
HETATM    2  C6  UNL     1     -33.108  19.031   0.341  1.00 20.00     0.357 C 
HETATM    3  N9  UNL     1     -30.625  18.538  -0.339  1.00 20.00    -0.196 NA
ENDROOT
BRANCH   2   4
HETATM    4  N10 UNL     1     -34.001  18.909  -0.869  1.00 20.00    -0.062 N 
HETATM    5  C5  UNL     1     -35.430  19.259  -0.530  1.00 20.00     0.270 C 
HETATM    6  H27 UNL     1     -33.681  19.633  -1.535  1.00 20.00     0.280 HD
BRANCH   4   7
HETATM    7  C7  UNL     1     -33.880  17.591  -1.538  1.00 20.00     0.243 C 
BRANCH   7   8
HETATM    8  C8  UNL     1     -33.704  17.716  -3.066  1.00 20.00    -0.027 C 
HETATM    9  C2  UNL     1     -32.748  18.865  -3.428  1.00 20.00     0.016 C 
HETATM   10  C3  UNL     1     -33.099  16.396  -3.582  1.00 20.00     0.016 C 
HETATM   11  C4  UNL     1     -35.054  17.941  -3.769  1.00 20.00     0.016 C 
ENDBRANCH   7   8
ENDBRANCH   4   7
ENDBRANCH   2   4
TORSDOF 3
ENDMDL
MODEL 8
REMARK VINA RESULT:      -3.0      1.726      4.234
REMARK  3 active torsions:
REMARK  status: ('A' for Active; 'I' for Inactive)
REMARK    1  A    between atoms: C6_6  and  N10_10 
REMARK    2  A    between atoms: C7_7  and  C8_8 
REMARK    3  A    between atoms: C7_7  and  N10_10 
ROOT
HETATM    1  C1  UNL     1     -33.574  17.240  -3.343  1.00 20.00     0.086 C 
HETATM    2  C6  UNL     1     -33.765  18.259  -4.372  1.00 20.00     0.357 C 
HETATM    3  N9  UNL     1     -33.421  16.433  -2.524  1.00 20.00    -0.196 NA
ENDROOT
BRANCH   2   4
HETATM    4  N10 UNL     1     -34.191  17.604  -5.663  1.00 20.00    -0.062 N 
HETATM    5  C5  UNL     1     -34.261  18.609  -6.787  1.00 20.00     0.270 C 
HETATM    6  H27 UNL     1     -33.432  16.947  -5.914  1.00 20.00     0.280 HD
BRANCH   4   7
HETATM    7  C7  UNL     1     -35.442  16.820  -5.519  1.00 20.00     0.243 C 
BRANCH   7   8
HETATM    8  C8  UNL     1     -35.341  15.422  -6.164  1.00 20.00    -0.027 C 
HETATM    9  C2  UNL     1     -35.984  15.401  -7.562  1.00 20.00     0.016 C 
HETATM   10  C3  UNL     1     -33.847  15.075  -6.308  1.00 20.00     0.016 C 
HETATM   11  C4  UNL     1     -36.007  14.349  -5.285  1.00 20.00     0.016 C 
ENDBRANCH   7   8
ENDBRANCH   4   7
ENDBRANCH   2   4
TORSDOF 3
ENDMDL
MODEL 9
REMARK VINA RESULT:      -3.0      4.282      6.145
REMARK  3 active torsions:
REMARK  status: ('A' for Active; 'I' for Inactive)
REMARK    1  A    between atoms: C6_6  and  N10_10 
REMARK    2  A    between atoms: C7_7  and  C8_8 
REMARK    3  A    between atoms: C7_7  and  N10_10 
ROOT
HETATM    1  C1  UNL     1     -31.413  18.985   1.487  1.00 20.00     0.086 C 
HETATM    2  C6  UNL     1     -32.773  19.156   1.991  1.00 20.00     0.357 C 
HETATM    3  N9  UNL     1     -30.332  18.850   1.090  1.00 20.00    -0.196 NA
ENDROOT
BRANCH   2   4
HETATM    4  N10 UNL     1     -33.754  19.062   0.848  1.00 20.00    -0.062 N 
HETATM    5  C5  UNL     1     -35.172  19.263   1.327  1.00 20.00     0.270 C 
HETATM    6  H27 UNL     1     -33.547  19.862   0.226  1.00 20.00     0.280 HD
BRANCH   4   7
HETATM    7  C7  UNL     1     -33.591  17.817   0.057  1.00 20.00     0.243 C 
BRANCH   7   8
HETATM    8  C8  UNL     1     -33.615  18.076  -1.464  1.00 20.00    -0.027 C 
HETATM    9  C2  UNL     1     -32.485  19.029  -1.890  1.00 20.00     0.016 C 
HETATM   10  C3  UNL     1     -33.409  16.725  -2.176  1.00 20.00     0.016 C 
HETATM   11  C4  UNL     1     -34.966  18.661  -1.912  1.00 20.00     0.016 C 
ENDBRANCH   7   8
ENDBRANCH   4   7
ENDBRANCH   2   4
TORSDOF 3
ENDMDL
