MODEL 1
REMARK VINA RESULT:      -5.3      0.000      0.000
REMARK  1 active torsions:
REMARK  status: ('A' for Active; 'I' for Inactive)
REMARK    1  A    between atoms: C3_3  and  C7_7 
ROOT
HETATM    1  C1  UNL     1     -32.901   6.076   3.004  1.00 20.00     0.259 C 
HETATM    2  C4  UNL     1     -32.030   7.298   2.858  1.00 20.00     0.111 C 
HETATM    3  C5  UNL     1     -32.553   8.530   3.566  1.00 20.00     0.013 C 
HETATM    4  C6  UNL     1     -32.929   8.172   4.990  1.00 20.00     0.037 C 
HETATM    5  C7  UNL     1     -34.008   7.102   4.943  1.00 20.00     0.154 C 
HETATM    6  O8  UNL     1     -32.863   5.167   2.177  1.00 20.00    -0.265 OA
HETATM    7  O9  UNL     1     -33.625   5.961   4.143  1.00 20.00    -0.312 OA
ENDROOT
BRANCH   5   8
HETATM    8  C3  UNL     1     -34.335   6.610   6.314  1.00 20.00    -0.005 C 
HETATM    9  C2  UNL     1     -34.642   5.340   6.599  1.00 20.00     0.009 C 
ENDBRANCH   5   8
TORSDOF 1
ENDMDL
MODEL 2
REMARK VINA RESULT:      -5.3      1.180      3.262
REMARK  1 active torsions:
REMARK  status: ('A' for Active; 'I' for Inactive)
REMARK    1  A    between atoms: C3_3  and  C7_7 
ROOT
HETATM    1  C1  UNL     1     -34.110   5.319   4.636  1.00 20.00     0.259 C 
HETATM    2  C4  UNL     1     -34.783   5.880   5.863  1.00 20.00     0.111 C 
HETATM    3  C5  UNL     1     -34.078   7.073   6.475  1.00 20.00     0.013 C 
HETATM    4  C6  UNL     1     -33.765   8.084   5.390  1.00 20.00     0.037 C 
HETATM    5  C7  UNL     1     -32.863   7.419   4.364  1.00 20.00     0.154 C 
HETATM    6  O8  UNL     1     -34.285   4.150   4.294  1.00 20.00    -0.265 OA
HETATM    7  O9  UNL     1     -33.415   6.182   3.857  1.00 20.00    -0.312 OA
ENDROOT
BRANCH   5   8
HETATM    8  C3  UNL     1     -32.619   8.321   3.200  1.00 20.00    -0.005 C 
HETATM    9  C2  UNL     1     -32.197   7.899   2.003  1.00 20.00     0.009 C 
ENDBRANCH   5   8
TORSDOF 1
ENDMDL
MODEL 3
REMARK VINA RESULT:      -5.0      1.091      1.448
REMARK  1 active torsions:
REMARK  status: ('A' for Active; 'I' for Inactive)
REMARK    1  A    between atoms: C3_3  and  C7_7 
ROOT
HETATM    1  C1  UNL     1     -32.465   7.348   3.191  1.00 20.00     0.259 C 
HETATM    2  C4  UNL     1     -32.034   8.399   4.183  1.00 20.00     0.111 C 
HETATM    3  C5  UNL     1     -33.084   8.757   5.214  1.00 20.00     0.013 C 
HETATM    4  C6  UNL     1     -33.648   7.488   5.822  1.00 20.00     0.037 C 
HETATM    5  C7  UNL     1     -34.273   6.663   4.709  1.00 20.00     0.154 C 
HETATM    6  O8  UNL     1     -31.937   7.265   2.084  1.00 20.00    -0.265 OA
HETATM    7  O9  UNL     1     -33.359   6.422   3.615  1.00 20.00    -0.312 OA
ENDROOT
BRANCH   5   8
HETATM    8  C3  UNL     1     -34.735   5.339   5.218  1.00 20.00    -0.005 C 
HETATM    9  C2  UNL     1     -34.547   4.913   6.473  1.00 20.00     0.009 C 
ENDBRANCH   5   8
TORSDOF 1
ENDMDL
MODEL 4
REMARK VINA RESULT:      -4.9      1.128      3.001
REMARK  1 active torsions:
REMARK  status: ('A' for Active; 'I' for Inactive)
REMARK    1  A    between atoms: C3_3  and  C7_7 
ROOT
HETATM    1  C1  UNL     1     -33.730   5.481   3.817  1.00 20.00     0.259 C 
HETATM    2  C4  UNL     1     -34.776   5.059   4.818  1.00 20.00     0.111 C 
HETATM    3  C5  UNL     1     -34.552   5.587   6.220  1.00 20.00     0.013 C 
HETATM    4  C6  UNL     1     -34.279   7.076   6.160  1.00 20.00     0.037 C 
HETATM    5  C7  UNL     1     -33.034   7.299   5.316  1.00 20.00     0.154 C 
HETATM    6  O8  UNL     1     -33.521   4.820   2.801  1.00 20.00    -0.265 OA
HETATM    7  O9  UNL     1     -33.127   6.677   4.015  1.00 20.00    -0.312 OA
ENDROOT
BRANCH   5   8
HETATM    8  C3  UNL     1     -32.781   8.756   5.110  1.00 20.00    -0.005 C 
HETATM    9  C2  UNL     1     -32.454   9.298   3.932  1.00 20.00     0.009 C 
ENDBRANCH   5   8
TORSDOF 1
ENDMDL
MODEL 5
REMARK VINA RESULT:      -4.9      1.570      3.619
REMARK  1 active torsions:
REMARK  status: ('A' for Active; 'I' for Inactive)
REMARK    1  A    between atoms: C3_3  and  C7_7 
ROOT
HETATM    1  C1  UNL     1     -33.298   7.718   5.222  1.00 20.00     0.259 C 
HETATM    2  C4  UNL     1     -33.761   7.210   6.564  1.00 20.00     0.111 C 
HETATM    3  C5  UNL     1     -34.838   6.148   6.496  1.00 20.00     0.013 C 
HETATM    4  C6  UNL     1     -34.426   5.076   5.506  1.00 20.00     0.037 C 
HETATM    5  C7  UNL     1     -34.251   5.726   4.144  1.00 20.00     0.154 C 
HETATM    6  O8  UNL     1     -32.785   8.830   5.106  1.00 20.00    -0.265 OA
HETATM    7  O9  UNL     1     -33.350   6.855   4.179  1.00 20.00    -0.312 OA
ENDROOT
BRANCH   5   8
HETATM    8  C3  UNL     1     -33.721   4.749   3.147  1.00 20.00    -0.005 C 
HETATM    9  C2  UNL     1     -32.759   5.031   2.262  1.00 20.00     0.009 C 
ENDBRANCH   5   8
TORSDOF 1
ENDMDL
MODEL 6
REMARK VINA RESULT:      -4.4      1.691      4.059
REMARK  1 active torsions:
REMARK  status: ('A' for Active; 'I' for Inactive)
REMARK    1  A    between atoms: C3_3  and  C7_7 
ROOT
HETATM    1  C1  UNL     1     -34.127   6.884   6.119  1.00 20.00     0.259 C 
HETATM    2  C4  UNL     1     -34.572   5.448   6.012  1.00 20.00     0.111 C 
HETATM    3  C5  UNL     1     -34.779   4.958   4.594  1.00 20.00     0.013 C 
HETATM    4  C6  UNL     1     -33.572   5.326   3.753  1.00 20.00     0.037 C 
HETATM    5  C7  UNL     1     -33.425   6.838   3.764  1.00 20.00     0.154 C 
HETATM    6  O8  UNL     1     -34.332   7.538   7.140  1.00 20.00    -0.265 OA
HETATM    7  O9  UNL     1     -33.382   7.382   5.103  1.00 20.00    -0.312 OA
ENDROOT
BRANCH   5   8
HETATM    8  C3  UNL     1     -32.179   7.261   3.059  1.00 20.00    -0.005 C 
HETATM    9  C2  UNL     1     -32.166   7.967   1.923  1.00 20.00     0.009 C 
ENDBRANCH   5   8
TORSDOF 1
ENDMDL
MODEL 7
REMARK VINA RESULT:      -4.3      1.604      3.455
REMARK  1 active torsions:
REMARK  status: ('A' for Active; 'I' for Inactive)
REMARK    1  A    between atoms: C3_3  and  C7_7 
ROOT
HETATM    1  C1  UNL     1     -34.366   5.684   5.401  1.00 20.00     0.259 C 
HETATM    2  C4  UNL     1     -34.031   4.515   4.510  1.00 20.00     0.111 C 
HETATM    3  C5  UNL     1     -33.703   4.890   3.079  1.00 20.00     0.013 C 
HETATM    4  C6  UNL     1     -32.690   6.018   3.073  1.00 20.00     0.037 C 
HETATM    5  C7  UNL     1     -33.298   7.208   3.796  1.00 20.00     0.154 C 
HETATM    6  O8  UNL     1     -35.050   5.536   6.412  1.00 20.00    -0.265 OA
HETATM    7  O9  UNL     1     -33.778   6.871   5.117  1.00 20.00    -0.312 OA
ENDROOT
BRANCH   5   8
HETATM    8  C3  UNL     1     -32.304   8.313   3.940  1.00 20.00    -0.005 C 
HETATM    9  C2  UNL     1     -32.222   9.110   5.010  1.00 20.00     0.009 C 
ENDBRANCH   5   8
TORSDOF 1
ENDMDL
MODEL 8
REMARK VINA RESULT:      -4.2      1.576      2.441
REMARK  1 active torsions:
REMARK  status: ('A' for Active; 'I' for Inactive)
REMARK    1  A    between atoms: C3_3  and  C7_7 
ROOT
HETATM    1  C1  UNL     1     -32.550   8.247   4.359  1.00 20.00     0.259 C 
HETATM    2  C4  UNL     1     -32.287   7.942   2.906  1.00 20.00     0.111 C 
HETATM    3  C5  UNL     1     -32.287   6.467   2.564  1.00 20.00     0.013 C 
HETATM    4  C6  UNL     1     -33.525   5.814   3.147  1.00 20.00     0.037 C 
HETATM    5  C7  UNL     1     -33.494   5.998   4.656  1.00 20.00     0.154 C 
HETATM    6  O8  UNL     1     -32.165   9.299   4.866  1.00 20.00    -0.265 OA
HETATM    7  O9  UNL     1     -33.334   7.381   5.044  1.00 20.00    -0.312 OA
ENDROOT
BRANCH   5   8
HETATM    8  C3  UNL     1     -34.749   5.489   5.283  1.00 20.00    -0.005 C 
HETATM    9  C2  UNL     1     -34.934   5.379   6.603  1.00 20.00     0.009 C 
ENDBRANCH   5   8
TORSDOF 1
ENDMDL
MODEL 9
REMARK VINA RESULT:      -4.2      1.361      3.244
REMARK  1 active torsions:
REMARK  status: ('A' for Active; 'I' for Inactive)
REMARK    1  A    between atoms: C3_3  and  C7_7 
ROOT
HETATM    1  C1  UNL     1     -33.983   7.074   5.751  1.00 20.00     0.259 C 
HETATM    2  C4  UNL     1     -33.645   8.543   5.731  1.00 20.00     0.111 C 
HETATM    3  C5  UNL     1     -32.428   8.896   4.902  1.00 20.00     0.013 C 
HETATM    4  C6  UNL     1     -32.537   8.240   3.540  1.00 20.00     0.037 C 
HETATM    5  C7  UNL     1     -32.611   6.735   3.741  1.00 20.00     0.154 C 
HETATM    6  O8  UNL     1     -34.628   6.583   6.676  1.00 20.00    -0.265 OA
HETATM    7  O9  UNL     1     -33.661   6.347   4.655  1.00 20.00    -0.312 OA
ENDROOT
BRANCH   5   8
HETATM    8  C3  UNL     1     -32.849   6.033   2.446  1.00 20.00    -0.005 C 
HETATM    9  C2  UNL     1     -32.940   4.704   2.321  1.00 20.00     0.009 C 
ENDBRANCH   5   8
TORSDOF 1
ENDMDL
