MODEL 1
REMARK VINA RESULT:      -6.0      0.000      0.000
REMARK  0 active torsions:
REMARK  status: ('A' for Active; 'I' for Inactive)
ROOT
HETATM    1  C1  UNL     1     -32.693   5.959   2.677  1.00 20.00    -0.029 C 
HETATM    2  C2  UNL     1     -33.562   5.376   3.528  1.00 20.00    -0.014 C 
HETATM    3  C3  UNL     1     -33.853   7.125   5.523  1.00 20.00     0.143 C 
HETATM    4  C4  UNL     1     -32.146   7.368   2.655  1.00 20.00     0.032 C 
HETATM    5  C5  UNL     1     -32.231   9.118   4.732  1.00 20.00     0.018 A 
HETATM    6  C6  UNL     1     -32.594   7.707   5.046  1.00 20.00     0.061 A 
HETATM    7  C7  UNL     1     -32.798   8.255   3.647  1.00 20.00     0.001 A 
HETATM    8  C8  UNL     1     -34.324   5.847   4.776  1.00 20.00     0.031 C 
HETATM    9  C9  UNL     1     -35.792   6.063   4.371  1.00 20.00     0.027 C 
HETATM   10  C10 UNL     1     -34.249   4.715   5.822  1.00 20.00     0.027 C 
HETATM   11  O11 UNL     1     -34.451   7.630   6.465  1.00 20.00    -0.296 OA
ENDROOT
TORSDOF 0
ENDMDL
MODEL 2
REMARK VINA RESULT:      -4.5      1.123      3.268
REMARK  0 active torsions:
REMARK  status: ('A' for Active; 'I' for Inactive)
ROOT
HETATM    1  C1  UNL     1     -33.141   5.127   2.810  1.00 20.00    -0.029 C 
HETATM    2  C2  UNL     1     -32.688   6.388   2.647  1.00 20.00    -0.014 C 
HETATM    3  C3  UNL     1     -33.632   7.736   4.748  1.00 20.00     0.143 C 
HETATM    4  C4  UNL     1     -33.827   4.482   3.992  1.00 20.00     0.032 C 
HETATM    5  C5  UNL     1     -34.988   5.816   6.054  1.00 20.00     0.018 A 
HETATM    6  C6  UNL     1     -34.598   6.640   4.874  1.00 20.00     0.061 A 
HETATM    7  C7  UNL     1     -33.856   5.355   5.189  1.00 20.00     0.001 A 
HETATM    8  C8  UNL     1     -32.677   7.647   3.527  1.00 20.00     0.031 C 
HETATM    9  C9  UNL     1     -31.242   7.837   4.048  1.00 20.00     0.027 C 
HETATM   10  C10 UNL     1     -33.052   8.844   2.630  1.00 20.00     0.027 C 
HETATM   11  O11 UNL     1     -33.628   8.653   5.560  1.00 20.00    -0.296 OA
ENDROOT
TORSDOF 0
ENDMDL
MODEL 3
REMARK VINA RESULT:      -4.5      1.689      3.665
REMARK  0 active torsions:
REMARK  status: ('A' for Active; 'I' for Inactive)
ROOT
HETATM    1  C1  UNL     1     -34.302   6.001   5.943  1.00 20.00    -0.029 C 
HETATM    2  C2  UNL     1     -33.807   7.245   5.779  1.00 20.00    -0.014 C 
HETATM    3  C3  UNL     1     -32.662   7.221   3.368  1.00 20.00     0.143 C 
HETATM    4  C4  UNL     1     -34.434   4.866   4.953  1.00 20.00     0.032 C 
HETATM    5  C5  UNL     1     -33.128   4.694   2.577  1.00 20.00     0.018 A 
HETATM    6  C6  UNL     1     -32.662   5.761   3.508  1.00 20.00     0.061 A 
HETATM    7  C7  UNL     1     -34.095   5.267   3.567  1.00 20.00     0.001 A 
HETATM    8  C8  UNL     1     -33.190   8.009   4.598  1.00 20.00     0.031 C 
HETATM    9  C9  UNL     1     -34.243   9.008   4.090  1.00 20.00     0.027 C 
HETATM   10  C10 UNL     1     -31.971   8.788   5.134  1.00 20.00     0.027 C 
HETATM   11  O11 UNL     1     -32.244   7.745   2.343  1.00 20.00    -0.296 OA
ENDROOT
TORSDOF 0
ENDMDL
MODEL 4
REMARK VINA RESULT:      -4.4      1.555      2.762
REMARK  0 active torsions:
REMARK  status: ('A' for Active; 'I' for Inactive)
ROOT
HETATM    1  C1  UNL     1     -33.671   8.474   5.745  1.00 20.00    -0.029 C 
HETATM    2  C2  UNL     1     -34.375   7.323   5.757  1.00 20.00    -0.014 C 
HETATM    3  C3  UNL     1     -33.515   5.967   3.626  1.00 20.00     0.143 C 
HETATM    4  C4  UNL     1     -32.486   8.885   4.901  1.00 20.00     0.032 C 
HETATM    5  C5  UNL     1     -31.694   7.664   2.607  1.00 20.00     0.018 A 
HETATM    6  C6  UNL     1     -33.028   7.262   3.139  1.00 20.00     0.061 A 
HETATM    7  C7  UNL     1     -31.953   7.774   4.079  1.00 20.00     0.001 A 
HETATM    8  C8  UNL     1     -34.297   6.008   4.966  1.00 20.00     0.031 C 
HETATM    9  C9  UNL     1     -33.684   4.945   5.892  1.00 20.00     0.027 C 
HETATM   10  C10 UNL     1     -35.740   5.596   4.608  1.00 20.00     0.027 C 
HETATM   11  O11 UNL     1     -33.317   4.948   2.975  1.00 20.00    -0.296 OA
ENDROOT
TORSDOF 0
ENDMDL
MODEL 5
REMARK VINA RESULT:      -4.1     12.096     13.510
REMARK  0 active torsions:
REMARK  status: ('A' for Active; 'I' for Inactive)
ROOT
HETATM    1  C1  UNL     1     -34.521  18.507  -5.276  1.00 20.00    -0.029 C 
HETATM    2  C2  UNL     1     -34.711  17.383  -5.997  1.00 20.00    -0.014 C 
HETATM    3  C3  UNL     1     -34.031  15.388  -4.360  1.00 20.00     0.143 C 
HETATM    4  C4  UNL     1     -34.223  18.682  -3.804  1.00 20.00     0.032 C 
HETATM    5  C5  UNL     1     -33.326  16.731  -2.140  1.00 20.00     0.018 A 
HETATM    6  C6  UNL     1     -33.310  16.411  -3.596  1.00 20.00     0.061 A 
HETATM    7  C7  UNL     1     -34.307  17.413  -3.044  1.00 20.00     0.001 A 
HETATM    8  C8  UNL     1     -34.702  15.882  -5.671  1.00 20.00     0.031 C 
HETATM    9  C9  UNL     1     -36.163  15.401  -5.651  1.00 20.00     0.027 C 
HETATM   10  C10 UNL     1     -33.948  15.163  -6.809  1.00 20.00     0.027 C 
HETATM   11  O11 UNL     1     -34.057  14.228  -3.969  1.00 20.00    -0.296 OA
ENDROOT
TORSDOF 0
ENDMDL
MODEL 6
REMARK VINA RESULT:      -4.0     10.422     11.370
REMARK  0 active torsions:
REMARK  status: ('A' for Active; 'I' for Inactive)
ROOT
HETATM    1  C1  UNL     1     -42.442  15.360   5.076  1.00 20.00    -0.029 C 
HETATM    2  C2  UNL     1     -42.046  14.075   5.189  1.00 20.00    -0.014 C 
HETATM    3  C3  UNL     1     -40.618  13.988   7.442  1.00 20.00     0.143 C 
HETATM    4  C4  UNL     1     -42.348  16.500   6.065  1.00 20.00     0.032 C 
HETATM    5  C5  UNL     1     -40.751  16.545   8.262  1.00 20.00     0.018 A 
HETATM    6  C6  UNL     1     -40.501  15.442   7.291  1.00 20.00     0.061 A 
HETATM    7  C7  UNL     1     -41.879  16.066   7.402  1.00 20.00     0.001 A 
HETATM    8  C8  UNL     1     -41.361  13.254   6.293  1.00 20.00     0.031 C 
HETATM    9  C9  UNL     1     -42.432  12.355   6.935  1.00 20.00     0.027 C 
HETATM   10  C10 UNL     1     -40.294  12.368   5.619  1.00 20.00     0.027 C 
HETATM   11  O11 UNL     1     -40.127  13.425   8.413  1.00 20.00    -0.296 OA
ENDROOT
TORSDOF 0
ENDMDL
MODEL 7
REMARK VINA RESULT:      -3.9     12.451     13.751
REMARK  0 active torsions:
REMARK  status: ('A' for Active; 'I' for Inactive)
ROOT
HETATM    1  C1  UNL     1     -33.291  15.907  -3.284  1.00 20.00    -0.029 C 
HETATM    2  C2  UNL     1     -33.907  15.133  -4.202  1.00 20.00    -0.014 C 
HETATM    3  C3  UNL     1     -35.506  16.793  -5.545  1.00 20.00     0.143 C 
HETATM    4  C4  UNL     1     -33.270  17.411  -3.133  1.00 20.00     0.032 C 
HETATM    5  C5  UNL     1     -35.009  19.132  -4.315  1.00 20.00     0.018 A 
HETATM    6  C6  UNL     1     -35.362  17.686  -4.390  1.00 20.00     0.061 A 
HETATM    7  C7  UNL     1     -33.912  18.113  -4.269  1.00 20.00     0.001 A 
HETATM    8  C8  UNL     1     -34.808  15.413  -5.414  1.00 20.00     0.031 C 
HETATM    9  C9  UNL     1     -33.961  15.202  -6.680  1.00 20.00     0.027 C 
HETATM   10  C10 UNL     1     -35.952  14.379  -5.392  1.00 20.00     0.027 C 
HETATM   11  O11 UNL     1     -36.163  17.143  -6.518  1.00 20.00    -0.296 OA
ENDROOT
TORSDOF 0
ENDMDL
MODEL 8
REMARK VINA RESULT:      -3.8     12.593     13.972
REMARK  0 active torsions:
REMARK  status: ('A' for Active; 'I' for Inactive)
ROOT
HETATM    1  C1  UNL     1     -35.408  14.401  -5.250  1.00 20.00    -0.029 C 
HETATM    2  C2  UNL     1     -35.733  15.406  -6.090  1.00 20.00    -0.014 C 
HETATM    3  C3  UNL     1     -34.426  17.536  -5.155  1.00 20.00     0.143 C 
HETATM    4  C4  UNL     1     -34.370  14.344  -4.153  1.00 20.00     0.032 C 
HETATM    5  C5  UNL     1     -33.162  16.498  -3.021  1.00 20.00     0.018 A 
HETATM    6  C6  UNL     1     -34.332  16.786  -3.898  1.00 20.00     0.061 A 
HETATM    7  C7  UNL     1     -33.496  15.540  -4.123  1.00 20.00     0.001 A 
HETATM    8  C8  UNL     1     -35.235  16.846  -6.286  1.00 20.00     0.031 C 
HETATM    9  C9  UNL     1     -34.366  16.867  -7.555  1.00 20.00     0.027 C 
HETATM   10  C10 UNL     1     -36.472  17.740  -6.505  1.00 20.00     0.027 C 
HETATM   11  O11 UNL     1     -33.907  18.641  -5.256  1.00 20.00    -0.296 OA
ENDROOT
TORSDOF 0
ENDMDL
MODEL 9
REMARK VINA RESULT:      -3.8     12.564     14.102
REMARK  0 active torsions:
REMARK  status: ('A' for Active; 'I' for Inactive)
ROOT
HETATM    1  C1  UNL     1     -33.340  15.613  -3.431  1.00 20.00    -0.029 C 
HETATM    2  C2  UNL     1     -33.466  16.957  -3.424  1.00 20.00    -0.014 C 
HETATM    3  C3  UNL     1     -34.910  17.526  -5.595  1.00 20.00     0.143 C 
HETATM    4  C4  UNL     1     -34.022  14.574  -4.291  1.00 20.00     0.032 C 
HETATM    5  C5  UNL     1     -35.327  15.075  -6.621  1.00 20.00     0.018 A 
HETATM    6  C6  UNL     1     -34.513  16.196  -6.069  1.00 20.00     0.061 A 
HETATM    7  C7  UNL     1     -35.092  15.144  -5.143  1.00 20.00     0.001 A 
HETATM    8  C8  UNL     1     -34.294  17.962  -4.238  1.00 20.00     0.031 C 
HETATM    9  C9  UNL     1     -35.446  18.449  -3.343  1.00 20.00     0.027 C 
HETATM   10  C10 UNL     1     -33.376  19.156  -4.575  1.00 20.00     0.027 C 
HETATM   11  O11 UNL     1     -35.661  18.223  -6.266  1.00 20.00    -0.296 OA
ENDROOT
TORSDOF 0
ENDMDL
