MODEL 1
REMARK VINA RESULT:      -4.3      0.000      0.000
REMARK  3 active torsions:
REMARK  status: ('A' for Active; 'I' for Inactive)
REMARK    1  A    between atoms: C6_6  and  C7_7 
REMARK    2  A    between atoms: C8_8  and  C10_10 
REMARK    3  A    between atoms: C9_9  and  C11_11 
ROOT
HETATM    1  C1  UNL     1     -41.958  13.571   8.104  1.00 20.00    -0.021 C 
HETATM    2  C2  UNL     1     -40.998  14.323   7.522  1.00 20.00    -0.020 C 
HETATM    3  C5  UNL     1     -43.159  13.430   5.954  1.00 20.00    -0.003 C 
HETATM    4  C6  UNL     1     -42.197  14.175   5.380  1.00 20.00     0.024 C 
HETATM    5  C8  UNL     1     -42.670  12.611   7.146  1.00 20.00     0.039 C 
HETATM    6  C9  UNL     1     -40.821  14.059   6.022  1.00 20.00     0.056 C 
ENDROOT
BRANCH   4   7
HETATM    7  C7  UNL     1     -42.469  15.045   4.182  1.00 20.00     0.205 C 
HETATM    8  O12 UNL     1     -43.024  16.156   4.431  1.00 20.00    -0.644 OA
HETATM    9  O13 UNL     1     -42.110  14.563   3.067  1.00 20.00    -0.644 OA
ENDBRANCH   4   7
BRANCH   6  10
HETATM   10  C11 UNL     1     -40.400  12.554   5.969  1.00 20.00     0.029 A 
HETATM   11  C4  UNL     1     -39.029  12.126   6.462  1.00 20.00    -0.024 A 
HETATM   12  C3  UNL     1     -38.564  11.839   5.229  1.00 20.00    -0.024 A 
HETATM   13  C10 UNL     1     -39.859  12.217   4.530  1.00 20.00     0.028 A 
ENDBRANCH   6  10
TORSDOF 3
ENDMDL
MODEL 2
REMARK VINA RESULT:      -4.1      2.247      3.906
REMARK  3 active torsions:
REMARK  status: ('A' for Active; 'I' for Inactive)
REMARK    1  A    between atoms: C6_6  and  C7_7 
REMARK    2  A    between atoms: C8_8  and  C10_10 
REMARK    3  A    between atoms: C9_9  and  C11_11 
ROOT
HETATM    1  C1  UNL     1     -43.404  14.116   5.857  1.00 20.00    -0.021 C 
HETATM    2  C2  UNL     1     -42.248  14.758   5.574  1.00 20.00    -0.020 C 
HETATM    3  C5  UNL     1     -42.128  12.141   6.604  1.00 20.00    -0.003 C 
HETATM    4  C6  UNL     1     -40.983  12.788   6.323  1.00 20.00     0.024 C 
HETATM    5  C8  UNL     1     -43.283  13.070   6.971  1.00 20.00     0.039 C 
HETATM    6  C9  UNL     1     -41.056  14.305   6.424  1.00 20.00     0.056 C 
ENDROOT
BRANCH   4   7
HETATM    7  C7  UNL     1     -39.722  12.054   5.951  1.00 20.00     0.205 C 
HETATM    8  O12 UNL     1     -39.575  11.815   4.716  1.00 20.00    -0.644 OA
HETATM    9  O13 UNL     1     -38.957  11.762   6.918  1.00 20.00    -0.644 OA
ENDBRANCH   4   7
BRANCH   6  10
HETATM   10  C11 UNL     1     -41.499  14.661   7.881  1.00 20.00     0.029 A 
HETATM   11  C4  UNL     1     -41.446  16.099   8.366  1.00 20.00    -0.024 A 
HETATM   12  C3  UNL     1     -40.415  15.884   9.207  1.00 20.00    -0.024 A 
HETATM   13  C10 UNL     1     -40.296  14.409   8.865  1.00 20.00     0.028 A 
ENDBRANCH   6  10
TORSDOF 3
ENDMDL
MODEL 3
REMARK VINA RESULT:      -4.0     12.278     13.246
REMARK  3 active torsions:
REMARK  status: ('A' for Active; 'I' for Inactive)
REMARK    1  A    between atoms: C6_6  and  C7_7 
REMARK    2  A    between atoms: C8_8  and  C10_10 
REMARK    3  A    between atoms: C9_9  and  C11_11 
ROOT
HETATM    1  C1  UNL     1     -36.099  18.958  -5.384  1.00 20.00    -0.021 C 
HETATM    2  C2  UNL     1     -34.823  18.671  -5.724  1.00 20.00    -0.020 C 
HETATM    3  C5  UNL     1     -36.674  16.562  -5.499  1.00 20.00    -0.003 C 
HETATM    4  C6  UNL     1     -35.400  16.284  -5.833  1.00 20.00     0.024 C 
HETATM    5  C8  UNL     1     -36.823  17.823  -4.652  1.00 20.00     0.039 C 
HETATM    6  C9  UNL     1     -34.365  17.268  -5.307  1.00 20.00     0.056 C 
ENDROOT
BRANCH   4   7
HETATM    7  C7  UNL     1     -35.036  15.076  -6.654  1.00 20.00     0.205 C 
HETATM    8  O12 UNL     1     -33.809  14.969  -6.952  1.00 20.00    -0.644 OA
HETATM    9  O13 UNL     1     -35.999  14.308  -6.950  1.00 20.00    -0.644 OA
ENDBRANCH   4   7
BRANCH   6  10
HETATM   10  C11 UNL     1     -34.489  17.298  -3.750  1.00 20.00     0.029 A 
HETATM   11  C4  UNL     1     -33.550  18.160  -2.925  1.00 20.00    -0.024 A 
HETATM   12  C3  UNL     1     -32.878  17.112  -2.407  1.00 20.00    -0.024 A 
HETATM   13  C10 UNL     1     -33.707  16.073  -3.143  1.00 20.00     0.028 A 
ENDBRANCH   6  10
TORSDOF 3
ENDMDL
MODEL 4
REMARK VINA RESULT:      -4.0     11.846     13.101
REMARK  3 active torsions:
REMARK  status: ('A' for Active; 'I' for Inactive)
REMARK    1  A    between atoms: C6_6  and  C7_7 
REMARK    2  A    between atoms: C8_8  and  C10_10 
REMARK    3  A    between atoms: C9_9  and  C11_11 
ROOT
HETATM    1  C1  UNL     1     -35.287  19.034  -5.246  1.00 20.00    -0.021 C 
HETATM    2  C2  UNL     1     -33.968  18.742  -5.224  1.00 20.00    -0.020 C 
HETATM    3  C5  UNL     1     -35.826  16.639  -5.000  1.00 20.00    -0.003 C 
HETATM    4  C6  UNL     1     -34.511  16.357  -4.974  1.00 20.00     0.024 C 
HETATM    5  C8  UNL     1     -36.163  18.035  -4.482  1.00 20.00     0.039 C 
HETATM    6  C9  UNL     1     -33.622  17.471  -4.439  1.00 20.00     0.056 C 
ENDROOT
BRANCH   4   7
HETATM    7  C7  UNL     1     -33.970  15.028  -5.429  1.00 20.00     0.205 C 
HETATM    8  O12 UNL     1     -33.649  14.224  -4.503  1.00 20.00    -0.644 OA
HETATM    9  O13 UNL     1     -33.901  14.869  -6.684  1.00 20.00    -0.644 OA
ENDBRANCH   4   7
BRANCH   6  10
HETATM   10  C11 UNL     1     -34.101  17.803  -2.989  1.00 20.00     0.029 A 
HETATM   11  C4  UNL     1     -33.349  18.821  -2.150  1.00 20.00    -0.024 A 
HETATM   12  C3  UNL     1     -32.851  17.903  -1.298  1.00 20.00    -0.024 A 
HETATM   13  C10 UNL     1     -33.522  16.730  -1.993  1.00 20.00     0.028 A 
ENDBRANCH   6  10
TORSDOF 3
ENDMDL
MODEL 5
REMARK VINA RESULT:      -3.8     20.293     21.668
REMARK  3 active torsions:
REMARK  status: ('A' for Active; 'I' for Inactive)
REMARK    1  A    between atoms: C6_6  and  C7_7 
REMARK    2  A    between atoms: C8_8  and  C10_10 
REMARK    3  A    between atoms: C9_9  and  C11_11 
ROOT
HETATM    1  C1  UNL     1     -27.220   0.127  10.987  1.00 20.00    -0.021 C 
HETATM    2  C2  UNL     1     -27.409  -0.670   9.911  1.00 20.00    -0.020 C 
HETATM    3  C5  UNL     1     -28.684  -1.334  12.332  1.00 20.00    -0.003 C 
HETATM    4  C6  UNL     1     -28.863  -2.125  11.258  1.00 20.00     0.024 C 
HETATM    5  C8  UNL     1     -27.348  -0.595  12.332  1.00 20.00     0.039 C 
HETATM    6  C9  UNL     1     -27.712  -2.131  10.261  1.00 20.00     0.056 C 
ENDROOT
BRANCH   4   7
HETATM    7  C7  UNL     1     -30.109  -2.950  11.073  1.00 20.00     0.205 C 
HETATM    8  O12 UNL     1     -31.176  -2.433  11.520  1.00 20.00    -0.644 OA
HETATM    9  O13 UNL     1     -29.943  -4.063  10.492  1.00 20.00    -0.644 OA
ENDBRANCH   4   7
BRANCH   6  10
HETATM   10  C11 UNL     1     -26.429  -2.592  11.025  1.00 20.00     0.029 A 
HETATM   11  C4  UNL     1     -25.147  -2.877  10.263  1.00 20.00    -0.024 A 
HETATM   12  C3  UNL     1     -25.204  -4.209  10.464  1.00 20.00    -0.024 A 
HETATM   13  C10 UNL     1     -26.495  -4.147  11.263  1.00 20.00     0.028 A 
ENDBRANCH   6  10
TORSDOF 3
ENDMDL
MODEL 6
REMARK VINA RESULT:      -3.7      2.613      3.547
REMARK  3 active torsions:
REMARK  status: ('A' for Active; 'I' for Inactive)
REMARK    1  A    between atoms: C6_6  and  C7_7 
REMARK    2  A    between atoms: C8_8  and  C10_10 
REMARK    3  A    between atoms: C9_9  and  C11_11 
ROOT
HETATM    1  C1  UNL     1     -42.605  15.360   5.524  1.00 20.00    -0.021 C 
HETATM    2  C2  UNL     1     -42.921  14.052   5.389  1.00 20.00    -0.020 C 
HETATM    3  C5  UNL     1     -41.982  14.971   7.879  1.00 20.00    -0.003 C 
HETATM    4  C6  UNL     1     -42.295  13.670   7.735  1.00 20.00     0.024 C 
HETATM    5  C8  UNL     1     -41.533  15.639   6.582  1.00 20.00     0.039 C 
HETATM    6  C9  UNL     1     -42.141  13.121   6.323  1.00 20.00     0.056 C 
ENDROOT
BRANCH   4   7
HETATM    7  C7  UNL     1     -42.748  12.825   8.896  1.00 20.00     0.205 C 
HETATM    8  O12 UNL     1     -42.406  13.245  10.041  1.00 20.00    -0.644 OA
HETATM    9  O13 UNL     1     -43.417  11.794   8.590  1.00 20.00    -0.644 OA
ENDBRANCH   4   7
BRANCH   6  10
HETATM   10  C11 UNL     1     -40.655  13.340   5.891  1.00 20.00     0.029 A 
HETATM   11  C4  UNL     1     -40.137  12.728   4.601  1.00 20.00    -0.024 A 
HETATM   12  C3  UNL     1     -39.356  11.823   5.225  1.00 20.00    -0.024 A 
HETATM   13  C10 UNL     1     -39.742  12.285   6.620  1.00 20.00     0.028 A 
ENDBRANCH   6  10
TORSDOF 3
ENDMDL
MODEL 7
REMARK VINA RESULT:      -3.7     12.163     13.567
REMARK  3 active torsions:
REMARK  status: ('A' for Active; 'I' for Inactive)
REMARK    1  A    between atoms: C6_6  and  C7_7 
REMARK    2  A    between atoms: C8_8  and  C10_10 
REMARK    3  A    between atoms: C9_9  and  C11_11 
ROOT
HETATM    1  C1  UNL     1     -35.975  16.644  -7.631  1.00 20.00    -0.021 C 
HETATM    2  C2  UNL     1     -34.682  16.398  -7.321  1.00 20.00    -0.020 C 
HETATM    3  C5  UNL     1     -36.696  15.421  -5.614  1.00 20.00    -0.003 C 
HETATM    4  C6  UNL     1     -35.407  15.184  -5.310  1.00 20.00     0.024 C 
HETATM    5  C8  UNL     1     -36.910  16.701  -6.419  1.00 20.00     0.039 C 
HETATM    6  C9  UNL     1     -34.421  16.225  -5.821  1.00 20.00     0.056 C 
ENDROOT
BRANCH   4   7
HETATM    7  C7  UNL     1     -34.984  13.981  -4.511  1.00 20.00     0.205 C 
HETATM    8  O12 UNL     1     -33.791  14.004  -4.081  1.00 20.00    -0.644 OA
HETATM    9  O13 UNL     1     -35.869  13.087  -4.361  1.00 20.00    -0.644 OA
ENDBRANCH   4   7
BRANCH   6  10
HETATM   10  C11 UNL     1     -34.840  17.607  -5.222  1.00 20.00     0.029 A 
HETATM   11  C4  UNL     1     -33.958  18.826  -5.422  1.00 20.00    -0.024 A 
HETATM   12  C3  UNL     1     -33.572  18.885  -4.132  1.00 20.00    -0.024 A 
HETATM   13  C10 UNL     1     -34.392  17.676  -3.714  1.00 20.00     0.028 A 
ENDBRANCH   6  10
TORSDOF 3
ENDMDL
MODEL 8
REMARK VINA RESULT:      -3.6     11.779     13.109
REMARK  3 active torsions:
REMARK  status: ('A' for Active; 'I' for Inactive)
REMARK    1  A    between atoms: C6_6  and  C7_7 
REMARK    2  A    between atoms: C8_8  and  C10_10 
REMARK    3  A    between atoms: C9_9  and  C11_11 
ROOT
HETATM    1  C1  UNL     1     -34.311  15.576  -7.231  1.00 20.00    -0.021 C 
HETATM    2  C2  UNL     1     -34.816  14.886  -6.185  1.00 20.00    -0.020 C 
HETATM    3  C5  UNL     1     -35.859  17.437  -6.758  1.00 20.00    -0.003 C 
HETATM    4  C6  UNL     1     -36.354  16.746  -5.715  1.00 20.00     0.024 C 
HETATM    5  C8  UNL     1     -34.407  17.098  -7.084  1.00 20.00     0.039 C 
HETATM    6  C9  UNL     1     -35.381  15.770  -5.067  1.00 20.00     0.056 C 
ENDROOT
BRANCH   4   7
HETATM    7  C7  UNL     1     -37.764  16.942  -5.224  1.00 20.00     0.205 C 
HETATM    8  O12 UNL     1     -38.595  16.056  -5.587  1.00 20.00    -0.644 OA
HETATM    9  O13 UNL     1     -37.952  17.968  -4.507  1.00 20.00    -0.644 OA
ENDBRANCH   4   7
BRANCH   6  10
HETATM   10  C11 UNL     1     -34.137  16.588  -4.593  1.00 20.00     0.029 A 
HETATM   11  C4  UNL     1     -33.132  15.966  -3.639  1.00 20.00    -0.024 A 
HETATM   12  C3  UNL     1     -33.486  16.745  -2.597  1.00 20.00    -0.024 A 
HETATM   13  C10 UNL     1     -34.549  17.500  -3.377  1.00 20.00     0.028 A 
ENDBRANCH   6  10
TORSDOF 3
ENDMDL
MODEL 9
REMARK VINA RESULT:      -3.6     17.251     18.821
REMARK  3 active torsions:
REMARK  status: ('A' for Active; 'I' for Inactive)
REMARK    1  A    between atoms: C6_6  and  C7_7 
REMARK    2  A    between atoms: C8_8  and  C10_10 
REMARK    3  A    between atoms: C9_9  and  C11_11 
ROOT
HETATM    1  C1  UNL     1     -23.177  17.001  12.110  1.00 20.00    -0.021 C 
HETATM    2  C2  UNL     1     -24.085  16.615  11.186  1.00 20.00    -0.020 C 
HETATM    3  C5  UNL     1     -22.249  18.641  10.517  1.00 20.00    -0.003 C 
HETATM    4  C6  UNL     1     -23.159  18.254   9.606  1.00 20.00     0.024 C 
HETATM    5  C8  UNL     1     -22.710  18.453  11.961  1.00 20.00     0.039 C 
HETATM    6  C9  UNL     1     -24.459  17.710  10.181  1.00 20.00     0.056 C 
ENDROOT
BRANCH   4   7
HETATM    7  C7  UNL     1     -22.905  18.369   8.126  1.00 20.00     0.205 C 
HETATM    8  O12 UNL     1     -22.005  17.604   7.667  1.00 20.00    -0.644 OA
HETATM    9  O13 UNL     1     -23.622  19.216   7.515  1.00 20.00    -0.644 OA
ENDBRANCH   4   7
BRANCH   6  10
HETATM   10  C11 UNL     1     -25.081  18.826  11.081  1.00 20.00     0.029 A 
HETATM   11  C4  UNL     1     -25.866  18.455  12.327  1.00 20.00    -0.024 A 
HETATM   12  C3  UNL     1     -27.055  18.827  11.812  1.00 20.00    -0.024 A 
HETATM   13  C10 UNL     1     -26.470  19.263  10.480  1.00 20.00     0.028 A 
ENDBRANCH   6  10
TORSDOF 3
ENDMDL
