MODEL 1
REMARK VINA RESULT:      -4.6      0.000      0.000
REMARK  1 active torsions:
REMARK  status: ('A' for Active; 'I' for Inactive)
REMARK    1  A    between atoms: C3_3  and  C8_8 
ROOT
HETATM    1  C1  UNL     1     -24.456  18.540  10.136  1.00 20.00     0.147 C 
HETATM    2  C4  UNL     1     -23.706  16.426  11.963  1.00 20.00     0.007 C 
HETATM    3  C5  UNL     1     -25.162  16.911  11.810  1.00 20.00     0.022 C 
HETATM    4  C6  UNL     1     -23.725  18.749  12.330  1.00 20.00     0.027 C 
HETATM    5  C7  UNL     1     -22.874  17.684  11.620  1.00 20.00     0.002 C 
HETATM    6  C8  UNL     1     -24.995  18.410  11.552  1.00 20.00     0.038 C 
HETATM    7  C9  UNL     1     -22.997  18.083  10.112  1.00 20.00     0.018 C 
HETATM    8  C10 UNL     1     -22.075  19.249   9.744  1.00 20.00     0.023 C 
HETATM    9  C11 UNL     1     -22.792  16.927   9.137  1.00 20.00     0.023 C 
HETATM   10  O12 UNL     1     -25.086  18.916   9.158  1.00 20.00    -0.296 OA
ENDROOT
BRANCH   6  11
HETATM   11  C3  UNL     1     -26.176  19.263  11.816  1.00 20.00    -0.020 C 
HETATM   12  C2  UNL     1     -27.345  18.802  12.273  1.00 20.00     0.008 C 
ENDBRANCH   6  11
TORSDOF 1
ENDMDL
MODEL 2
REMARK VINA RESULT:      -4.2     17.316     18.527
REMARK  1 active torsions:
REMARK  status: ('A' for Active; 'I' for Inactive)
REMARK    1  A    between atoms: C3_3  and  C8_8 
ROOT
HETATM    1  C1  UNL     1     -40.851  13.850   7.675  1.00 20.00     0.147 C 
HETATM    2  C4  UNL     1     -43.417  13.244   6.484  1.00 20.00     0.007 C 
HETATM    3  C5  UNL     1     -42.334  12.170   6.708  1.00 20.00     0.022 C 
HETATM    4  C6  UNL     1     -41.449  13.990   5.436  1.00 20.00     0.027 C 
HETATM    5  C7  UNL     1     -42.598  14.542   6.295  1.00 20.00     0.002 C 
HETATM    6  C8  UNL     1     -41.035  12.943   6.468  1.00 20.00     0.038 C 
HETATM    7  C9  UNL     1     -41.874  14.984   7.610  1.00 20.00     0.018 C 
HETATM    8  C10 UNL     1     -41.168  16.335   7.457  1.00 20.00     0.023 C 
HETATM    9  C11 UNL     1     -42.768  14.998   8.847  1.00 20.00     0.023 C 
HETATM   10  O12 UNL     1     -40.042  13.689   8.578  1.00 20.00    -0.296 OA
ENDROOT
BRANCH   6  11
HETATM   11  C3  UNL     1     -39.836  12.138   6.144  1.00 20.00    -0.020 C 
HETATM   12  C2  UNL     1     -39.498  11.764   4.905  1.00 20.00     0.008 C 
ENDBRANCH   6  11
TORSDOF 1
ENDMDL
MODEL 3
REMARK VINA RESULT:      -3.6     16.379     18.022
REMARK  1 active torsions:
REMARK  status: ('A' for Active; 'I' for Inactive)
REMARK    1  A    between atoms: C3_3  and  C8_8 
ROOT
HETATM    1  C1  UNL     1     -40.763  13.848   7.618  1.00 20.00     0.147 C 
HETATM    2  C4  UNL     1     -41.901  16.323   6.641  1.00 20.00     0.007 C 
HETATM    3  C5  UNL     1     -40.640  16.284   7.527  1.00 20.00     0.022 C 
HETATM    4  C6  UNL     1     -42.439  15.125   8.592  1.00 20.00     0.027 C 
HETATM    5  C7  UNL     1     -42.680  15.060   7.076  1.00 20.00     0.002 C 
HETATM    6  C8  UNL     1     -40.917  15.104   8.462  1.00 20.00     0.038 C 
HETATM    7  C9  UNL     1     -41.950  13.739   6.660  1.00 20.00     0.018 C 
HETATM    8  C10 UNL     1     -42.782  12.493   6.976  1.00 20.00     0.023 C 
HETATM    9  C11 UNL     1     -41.490  13.706   5.205  1.00 20.00     0.023 C 
HETATM   10  O12 UNL     1     -39.827  13.062   7.663  1.00 20.00    -0.296 OA
ENDROOT
BRANCH   6  11
HETATM   11  C3  UNL     1     -40.149  15.065   9.726  1.00 20.00    -0.020 C 
HETATM   12  C2  UNL     1     -40.587  14.489  10.851  1.00 20.00     0.008 C 
ENDBRANCH   6  11
TORSDOF 1
ENDMDL
MODEL 4
REMARK VINA RESULT:      -3.6     17.750     18.737
REMARK  1 active torsions:
REMARK  status: ('A' for Active; 'I' for Inactive)
REMARK    1  A    between atoms: C3_3  and  C8_8 
ROOT
HETATM    1  C1  UNL     1     -33.960  15.820  -4.545  1.00 20.00     0.147 C 
HETATM    2  C4  UNL     1     -34.271  18.516  -5.549  1.00 20.00     0.007 C 
HETATM    3  C5  UNL     1     -33.213  18.143  -4.491  1.00 20.00     0.022 C 
HETATM    4  C6  UNL     1     -35.389  17.474  -3.762  1.00 20.00     0.027 C 
HETATM    5  C7  UNL     1     -35.402  17.491  -5.298  1.00 20.00     0.002 C 
HETATM    6  C8  UNL     1     -33.921  17.063  -3.669  1.00 20.00     0.038 C 
HETATM    7  C9  UNL     1     -34.974  16.032  -5.670  1.00 20.00     0.018 C 
HETATM    8  C10 UNL     1     -36.132  15.039  -5.544  1.00 20.00     0.023 C 
HETATM    9  C11 UNL     1     -34.319  15.899  -7.042  1.00 20.00     0.023 C 
HETATM   10  O12 UNL     1     -33.272  14.819  -4.404  1.00 20.00    -0.296 OA
ENDROOT
BRANCH   6  11
HETATM   11  C3  UNL     1     -33.392  16.812  -2.310  1.00 20.00    -0.020 C 
HETATM   12  C2  UNL     1     -33.763  17.499  -1.224  1.00 20.00     0.008 C 
ENDBRANCH   6  11
TORSDOF 1
ENDMDL
MODEL 5
REMARK VINA RESULT:      -3.6     17.167     18.521
REMARK  1 active torsions:
REMARK  status: ('A' for Active; 'I' for Inactive)
REMARK    1  A    between atoms: C3_3  and  C8_8 
ROOT
HETATM    1  C1  UNL     1     -42.054  13.272   7.809  1.00 20.00     0.147 C 
HETATM    2  C4  UNL     1     -41.920  15.721   6.274  1.00 20.00     0.007 C 
HETATM    3  C5  UNL     1     -42.070  14.337   5.613  1.00 20.00     0.022 C 
HETATM    4  C6  UNL     1     -40.156  14.370   7.044  1.00 20.00     0.027 C 
HETATM    5  C7  UNL     1     -41.152  15.410   7.580  1.00 20.00     0.002 C 
HETATM    6  C8  UNL     1     -41.246  13.430   6.530  1.00 20.00     0.038 C 
HETATM    7  C9  UNL     1     -42.014  14.584   8.592  1.00 20.00     0.018 C 
HETATM    8  C10 UNL     1     -41.302  14.387   9.934  1.00 20.00     0.023 C 
HETATM    9  C11 UNL     1     -43.417  15.138   8.822  1.00 20.00     0.023 C 
HETATM   10  O12 UNL     1     -42.671  12.273   8.150  1.00 20.00    -0.296 OA
ENDROOT
BRANCH   6  11
HETATM   11  C3  UNL     1     -40.789  12.145   5.956  1.00 20.00    -0.020 C 
HETATM   12  C2  UNL     1     -39.514  11.866   5.665  1.00 20.00     0.008 C 
ENDBRANCH   6  11
TORSDOF 1
ENDMDL
MODEL 6
REMARK VINA RESULT:      -3.4     19.601     20.647
REMARK  1 active torsions:
REMARK  status: ('A' for Active; 'I' for Inactive)
REMARK    1  A    between atoms: C3_3  and  C8_8 
ROOT
HETATM    1  C1  UNL     1     -36.257  15.678  -5.667  1.00 20.00     0.147 C 
HETATM    2  C4  UNL     1     -34.543  16.879  -7.665  1.00 20.00     0.007 C 
HETATM    3  C5  UNL     1     -34.233  15.513  -7.021  1.00 20.00     0.022 C 
HETATM    4  C6  UNL     1     -34.519  17.181  -5.333  1.00 20.00     0.027 C 
HETATM    5  C7  UNL     1     -35.330  17.623  -6.561  1.00 20.00     0.002 C 
HETATM    6  C8  UNL     1     -34.738  15.691  -5.587  1.00 20.00     0.038 C 
HETATM    7  C9  UNL     1     -36.736  16.984  -6.302  1.00 20.00     0.018 C 
HETATM    8  C10 UNL     1     -37.565  17.795  -5.302  1.00 20.00     0.023 C 
HETATM    9  C11 UNL     1     -37.550  16.722  -7.566  1.00 20.00     0.023 C 
HETATM   10  O12 UNL     1     -36.987  14.763  -5.315  1.00 20.00    -0.296 OA
ENDROOT
BRANCH   6  11
HETATM   11  C3  UNL     1     -34.191  14.763  -4.573  1.00 20.00    -0.020 C 
HETATM   12  C2  UNL     1     -32.917  14.763  -4.168  1.00 20.00     0.008 C 
ENDBRANCH   6  11
TORSDOF 1
ENDMDL
MODEL 7
REMARK VINA RESULT:      -3.4     23.016     24.241
REMARK  1 active torsions:
REMARK  status: ('A' for Active; 'I' for Inactive)
REMARK    1  A    between atoms: C3_3  and  C8_8 
ROOT
HETATM    1  C1  UNL     1     -41.181   6.132  -0.286  1.00 20.00     0.147 C 
HETATM    2  C4  UNL     1     -43.131   6.082   1.851  1.00 20.00     0.007 C 
HETATM    3  C5  UNL     1     -42.853   4.859   0.954  1.00 20.00     0.022 C 
HETATM    4  C6  UNL     1     -43.414   6.759  -0.383  1.00 20.00     0.027 C 
HETATM    5  C7  UNL     1     -42.807   7.280   0.929  1.00 20.00     0.002 C 
HETATM    6  C8  UNL     1     -42.557   5.495  -0.406  1.00 20.00     0.038 C 
HETATM    7  C9  UNL     1     -41.280   7.377   0.595  1.00 20.00     0.018 C 
HETATM    8  C10 UNL     1     -40.941   8.634  -0.211  1.00 20.00     0.023 C 
HETATM    9  C11 UNL     1     -40.363   7.273   1.811  1.00 20.00     0.023 C 
HETATM   10  O12 UNL     1     -40.147   5.707  -0.782  1.00 20.00    -0.296 OA
ENDROOT
BRANCH   6  11
HETATM   11  C3  UNL     1     -42.703   4.622  -1.591  1.00 20.00    -0.020 C 
HETATM   12  C2  UNL     1     -43.416   3.490  -1.604  1.00 20.00     0.008 C 
ENDBRANCH   6  11
TORSDOF 1
ENDMDL
MODEL 8
REMARK VINA RESULT:      -3.4     16.946     18.958
REMARK  1 active torsions:
REMARK  status: ('A' for Active; 'I' for Inactive)
REMARK    1  A    between atoms: C3_3  and  C8_8 
ROOT
HETATM    1  C1  UNL     1     -41.895  15.222   6.640  1.00 20.00     0.147 C 
HETATM    2  C4  UNL     1     -41.126  12.454   6.291  1.00 20.00     0.007 C 
HETATM    3  C5  UNL     1     -41.154  13.460   5.123  1.00 20.00     0.022 C 
HETATM    4  C6  UNL     1     -43.276  13.404   6.220  1.00 20.00     0.027 C 
HETATM    5  C7  UNL     1     -42.213  12.994   7.251  1.00 20.00     0.002 C 
HETATM    6  C8  UNL     1     -42.344  14.356   5.473  1.00 20.00     0.038 C 
HETATM    7  C9  UNL     1     -41.806  14.359   7.899  1.00 20.00     0.018 C 
HETATM    8  C10 UNL     1     -42.822  14.829   8.944  1.00 20.00     0.023 C 
HETATM    9  C11 UNL     1     -40.400  14.381   8.491  1.00 20.00     0.023 C 
HETATM   10  O12 UNL     1     -41.613  16.410   6.586  1.00 20.00    -0.296 OA
ENDROOT
BRANCH   6  11
HETATM   11  C3  UNL     1     -42.943  15.126   4.361  1.00 20.00    -0.020 C 
HETATM   12  C2  UNL     1     -42.432  15.178   3.126  1.00 20.00     0.008 C 
ENDBRANCH   6  11
TORSDOF 1
ENDMDL
MODEL 9
REMARK VINA RESULT:      -3.4     19.392     20.401
REMARK  1 active torsions:
REMARK  status: ('A' for Active; 'I' for Inactive)
REMARK    1  A    between atoms: C3_3  and  C8_8 
ROOT
HETATM    1  C1  UNL     1     -35.053  16.811  -5.437  1.00 20.00     0.147 C 
HETATM    2  C4  UNL     1     -36.113  15.038  -7.463  1.00 20.00     0.007 C 
HETATM    3  C5  UNL     1     -35.969  14.617  -5.987  1.00 20.00     0.022 C 
HETATM    4  C6  UNL     1     -33.873  15.386  -6.839  1.00 20.00     0.027 C 
HETATM    5  C7  UNL     1     -34.981  16.076  -7.649  1.00 20.00     0.002 C 
HETATM    6  C8  UNL     1     -34.692  15.338  -5.550  1.00 20.00     0.038 C 
HETATM    7  C9  UNL     1     -35.242  17.390  -6.839  1.00 20.00     0.018 C 
HETATM    8  C10 UNL     1     -34.189  18.464  -7.123  1.00 20.00     0.023 C 
HETATM    9  C11 UNL     1     -36.643  17.971  -7.017  1.00 20.00     0.023 C 
HETATM   10  O12 UNL     1     -35.205  17.436  -4.397  1.00 20.00    -0.296 OA
ENDROOT
BRANCH   6  11
HETATM   11  C3  UNL     1     -34.005  14.803  -4.353  1.00 20.00    -0.020 C 
HETATM   12  C2  UNL     1     -32.700  14.957  -4.108  1.00 20.00     0.008 C 
ENDBRANCH   6  11
TORSDOF 1
ENDMDL
