MODEL 1
REMARK VINA RESULT:      -4.1      0.000      0.000
REMARK  0 active torsions:
REMARK  status: ('A' for Active; 'I' for Inactive)
ROOT
HETATM    1  C1  UNL     1     -33.904   6.661   6.487  1.00 20.00     0.005 A 
HETATM    2  C2  UNL     1     -34.810   5.679   6.310  1.00 20.00     0.107 A 
HETATM    3  C3  UNL     1     -33.459   6.819   5.026  1.00 20.00     0.132 A 
HETATM    4  C4  UNL     1     -33.667   8.204   4.432  1.00 20.00     0.031 C 
HETATM    5  O5  UNL     1     -35.945   6.004   4.210  1.00 20.00    -0.223 OA
HETATM    6  O6  UNL     1     -34.114   4.215   4.526  1.00 20.00    -0.223 OA
HETATM    7  S7  UNL     1     -34.608   5.572   4.542  1.00 20.00     0.172 S 
ENDROOT
TORSDOF 0
ENDMDL
MODEL 2
REMARK VINA RESULT:      -3.3     17.107     17.557
REMARK  0 active torsions:
REMARK  status: ('A' for Active; 'I' for Inactive)
ROOT
HETATM    1  C1  UNL     1     -24.273  18.417  10.101  1.00 20.00     0.005 A 
HETATM    2  C2  UNL     1     -23.594  18.623   8.956  1.00 20.00     0.107 A 
HETATM    3  C3  UNL     1     -23.159  17.723  10.899  1.00 20.00     0.132 A 
HETATM    4  C4  UNL     1     -22.759  18.416  12.191  1.00 20.00     0.031 C 
HETATM    5  O5  UNL     1     -21.295  19.131   9.467  1.00 20.00    -0.223 OA
HETATM    6  O6  UNL     1     -22.034  16.825   8.577  1.00 20.00    -0.223 OA
HETATM    7  S7  UNL     1     -22.064  17.910   9.530  1.00 20.00     0.172 S 
ENDROOT
TORSDOF 0
ENDMDL
MODEL 3
REMARK VINA RESULT:      -3.3      1.684      2.229
REMARK  0 active torsions:
REMARK  status: ('A' for Active; 'I' for Inactive)
ROOT
HETATM    1  C1  UNL     1     -32.972   6.102   3.354  1.00 20.00     0.005 A 
HETATM    2  C2  UNL     1     -33.717   5.087   3.835  1.00 20.00     0.107 A 
HETATM    3  C3  UNL     1     -33.610   7.246   4.156  1.00 20.00     0.132 A 
HETATM    4  C4  UNL     1     -32.656   8.020   5.052  1.00 20.00     0.031 C 
HETATM    5  O5  UNL     1     -34.193   5.475   6.165  1.00 20.00    -0.223 OA
HETATM    6  O6  UNL     1     -35.952   5.849   4.316  1.00 20.00    -0.223 OA
HETATM    7  S7  UNL     1     -34.678   6.090   4.952  1.00 20.00     0.172 S 
ENDROOT
TORSDOF 0
ENDMDL
MODEL 4
REMARK VINA RESULT:      -3.2     16.875     17.345
REMARK  0 active torsions:
REMARK  status: ('A' for Active; 'I' for Inactive)
ROOT
HETATM    1  C1  UNL     1     -22.495  18.428  11.444  1.00 20.00     0.005 A 
HETATM    2  C2  UNL     1     -21.681  18.540  10.376  1.00 20.00     0.107 A 
HETATM    3  C3  UNL     1     -23.755  17.939  10.713  1.00 20.00     0.132 A 
HETATM    4  C4  UNL     1     -24.283  16.588  11.167  1.00 20.00     0.031 C 
HETATM    5  O5  UNL     1     -22.164  16.773   8.811  1.00 20.00    -0.223 OA
HETATM    6  O6  UNL     1     -22.943  19.203   8.432  1.00 20.00    -0.223 OA
HETATM    7  S7  UNL     1     -22.879  17.971   9.184  1.00 20.00     0.172 S 
ENDROOT
TORSDOF 0
ENDMDL
MODEL 5
REMARK VINA RESULT:      -3.2      8.662      9.089
REMARK  0 active torsions:
REMARK  status: ('A' for Active; 'I' for Inactive)
ROOT
HETATM    1  C1  UNL     1     -43.030   7.316  -0.237  1.00 20.00     0.005 A 
HETATM    2  C2  UNL     1     -42.873   6.006  -0.513  1.00 20.00     0.107 A 
HETATM    3  C3  UNL     1     -41.773   7.514   0.623  1.00 20.00     0.132 A 
HETATM    4  C4  UNL     1     -40.792   8.554   0.105  1.00 20.00     0.031 C 
HETATM    5  O5  UNL     1     -40.529   5.518  -0.784  1.00 20.00    -0.223 OA
HETATM    6  O6  UNL     1     -41.834   4.882   1.349  1.00 20.00    -0.223 OA
HETATM    7  S7  UNL     1     -41.337   5.824   0.373  1.00 20.00     0.172 S 
ENDROOT
TORSDOF 0
ENDMDL
MODEL 6
REMARK VINA RESULT:      -3.1     16.532     16.849
REMARK  0 active torsions:
REMARK  status: ('A' for Active; 'I' for Inactive)
ROOT
HETATM    1  C1  UNL     1     -24.977  16.849  12.149  1.00 20.00     0.005 A 
HETATM    2  C2  UNL     1     -24.235  16.731  11.030  1.00 20.00     0.107 A 
HETATM    3  C3  UNL     1     -24.864  18.370  12.331  1.00 20.00     0.132 A 
HETATM    4  C4  UNL     1     -26.184  19.123  12.327  1.00 20.00     0.031 C 
HETATM    5  O5  UNL     1     -24.600  18.648   9.618  1.00 20.00    -0.223 OA
HETATM    6  O6  UNL     1     -22.461  18.363  11.031  1.00 20.00    -0.223 OA
HETATM    7  S7  UNL     1     -23.892  18.472  10.864  1.00 20.00     0.172 S 
ENDROOT
TORSDOF 0
ENDMDL
MODEL 7
REMARK VINA RESULT:      -3.1      1.600      2.157
REMARK  0 active torsions:
REMARK  status: ('A' for Active; 'I' for Inactive)
ROOT
HETATM    1  C1  UNL     1     -33.045   7.535   4.192  1.00 20.00     0.005 A 
HETATM    2  C2  UNL     1     -34.138   7.668   4.970  1.00 20.00     0.107 A 
HETATM    3  C3  UNL     1     -33.035   6.003   4.083  1.00 20.00     0.132 A 
HETATM    4  C4  UNL     1     -33.133   5.455   2.668  1.00 20.00     0.031 C 
HETATM    5  O5  UNL     1     -35.761   5.993   4.365  1.00 20.00    -0.223 OA
HETATM    6  O6  UNL     1     -34.310   5.806   6.490  1.00 20.00    -0.223 OA
HETATM    7  S7  UNL     1     -34.499   5.924   5.063  1.00 20.00     0.172 S 
ENDROOT
TORSDOF 0
ENDMDL
MODEL 8
REMARK VINA RESULT:      -3.1      9.055      9.565
REMARK  0 active torsions:
REMARK  status: ('A' for Active; 'I' for Inactive)
ROOT
HETATM    1  C1  UNL     1     -42.529   6.093   1.119  1.00 20.00     0.005 A 
HETATM    2  C2  UNL     1     -42.553   7.416   1.376  1.00 20.00     0.107 A 
HETATM    3  C3  UNL     1     -42.124   6.162  -0.361  1.00 20.00     0.132 A 
HETATM    4  C4  UNL     1     -40.828   5.448  -0.711  1.00 20.00     0.031 C 
HETATM    5  O5  UNL     1     -40.796   8.506   0.139  1.00 20.00    -0.223 OA
HETATM    6  O6  UNL     1     -43.271   8.631  -0.578  1.00 20.00    -0.223 OA
HETATM    7  S7  UNL     1     -42.054   7.921  -0.260  1.00 20.00     0.172 S 
ENDROOT
TORSDOF 0
ENDMDL
MODEL 9
REMARK VINA RESULT:      -3.1     13.619     13.940
REMARK  0 active torsions:
REMARK  status: ('A' for Active; 'I' for Inactive)
ROOT
HETATM    1  C1  UNL     1     -34.808  14.146  -4.322  1.00 20.00     0.005 A 
HETATM    2  C2  UNL     1     -35.516  14.500  -5.413  1.00 20.00     0.107 A 
HETATM    3  C3  UNL     1     -33.577  15.034  -4.558  1.00 20.00     0.132 A 
HETATM    4  C4  UNL     1     -33.278  16.033  -3.452  1.00 20.00     0.031 C 
HETATM    5  O5  UNL     1     -35.168  16.839  -5.872  1.00 20.00    -0.223 OA
HETATM    6  O6  UNL     1     -34.032  14.977  -7.251  1.00 20.00    -0.223 OA
HETATM    7  S7  UNL     1     -34.323  15.677  -6.021  1.00 20.00     0.172 S 
ENDROOT
TORSDOF 0
ENDMDL
