MODEL 1
REMARK VINA RESULT:      -5.3      0.000      0.000
REMARK  2 active torsions:
REMARK  status: ('A' for Active; 'I' for Inactive)
REMARK    1  A    between atoms: C7_7  and  C9_9 
REMARK    2  A    between atoms: C8_8  and  C9_9 
ROOT
HETATM    1  C1  UNL     1     -32.808   9.523   0.279  1.00 20.00     0.012 C 
HETATM    2  C2  UNL     1     -32.496   8.779   1.168  1.00 20.00    -0.117 C 
HETATM    3  C8  UNL     1     -32.112   7.866   2.252  1.00 20.00     0.093 C 
ENDROOT
BRANCH   3   4
HETATM    4  C9  UNL     1     -32.512   8.443   3.600  1.00 20.00     0.017 C 
BRANCH   4   5
HETATM    5  C7  UNL     1     -32.888   7.339   4.576  1.00 20.00    -0.006 C 
HETATM    6  C5  UNL     1     -33.660   6.197   3.914  1.00 20.00     0.082 C 
HETATM    7  C3  UNL     1     -34.435   5.636   5.079  1.00 20.00     0.127 C 
HETATM    8  C4  UNL     1     -34.394   6.542   6.281  1.00 20.00     0.079 C 
HETATM    9  O10 UNL     1     -35.029   4.566   5.050  1.00 20.00    -0.298 OA
HETATM   10  C6  UNL     1     -33.822   7.823   5.686  1.00 20.00     0.012 C 
ENDBRANCH   4   5
ENDBRANCH   3   4
TORSDOF 2
ENDMDL
MODEL 2
REMARK VINA RESULT:      -5.2      0.876      1.529
REMARK  2 active torsions:
REMARK  status: ('A' for Active; 'I' for Inactive)
REMARK    1  A    between atoms: C7_7  and  C9_9 
REMARK    2  A    between atoms: C8_8  and  C9_9 
ROOT
HETATM    1  C1  UNL     1     -32.812   9.500   0.716  1.00 20.00     0.012 C 
HETATM    2  C2  UNL     1     -32.462   8.745   1.581  1.00 20.00    -0.117 C 
HETATM    3  C8  UNL     1     -32.031   7.818   2.636  1.00 20.00     0.093 C 
ENDROOT
BRANCH   3   4
HETATM    4  C9  UNL     1     -32.584   8.253   3.983  1.00 20.00     0.017 C 
BRANCH   4   5
HETATM    5  C7  UNL     1     -33.751   7.375   4.404  1.00 20.00    -0.006 C 
HETATM    6  C5  UNL     1     -33.786   7.113   5.911  1.00 20.00     0.082 C 
HETATM    7  C3  UNL     1     -34.531   5.805   5.976  1.00 20.00     0.127 C 
HETATM    8  C4  UNL     1     -34.667   5.156   4.624  1.00 20.00     0.079 C 
HETATM    9  O10 UNL     1     -34.977   5.325   7.011  1.00 20.00    -0.298 OA
HETATM   10  C6  UNL     1     -33.694   5.977   3.786  1.00 20.00     0.012 C 
ENDBRANCH   4   5
ENDBRANCH   3   4
TORSDOF 2
ENDMDL
MODEL 3
REMARK VINA RESULT:      -4.5      2.442      4.840
REMARK  2 active torsions:
REMARK  status: ('A' for Active; 'I' for Inactive)
REMARK    1  A    between atoms: C7_7  and  C9_9 
REMARK    2  A    between atoms: C8_8  and  C9_9 
ROOT
HETATM    1  C1  UNL     1     -34.467   5.099   6.319  1.00 20.00     0.012 C 
HETATM    2  C2  UNL     1     -34.369   6.179   5.803  1.00 20.00    -0.117 C 
HETATM    3  C8  UNL     1     -34.255   7.500   5.171  1.00 20.00     0.093 C 
ENDROOT
BRANCH   3   4
HETATM    4  C9  UNL     1     -32.833   8.024   5.288  1.00 20.00     0.017 C 
BRANCH   4   5
HETATM    5  C7  UNL     1     -32.211   8.228   3.916  1.00 20.00    -0.006 C 
HETATM    6  C5  UNL     1     -32.856   9.375   3.137  1.00 20.00     0.082 C 
HETATM    7  C3  UNL     1     -32.576   8.971   1.711  1.00 20.00     0.127 C 
HETATM    8  C4  UNL     1     -32.085   7.551   1.606  1.00 20.00     0.079 C 
HETATM    9  O10 UNL     1     -32.729   9.713   0.750  1.00 20.00    -0.298 OA
HETATM   10  C6  UNL     1     -32.384   7.015   3.001  1.00 20.00     0.012 C 
ENDBRANCH   4   5
ENDBRANCH   3   4
TORSDOF 2
ENDMDL
MODEL 4
REMARK VINA RESULT:      -4.5     11.572     12.027
REMARK  2 active torsions:
REMARK  status: ('A' for Active; 'I' for Inactive)
REMARK    1  A    between atoms: C7_7  and  C9_9 
REMARK    2  A    between atoms: C8_8  and  C9_9 
ROOT
HETATM    1  C1  UNL     1     -33.315  15.514  -3.896  1.00 20.00     0.012 C 
HETATM    2  C2  UNL     1     -33.436  16.273  -2.974  1.00 20.00    -0.117 C 
HETATM    3  C8  UNL     1     -33.588  17.198  -1.843  1.00 20.00     0.093 C 
ENDROOT
BRANCH   3   4
HETATM    4  C9  UNL     1     -32.703  18.419  -2.033  1.00 20.00     0.017 C 
BRANCH   4   5
HETATM    5  C7  UNL     1     -32.286  19.005  -0.694  1.00 20.00    -0.006 C 
HETATM    6  C5  UNL     1     -30.993  18.392  -0.153  1.00 20.00     0.082 C 
HETATM    7  C3  UNL     1     -31.151  18.606   1.331  1.00 20.00     0.127 C 
HETATM    8  C4  UNL     1     -32.550  19.023   1.702  1.00 20.00     0.079 C 
HETATM    9  O10 UNL     1     -30.246  18.458   2.141  1.00 20.00    -0.298 OA
HETATM   10  C6  UNL     1     -33.311  18.744   0.411  1.00 20.00     0.012 C 
ENDBRANCH   4   5
ENDBRANCH   3   4
TORSDOF 2
ENDMDL
MODEL 5
REMARK VINA RESULT:      -4.3     11.567     12.691
REMARK  2 active torsions:
REMARK  status: ('A' for Active; 'I' for Inactive)
REMARK    1  A    between atoms: C7_7  and  C9_9 
REMARK    2  A    between atoms: C8_8  and  C9_9 
ROOT
HETATM    1  C1  UNL     1     -31.109  18.466   0.064  1.00 20.00     0.012 C 
HETATM    2  C2  UNL     1     -31.909  18.396  -0.828  1.00 20.00    -0.117 C 
HETATM    3  C8  UNL     1     -32.888  18.316  -1.920  1.00 20.00     0.093 C 
ENDROOT
BRANCH   3   4
HETATM    4  C9  UNL     1     -33.343  16.880  -2.121  1.00 20.00     0.017 C 
BRANCH   4   5
HETATM    5  C7  UNL     1     -33.309  16.498  -3.592  1.00 20.00    -0.006 C 
HETATM    6  C5  UNL     1     -34.342  17.255  -4.428  1.00 20.00     0.082 C 
HETATM    7  C3  UNL     1     -34.561  16.305  -5.578  1.00 20.00     0.127 C 
HETATM    8  C4  UNL     1     -33.962  14.947  -5.319  1.00 20.00     0.079 C 
HETATM    9  O10 UNL     1     -35.156  16.603  -6.605  1.00 20.00    -0.298 OA
HETATM   10  C6  UNL     1     -33.648  15.026  -3.830  1.00 20.00     0.012 C 
ENDBRANCH   4   5
ENDBRANCH   3   4
TORSDOF 2
ENDMDL
MODEL 6
REMARK VINA RESULT:      -4.2     11.542     12.627
REMARK  2 active torsions:
REMARK  status: ('A' for Active; 'I' for Inactive)
REMARK    1  A    between atoms: C7_7  and  C9_9 
REMARK    2  A    between atoms: C8_8  and  C9_9 
ROOT
HETATM    1  C1  UNL     1     -30.295  18.540   2.338  1.00 20.00     0.012 C 
HETATM    2  C2  UNL     1     -30.778  18.551   1.239  1.00 20.00    -0.117 C 
HETATM    3  C8  UNL     1     -31.366  18.564  -0.107  1.00 20.00     0.093 C 
ENDROOT
BRANCH   3   4
HETATM    4  C9  UNL     1     -32.865  18.328  -0.035  1.00 20.00     0.017 C 
BRANCH   4   5
HETATM    5  C7  UNL     1     -33.473  18.250  -1.427  1.00 20.00    -0.006 C 
HETATM    6  C5  UNL     1     -33.509  16.825  -1.981  1.00 20.00     0.082 C 
HETATM    7  C3  UNL     1     -33.506  17.075  -3.467  1.00 20.00     0.127 C 
HETATM    8  C4  UNL     1     -33.178  18.506  -3.805  1.00 20.00     0.079 C 
HETATM    9  O10 UNL     1     -33.745  16.214  -4.304  1.00 20.00    -0.298 OA
HETATM   10  C6  UNL     1     -32.672  19.033  -2.468  1.00 20.00     0.012 C 
ENDBRANCH   4   5
ENDBRANCH   3   4
TORSDOF 2
ENDMDL
MODEL 7
REMARK VINA RESULT:      -4.1     11.488     12.470
REMARK  2 active torsions:
REMARK  status: ('A' for Active; 'I' for Inactive)
REMARK    1  A    between atoms: C7_7  and  C9_9 
REMARK    2  A    between atoms: C8_8  and  C9_9 
ROOT
HETATM    1  C1  UNL     1     -31.503  18.723  -0.428  1.00 20.00     0.012 C 
HETATM    2  C2  UNL     1     -32.454  18.137  -0.867  1.00 20.00    -0.117 C 
HETATM    3  C8  UNL     1     -33.618  17.417  -1.401  1.00 20.00     0.093 C 
ENDROOT
BRANCH   3   4
HETATM    4  C9  UNL     1     -34.031  17.996  -2.743  1.00 20.00     0.017 C 
BRANCH   4   5
HETATM    5  C7  UNL     1     -33.707  17.035  -3.876  1.00 20.00    -0.006 C 
HETATM    6  C5  UNL     1     -34.871  16.852  -4.852  1.00 20.00     0.082 C 
HETATM    7  C3  UNL     1     -34.584  15.484  -5.416  1.00 20.00     0.127 C 
HETATM    8  C4  UNL     1     -33.523  14.754  -4.634  1.00 20.00     0.079 C 
HETATM    9  O10 UNL     1     -35.147  15.020  -6.399  1.00 20.00    -0.298 OA
HETATM   10  C6  UNL     1     -33.410  15.618  -3.383  1.00 20.00     0.012 C 
ENDBRANCH   4   5
ENDBRANCH   3   4
TORSDOF 2
ENDMDL
MODEL 8
REMARK VINA RESULT:      -4.1     11.813     12.883
REMARK  2 active torsions:
REMARK  status: ('A' for Active; 'I' for Inactive)
REMARK    1  A    between atoms: C7_7  and  C9_9 
REMARK    2  A    between atoms: C8_8  and  C9_9 
ROOT
HETATM    1  C1  UNL     1     -31.699  18.524  -0.692  1.00 20.00     0.012 C 
HETATM    2  C2  UNL     1     -32.587  17.923  -1.233  1.00 20.00    -0.117 C 
HETATM    3  C8  UNL     1     -33.676  17.190  -1.892  1.00 20.00     0.093 C 
ENDROOT
BRANCH   3   4
HETATM    4  C9  UNL     1     -33.131  16.326  -3.017  1.00 20.00     0.017 C 
BRANCH   4   5
HETATM    5  C7  UNL     1     -34.162  16.150  -4.119  1.00 20.00    -0.006 C 
HETATM    6  C5  UNL     1     -33.769  15.077  -5.136  1.00 20.00     0.082 C 
HETATM    7  C3  UNL     1     -34.519  15.529  -6.363  1.00 20.00     0.127 C 
HETATM    8  C4  UNL     1     -35.070  16.923  -6.215  1.00 20.00     0.079 C 
HETATM    9  O10 UNL     1     -34.665  14.841  -7.365  1.00 20.00    -0.298 OA
HETATM   10  C6  UNL     1     -34.347  17.411  -4.965  1.00 20.00     0.012 C 
ENDBRANCH   4   5
ENDBRANCH   3   4
TORSDOF 2
ENDMDL
MODEL 9
REMARK VINA RESULT:      -4.1      2.253      4.533
REMARK  2 active torsions:
REMARK  status: ('A' for Active; 'I' for Inactive)
REMARK    1  A    between atoms: C7_7  and  C9_9 
REMARK    2  A    between atoms: C8_8  and  C9_9 
ROOT
HETATM    1  C1  UNL     1     -34.798   5.019   4.861  1.00 20.00     0.012 C 
HETATM    2  C2  UNL     1     -34.433   6.035   5.384  1.00 20.00    -0.117 C 
HETATM    3  C8  UNL     1     -33.989   7.279   6.028  1.00 20.00     0.093 C 
ENDROOT
BRANCH   3   4
HETATM    4  C9  UNL     1     -32.779   7.849   5.307  1.00 20.00     0.017 C 
BRANCH   4   5
HETATM    5  C7  UNL     1     -33.088   8.106   3.841  1.00 20.00    -0.006 C 
HETATM    6  C5  UNL     1     -32.169   7.332   2.895  1.00 20.00     0.082 C 
HETATM    7  C3  UNL     1     -32.209   8.193   1.658  1.00 20.00     0.127 C 
HETATM    8  C4  UNL     1     -32.837   9.537   1.917  1.00 20.00     0.079 C 
HETATM    9  O10 UNL     1     -31.781   7.840   0.567  1.00 20.00    -0.298 OA
HETATM   10  C6  UNL     1     -32.887   9.568   3.440  1.00 20.00     0.012 C 
ENDBRANCH   4   5
ENDBRANCH   3   4
TORSDOF 2
ENDMDL
