MODEL 1
REMARK VINA RESULT:      -4.1      0.000      0.000
REMARK  3 active torsions:
REMARK  status: ('A' for Active; 'I' for Inactive)
REMARK    1  A    between atoms: C6_6  and  C7_7 
REMARK    2  A    between atoms: C8_8  and  C10_10 
REMARK    3  A    between atoms: C9_9  and  C11_11 
ROOT
HETATM    1  C1  UNL     1     -36.133  18.843  -5.480  1.00 20.00    -0.021 C 
HETATM    2  C2  UNL     1     -34.872  18.677  -5.952  1.00 20.00    -0.020 C 
HETATM    3  C5  UNL     1     -36.497  16.430  -5.368  1.00 20.00    -0.003 C 
HETATM    4  C6  UNL     1     -35.329  16.287  -6.036  1.00 20.00     0.024 C 
HETATM    5  C8  UNL     1     -36.579  17.701  -4.518  1.00 20.00     0.039 C 
HETATM    6  C9  UNL     1     -34.244  17.319  -5.632  1.00 20.00     0.056 C 
ENDROOT
BRANCH   4   7
HETATM    7  C7  UNL     1     -35.065  15.151  -6.988  1.00 20.00     0.205 C 
HETATM    8  O12 UNL     1     -33.881  15.075  -7.430  1.00 20.00    -0.644 OA
HETATM    9  O13 UNL     1     -36.059  14.404  -7.233  1.00 20.00    -0.644 OA
ENDBRANCH   4   7
BRANCH   6  10
HETATM   10  C11 UNL     1     -34.222  17.004  -4.120  1.00 20.00     0.029 C 
HETATM   11  C4  UNL     1     -33.587  16.106  -3.092  1.00 20.00    -0.024 C 
HETATM   12  C3  UNL     1     -33.539  17.223  -2.268  1.00 20.00    -0.024 C 
HETATM   13  C10 UNL     1     -33.154  18.000  -3.498  1.00 20.00     0.028 C 
ENDBRANCH   6  10
TORSDOF 3
ENDMDL
MODEL 2
REMARK VINA RESULT:      -4.1     12.936     14.063
REMARK  3 active torsions:
REMARK  status: ('A' for Active; 'I' for Inactive)
REMARK    1  A    between atoms: C6_6  and  C7_7 
REMARK    2  A    between atoms: C8_8  and  C10_10 
REMARK    3  A    between atoms: C9_9  and  C11_11 
ROOT
HETATM    1  C1  UNL     1     -43.261  14.314   5.794  1.00 20.00    -0.021 C 
HETATM    2  C2  UNL     1     -42.087  14.913   5.472  1.00 20.00    -0.020 C 
HETATM    3  C5  UNL     1     -42.109  12.420   6.819  1.00 20.00    -0.003 C 
HETATM    4  C6  UNL     1     -40.962  12.921   6.304  1.00 20.00     0.024 C 
HETATM    5  C8  UNL     1     -43.179  13.477   7.105  1.00 20.00     0.039 C 
HETATM    6  C9  UNL     1     -40.891  14.470   6.319  1.00 20.00     0.056 C 
ENDROOT
BRANCH   4   7
HETATM    7  C7  UNL     1     -39.808  12.052   5.879  1.00 20.00     0.205 C 
HETATM    8  O12 UNL     1     -39.796  11.722   4.658  1.00 20.00    -0.644 OA
HETATM    9  O13 UNL     1     -38.984  11.756   6.796  1.00 20.00    -0.644 OA
ENDBRANCH   4   7
BRANCH   6  10
HETATM   10  C11 UNL     1     -41.117  14.667   7.834  1.00 20.00     0.029 C 
HETATM   11  C4  UNL     1     -40.431  14.568   9.170  1.00 20.00    -0.024 C 
HETATM   12  C3  UNL     1     -41.107  15.733   9.509  1.00 20.00    -0.024 C 
HETATM   13  C10 UNL     1     -40.815  16.201   8.109  1.00 20.00     0.028 C 
ENDBRANCH   6  10
TORSDOF 3
ENDMDL
MODEL 3
REMARK VINA RESULT:      -4.0     13.135     14.434
REMARK  3 active torsions:
REMARK  status: ('A' for Active; 'I' for Inactive)
REMARK    1  A    between atoms: C6_6  and  C7_7 
REMARK    2  A    between atoms: C8_8  and  C10_10 
REMARK    3  A    between atoms: C9_9  and  C11_11 
ROOT
HETATM    1  C1  UNL     1     -42.985  13.610   5.918  1.00 20.00    -0.021 C 
HETATM    2  C2  UNL     1     -42.625  12.606   6.756  1.00 20.00    -0.020 C 
HETATM    3  C5  UNL     1     -41.172  15.039   6.719  1.00 20.00    -0.003 C 
HETATM    4  C6  UNL     1     -40.963  14.121   7.690  1.00 20.00     0.024 C 
HETATM    5  C8  UNL     1     -41.774  14.463   5.434  1.00 20.00     0.039 C 
HETATM    6  C9  UNL     1     -41.168  12.656   7.224  1.00 20.00     0.056 C 
ENDROOT
BRANCH   4   7
HETATM    7  C7  UNL     1     -40.450  14.480   9.059  1.00 20.00     0.205 C 
HETATM    8  O12 UNL     1     -40.710  13.644   9.974  1.00 20.00    -0.644 OA
HETATM    9  O13 UNL     1     -39.819  15.576   9.133  1.00 20.00    -0.644 OA
ENDBRANCH   4   7
BRANCH   6  10
HETATM   10  C11 UNL     1     -40.158  12.674   6.055  1.00 20.00     0.029 C 
HETATM   11  C4  UNL     1     -38.694  12.533   5.735  1.00 20.00    -0.024 C 
HETATM   12  C3  UNL     1     -39.094  11.821   4.612  1.00 20.00    -0.024 C 
HETATM   13  C10 UNL     1     -40.135  11.188   5.496  1.00 20.00     0.028 C 
ENDBRANCH   6  10
TORSDOF 3
ENDMDL
MODEL 4
REMARK VINA RESULT:      -3.8     24.497     26.138
REMARK  3 active torsions:
REMARK  status: ('A' for Active; 'I' for Inactive)
REMARK    1  A    between atoms: C6_6  and  C7_7 
REMARK    2  A    between atoms: C8_8  and  C10_10 
REMARK    3  A    between atoms: C9_9  and  C11_11 
ROOT
HETATM    1  C1  UNL     1     -27.466   0.090  10.759  1.00 20.00    -0.021 C 
HETATM    2  C2  UNL     1     -27.648  -0.775   9.729  1.00 20.00    -0.020 C 
HETATM    3  C5  UNL     1     -28.604  -1.404  12.322  1.00 20.00    -0.003 C 
HETATM    4  C6  UNL     1     -28.963  -2.148  11.250  1.00 20.00     0.024 C 
HETATM    5  C8  UNL     1     -27.299  -0.626  12.133  1.00 20.00     0.039 C 
HETATM    6  C9  UNL     1     -27.874  -2.230  10.149  1.00 20.00     0.056 C 
ENDROOT
BRANCH   4   7
HETATM    7  C7  UNL     1     -30.248  -2.931  11.191  1.00 20.00     0.205 C 
HETATM    8  O12 UNL     1     -30.139  -4.125  10.783  1.00 20.00    -0.644 OA
HETATM    9  O13 UNL     1     -31.285  -2.303  11.557  1.00 20.00    -0.644 OA
ENDBRANCH   4   7
BRANCH   6  10
HETATM   10  C11 UNL     1     -26.737  -2.788  11.033  1.00 20.00     0.029 C 
HETATM   11  C4  UNL     1     -26.127  -4.071  11.532  1.00 20.00    -0.024 C 
HETATM   12  C3  UNL     1     -24.894  -3.459  11.345  1.00 20.00    -0.024 C 
HETATM   13  C10 UNL     1     -25.473  -2.888  10.078  1.00 20.00     0.028 C 
ENDBRANCH   6  10
TORSDOF 3
ENDMDL
MODEL 5
REMARK VINA RESULT:      -3.7     13.505     14.775
REMARK  3 active torsions:
REMARK  status: ('A' for Active; 'I' for Inactive)
REMARK    1  A    between atoms: C6_6  and  C7_7 
REMARK    2  A    between atoms: C8_8  and  C10_10 
REMARK    3  A    between atoms: C9_9  and  C11_11 
ROOT
HETATM    1  C1  UNL     1     -41.518  15.987   6.705  1.00 20.00    -0.021 C 
HETATM    2  C2  UNL     1     -42.294  15.093   6.041  1.00 20.00    -0.020 C 
HETATM    3  C5  UNL     1     -41.190  14.441   8.568  1.00 20.00    -0.003 C 
HETATM    4  C6  UNL     1     -42.132  13.655   7.999  1.00 20.00     0.024 C 
HETATM    5  C8  UNL     1     -40.415  15.309   7.573  1.00 20.00     0.039 C 
HETATM    6  C9  UNL     1     -42.079  13.634   6.449  1.00 20.00     0.056 C 
ENDROOT
BRANCH   4   7
HETATM    7  C7  UNL     1     -43.060  12.779   8.798  1.00 20.00     0.205 C 
HETATM    8  O12 UNL     1     -43.417  11.705   8.232  1.00 20.00    -0.644 OA
HETATM    9  O13 UNL     1     -43.373  13.222   9.944  1.00 20.00    -0.644 OA
ENDBRANCH   4   7
BRANCH   6  10
HETATM   10  C11 UNL     1     -40.611  13.175   6.305  1.00 20.00     0.029 C 
HETATM   11  C4  UNL     1     -39.721  11.964   6.388  1.00 20.00    -0.024 C 
HETATM   12  C3  UNL     1     -39.059  12.480   5.281  1.00 20.00    -0.024 C 
HETATM   13  C10 UNL     1     -40.418  12.863   4.760  1.00 20.00     0.028 C 
ENDBRANCH   6  10
TORSDOF 3
ENDMDL
MODEL 6
REMARK VINA RESULT:      -3.7     12.691     13.915
REMARK  3 active torsions:
REMARK  status: ('A' for Active; 'I' for Inactive)
REMARK    1  A    between atoms: C6_6  and  C7_7 
REMARK    2  A    between atoms: C8_8  and  C10_10 
REMARK    3  A    between atoms: C9_9  and  C11_11 
ROOT
HETATM    1  C1  UNL     1     -42.655  13.278   8.251  1.00 20.00    -0.021 C 
HETATM    2  C2  UNL     1     -41.588  14.107   8.128  1.00 20.00    -0.020 C 
HETATM    3  C5  UNL     1     -43.363  13.715   5.954  1.00 20.00    -0.003 C 
HETATM    4  C6  UNL     1     -42.429  14.694   5.920  1.00 20.00     0.024 C 
HETATM    5  C8  UNL     1     -43.034  12.570   6.916  1.00 20.00     0.039 C 
HETATM    6  C9  UNL     1     -41.127  14.346   6.688  1.00 20.00     0.056 C 
ENDROOT
BRANCH   4   7
HETATM    7  C7  UNL     1     -42.587  15.948   5.101  1.00 20.00     0.205 C 
HETATM    8  O12 UNL     1     -42.849  15.768   3.876  1.00 20.00    -0.644 OA
HETATM    9  O13 UNL     1     -42.437  17.034   5.737  1.00 20.00    -0.644 OA
ENDBRANCH   4   7
BRANCH   6  10
HETATM   10  C11 UNL     1     -40.794  13.039   5.935  1.00 20.00     0.029 C 
HETATM   11  C4  UNL     1     -40.114  12.507   4.702  1.00 20.00    -0.024 C 
HETATM   12  C3  UNL     1     -39.643  11.478   5.508  1.00 20.00    -0.024 C 
HETATM   13  C10 UNL     1     -39.430  12.527   6.566  1.00 20.00     0.028 C 
ENDBRANCH   6  10
TORSDOF 3
ENDMDL
MODEL 7
REMARK VINA RESULT:      -3.7     12.640     13.862
REMARK  3 active torsions:
REMARK  status: ('A' for Active; 'I' for Inactive)
REMARK    1  A    between atoms: C6_6  and  C7_7 
REMARK    2  A    between atoms: C8_8  and  C10_10 
REMARK    3  A    between atoms: C9_9  and  C11_11 
ROOT
HETATM    1  C1  UNL     1     -42.549  12.228   6.829  1.00 20.00    -0.021 C 
HETATM    2  C2  UNL     1     -43.354  13.310   6.976  1.00 20.00    -0.020 C 
HETATM    3  C5  UNL     1     -41.178  13.370   5.161  1.00 20.00    -0.003 C 
HETATM    4  C6  UNL     1     -42.110  14.352   5.160  1.00 20.00     0.024 C 
HETATM    5  C8  UNL     1     -41.077  12.606   6.484  1.00 20.00     0.039 C 
HETATM    6  C9  UNL     1     -42.720  14.639   6.557  1.00 20.00     0.056 C 
ENDROOT
BRANCH   4   7
HETATM    7  C7  UNL     1     -42.428  15.177   3.942  1.00 20.00     0.205 C 
HETATM    8  O12 UNL     1     -42.149  14.638   2.831  1.00 20.00    -0.644 OA
HETATM    9  O13 UNL     1     -42.938  16.314   4.174  1.00 20.00    -0.644 OA
ENDBRANCH   4   7
BRANCH   6  10
HETATM   10  C11 UNL     1     -41.397  14.937   7.296  1.00 20.00     0.029 C 
HETATM   11  C4  UNL     1     -40.412  16.036   7.592  1.00 20.00    -0.024 C 
HETATM   12  C3  UNL     1     -40.330  15.504   8.872  1.00 20.00    -0.024 C 
HETATM   13  C10 UNL     1     -41.819  15.300   8.783  1.00 20.00     0.028 C 
ENDBRANCH   6  10
TORSDOF 3
ENDMDL
MODEL 8
REMARK VINA RESULT:      -3.5     13.480     14.698
REMARK  3 active torsions:
REMARK  status: ('A' for Active; 'I' for Inactive)
REMARK    1  A    between atoms: C6_6  and  C7_7 
REMARK    2  A    between atoms: C8_8  and  C10_10 
REMARK    3  A    between atoms: C9_9  and  C11_11 
ROOT
HETATM    1  C1  UNL     1     -41.310  16.552   7.122  1.00 20.00    -0.021 C 
HETATM    2  C2  UNL     1     -40.414  15.898   7.903  1.00 20.00    -0.020 C 
HETATM    3  C5  UNL     1     -41.938  14.490   5.972  1.00 20.00    -0.003 C 
HETATM    4  C6  UNL     1     -40.896  13.897   6.601  1.00 20.00     0.024 C 
HETATM    5  C8  UNL     1     -42.537  15.673   6.736  1.00 20.00     0.039 C 
HETATM    6  C9  UNL     1     -40.674  14.397   8.053  1.00 20.00     0.056 C 
ENDROOT
BRANCH   4   7
HETATM    7  C7  UNL     1     -40.111  12.765   5.996  1.00 20.00     0.205 C 
HETATM    8  O12 UNL     1     -40.278  12.590   4.753  1.00 20.00    -0.644 OA
HETATM    9  O13 UNL     1     -39.376  12.121   6.803  1.00 20.00    -0.644 OA
ENDBRANCH   4   7
BRANCH   6  10
HETATM   10  C11 UNL     1     -42.085  14.078   8.593  1.00 20.00     0.029 C 
HETATM   11  C4  UNL     1     -42.961  12.948   9.064  1.00 20.00    -0.024 C 
HETATM   12  C3  UNL     1     -43.417  13.821  10.043  1.00 20.00    -0.024 C 
HETATM   13  C10 UNL     1     -41.991  14.286  10.164  1.00 20.00     0.028 C 
ENDBRANCH   6  10
TORSDOF 3
ENDMDL
MODEL 9
REMARK VINA RESULT:      -3.5      1.888      2.843
REMARK  3 active torsions:
REMARK  status: ('A' for Active; 'I' for Inactive)
REMARK    1  A    between atoms: C6_6  and  C7_7 
REMARK    2  A    between atoms: C8_8  and  C10_10 
REMARK    3  A    between atoms: C9_9  and  C11_11 
ROOT
HETATM    1  C1  UNL     1     -34.173  16.134  -7.327  1.00 20.00    -0.021 C 
HETATM    2  C2  UNL     1     -34.461  15.138  -6.452  1.00 20.00    -0.020 C 
HETATM    3  C5  UNL     1     -35.907  17.575  -6.387  1.00 20.00    -0.003 C 
HETATM    4  C6  UNL     1     -36.322  16.502  -5.674  1.00 20.00     0.024 C 
HETATM    5  C8  UNL     1     -34.417  17.554  -6.735  1.00 20.00     0.039 C 
HETATM    6  C9  UNL     1     -35.167  15.596  -5.173  1.00 20.00     0.056 C 
ENDROOT
BRANCH   4   7
HETATM    7  C7  UNL     1     -37.761  16.281  -5.289  1.00 20.00     0.205 C 
HETATM    8  O12 UNL     1     -38.511  17.297  -5.382  1.00 20.00    -0.644 OA
HETATM    9  O13 UNL     1     -38.050  15.104  -4.919  1.00 20.00    -0.644 OA
ENDBRANCH   4   7
BRANCH   6  10
HETATM   10  C11 UNL     1     -34.381  16.681  -4.404  1.00 20.00     0.029 C 
HETATM   11  C4  UNL     1     -34.395  17.503  -3.143  1.00 20.00    -0.024 C 
HETATM   12  C3  UNL     1     -33.021  17.299  -3.095  1.00 20.00    -0.024 C 
HETATM   13  C10 UNL     1     -33.307  15.891  -3.542  1.00 20.00     0.028 C 
ENDBRANCH   6  10
TORSDOF 3
ENDMDL
