MODEL 1
REMARK VINA RESULT:      -4.0      0.000      0.000
REMARK  0 active torsions:
REMARK  status: ('A' for Active; 'I' for Inactive)
ROOT
HETATM    1  C1  UNL     1     -40.846  13.402   5.918  1.00 20.00    -0.010 C 
HETATM    2  C2  UNL     1     -41.743  13.844   4.814  1.00 20.00     0.155 C 
HETATM    3  C3  UNL     1     -39.860  12.543   5.628  1.00 20.00    -0.078 C 
HETATM    4  C4  UNL     1     -41.125  13.932   7.294  1.00 20.00     0.051 C 
HETATM    5  C5  UNL     1     -43.204  14.048   5.153  1.00 20.00     0.084 C 
HETATM    6  C6  UNL     1     -43.417  14.638   6.545  1.00 20.00     0.017 C 
HETATM    7  C7  UNL     1     -42.627  13.910   7.655  1.00 20.00    -0.043 C 
HETATM    8  C8  UNL     1     -38.908  12.041   6.675  1.00 20.00     0.043 C 
HETATM    9  C9  UNL     1     -39.641  12.025   4.236  1.00 20.00     0.043 C 
HETATM   10  C10 UNL     1     -42.833  14.656   8.987  1.00 20.00     0.015 C 
HETATM   11  C11 UNL     1     -43.129  12.463   7.833  1.00 20.00     0.015 C 
HETATM   12  O12 UNL     1     -41.333  13.965   3.661  1.00 20.00    -0.293 OA
ENDROOT
TORSDOF 0
ENDMDL
MODEL 2
REMARK VINA RESULT:      -3.9     12.015     13.762
REMARK  0 active torsions:
REMARK  status: ('A' for Active; 'I' for Inactive)
ROOT
HETATM    1  C1  UNL     1     -34.761  17.120  -5.025  1.00 20.00    -0.010 C 
HETATM    2  C2  UNL     1     -34.040  15.842  -4.764  1.00 20.00     0.155 C 
HETATM    3  C3  UNL     1     -34.990  17.469  -6.298  1.00 20.00    -0.078 C 
HETATM    4  C4  UNL     1     -35.162  17.946  -3.839  1.00 20.00     0.051 C 
HETATM    5  C5  UNL     1     -33.078  15.821  -3.596  1.00 20.00     0.084 C 
HETATM    6  C6  UNL     1     -33.568  16.637  -2.403  1.00 20.00     0.017 C 
HETATM    7  C7  UNL     1     -34.045  18.058  -2.778  1.00 20.00    -0.043 C 
HETATM    8  C8  UNL     1     -35.707  18.738  -6.658  1.00 20.00     0.043 C 
HETATM    9  C9  UNL     1     -34.544  16.615  -7.449  1.00 20.00     0.043 C 
HETATM   10  C10 UNL     1     -34.614  18.742  -1.521  1.00 20.00     0.015 C 
HETATM   11  C11 UNL     1     -32.874  18.915  -3.300  1.00 20.00     0.015 C 
HETATM   12  O12 UNL     1     -34.162  14.870  -5.508  1.00 20.00    -0.293 OA
ENDROOT
TORSDOF 0
ENDMDL
MODEL 3
REMARK VINA RESULT:      -3.9     12.638     13.921
REMARK  0 active torsions:
REMARK  status: ('A' for Active; 'I' for Inactive)
ROOT
HETATM    1  C1  UNL     1     -34.282  16.639  -4.818  1.00 20.00    -0.010 C 
HETATM    2  C2  UNL     1     -34.379  15.153  -4.774  1.00 20.00     0.155 C 
HETATM    3  C3  UNL     1     -33.777  17.273  -3.751  1.00 20.00    -0.078 C 
HETATM    4  C4  UNL     1     -34.784  17.331  -6.051  1.00 20.00     0.051 C 
HETATM    5  C5  UNL     1     -35.586  14.521  -5.433  1.00 20.00     0.084 C 
HETATM    6  C6  UNL     1     -36.013  15.241  -6.710  1.00 20.00     0.017 C 
HETATM    7  C7  UNL     1     -36.136  16.772  -6.547  1.00 20.00    -0.043 C 
HETATM    8  C8  UNL     1     -33.642  18.768  -3.705  1.00 20.00     0.043 C 
HETATM    9  C9  UNL     1     -33.312  16.531  -2.532  1.00 20.00     0.043 C 
HETATM   10  C10 UNL     1     -36.464  17.395  -7.917  1.00 20.00     0.015 C 
HETATM   11  C11 UNL     1     -37.273  17.135  -5.571  1.00 20.00     0.015 C 
HETATM   12  O12 UNL     1     -33.556  14.472  -4.163  1.00 20.00    -0.293 OA
ENDROOT
TORSDOF 0
ENDMDL
MODEL 4
REMARK VINA RESULT:      -3.9     12.057     13.893
REMARK  0 active torsions:
REMARK  status: ('A' for Active; 'I' for Inactive)
ROOT
HETATM    1  C1  UNL     1     -34.494  17.280  -4.316  1.00 20.00    -0.010 C 
HETATM    2  C2  UNL     1     -33.598  16.309  -3.627  1.00 20.00     0.155 C 
HETATM    3  C3  UNL     1     -35.070  18.241  -3.582  1.00 20.00    -0.078 C 
HETATM    4  C4  UNL     1     -34.711  17.099  -5.789  1.00 20.00     0.051 C 
HETATM    5  C5  UNL     1     -33.632  14.876  -4.113  1.00 20.00     0.084 C 
HETATM    6  C6  UNL     1     -33.803  14.762  -5.626  1.00 20.00     0.017 C 
HETATM    7  C7  UNL     1     -34.955  15.626  -6.186  1.00 20.00    -0.043 C 
HETATM    8  C8  UNL     1     -35.988  19.263  -4.188  1.00 20.00     0.043 C 
HETATM    9  C9  UNL     1     -34.836  18.360  -2.104  1.00 20.00     0.043 C 
HETATM   10  C10 UNL     1     -34.961  15.515  -7.722  1.00 20.00     0.015 C 
HETATM   11  C11 UNL     1     -36.320  15.134  -5.665  1.00 20.00     0.015 C 
HETATM   12  O12 UNL     1     -32.916  16.637  -2.657  1.00 20.00    -0.293 OA
ENDROOT
TORSDOF 0
ENDMDL
MODEL 5
REMARK VINA RESULT:      -3.7      9.777     10.885
REMARK  0 active torsions:
REMARK  status: ('A' for Active; 'I' for Inactive)
ROOT
HETATM    1  C1  UNL     1     -32.851   7.674   3.818  1.00 20.00    -0.010 C 
HETATM    2  C2  UNL     1     -32.942   8.347   5.145  1.00 20.00     0.155 C 
HETATM    3  C3  UNL     1     -32.644   8.434   2.735  1.00 20.00    -0.078 C 
HETATM    4  C4  UNL     1     -33.025   6.184   3.783  1.00 20.00     0.051 C 
HETATM    5  C5  UNL     1     -33.932   7.778   6.139  1.00 20.00     0.084 C 
HETATM    6  C6  UNL     1     -34.023   6.255   6.087  1.00 20.00     0.017 C 
HETATM    7  C7  UNL     1     -34.198   5.692   4.659  1.00 20.00    -0.043 C 
HETATM    8  C8  UNL     1     -32.539   7.845   1.358  1.00 20.00     0.043 C 
HETATM    9  C9  UNL     1     -32.502   9.926   2.826  1.00 20.00     0.043 C 
HETATM   10  C10 UNL     1     -34.167   4.154   4.722  1.00 20.00     0.015 C 
HETATM   11  C11 UNL     1     -35.551   6.120   4.058  1.00 20.00     0.015 C 
HETATM   12  O12 UNL     1     -32.299   9.364   5.396  1.00 20.00    -0.293 OA
ENDROOT
TORSDOF 0
ENDMDL
MODEL 6
REMARK VINA RESULT:      -3.7     20.300     22.238
REMARK  0 active torsions:
REMARK  status: ('A' for Active; 'I' for Inactive)
ROOT
HETATM    1  C1  UNL     1     -27.847  -2.327  10.754  1.00 20.00    -0.010 C 
HETATM    2  C2  UNL     1     -27.789  -1.074  11.560  1.00 20.00     0.155 C 
HETATM    3  C3  UNL     1     -29.014  -2.981  10.684  1.00 20.00    -0.078 C 
HETATM    4  C4  UNL     1     -26.582  -2.785  10.092  1.00 20.00     0.051 C 
HETATM    5  C5  UNL     1     -26.514  -0.811  12.332  1.00 20.00     0.084 C 
HETATM    6  C6  UNL     1     -25.260  -1.253  11.582  1.00 20.00     0.017 C 
HETATM    7  C7  UNL     1     -25.348  -2.688  11.018  1.00 20.00    -0.043 C 
HETATM    8  C8  UNL     1     -29.168  -4.250   9.897  1.00 20.00     0.043 C 
HETATM    9  C9  UNL     1     -30.245  -2.489  11.388  1.00 20.00     0.043 C 
HETATM   10  C10 UNL     1     -24.080  -2.980  10.194  1.00 20.00     0.015 C 
HETATM   11  C11 UNL     1     -25.431  -3.726  12.155  1.00 20.00     0.015 C 
HETATM   12  O12 UNL     1     -28.760  -0.325  11.658  1.00 20.00    -0.293 OA
ENDROOT
TORSDOF 0
ENDMDL
MODEL 7
REMARK VINA RESULT:      -3.6      2.298      4.347
REMARK  0 active torsions:
REMARK  status: ('A' for Active; 'I' for Inactive)
ROOT
HETATM    1  C1  UNL     1     -41.580  14.818   7.945  1.00 20.00    -0.010 C 
HETATM    2  C2  UNL     1     -42.629  13.916   8.500  1.00 20.00     0.155 C 
HETATM    3  C3  UNL     1     -41.596  16.107   8.309  1.00 20.00    -0.078 C 
HETATM    4  C4  UNL     1     -40.586  14.222   6.992  1.00 20.00     0.051 C 
HETATM    5  C5  UNL     1     -43.166  12.839   7.582  1.00 20.00     0.084 C 
HETATM    6  C6  UNL     1     -42.095  12.238   6.675  1.00 20.00     0.017 C 
HETATM    7  C7  UNL     1     -41.239  13.295   5.943  1.00 20.00    -0.043 C 
HETATM    8  C8  UNL     1     -40.580  17.089   7.802  1.00 20.00     0.043 C 
HETATM    9  C9  UNL     1     -42.630  16.655   9.249  1.00 20.00     0.043 C 
HETATM   10  C10 UNL     1     -40.130  12.578   5.150  1.00 20.00     0.015 C 
HETATM   11  C11 UNL     1     -42.092  14.105   4.947  1.00 20.00     0.015 C 
HETATM   12  O12 UNL     1     -43.095  14.085   9.625  1.00 20.00    -0.293 OA
ENDROOT
TORSDOF 0
ENDMDL
MODEL 8
REMARK VINA RESULT:      -3.4     12.832     14.010
REMARK  0 active torsions:
REMARK  status: ('A' for Active; 'I' for Inactive)
ROOT
HETATM    1  C1  UNL     1     -34.832  16.671  -4.525  1.00 20.00    -0.010 C 
HETATM    2  C2  UNL     1     -35.297  18.031  -4.131  1.00 20.00     0.155 C 
HETATM    3  C3  UNL     1     -33.816  16.127  -3.843  1.00 20.00    -0.078 C 
HETATM    4  C4  UNL     1     -35.521  16.010  -5.682  1.00 20.00     0.051 C 
HETATM    5  C5  UNL     1     -35.741  18.956  -5.244  1.00 20.00     0.084 C 
HETATM    6  C6  UNL     1     -36.482  18.229  -6.365  1.00 20.00     0.017 C 
HETATM    7  C7  UNL     1     -35.751  16.967  -6.873  1.00 20.00    -0.043 C 
HETATM    8  C8  UNL     1     -33.279  14.763  -4.168  1.00 20.00     0.043 C 
HETATM    9  C9  UNL     1     -33.146  16.845  -2.708  1.00 20.00     0.043 C 
HETATM   10  C10 UNL     1     -36.638  16.263  -7.918  1.00 20.00     0.015 C 
HETATM   11  C11 UNL     1     -34.415  17.335  -7.549  1.00 20.00     0.015 C 
HETATM   12  O12 UNL     1     -35.251  18.415  -2.964  1.00 20.00    -0.293 OA
ENDROOT
TORSDOF 0
ENDMDL
MODEL 9
REMARK VINA RESULT:      -3.4      2.548      3.780
REMARK  0 active torsions:
REMARK  status: ('A' for Active; 'I' for Inactive)
ROOT
HETATM    1  C1  UNL     1     -41.589  14.813   6.812  1.00 20.00    -0.010 C 
HETATM    2  C2  UNL     1     -40.684  14.459   7.942  1.00 20.00     0.155 C 
HETATM    3  C3  UNL     1     -41.460  14.137   5.663  1.00 20.00    -0.078 C 
HETATM    4  C4  UNL     1     -42.571  15.925   7.032  1.00 20.00     0.051 C 
HETATM    5  C5  UNL     1     -40.203  15.595   8.820  1.00 20.00     0.084 C 
HETATM    6  C6  UNL     1     -41.266  16.666   9.047  1.00 20.00     0.017 C 
HETATM    7  C7  UNL     1     -41.950  17.145   7.747  1.00 20.00    -0.043 C 
HETATM    8  C8  UNL     1     -42.326  14.424   4.470  1.00 20.00     0.043 C 
HETATM    9  C9  UNL     1     -40.441  13.048   5.490  1.00 20.00     0.043 C 
HETATM   10  C10 UNL     1     -43.071  18.138   8.109  1.00 20.00     0.015 C 
HETATM   11  C11 UNL     1     -40.947  17.870   6.828  1.00 20.00     0.015 C 
HETATM   12  O12 UNL     1     -40.283  13.309   8.111  1.00 20.00    -0.293 OA
ENDROOT
TORSDOF 0
ENDMDL
