MODEL 1
REMARK VINA RESULT:      -4.5      0.000      0.000
REMARK  0 active torsions:
REMARK  status: ('A' for Active; 'I' for Inactive)
ROOT
HETATM    1  C1  UNL     1     -32.816   5.650   2.939  1.00 20.00    -0.029 C 
HETATM    2  C2  UNL     1     -32.641   6.973   3.090  1.00 20.00    -0.014 C 
HETATM    3  C3  UNL     1     -33.562   7.169   5.472  1.00 20.00     0.143 C 
HETATM    4  C4  UNL     1     -33.495   4.695   3.875  1.00 20.00     0.032 C 
HETATM    5  C5  UNL     1     -35.026   5.067   5.936  1.00 20.00     0.018 A 
HETATM    6  C6  UNL     1     -34.831   6.417   5.295  1.00 20.00     0.061 A 
HETATM    7  C7  UNL     1     -34.793   5.167   4.455  1.00 20.00     0.001 A 
HETATM    8  C8  UNL     1     -33.024   7.901   4.229  1.00 20.00     0.031 C 
HETATM    9  C9  UNL     1     -31.765   8.691   4.641  1.00 20.00     0.027 C 
HETATM   10  C10 UNL     1     -34.081   8.902   3.732  1.00 20.00     0.027 C 
HETATM   11  O11 UNL     1     -33.010   7.178   6.567  1.00 20.00    -0.296 OA
ENDROOT
TORSDOF 0
ENDMDL
MODEL 2
REMARK VINA RESULT:      -4.2      1.531      3.765
REMARK  0 active torsions:
REMARK  status: ('A' for Active; 'I' for Inactive)
ROOT
HETATM    1  C1  UNL     1     -33.120   8.031   5.738  1.00 20.00    -0.029 C 
HETATM    2  C2  UNL     1     -34.026   7.039   5.743  1.00 20.00    -0.014 C 
HETATM    3  C3  UNL     1     -33.355   5.955   3.522  1.00 20.00     0.143 C 
HETATM    4  C4  UNL     1     -32.159   8.400   4.648  1.00 20.00     0.032 C 
HETATM    5  C5  UNL     1     -32.012   7.712   2.151  1.00 20.00     0.018 A 
HETATM    6  C6  UNL     1     -33.319   7.171   2.670  1.00 20.00     0.061 A 
HETATM    7  C7  UNL     1     -32.729   8.425   3.262  1.00 20.00     0.001 A 
HETATM    8  C8  UNL     1     -34.343   5.980   4.704  1.00 20.00     0.031 C 
HETATM    9  C9  UNL     1     -34.297   4.604   5.399  1.00 20.00     0.027 C 
HETATM   10  C10 UNL     1     -35.768   6.205   4.170  1.00 20.00     0.027 C 
HETATM   11  O11 UNL     1     -32.622   5.008   3.259  1.00 20.00    -0.296 OA
ENDROOT
TORSDOF 0
ENDMDL
MODEL 3
REMARK VINA RESULT:      -4.2      1.293      3.348
REMARK  0 active torsions:
REMARK  status: ('A' for Active; 'I' for Inactive)
ROOT
HETATM    1  C1  UNL     1     -32.686   5.843   2.692  1.00 20.00    -0.029 C 
HETATM    2  C2  UNL     1     -33.589   5.309   3.530  1.00 20.00    -0.014 C 
HETATM    3  C3  UNL     1     -34.156   7.446   4.824  1.00 20.00     0.143 C 
HETATM    4  C4  UNL     1     -32.131   7.237   2.695  1.00 20.00     0.032 C 
HETATM    5  C5  UNL     1     -32.215   9.140   4.456  1.00 20.00     0.018 A 
HETATM    6  C6  UNL     1     -32.778   7.911   5.123  1.00 20.00     0.061 A 
HETATM    7  C7  UNL     1     -31.741   7.776   4.037  1.00 20.00     0.001 A 
HETATM    8  C8  UNL     1     -34.348   5.923   4.692  1.00 20.00     0.031 C 
HETATM    9  C9  UNL     1     -35.850   5.643   4.478  1.00 20.00     0.027 C 
HETATM   10  C10 UNL     1     -33.911   5.241   5.999  1.00 20.00     0.027 C 
HETATM   11  O11 UNL     1     -35.059   8.265   4.699  1.00 20.00    -0.296 OA
ENDROOT
TORSDOF 0
ENDMDL
MODEL 4
REMARK VINA RESULT:      -4.2      1.519      3.758
REMARK  0 active torsions:
REMARK  status: ('A' for Active; 'I' for Inactive)
ROOT
HETATM    1  C1  UNL     1     -33.859   6.849   6.751  1.00 20.00    -0.029 C 
HETATM    2  C2  UNL     1     -34.502   5.925   6.018  1.00 20.00    -0.014 C 
HETATM    3  C3  UNL     1     -33.446   6.490   3.754  1.00 20.00     0.143 C 
HETATM    4  C4  UNL     1     -32.941   7.934   6.271  1.00 20.00     0.032 C 
HETATM    5  C5  UNL     1     -32.467   8.896   3.909  1.00 20.00     0.018 A 
HETATM    6  C6  UNL     1     -33.641   7.962   3.766  1.00 20.00     0.061 A 
HETATM    7  C7  UNL     1     -33.406   8.690   5.064  1.00 20.00     0.001 A 
HETATM    8  C8  UNL     1     -34.489   5.658   4.524  1.00 20.00     0.031 C 
HETATM    9  C9  UNL     1     -34.166   4.164   4.312  1.00 20.00     0.027 C 
HETATM   10  C10 UNL     1     -35.887   5.937   3.948  1.00 20.00     0.027 C 
HETATM   11  O11 UNL     1     -32.494   6.009   3.150  1.00 20.00    -0.296 OA
ENDROOT
TORSDOF 0
ENDMDL
MODEL 5
REMARK VINA RESULT:      -3.9     12.438     13.897
REMARK  0 active torsions:
REMARK  status: ('A' for Active; 'I' for Inactive)
ROOT
HETATM    1  C1  UNL     1     -33.323  15.565  -3.609  1.00 20.00    -0.029 C 
HETATM    2  C2  UNL     1     -33.541  16.880  -3.443  1.00 20.00    -0.014 C 
HETATM    3  C3  UNL     1     -35.517  17.105  -5.056  1.00 20.00     0.143 C 
HETATM    4  C4  UNL     1     -33.986  14.634  -4.581  1.00 20.00     0.032 C 
HETATM    5  C5  UNL     1     -35.469  15.061  -6.667  1.00 20.00     0.018 A 
HETATM    6  C6  UNL     1     -34.941  16.404  -6.232  1.00 20.00     0.061 A 
HETATM    7  C7  UNL     1     -34.137  15.155  -5.978  1.00 20.00     0.001 A 
HETATM    8  C8  UNL     1     -34.516  17.819  -4.129  1.00 20.00     0.031 C 
HETATM    9  C9  UNL     1     -35.313  18.558  -3.035  1.00 20.00     0.027 C 
HETATM   10  C10 UNL     1     -33.728  18.862  -4.940  1.00 20.00     0.027 C 
HETATM   11  O11 UNL     1     -36.730  17.091  -4.875  1.00 20.00    -0.296 OA
ENDROOT
TORSDOF 0
ENDMDL
MODEL 6
REMARK VINA RESULT:      -3.9     12.396     14.031
REMARK  0 active torsions:
REMARK  status: ('A' for Active; 'I' for Inactive)
ROOT
HETATM    1  C1  UNL     1     -34.027  14.529  -4.252  1.00 20.00    -0.029 C 
HETATM    2  C2  UNL     1     -35.064  14.574  -5.105  1.00 20.00    -0.014 C 
HETATM    3  C3  UNL     1     -34.844  17.035  -5.778  1.00 20.00     0.143 C 
HETATM    4  C4  UNL     1     -33.164  15.663  -3.785  1.00 20.00     0.032 C 
HETATM    5  C5  UNL     1     -33.433  18.238  -3.951  1.00 20.00     0.018 A 
HETATM    6  C6  UNL     1     -34.732  17.638  -4.425  1.00 20.00     0.061 A 
HETATM    7  C7  UNL     1     -33.892  16.916  -3.403  1.00 20.00     0.001 A 
HETATM    8  C8  UNL     1     -35.662  15.734  -5.879  1.00 20.00     0.031 C 
HETATM    9  C9  UNL     1     -35.738  15.326  -7.364  1.00 20.00     0.027 C 
HETATM   10  C10 UNL     1     -37.093  15.993  -5.375  1.00 20.00     0.027 C 
HETATM   11  O11 UNL     1     -34.300  17.580  -6.732  1.00 20.00    -0.296 OA
ENDROOT
TORSDOF 0
ENDMDL
MODEL 7
REMARK VINA RESULT:      -3.8     12.436     13.819
REMARK  0 active torsions:
REMARK  status: ('A' for Active; 'I' for Inactive)
ROOT
HETATM    1  C1  UNL     1     -33.506  16.061  -3.495  1.00 20.00    -0.029 C 
HETATM    2  C2  UNL     1     -33.121  16.701  -2.378  1.00 20.00    -0.014 C 
HETATM    3  C3  UNL     1     -34.733  18.683  -2.551  1.00 20.00     0.143 C 
HETATM    4  C4  UNL     1     -34.479  16.524  -4.538  1.00 20.00     0.032 C 
HETATM    5  C5  UNL     1     -35.543  18.840  -5.019  1.00 20.00     0.018 A 
HETATM    6  C6  UNL     1     -34.489  19.062  -3.966  1.00 20.00     0.061 A 
HETATM    7  C7  UNL     1     -34.333  17.951  -4.972  1.00 20.00     0.001 A 
HETATM    8  C8  UNL     1     -33.551  18.038  -1.803  1.00 20.00     0.031 C 
HETATM    9  C9  UNL     1     -33.974  17.809  -0.338  1.00 20.00     0.027 C 
HETATM   10  C10 UNL     1     -32.354  19.003  -1.816  1.00 20.00     0.027 C 
HETATM   11  O11 UNL     1     -35.831  18.894  -2.047  1.00 20.00    -0.296 OA
ENDROOT
TORSDOF 0
ENDMDL
MODEL 8
REMARK VINA RESULT:      -3.8     12.525     14.009
REMARK  0 active torsions:
REMARK  status: ('A' for Active; 'I' for Inactive)
ROOT
HETATM    1  C1  UNL     1     -33.901  15.295  -4.968  1.00 20.00    -0.029 C 
HETATM    2  C2  UNL     1     -34.683  16.188  -5.597  1.00 20.00    -0.014 C 
HETATM    3  C3  UNL     1     -33.948  18.264  -4.291  1.00 20.00     0.143 C 
HETATM    4  C4  UNL     1     -33.019  15.517  -3.775  1.00 20.00     0.032 C 
HETATM    5  C5  UNL     1     -32.858  17.464  -2.068  1.00 20.00     0.018 A 
HETATM    6  C6  UNL     1     -34.077  17.732  -2.911  1.00 20.00     0.061 A 
HETATM    7  C7  UNL     1     -33.624  16.316  -2.661  1.00 20.00     0.001 A 
HETATM    8  C8  UNL     1     -34.900  17.668  -5.345  1.00 20.00     0.031 C 
HETATM    9  C9  UNL     1     -34.674  18.414  -6.676  1.00 20.00     0.027 C 
HETATM   10  C10 UNL     1     -36.355  17.898  -4.903  1.00 20.00     0.027 C 
HETATM   11  O11 UNL     1     -33.115  19.133  -4.531  1.00 20.00    -0.296 OA
ENDROOT
TORSDOF 0
ENDMDL
MODEL 9
REMARK VINA RESULT:      -3.8     10.215     11.910
REMARK  0 active torsions:
REMARK  status: ('A' for Active; 'I' for Inactive)
ROOT
HETATM    1  C1  UNL     1     -42.529  15.466   5.871  1.00 20.00    -0.029 C 
HETATM    2  C2  UNL     1     -42.494  14.125   5.811  1.00 20.00    -0.014 C 
HETATM    3  C3  UNL     1     -41.544  13.704   8.152  1.00 20.00     0.143 C 
HETATM    4  C4  UNL     1     -42.004  16.357   6.957  1.00 20.00     0.032 C 
HETATM    5  C5  UNL     1     -40.424  15.908   8.965  1.00 20.00     0.018 A 
HETATM    6  C6  UNL     1     -40.409  14.662   8.119  1.00 20.00     0.061 A 
HETATM    7  C7  UNL     1     -40.645  16.007   7.482  1.00 20.00     0.001 A 
HETATM    8  C8  UNL     1     -41.966  13.101   6.799  1.00 20.00     0.031 C 
HETATM    9  C9  UNL     1     -43.085  12.071   7.059  1.00 20.00     0.027 C 
HETATM   10  C10 UNL     1     -40.768  12.366   6.174  1.00 20.00     0.027 C 
HETATM   11  O11 UNL     1     -42.082  13.438   9.221  1.00 20.00    -0.296 OA
ENDROOT
TORSDOF 0
ENDMDL
