MODEL 1
REMARK VINA RESULT:      -4.6      0.000      0.000
REMARK  1 active torsions:
REMARK  status: ('A' for Active; 'I' for Inactive)
REMARK    1  A    between atoms: C4_4  and  C11_11 
ROOT
HETATM    1  C1  UNL     1     -33.324  16.377  -2.758  1.00 20.00     0.027 A 
HETATM    2  C2  UNL     1     -34.418  17.885  -4.279  1.00 20.00     0.034 A 
HETATM    3  C3  UNL     1     -33.420  15.403  -3.738  1.00 20.00     0.117 A 
HETATM    4  C4  UNL     1     -33.835  17.639  -3.041  1.00 20.00    -0.047 A 
HETATM    5  C5  UNL     1     -34.465  16.844  -5.192  1.00 20.00     0.030 A 
HETATM    6  C12 UNL     1     -35.083  17.072  -6.531  1.00 20.00     0.070 C 
HETATM    7  N13 UNL     1     -33.979  15.605  -4.953  1.00 20.00    -0.266 NA
ENDROOT
BRANCH   4   8
HETATM    8  C11 UNL     1     -33.757  18.746  -1.999  1.00 20.00     0.041 C 
HETATM    9  C7  UNL     1     -34.401  18.368  -0.687  1.00 20.00    -0.021 C 
HETATM   10  C6  UNL     1     -33.725  18.258   0.466  1.00 20.00    -0.030 C 
HETATM   11  C8  UNL     1     -32.245  18.462   0.577  1.00 20.00     0.027 C 
HETATM   12  C9  UNL     1     -31.526  18.475  -0.773  1.00 20.00     0.005 C 
HETATM   13  C10 UNL     1     -32.312  19.261  -1.822  1.00 20.00     0.013 C 
ENDBRANCH   4   8
TORSDOF 1
ENDMDL
MODEL 2
REMARK VINA RESULT:      -4.5      2.154      5.108
REMARK  1 active torsions:
REMARK  status: ('A' for Active; 'I' for Inactive)
REMARK    1  A    between atoms: C4_4  and  C11_11 
ROOT
HETATM    1  C1  UNL     1     -34.037  17.856  -0.861  1.00 20.00     0.027 A 
HETATM    2  C2  UNL     1     -31.705  18.444  -0.847  1.00 20.00     0.034 A 
HETATM    3  C3  UNL     1     -34.078  18.201   0.480  1.00 20.00     0.117 A 
HETATM    4  C4  UNL     1     -32.824  17.981  -1.530  1.00 20.00    -0.047 A 
HETATM    5  C5  UNL     1     -31.849  18.763   0.494  1.00 20.00     0.030 A 
HETATM    6  C12 UNL     1     -30.669  19.263   1.259  1.00 20.00     0.070 C 
HETATM    7  N13 UNL     1     -33.011  18.654   1.178  1.00 20.00    -0.266 NA
ENDROOT
BRANCH   4   8
HETATM    8  C11 UNL     1     -32.722  17.614  -3.004  1.00 20.00     0.041 C 
HETATM    9  C7  UNL     1     -33.288  16.249  -3.312  1.00 20.00    -0.021 C 
HETATM   10  C6  UNL     1     -34.352  16.050  -4.104  1.00 20.00    -0.030 C 
HETATM   11  C8  UNL     1     -35.125  17.163  -4.744  1.00 20.00     0.027 C 
HETATM   12  C9  UNL     1     -34.811  18.541  -4.159  1.00 20.00     0.005 C 
HETATM   13  C10 UNL     1     -33.314  18.719  -3.908  1.00 20.00     0.013 C 
ENDBRANCH   4   8
TORSDOF 1
ENDMDL
MODEL 3
REMARK VINA RESULT:      -4.2      1.746      2.724
REMARK  1 active torsions:
REMARK  status: ('A' for Active; 'I' for Inactive)
REMARK    1  A    between atoms: C4_4  and  C11_11 
ROOT
HETATM    1  C1  UNL     1     -34.555  14.994  -4.655  1.00 20.00     0.027 A 
HETATM    2  C2  UNL     1     -35.770  16.997  -5.199  1.00 20.00     0.034 A 
HETATM    3  C3  UNL     1     -35.599  14.274  -5.211  1.00 20.00     0.117 A 
HETATM    4  C4  UNL     1     -34.650  16.382  -4.652  1.00 20.00    -0.047 A 
HETATM    5  C5  UNL     1     -36.760  16.188  -5.732  1.00 20.00     0.030 A 
HETATM    6  C12 UNL     1     -37.976  16.814  -6.328  1.00 20.00     0.070 C 
HETATM    7  N13 UNL     1     -36.704  14.837  -5.753  1.00 20.00    -0.266 NA
ENDROOT
BRANCH   4   8
HETATM    8  C11 UNL     1     -33.531  17.223  -4.052  1.00 20.00     0.041 C 
HETATM    9  C7  UNL     1     -33.919  18.669  -3.861  1.00 20.00    -0.021 C 
HETATM   10  C6  UNL     1     -33.996  19.262  -2.661  1.00 20.00    -0.030 C 
HETATM   11  C8  UNL     1     -33.743  18.547  -1.368  1.00 20.00     0.027 C 
HETATM   12  C9  UNL     1     -33.719  17.024  -1.507  1.00 20.00     0.005 C 
HETATM   13  C10 UNL     1     -32.968  16.585  -2.763  1.00 20.00     0.013 C 
ENDBRANCH   4   8
TORSDOF 1
ENDMDL
MODEL 4
REMARK VINA RESULT:      -4.2     11.215     12.681
REMARK  1 active torsions:
REMARK  status: ('A' for Active; 'I' for Inactive)
REMARK    1  A    between atoms: C4_4  and  C11_11 
ROOT
HETATM    1  C1  UNL     1     -33.083   5.417   2.868  1.00 20.00     0.027 A 
HETATM    2  C2  UNL     1     -33.452   6.894   4.729  1.00 20.00     0.034 A 
HETATM    3  C3  UNL     1     -33.913   4.503   3.496  1.00 20.00     0.117 A 
HETATM    4  C4  UNL     1     -32.853   6.632   3.503  1.00 20.00    -0.047 A 
HETATM    5  C5  UNL     1     -34.266   5.914   5.276  1.00 20.00     0.030 A 
HETATM    6  C12 UNL     1     -34.926   6.160   6.591  1.00 20.00     0.070 C 
HETATM    7  N13 UNL     1     -34.514   4.721   4.688  1.00 20.00    -0.266 NA
ENDROOT
BRANCH   4   8
HETATM    8  C11 UNL     1     -31.948   7.672   2.857  1.00 20.00     0.041 C 
HETATM    9  C7  UNL     1     -31.922   7.577   1.350  1.00 20.00    -0.021 C 
HETATM   10  C6  UNL     1     -32.366   8.549   0.540  1.00 20.00    -0.030 C 
HETATM   11  C8  UNL     1     -32.974   9.825   1.036  1.00 20.00     0.027 C 
HETATM   12  C9  UNL     1     -33.350   9.787   2.518  1.00 20.00     0.005 C 
HETATM   13  C10 UNL     1     -32.273   9.098   3.355  1.00 20.00     0.013 C 
ENDBRANCH   4   8
TORSDOF 1
ENDMDL
MODEL 5
REMARK VINA RESULT:      -4.2     24.591     25.837
REMARK  1 active torsions:
REMARK  status: ('A' for Active; 'I' for Inactive)
REMARK    1  A    between atoms: C4_4  and  C11_11 
ROOT
HETATM    1  C1  UNL     1     -23.761  -3.695  11.937  1.00 20.00     0.027 A 
HETATM    2  C2  UNL     1     -24.580  -2.945   9.804  1.00 20.00     0.034 A 
HETATM    3  C3  UNL     1     -22.629  -4.151  11.281  1.00 20.00     0.117 A 
HETATM    4  C4  UNL     1     -24.751  -3.082  11.177  1.00 20.00    -0.047 A 
HETATM    5  C5  UNL     1     -23.412  -3.435   9.243  1.00 20.00     0.030 A 
HETATM    6  C12 UNL     1     -23.195  -3.304   7.773  1.00 20.00     0.070 C 
HETATM    7  N13 UNL     1     -22.427  -4.036   9.949  1.00 20.00    -0.266 NA
ENDROOT
BRANCH   4   8
HETATM    8  C11 UNL     1     -26.016  -2.563  11.846  1.00 20.00     0.041 C 
HETATM    9  C7  UNL     1     -26.015  -1.064  12.026  1.00 20.00    -0.021 C 
HETATM   10  C6  UNL     1     -26.891  -0.245  11.426  1.00 20.00    -0.030 C 
HETATM   11  C8  UNL     1     -27.949  -0.720  10.478  1.00 20.00     0.027 C 
HETATM   12  C9  UNL     1     -27.737  -2.156   9.995  1.00 20.00     0.005 C 
HETATM   13  C10 UNL     1     -27.288  -3.072  11.132  1.00 20.00     0.013 C 
ENDBRANCH   4   8
TORSDOF 1
ENDMDL
MODEL 6
REMARK VINA RESULT:      -4.0      1.904      3.008
REMARK  1 active torsions:
REMARK  status: ('A' for Active; 'I' for Inactive)
REMARK    1  A    between atoms: C4_4  and  C11_11 
ROOT
HETATM    1  C1  UNL     1     -36.978  17.766  -4.501  1.00 20.00     0.027 A 
HETATM    2  C2  UNL     1     -35.231  16.725  -5.784  1.00 20.00     0.034 A 
HETATM    3  C3  UNL     1     -37.890  17.059  -5.267  1.00 20.00     0.117 A 
HETATM    4  C4  UNL     1     -35.625  17.591  -4.770  1.00 20.00    -0.047 A 
HETATM    5  C5  UNL     1     -36.221  16.064  -6.494  1.00 20.00     0.030 A 
HETATM    6  C12 UNL     1     -35.834  15.127  -7.589  1.00 20.00     0.070 C 
HETATM    7  N13 UNL     1     -37.545  16.209  -6.261  1.00 20.00    -0.266 NA
ENDROOT
BRANCH   4   8
HETATM    8  C11 UNL     1     -34.580  18.344  -3.958  1.00 20.00     0.041 C 
HETATM    9  C7  UNL     1     -35.130  18.913  -2.673  1.00 20.00    -0.021 C 
HETATM   10  C6  UNL     1     -34.716  18.530  -1.456  1.00 20.00    -0.030 C 
HETATM   11  C8  UNL     1     -33.685  17.465  -1.233  1.00 20.00     0.027 C 
HETATM   12  C9  UNL     1     -33.392  16.626  -2.478  1.00 20.00     0.005 C 
HETATM   13  C10 UNL     1     -33.311  17.492  -3.734  1.00 20.00     0.013 C 
ENDBRANCH   4   8
TORSDOF 1
ENDMDL
MODEL 7
REMARK VINA RESULT:      -4.0     10.953     12.486
REMARK  1 active torsions:
REMARK  status: ('A' for Active; 'I' for Inactive)
REMARK    1  A    between atoms: C4_4  and  C11_11 
ROOT
HETATM    1  C1  UNL     1     -41.630  14.949   7.250  1.00 20.00     0.027 A 
HETATM    2  C2  UNL     1     -41.314  13.414   5.426  1.00 20.00     0.034 A 
HETATM    3  C3  UNL     1     -40.636  14.264   7.929  1.00 20.00     0.117 A 
HETATM    4  C4  UNL     1     -41.971  14.510   5.975  1.00 20.00    -0.047 A 
HETATM    5  C5  UNL     1     -40.334  12.797   6.186  1.00 20.00     0.030 A 
HETATM    6  C12 UNL     1     -39.609  11.619   5.628  1.00 20.00     0.070 C 
HETATM    7  N13 UNL     1     -39.976  13.195   7.428  1.00 20.00    -0.266 NA
ENDROOT
BRANCH   4   8
HETATM    8  C11 UNL     1     -43.057  15.226   5.185  1.00 20.00     0.041 C 
HETATM    9  C7  UNL     1     -42.913  16.728   5.213  1.00 20.00    -0.021 C 
HETATM   10  C6  UNL     1     -42.673  17.470   4.122  1.00 20.00    -0.030 C 
HETATM   11  C8  UNL     1     -42.482  16.889   2.754  1.00 20.00     0.027 C 
HETATM   12  C9  UNL     1     -42.252  15.377   2.759  1.00 20.00     0.005 C 
HETATM   13  C10 UNL     1     -43.177  14.669   3.749  1.00 20.00     0.013 C 
ENDBRANCH   4   8
TORSDOF 1
ENDMDL
MODEL 8
REMARK VINA RESULT:      -4.0      2.178      3.074
REMARK  1 active torsions:
REMARK  status: ('A' for Active; 'I' for Inactive)
REMARK    1  A    between atoms: C4_4  and  C11_11 
ROOT
HETATM    1  C1  UNL     1     -35.230  16.401  -5.588  1.00 20.00     0.027 A 
HETATM    2  C2  UNL     1     -36.931  17.769  -4.580  1.00 20.00     0.034 A 
HETATM    3  C3  UNL     1     -36.241  15.724  -6.251  1.00 20.00     0.117 A 
HETATM    4  C4  UNL     1     -35.590  17.441  -4.738  1.00 20.00    -0.047 A 
HETATM    5  C5  UNL     1     -37.867  17.031  -5.288  1.00 20.00     0.030 A 
HETATM    6  C12 UNL     1     -39.316  17.356  -5.143  1.00 20.00     0.070 C 
HETATM    7  N13 UNL     1     -37.556  16.014  -6.123  1.00 20.00    -0.266 NA
ENDROOT
BRANCH   4   8
HETATM    8  C11 UNL     1     -34.519  18.217  -3.984  1.00 20.00     0.041 C 
HETATM    9  C7  UNL     1     -35.056  18.935  -2.770  1.00 20.00    -0.021 C 
HETATM   10  C6  UNL     1     -34.678  18.653  -1.515  1.00 20.00    -0.030 C 
HETATM   11  C8  UNL     1     -33.707  17.566  -1.170  1.00 20.00     0.027 C 
HETATM   12  C9  UNL     1     -33.440  16.596  -2.322  1.00 20.00     0.005 C 
HETATM   13  C10 UNL     1     -33.298  17.330  -3.655  1.00 20.00     0.013 C 
ENDBRANCH   4   8
TORSDOF 1
ENDMDL
MODEL 9
REMARK VINA RESULT:      -4.0     11.170     12.977
REMARK  1 active torsions:
REMARK  status: ('A' for Active; 'I' for Inactive)
REMARK    1  A    between atoms: C4_4  and  C11_11 
ROOT
HETATM    1  C1  UNL     1     -42.227  14.466   5.868  1.00 20.00     0.027 A 
HETATM    2  C2  UNL     1     -40.473  12.917   6.423  1.00 20.00     0.034 A 
HETATM    3  C3  UNL     1     -41.944  14.226   4.533  1.00 20.00     0.117 A 
HETATM    4  C4  UNL     1     -41.473  13.795   6.825  1.00 20.00    -0.047 A 
HETATM    5  C5  UNL     1     -40.267  12.746   5.063  1.00 20.00     0.030 A 
HETATM    6  C12 UNL     1     -39.203  11.811   4.595  1.00 20.00     0.070 C 
HETATM    7  N13 UNL     1     -40.980  13.380   4.104  1.00 20.00    -0.266 NA
ENDROOT
BRANCH   4   8
HETATM    8  C11 UNL     1     -41.742  14.021   8.306  1.00 20.00     0.041 C 
HETATM    9  C7  UNL     1     -40.482  14.246   9.106  1.00 20.00    -0.021 C 
HETATM   10  C6  UNL     1     -40.205  15.391   9.746  1.00 20.00    -0.030 C 
HETATM   11  C8  UNL     1     -41.097  16.594   9.709  1.00 20.00     0.027 C 
HETATM   12  C9  UNL     1     -42.171  16.525   8.622  1.00 20.00     0.005 C 
HETATM   13  C10 UNL     1     -42.792  15.131   8.531  1.00 20.00     0.013 C 
ENDBRANCH   4   8
TORSDOF 1
ENDMDL
