MODEL 1
REMARK VINA RESULT:      -4.1      0.000      0.000
REMARK  0 active torsions:
REMARK  status: ('A' for Active; 'I' for Inactive)
ROOT
HETATM    1  C1  UNL     1     -33.251   5.797   2.784  1.00 20.00    -0.023 C 
HETATM    2  C2  UNL     1     -33.672   4.719   3.536  1.00 20.00    -0.013 C 
HETATM    3  C3  UNL     1     -34.222   5.923   6.005  1.00 20.00     0.140 C 
HETATM    4  C4  UNL     1     -33.776   7.399   6.181  1.00 20.00     0.088 C 
HETATM    5  C5  UNL     1     -33.034   6.524   4.074  1.00 20.00     0.035 C 
HETATM    6  C6  UNL     1     -34.367   5.708   4.477  1.00 20.00     0.042 C 
HETATM    7  C7  UNL     1     -33.302   7.865   4.740  1.00 20.00    -0.033 C 
HETATM    8  C8  UNL     1     -35.836   5.890   4.065  1.00 20.00     0.029 C 
HETATM    9  C9  UNL     1     -34.299   8.755   4.001  1.00 20.00     0.016 C 
HETATM   10  C10 UNL     1     -31.979   8.643   4.856  1.00 20.00     0.016 C 
HETATM   11  O11 UNL     1     -34.434   5.154   6.932  1.00 20.00    -0.297 OA
ENDROOT
TORSDOF 0
ENDMDL
MODEL 2
REMARK VINA RESULT:      -3.8     12.587     13.760
REMARK  0 active torsions:
REMARK  status: ('A' for Active; 'I' for Inactive)
ROOT
HETATM    1  C1  UNL     1     -32.987  16.348  -3.041  1.00 20.00    -0.023 C 
HETATM    2  C2  UNL     1     -34.042  16.451  -3.924  1.00 20.00    -0.013 C 
HETATM    3  C3  UNL     1     -35.450  18.637  -2.879  1.00 20.00     0.140 C 
HETATM    4  C4  UNL     1     -35.001  19.161  -1.490  1.00 20.00     0.088 C 
HETATM    5  C5  UNL     1     -33.789  17.180  -2.091  1.00 20.00     0.035 C 
HETATM    6  C6  UNL     1     -34.218  17.904  -3.469  1.00 20.00     0.042 C 
HETATM    7  C7  UNL     1     -33.660  18.378  -1.163  1.00 20.00    -0.033 C 
HETATM    8  C8  UNL     1     -33.449  18.850  -4.405  1.00 20.00     0.029 C 
HETATM    9  C9  UNL     1     -32.385  19.196  -1.351  1.00 20.00     0.016 C 
HETATM   10  C10 UNL     1     -33.689  17.888   0.297  1.00 20.00     0.016 C 
HETATM   11  O11 UNL     1     -36.555  18.833  -3.364  1.00 20.00    -0.297 OA
ENDROOT
TORSDOF 0
ENDMDL
MODEL 3
REMARK VINA RESULT:      -3.8      9.165     10.429
REMARK  0 active torsions:
REMARK  status: ('A' for Active; 'I' for Inactive)
ROOT
HETATM    1  C1  UNL     1     -39.272  12.937   6.068  1.00 20.00    -0.023 C 
HETATM    2  C2  UNL     1     -40.182  11.996   5.632  1.00 20.00    -0.013 C 
HETATM    3  C3  UNL     1     -42.489  12.735   7.040  1.00 20.00     0.140 C 
HETATM    4  C4  UNL     1     -42.320  13.808   8.147  1.00 20.00     0.088 C 
HETATM    5  C5  UNL     1     -40.196  13.198   7.216  1.00 20.00     0.035 C 
HETATM    6  C6  UNL     1     -41.301  12.947   6.066  1.00 20.00     0.042 C 
HETATM    7  C7  UNL     1     -40.835  14.342   7.987  1.00 20.00    -0.033 C 
HETATM    8  C8  UNL     1     -41.752  13.814   4.880  1.00 20.00     0.029 C 
HETATM    9  C9  UNL     1     -40.720  15.708   7.314  1.00 20.00     0.016 C 
HETATM   10  C10 UNL     1     -40.170  14.448   9.372  1.00 20.00     0.016 C 
HETATM   11  O11 UNL     1     -43.416  11.939   6.988  1.00 20.00    -0.297 OA
ENDROOT
TORSDOF 0
ENDMDL
MODEL 4
REMARK VINA RESULT:      -3.7     12.337     13.916
REMARK  0 active torsions:
REMARK  status: ('A' for Active; 'I' for Inactive)
ROOT
HETATM    1  C1  UNL     1     -33.107  15.694  -3.926  1.00 20.00    -0.023 C 
HETATM    2  C2  UNL     1     -33.792  14.541  -4.249  1.00 20.00    -0.013 C 
HETATM    3  C3  UNL     1     -36.139  15.568  -5.385  1.00 20.00     0.140 C 
HETATM    4  C4  UNL     1     -36.371  17.096  -5.253  1.00 20.00     0.088 C 
HETATM    5  C5  UNL     1     -34.410  16.421  -4.048  1.00 20.00     0.035 C 
HETATM    6  C6  UNL     1     -34.607  15.363  -5.252  1.00 20.00     0.042 C 
HETATM    7  C7  UNL     1     -35.017  17.674  -4.659  1.00 20.00    -0.033 C 
HETATM    8  C8  UNL     1     -33.972  15.280  -6.649  1.00 20.00     0.029 C 
HETATM    9  C9  UNL     1     -34.128  18.381  -5.679  1.00 20.00     0.016 C 
HETATM   10  C10 UNL     1     -35.331  18.680  -3.537  1.00 20.00     0.016 C 
HETATM   11  O11 UNL     1     -37.026  14.752  -5.590  1.00 20.00    -0.297 OA
ENDROOT
TORSDOF 0
ENDMDL
MODEL 5
REMARK VINA RESULT:      -3.6      9.726     11.083
REMARK  0 active torsions:
REMARK  status: ('A' for Active; 'I' for Inactive)
ROOT
HETATM    1  C1  UNL     1     -43.417  12.139   7.081  1.00 20.00    -0.023 C 
HETATM    2  C2  UNL     1     -43.375  12.638   8.367  1.00 20.00    -0.013 C 
HETATM    3  C3  UNL     1     -41.063  14.218   8.291  1.00 20.00     0.140 C 
HETATM    4  C4  UNL     1     -40.168  14.091   7.031  1.00 20.00     0.088 C 
HETATM    5  C5  UNL     1     -41.974  12.514   6.961  1.00 20.00     0.035 C 
HETATM    6  C6  UNL     1     -42.478  13.766   7.848  1.00 20.00     0.042 C 
HETATM    7  C7  UNL     1     -41.002  13.202   6.015  1.00 20.00    -0.033 C 
HETATM    8  C8  UNL     1     -43.326  14.995   7.485  1.00 20.00     0.029 C 
HETATM    9  C9  UNL     1     -41.661  13.983   4.881  1.00 20.00     0.016 C 
HETATM   10  C10 UNL     1     -40.084  12.142   5.379  1.00 20.00     0.016 C 
HETATM   11  O11 UNL     1     -40.673  14.635   9.373  1.00 20.00    -0.297 OA
ENDROOT
TORSDOF 0
ENDMDL
MODEL 6
REMARK VINA RESULT:      -3.6     12.096     13.553
REMARK  0 active torsions:
REMARK  status: ('A' for Active; 'I' for Inactive)
ROOT
HETATM    1  C1  UNL     1     -33.759  16.982  -3.989  1.00 20.00    -0.023 C 
HETATM    2  C2  UNL     1     -33.900  15.906  -3.137  1.00 20.00    -0.013 C 
HETATM    3  C3  UNL     1     -35.283  14.078  -4.749  1.00 20.00     0.140 C 
HETATM    4  C4  UNL     1     -35.825  14.606  -6.103  1.00 20.00     0.088 C 
HETATM    5  C5  UNL     1     -34.853  16.383  -4.817  1.00 20.00     0.035 C 
HETATM    6  C6  UNL     1     -34.111  15.020  -4.369  1.00 20.00     0.042 C 
HETATM    7  C7  UNL     1     -35.207  16.060  -6.260  1.00 20.00    -0.033 C 
HETATM    8  C8  UNL     1     -32.779  14.394  -4.808  1.00 20.00     0.029 C 
HETATM    9  C9  UNL     1     -34.039  16.150  -7.239  1.00 20.00     0.016 C 
HETATM   10  C10 UNL     1     -36.296  17.036  -6.742  1.00 20.00     0.016 C 
HETATM   11  O11 UNL     1     -35.715  13.089  -4.173  1.00 20.00    -0.297 OA
ENDROOT
TORSDOF 0
ENDMDL
MODEL 7
REMARK VINA RESULT:      -3.6     10.232     11.838
REMARK  0 active torsions:
REMARK  status: ('A' for Active; 'I' for Inactive)
ROOT
HETATM    1  C1  UNL     1     -40.295  14.429   8.639  1.00 20.00    -0.023 C 
HETATM    2  C2  UNL     1     -40.595  15.767   8.477  1.00 20.00    -0.013 C 
HETATM    3  C3  UNL     1     -42.058  15.740   6.088  1.00 20.00     0.140 C 
HETATM    4  C4  UNL     1     -42.077  14.408   5.293  1.00 20.00     0.088 C 
HETATM    5  C5  UNL     1     -40.616  14.252   7.188  1.00 20.00     0.035 C 
HETATM    6  C6  UNL     1     -41.744  15.348   7.555  1.00 20.00     0.042 C 
HETATM    7  C7  UNL     1     -41.390  13.343   6.246  1.00 20.00    -0.033 C 
HETATM    8  C8  UNL     1     -43.052  15.234   8.353  1.00 20.00     0.029 C 
HETATM    9  C9  UNL     1     -42.361  12.389   6.937  1.00 20.00     0.016 C 
HETATM   10  C10 UNL     1     -40.394  12.490   5.439  1.00 20.00     0.016 C 
HETATM   11  O11 UNL     1     -42.291  16.837   5.600  1.00 20.00    -0.297 OA
ENDROOT
TORSDOF 0
ENDMDL
MODEL 8
REMARK VINA RESULT:      -3.5     12.618     13.947
REMARK  0 active torsions:
REMARK  status: ('A' for Active; 'I' for Inactive)
ROOT
HETATM    1  C1  UNL     1     -34.824  16.875  -7.209  1.00 20.00    -0.023 C 
HETATM    2  C2  UNL     1     -34.452  15.547  -7.229  1.00 20.00    -0.013 C 
HETATM    3  C3  UNL     1     -33.847  15.082  -4.532  1.00 20.00     0.140 C 
HETATM    4  C4  UNL     1     -33.795  16.322  -3.602  1.00 20.00     0.088 C 
HETATM    5  C5  UNL     1     -34.137  16.978  -5.884  1.00 20.00     0.035 C 
HETATM    6  C6  UNL     1     -34.748  15.491  -5.727  1.00 20.00     0.042 C 
HETATM    7  C7  UNL     1     -34.341  17.525  -4.480  1.00 20.00    -0.033 C 
HETATM    8  C8  UNL     1     -36.183  15.000  -5.486  1.00 20.00     0.029 C 
HETATM    9  C9  UNL     1     -35.775  17.943  -4.162  1.00 20.00     0.016 C 
HETATM   10  C10 UNL     1     -33.442  18.759  -4.285  1.00 20.00     0.016 C 
HETATM   11  O11 UNL     1     -33.296  14.017  -4.292  1.00 20.00    -0.297 OA
ENDROOT
TORSDOF 0
ENDMDL
MODEL 9
REMARK VINA RESULT:      -3.4      9.970     11.362
REMARK  0 active torsions:
REMARK  status: ('A' for Active; 'I' for Inactive)
ROOT
HETATM    1  C1  UNL     1     -42.645  15.207   5.418  1.00 20.00    -0.023 C 
HETATM    2  C2  UNL     1     -42.007  14.087   4.924  1.00 20.00    -0.013 C 
HETATM    3  C3  UNL     1     -40.429  13.318   7.108  1.00 20.00     0.140 C 
HETATM    4  C4  UNL     1     -40.349  14.309   8.299  1.00 20.00     0.088 C 
HETATM    5  C5  UNL     1     -41.589  15.257   6.477  1.00 20.00     0.035 C 
HETATM    6  C6  UNL     1     -41.752  13.654   6.371  1.00 20.00     0.042 C 
HETATM    7  C7  UNL     1     -41.423  15.433   7.978  1.00 20.00    -0.033 C 
HETATM    8  C8  UNL     1     -42.865  12.709   6.848  1.00 20.00     0.029 C 
HETATM    9  C9  UNL     1     -42.717  15.321   8.781  1.00 20.00     0.016 C 
HETATM   10  C10 UNL     1     -40.820  16.821   8.259  1.00 20.00     0.016 C 
HETATM   11  O11 UNL     1     -39.600  12.448   6.880  1.00 20.00    -0.297 OA
ENDROOT
TORSDOF 0
ENDMDL
