MODEL 1
REMARK VINA RESULT:      -4.2      0.000      0.000
REMARK  0 active torsions:
REMARK  status: ('A' for Active; 'I' for Inactive)
ROOT
HETATM    1  C1  UNL     1     -37.092  18.573  -6.105  1.00 20.00    -0.017 C 
HETATM    2  C2  UNL     1     -35.785  18.983  -6.173  1.00 20.00    -0.019 C 
HETATM    3  C3  UNL     1     -37.142  15.869  -5.777  1.00 20.00     0.136 C 
HETATM    4  C4  UNL     1     -36.114  14.749  -6.017  1.00 20.00     0.083 C 
HETATM    5  C5  UNL     1     -33.251  16.656  -2.877  1.00 20.00     0.000 C 
HETATM    6  C6  UNL     1     -32.935  15.485  -3.813  1.00 20.00     0.000 C 
HETATM    7  C7  UNL     1     -33.900  17.897  -3.494  1.00 20.00     0.001 C 
HETATM    8  C8  UNL     1     -34.167  14.782  -4.386  1.00 20.00     0.005 C 
HETATM    9  C9  UNL     1     -35.309  17.665  -4.046  1.00 20.00     0.014 C 
HETATM   10  C10 UNL     1     -34.318  16.678  -6.227  1.00 20.00     0.019 C 
HETATM   11  C11 UNL     1     -36.632  17.168  -6.379  1.00 20.00     0.090 C 
HETATM   12  C12 UNL     1     -34.623  15.200  -5.806  1.00 20.00    -0.007 C 
HETATM   13  C13 UNL     1     -35.342  17.620  -5.600  1.00 20.00    -0.009 C 
HETATM   14  O14 UNL     1     -38.223  15.673  -5.230  1.00 20.00    -0.297 OA
ENDROOT
TORSDOF 0
ENDMDL
MODEL 2
REMARK VINA RESULT:      -4.2      1.690      3.306
REMARK  0 active torsions:
REMARK  status: ('A' for Active; 'I' for Inactive)
ROOT
HETATM    1  C1  UNL     1     -35.434  15.161  -6.791  1.00 20.00    -0.017 C 
HETATM    2  C2  UNL     1     -35.579  16.491  -7.091  1.00 20.00    -0.019 C 
HETATM    3  C3  UNL     1     -34.090  14.939  -4.433  1.00 20.00     0.136 C 
HETATM    4  C4  UNL     1     -33.196  15.895  -3.624  1.00 20.00     0.083 C 
HETATM    5  C5  UNL     1     -36.754  18.859  -3.128  1.00 20.00     0.000 C 
HETATM    6  C6  UNL     1     -35.295  19.105  -2.731  1.00 20.00     0.000 C 
HETATM    7  C7  UNL     1     -37.020  18.293  -4.525  1.00 20.00     0.001 C 
HETATM    8  C8  UNL     1     -34.458  17.834  -2.575  1.00 20.00     0.005 C 
HETATM    9  C9  UNL     1     -36.486  16.874  -4.743  1.00 20.00     0.014 C 
HETATM   10  C10 UNL     1     -34.113  17.810  -5.199  1.00 20.00     0.019 C 
HETATM   11  C11 UNL     1     -34.363  15.532  -5.805  1.00 20.00     0.090 C 
HETATM   12  C12 UNL     1     -33.583  17.411  -3.780  1.00 20.00    -0.007 C 
HETATM   13  C13 UNL     1     -35.213  16.845  -5.634  1.00 20.00    -0.009 C 
HETATM   14  O14 UNL     1     -34.450  13.846  -4.006  1.00 20.00    -0.297 OA
ENDROOT
TORSDOF 0
ENDMDL
MODEL 3
REMARK VINA RESULT:      -4.1      1.339      2.267
REMARK  0 active torsions:
REMARK  status: ('A' for Active; 'I' for Inactive)
ROOT
HETATM    1  C1  UNL     1     -36.528  16.003  -6.762  1.00 20.00    -0.017 C 
HETATM    2  C2  UNL     1     -35.885  17.214  -6.784  1.00 20.00    -0.019 C 
HETATM    3  C3  UNL     1     -35.329  14.410  -4.906  1.00 20.00     0.136 C 
HETATM    4  C4  UNL     1     -33.958  14.438  -4.207  1.00 20.00     0.083 C 
HETATM    5  C5  UNL     1     -34.970  18.568  -2.309  1.00 20.00     0.000 C 
HETATM    6  C6  UNL     1     -33.618  17.848  -2.269  1.00 20.00     0.000 C 
HETATM    7  C7  UNL     1     -35.673  18.673  -3.664  1.00 20.00     0.001 C 
HETATM    8  C8  UNL     1     -33.692  16.347  -2.553  1.00 20.00     0.005 C 
HETATM    9  C9  UNL     1     -36.117  17.331  -4.251  1.00 20.00     0.014 C 
HETATM   10  C10 UNL     1     -33.723  16.899  -5.141  1.00 20.00     0.019 C 
HETATM   11  C11 UNL     1     -35.345  15.423  -6.039  1.00 20.00     0.090 C 
HETATM   12  C12 UNL     1     -33.381  15.884  -3.998  1.00 20.00    -0.007 C 
HETATM   13  C13 UNL     1     -35.221  16.869  -5.434  1.00 20.00    -0.009 C 
HETATM   14  O14 UNL     1     -36.219  13.625  -4.594  1.00 20.00    -0.297 OA
ENDROOT
TORSDOF 0
ENDMDL
MODEL 4
REMARK VINA RESULT:      -3.9      2.137      4.308
REMARK  0 active torsions:
REMARK  status: ('A' for Active; 'I' for Inactive)
ROOT
HETATM    1  C1  UNL     1     -33.083  18.837  -0.767  1.00 20.00    -0.017 C 
HETATM    2  C2  UNL     1     -32.110  18.430  -1.644  1.00 20.00    -0.019 C 
HETATM    3  C3  UNL     1     -35.427  19.109  -2.128  1.00 20.00     0.136 C 
HETATM    4  C4  UNL     1     -35.781  19.263  -3.618  1.00 20.00     0.083 C 
HETATM    5  C5  UNL     1     -33.913  15.095  -4.528  1.00 20.00     0.000 C 
HETATM    6  C6  UNL     1     -34.413  16.118  -5.553  1.00 20.00     0.000 C 
HETATM    7  C7  UNL     1     -32.999  15.603  -3.411  1.00 20.00     0.001 C 
HETATM    8  C8  UNL     1     -35.378  17.162  -4.987  1.00 20.00     0.005 C 
HETATM    9  C9  UNL     1     -33.668  16.581  -2.443  1.00 20.00     0.014 C 
HETATM   10  C10 UNL     1     -33.289  18.529  -4.108  1.00 20.00     0.019 C 
HETATM   11  C11 UNL     1     -33.926  19.249  -1.942  1.00 20.00     0.090 C 
HETATM   12  C12 UNL     1     -34.781  18.533  -4.587  1.00 20.00    -0.007 C 
HETATM   13  C13 UNL     1     -33.207  18.049  -2.661  1.00 20.00    -0.009 C 
HETATM   14  O14 UNL     1     -36.277  18.957  -1.256  1.00 20.00    -0.297 OA
ENDROOT
TORSDOF 0
ENDMDL
MODEL 5
REMARK VINA RESULT:      -3.9     12.913     13.922
REMARK  0 active torsions:
REMARK  status: ('A' for Active; 'I' for Inactive)
ROOT
HETATM    1  C1  UNL     1     -39.743  12.648   5.148  1.00 20.00    -0.017 C 
HETATM    2  C2  UNL     1     -39.733  12.321   6.480  1.00 20.00    -0.019 C 
HETATM    3  C3  UNL     1     -42.058  13.970   4.591  1.00 20.00     0.136 C 
HETATM    4  C4  UNL     1     -43.417  14.082   5.304  1.00 20.00     0.083 C 
HETATM    5  C5  UNL     1     -41.355  16.024   9.002  1.00 20.00     0.000 C 
HETATM    6  C6  UNL     1     -42.816  15.573   8.899  1.00 20.00     0.000 C 
HETATM    7  C7  UNL     1     -40.279  15.043   8.530  1.00 20.00     0.001 C 
HETATM    8  C8  UNL     1     -43.330  15.411   7.467  1.00 20.00     0.005 C 
HETATM    9  C9  UNL     1     -40.315  14.739   7.030  1.00 20.00     0.014 C 
HETATM   10  C10 UNL     1     -42.212  13.013   7.400  1.00 20.00     0.019 C 
HETATM   11  C11 UNL     1     -41.223  12.884   5.249  1.00 20.00     0.090 C 
HETATM   12  C12 UNL     1     -43.323  13.983   6.870  1.00 20.00    -0.007 C 
HETATM   13  C13 UNL     1     -40.881  13.325   6.720  1.00 20.00    -0.009 C 
HETATM   14  O14 UNL     1     -41.768  14.640   3.604  1.00 20.00    -0.297 OA
ENDROOT
TORSDOF 0
ENDMDL
MODEL 6
REMARK VINA RESULT:      -3.8      1.939      3.375
REMARK  0 active torsions:
REMARK  status: ('A' for Active; 'I' for Inactive)
ROOT
HETATM    1  C1  UNL     1     -35.367  15.107  -6.790  1.00 20.00    -0.017 C 
HETATM    2  C2  UNL     1     -35.876  14.931  -5.528  1.00 20.00    -0.019 C 
HETATM    3  C3  UNL     1     -34.523  17.684  -7.040  1.00 20.00     0.136 C 
HETATM    4  C4  UNL     1     -34.820  18.981  -6.266  1.00 20.00     0.083 C 
HETATM    5  C5  UNL     1     -33.036  17.116  -2.389  1.00 20.00     0.000 C 
HETATM    6  C6  UNL     1     -33.779  18.452  -2.506  1.00 20.00     0.000 C 
HETATM    7  C7  UNL     1     -33.674  15.893  -3.052  1.00 20.00     0.001 C 
HETATM    8  C8  UNL     1     -33.837  19.022  -3.924  1.00 20.00     0.005 C 
HETATM    9  C9  UNL     1     -33.755  15.972  -4.579  1.00 20.00     0.014 C 
HETATM   10  C10 UNL     1     -35.892  17.428  -4.416  1.00 20.00     0.019 C 
HETATM   11  C11 UNL     1     -35.482  16.592  -6.596  1.00 20.00     0.090 C 
HETATM   12  C12 UNL     1     -35.125  18.754  -4.741  1.00 20.00    -0.007 C 
HETATM   13  C13 UNL     1     -35.198  16.246  -5.088  1.00 20.00    -0.009 C 
HETATM   14  O14 UNL     1     -33.668  17.615  -7.918  1.00 20.00    -0.297 OA
ENDROOT
TORSDOF 0
ENDMDL
MODEL 7
REMARK VINA RESULT:      -3.7      2.209      3.870
REMARK  0 active torsions:
REMARK  status: ('A' for Active; 'I' for Inactive)
ROOT
HETATM    1  C1  UNL     1     -33.287  17.013  -2.248  1.00 20.00    -0.017 C 
HETATM    2  C2  UNL     1     -34.298  17.892  -2.544  1.00 20.00    -0.019 C 
HETATM    3  C3  UNL     1     -33.147  15.146  -4.226  1.00 20.00     0.136 C 
HETATM    4  C4  UNL     1     -34.125  14.678  -5.319  1.00 20.00     0.083 C 
HETATM    5  C5  UNL     1     -34.133  18.944  -7.187  1.00 20.00     0.000 C 
HETATM    6  C6  UNL     1     -35.036  17.770  -7.580  1.00 20.00     0.000 C 
HETATM    7  C7  UNL     1     -33.999  19.263  -5.696  1.00 20.00     0.001 C 
HETATM    8  C8  UNL     1     -34.516  16.398  -7.146  1.00 20.00     0.005 C 
HETATM    9  C9  UNL     1     -33.313  18.168  -4.876  1.00 20.00     0.014 C 
HETATM   10  C10 UNL     1     -35.533  16.840  -4.743  1.00 20.00     0.019 C 
HETATM   11  C11 UNL     1     -33.872  16.054  -3.246  1.00 20.00     0.090 C 
HETATM   12  C12 UNL     1     -35.089  15.808  -5.835  1.00 20.00    -0.007 C 
HETATM   13  C13 UNL     1     -34.311  17.366  -3.995  1.00 20.00    -0.009 C 
HETATM   14  O14 UNL     1     -31.982  14.763  -4.169  1.00 20.00    -0.297 OA
ENDROOT
TORSDOF 0
ENDMDL
MODEL 8
REMARK VINA RESULT:      -3.6     12.681     13.733
REMARK  0 active torsions:
REMARK  status: ('A' for Active; 'I' for Inactive)
ROOT
HETATM    1  C1  UNL     1     -41.946  12.721   6.637  1.00 20.00    -0.017 C 
HETATM    2  C2  UNL     1     -42.325  13.373   7.782  1.00 20.00    -0.019 C 
HETATM    3  C3  UNL     1     -42.289  14.401   4.521  1.00 20.00     0.136 C 
HETATM    4  C4  UNL     1     -43.110  15.685   4.304  1.00 20.00     0.083 C 
HETATM    5  C5  UNL     1     -40.680  17.842   7.641  1.00 20.00     0.000 C 
HETATM    6  C6  UNL     1     -41.924  18.376   6.923  1.00 20.00     0.000 C 
HETATM    7  C7  UNL     1     -40.736  16.411   8.179  1.00 20.00     0.001 C 
HETATM    8  C8  UNL     1     -42.228  17.691   5.589  1.00 20.00     0.005 C 
HETATM    9  C9  UNL     1     -40.850  15.333   7.097  1.00 20.00     0.014 C 
HETATM   10  C10 UNL     1     -43.404  15.735   6.930  1.00 20.00     0.019 C 
HETATM   11  C11 UNL     1     -42.686  13.758   5.839  1.00 20.00     0.090 C 
HETATM   12  C12 UNL     1     -43.281  16.556   5.601  1.00 20.00    -0.007 C 
HETATM   13  C13 UNL     1     -42.273  14.713   7.018  1.00 20.00    -0.009 C 
HETATM   14  O14 UNL     1     -41.491  13.974   3.691  1.00 20.00    -0.297 OA
ENDROOT
TORSDOF 0
ENDMDL
MODEL 9
REMARK VINA RESULT:      -3.4      1.861      3.831
REMARK  0 active torsions:
REMARK  status: ('A' for Active; 'I' for Inactive)
ROOT
HETATM    1  C1  UNL     1     -33.151  14.773  -4.701  1.00 20.00    -0.017 C 
HETATM    2  C2  UNL     1     -34.042  15.190  -3.746  1.00 20.00    -0.019 C 
HETATM    3  C3  UNL     1     -34.269  15.137  -7.158  1.00 20.00     0.136 C 
HETATM    4  C4  UNL     1     -35.714  15.335  -7.650  1.00 20.00     0.083 C 
HETATM    5  C5  UNL     1     -36.060  19.263  -5.173  1.00 20.00     0.000 C 
HETATM    6  C6  UNL     1     -37.190  18.549  -5.921  1.00 20.00     0.000 C 
HETATM    7  C7  UNL     1     -35.161  18.411  -4.273  1.00 20.00     0.001 C 
HETATM    8  C8  UNL     1     -36.718  17.576  -7.003  1.00 20.00     0.005 C 
HETATM    9  C9  UNL     1     -34.317  17.377  -5.021  1.00 20.00     0.014 C 
HETATM   10  C10 UNL     1     -36.337  15.758  -5.117  1.00 20.00     0.019 C 
HETATM   11  C11 UNL     1     -34.279  14.734  -5.693  1.00 20.00     0.090 C 
HETATM   12  C12 UNL     1     -36.640  16.077  -6.621  1.00 20.00    -0.007 C 
HETATM   13  C13 UNL     1     -34.846  15.927  -4.838  1.00 20.00    -0.009 C 
HETATM   14  O14 UNL     1     -33.295  15.244  -7.897  1.00 20.00    -0.297 OA
ENDROOT
TORSDOF 0
ENDMDL
