MODEL 1
REMARK VINA RESULT:      -3.7      0.000      0.000
REMARK  3 active torsions:
REMARK  status: ('A' for Active; 'I' for Inactive)
REMARK    1  A    between atoms: C3_3  and  C7_7 
REMARK    2  A    between atoms: C6_6  and  N9_9 
REMARK    3  A    between atoms: C7_7  and  N9_9 
ROOT
HETATM    1  C1  UNL     1     -35.154  14.802  -6.335  1.00 20.00     0.089 C 
HETATM    2  C6  UNL     1     -33.941  15.118  -5.584  1.00 20.00     0.395 C 
HETATM    3  N8  UNL     1     -36.116  14.550  -6.933  1.00 20.00    -0.195 NA
ENDROOT
BRANCH   2   4
HETATM    4  N9  UNL     1     -34.245  15.990  -4.437  1.00 20.00     0.100 N 
HETATM    5  C5  UNL     1     -34.699  17.301  -4.926  1.00 20.00     0.311 C 
BRANCH   4   6
HETATM    6  C7  UNL     1     -33.112  16.120  -3.563  1.00 20.00     0.300 C 
BRANCH   6   7
HETATM    7  C3  UNL     1     -33.563  16.670  -2.250  1.00 20.00    -0.002 C 
HETATM    8  C2  UNL     1     -32.902  17.622  -1.577  1.00 20.00    -0.033 C 
HETATM    9  C4  UNL     1     -33.352  18.181  -0.268  1.00 20.00     0.036 C 
ENDBRANCH   6   7
ENDBRANCH   4   6
ENDBRANCH   2   4
TORSDOF 3
ENDMDL
MODEL 2
REMARK VINA RESULT:      -3.6      2.829      5.424
REMARK  3 active torsions:
REMARK  status: ('A' for Active; 'I' for Inactive)
REMARK    1  A    between atoms: C3_3  and  C7_7 
REMARK    2  A    between atoms: C6_6  and  N9_9 
REMARK    3  A    between atoms: C7_7  and  N9_9 
ROOT
HETATM    1  C1  UNL     1     -31.793  18.872  -0.507  1.00 20.00     0.089 C 
HETATM    2  C6  UNL     1     -33.215  19.142  -0.704  1.00 20.00     0.395 C 
HETATM    3  N8  UNL     1     -30.663  18.658  -0.347  1.00 20.00    -0.195 NA
ENDROOT
BRANCH   2   4
HETATM    4  N9  UNL     1     -33.722  18.446  -1.898  1.00 20.00     0.100 N 
HETATM    5  C5  UNL     1     -35.152  18.744  -2.070  1.00 20.00     0.311 C 
BRANCH   4   6
HETATM    6  C7  UNL     1     -33.488  17.030  -1.817  1.00 20.00     0.300 C 
BRANCH   6   7
HETATM    7  C3  UNL     1     -33.262  16.489  -3.190  1.00 20.00    -0.002 C 
HETATM    8  C2  UNL     1     -33.798  15.344  -3.635  1.00 20.00    -0.033 C 
HETATM    9  C4  UNL     1     -33.581  14.801  -5.009  1.00 20.00     0.036 C 
ENDBRANCH   6   7
ENDBRANCH   4   6
ENDBRANCH   2   4
TORSDOF 3
ENDMDL
MODEL 3
REMARK VINA RESULT:      -3.6      1.449      1.899
REMARK  3 active torsions:
REMARK  status: ('A' for Active; 'I' for Inactive)
REMARK    1  A    between atoms: C3_3  and  C7_7 
REMARK    2  A    between atoms: C6_6  and  N9_9 
REMARK    3  A    between atoms: C7_7  and  N9_9 
ROOT
HETATM    1  C1  UNL     1     -35.864  14.071  -4.863  1.00 20.00     0.089 C 
HETATM    2  C6  UNL     1     -35.815  15.402  -5.464  1.00 20.00     0.395 C 
HETATM    3  N8  UNL     1     -35.906  13.014  -4.386  1.00 20.00    -0.195 NA
ENDROOT
BRANCH   2   4
HETATM    4  N9  UNL     1     -34.423  15.849  -5.638  1.00 20.00     0.100 N 
HETATM    5  C5  UNL     1     -33.887  15.304  -6.895  1.00 20.00     0.311 C 
BRANCH   4   6
HETATM    6  C7  UNL     1     -33.608  15.476  -4.515  1.00 20.00     0.300 C 
BRANCH   6   7
HETATM    7  C3  UNL     1     -33.447  16.653  -3.610  1.00 20.00    -0.002 C 
HETATM    8  C2  UNL     1     -33.435  16.565  -2.272  1.00 20.00    -0.033 C 
HETATM    9  C4  UNL     1     -33.268  17.737  -1.363  1.00 20.00     0.036 C 
ENDBRANCH   6   7
ENDBRANCH   4   6
ENDBRANCH   2   4
TORSDOF 3
ENDMDL
MODEL 4
REMARK VINA RESULT:      -3.5     11.310     12.201
REMARK  3 active torsions:
REMARK  status: ('A' for Active; 'I' for Inactive)
REMARK    1  A    between atoms: C3_3  and  C7_7 
REMARK    2  A    between atoms: C6_6  and  N9_9 
REMARK    3  A    between atoms: C7_7  and  N9_9 
ROOT
HETATM    1  C1  UNL     1     -34.407   5.806   4.892  1.00 20.00     0.089 C 
HETATM    2  C6  UNL     1     -34.131   7.238   4.988  1.00 20.00     0.395 C 
HETATM    3  N8  UNL     1     -34.629   4.669   4.817  1.00 20.00    -0.195 NA
ENDROOT
BRANCH   2   4
HETATM    4  N9  UNL     1     -32.717   7.521   4.691  1.00 20.00     0.100 N 
HETATM    5  C5  UNL     1     -32.434   8.940   4.961  1.00 20.00     0.311 C 
BRANCH   4   6
HETATM    6  C7  UNL     1     -32.384   7.169   3.339  1.00 20.00     0.300 C 
BRANCH   6   7
HETATM    7  C3  UNL     1     -32.553   8.366   2.462  1.00 20.00    -0.002 C 
HETATM    8  C2  UNL     1     -32.451   8.328   1.126  1.00 20.00    -0.033 C 
HETATM    9  C4  UNL     1     -32.626   9.520   0.243  1.00 20.00     0.036 C 
ENDBRANCH   6   7
ENDBRANCH   4   6
ENDBRANCH   2   4
TORSDOF 3
ENDMDL
MODEL 5
REMARK VINA RESULT:      -3.5      3.371      5.959
REMARK  3 active torsions:
REMARK  status: ('A' for Active; 'I' for Inactive)
REMARK    1  A    between atoms: C3_3  and  C7_7 
REMARK    2  A    between atoms: C6_6  and  N9_9 
REMARK    3  A    between atoms: C7_7  and  N9_9 
ROOT
HETATM    1  C1  UNL     1     -31.041  18.851   0.134  1.00 20.00     0.089 C 
HETATM    2  C6  UNL     1     -31.803  18.332  -1.000  1.00 20.00     0.395 C 
HETATM    3  N8  UNL     1     -30.434  19.263   1.033  1.00 20.00    -0.195 NA
ENDROOT
BRANCH   2   4
HETATM    4  N9  UNL     1     -33.233  18.655  -0.865  1.00 20.00     0.100 N 
HETATM    5  C5  UNL     1     -33.722  18.178   0.439  1.00 20.00     0.311 C 
BRANCH   4   6
HETATM    6  C7  UNL     1     -34.000  18.101  -1.946  1.00 20.00     0.300 C 
BRANCH   6   7
HETATM    7  C3  UNL     1     -33.258  16.946  -2.534  1.00 20.00    -0.002 C 
HETATM    8  C2  UNL     1     -33.723  16.204  -3.550  1.00 20.00    -0.033 C 
HETATM    9  C4  UNL     1     -32.984  15.052  -4.147  1.00 20.00     0.036 C 
ENDBRANCH   6   7
ENDBRANCH   4   6
ENDBRANCH   2   4
TORSDOF 3
ENDMDL
MODEL 6
REMARK VINA RESULT:      -3.4     11.036     11.775
REMARK  3 active torsions:
REMARK  status: ('A' for Active; 'I' for Inactive)
REMARK    1  A    between atoms: C3_3  and  C7_7 
REMARK    2  A    between atoms: C6_6  and  N9_9 
REMARK    3  A    between atoms: C7_7  and  N9_9 
ROOT
HETATM    1  C1  UNL     1     -32.731   9.241   1.336  1.00 20.00     0.089 C 
HETATM    2  C6  UNL     1     -32.942   9.489   2.761  1.00 20.00     0.395 C 
HETATM    3  N8  UNL     1     -32.565   9.047   0.204  1.00 20.00    -0.195 NA
ENDROOT
BRANCH   2   4
HETATM    4  N9  UNL     1     -32.208   8.509   3.579  1.00 20.00     0.100 N 
HETATM    5  C5  UNL     1     -32.278   7.186   2.939  1.00 20.00     0.311 C 
BRANCH   4   6
HETATM    6  C7  UNL     1     -32.710   8.468   4.924  1.00 20.00     0.300 C 
BRANCH   6   7
HETATM    7  C3  UNL     1     -33.575   7.262   5.090  1.00 20.00    -0.002 C 
HETATM    8  C2  UNL     1     -33.889   6.731   6.281  1.00 20.00    -0.033 C 
HETATM    9  C4  UNL     1     -34.758   5.530   6.453  1.00 20.00     0.036 C 
ENDBRANCH   6   7
ENDBRANCH   4   6
ENDBRANCH   2   4
TORSDOF 3
ENDMDL
MODEL 7
REMARK VINA RESULT:      -3.4     12.781     13.390
REMARK  3 active torsions:
REMARK  status: ('A' for Active; 'I' for Inactive)
REMARK    1  A    between atoms: C3_3  and  C7_7 
REMARK    2  A    between atoms: C6_6  and  N9_9 
REMARK    3  A    between atoms: C7_7  and  N9_9 
ROOT
HETATM    1  C1  UNL     1     -33.468   4.929   3.513  1.00 20.00     0.089 C 
HETATM    2  C6  UNL     1     -34.093   4.365   4.709  1.00 20.00     0.395 C 
HETATM    3  N8  UNL     1     -32.971   5.373   2.564  1.00 20.00    -0.195 NA
ENDROOT
BRANCH   2   4
HETATM    4  N9  UNL     1     -34.979   5.349   5.352  1.00 20.00     0.100 N 
HETATM    5  C5  UNL     1     -35.654   6.150   4.318  1.00 20.00     0.311 C 
BRANCH   4   6
HETATM    6  C7  UNL     1     -34.256   6.183   6.272  1.00 20.00     0.300 C 
BRANCH   6   7
HETATM    7  C3  UNL     1     -33.962   7.495   5.621  1.00 20.00    -0.002 C 
HETATM    8  C2  UNL     1     -32.731   7.888   5.265  1.00 20.00    -0.033 C 
HETATM    9  C4  UNL     1     -32.432   9.195   4.608  1.00 20.00     0.036 C 
ENDBRANCH   6   7
ENDBRANCH   4   6
ENDBRANCH   2   4
TORSDOF 3
ENDMDL
MODEL 8
REMARK VINA RESULT:      -3.3     12.047     13.744
REMARK  3 active torsions:
REMARK  status: ('A' for Active; 'I' for Inactive)
REMARK    1  A    between atoms: C3_3  and  C7_7 
REMARK    2  A    between atoms: C6_6  and  N9_9 
REMARK    3  A    between atoms: C7_7  and  N9_9 
ROOT
HETATM    1  C1  UNL     1     -40.490  14.444   8.947  1.00 20.00     0.089 C 
HETATM    2  C6  UNL     1     -40.359  15.096   7.645  1.00 20.00     0.395 C 
HETATM    3  N8  UNL     1     -40.591  13.928   9.982  1.00 20.00    -0.195 NA
ENDROOT
BRANCH   2   4
HETATM    4  N9  UNL     1     -41.443  14.681   6.739  1.00 20.00     0.100 N 
HETATM    5  C5  UNL     1     -42.731  15.165   7.262  1.00 20.00     0.311 C 
BRANCH   4   6
HETATM    6  C7  UNL     1     -41.455  13.257   6.554  1.00 20.00     0.300 C 
BRANCH   6   7
HETATM    7  C3  UNL     1     -40.687  12.914   5.320  1.00 20.00    -0.002 C 
HETATM    8  C2  UNL     1     -39.690  12.018   5.289  1.00 20.00    -0.033 C 
HETATM    9  C4  UNL     1     -38.923  11.667   4.058  1.00 20.00     0.036 C 
ENDBRANCH   6   7
ENDBRANCH   4   6
ENDBRANCH   2   4
TORSDOF 3
ENDMDL
MODEL 9
REMARK VINA RESULT:      -3.3      1.559      2.252
REMARK  3 active torsions:
REMARK  status: ('A' for Active; 'I' for Inactive)
REMARK    1  A    between atoms: C3_3  and  C7_7 
REMARK    2  A    between atoms: C6_6  and  N9_9 
REMARK    3  A    between atoms: C7_7  and  N9_9 
ROOT
HETATM    1  C1  UNL     1     -36.870  15.801  -5.558  1.00 20.00     0.089 C 
HETATM    2  C6  UNL     1     -35.835  14.821  -5.881  1.00 20.00     0.395 C 
HETATM    3  N8  UNL     1     -37.694  16.577  -5.302  1.00 20.00    -0.195 NA
ENDROOT
BRANCH   2   4
HETATM    4  N9  UNL     1     -34.502  15.447  -5.888  1.00 20.00     0.100 N 
HETATM    5  C5  UNL     1     -33.998  15.510  -7.269  1.00 20.00     0.311 C 
BRANCH   4   6
HETATM    6  C7  UNL     1     -33.589  14.745  -5.029  1.00 20.00     0.300 C 
BRANCH   6   7
HETATM    7  C3  UNL     1     -33.719  15.272  -3.638  1.00 20.00    -0.002 C 
HETATM    8  C2  UNL     1     -33.331  16.501  -3.270  1.00 20.00    -0.033 C 
HETATM    9  C4  UNL     1     -33.464  17.036  -1.882  1.00 20.00     0.036 C 
ENDBRANCH   6   7
ENDBRANCH   4   6
ENDBRANCH   2   4
TORSDOF 3
ENDMDL
