MODEL 1
REMARK VINA RESULT:      -6.7      0.000      0.000
REMARK  1 active torsions:
REMARK  status: ('A' for Active; 'I' for Inactive)
REMARK    1  A    between atoms: C10_10  and  O11_11 
ROOT
HETATM    1  C1  UNL     1     -32.548   8.713   4.836  1.00 20.00    -0.021 C 
HETATM    2  C2  UNL     1     -33.847   7.258   6.577  1.00 20.00    -0.021 C 
HETATM    3  C3  UNL     1     -32.048   7.914   3.869  1.00 20.00    -0.025 C 
HETATM    4  C4  UNL     1     -34.413   6.068   6.277  1.00 20.00    -0.022 C 
HETATM    5  C5  UNL     1     -33.269   5.571   2.957  1.00 20.00     0.041 C 
HETATM    6  C6  UNL     1     -33.856   8.199   5.406  1.00 20.00     0.035 C 
HETATM    7  C7  UNL     1     -32.803   6.643   3.910  1.00 20.00     0.016 C 
HETATM    8  C8  UNL     1     -34.891   5.988   4.842  1.00 20.00     0.042 C 
HETATM    9  C9  UNL     1     -34.180   7.211   4.313  1.00 20.00     0.015 C 
HETATM   10  C10 UNL     1     -34.377   4.900   3.844  1.00 20.00     0.127 C 
ENDROOT
BRANCH  10  11
HETATM   11  O11 UNL     1     -33.837   3.784   4.536  1.00 20.00    -0.395 OA
HETATM   12  H23 UNL     1     -33.210   3.354   3.931  1.00 20.00     0.210 HD
ENDBRANCH  10  11
TORSDOF 1
ENDMDL
MODEL 2
REMARK VINA RESULT:      -6.0      1.624      3.411
REMARK  1 active torsions:
REMARK  status: ('A' for Active; 'I' for Inactive)
REMARK    1  A    between atoms: C10_10  and  O11_11 
ROOT
HETATM    1  C1  UNL     1     -34.911   5.403   6.181  1.00 20.00    -0.021 C 
HETATM    2  C2  UNL     1     -33.727   4.657   3.973  1.00 20.00    -0.021 C 
HETATM    3  C3  UNL     1     -34.256   6.464   6.703  1.00 20.00    -0.025 C 
HETATM    4  C4  UNL     1     -33.000   5.493   3.199  1.00 20.00    -0.022 C 
HETATM    5  C5  UNL     1     -32.953   8.424   5.196  1.00 20.00     0.041 C 
HETATM    6  C6  UNL     1     -34.856   5.366   4.666  1.00 20.00     0.035 C 
HETATM    7  C7  UNL     1     -33.449   7.064   5.619  1.00 20.00     0.016 C 
HETATM    8  C8  UNL     1     -33.500   6.923   3.245  1.00 20.00     0.042 C 
HETATM    9  C9  UNL     1     -34.410   6.790   4.443  1.00 20.00     0.015 C 
HETATM   10  C10 UNL     1     -32.596   8.115   3.699  1.00 20.00     0.127 C 
ENDROOT
BRANCH  10  11
HETATM   11  O11 UNL     1     -31.220   7.787   3.584  1.00 20.00    -0.395 OA
HETATM   12  H23 UNL     1     -30.946   8.032   2.684  1.00 20.00     0.210 HD
ENDBRANCH  10  11
TORSDOF 1
ENDMDL
MODEL 3
REMARK VINA RESULT:      -5.6      1.172      1.960
REMARK  1 active torsions:
REMARK  status: ('A' for Active; 'I' for Inactive)
REMARK    1  A    between atoms: C10_10  and  O11_11 
ROOT
HETATM    1  C1  UNL     1     -32.274   7.450   2.671  1.00 20.00    -0.021 C 
HETATM    2  C2  UNL     1     -32.404   8.321   5.132  1.00 20.00    -0.021 C 
HETATM    3  C3  UNL     1     -32.590   6.136   2.644  1.00 20.00    -0.025 C 
HETATM    4  C4  UNL     1     -33.189   7.762   6.079  1.00 20.00    -0.022 C 
HETATM    5  C5  UNL     1     -34.417   4.909   4.367  1.00 20.00     0.041 C 
HETATM    6  C6  UNL     1     -33.006   8.209   3.759  1.00 20.00     0.035 C 
HETATM    7  C7  UNL     1     -33.323   5.832   3.892  1.00 20.00     0.016 C 
HETATM    8  C8  UNL     1     -34.456   7.155   5.511  1.00 20.00     0.042 C 
HETATM    9  C9  UNL     1     -34.065   7.175   4.053  1.00 20.00     0.015 C 
HETATM   10  C10 UNL     1     -34.820   5.646   5.693  1.00 20.00     0.127 C 
ENDROOT
BRANCH  10  11
HETATM   11  O11 UNL     1     -34.126   5.081   6.795  1.00 20.00    -0.395 OA
HETATM   12  H23 UNL     1     -33.215   4.918   6.501  1.00 20.00     0.210 HD
ENDBRANCH  10  11
TORSDOF 1
ENDMDL
MODEL 4
REMARK VINA RESULT:      -5.3      1.760      2.996
REMARK  1 active torsions:
REMARK  status: ('A' for Active; 'I' for Inactive)
REMARK    1  A    between atoms: C10_10  and  O11_11 
ROOT
HETATM    1  C1  UNL     1     -34.888   5.874   5.928  1.00 20.00    -0.021 C 
HETATM    2  C2  UNL     1     -34.172   8.378   5.690  1.00 20.00    -0.021 C 
HETATM    3  C3  UNL     1     -34.772   5.259   4.730  1.00 20.00    -0.025 C 
HETATM    4  C4  UNL     1     -33.310   8.818   4.748  1.00 20.00    -0.022 C 
HETATM    5  C5  UNL     1     -32.845   5.887   2.805  1.00 20.00     0.041 C 
HETATM    6  C6  UNL     1     -33.863   6.973   6.127  1.00 20.00     0.035 C 
HETATM    7  C7  UNL     1     -33.867   6.081   3.897  1.00 20.00     0.016 C 
HETATM    8  C8  UNL     1     -32.272   7.782   4.367  1.00 20.00     0.042 C 
HETATM    9  C9  UNL     1     -32.925   6.582   5.011  1.00 20.00     0.015 C 
HETATM   10  C10 UNL     1     -32.098   7.264   2.902  1.00 20.00     0.127 C 
ENDROOT
BRANCH  10  11
HETATM   11  O11 UNL     1     -32.645   8.182   1.967  1.00 20.00    -0.395 OA
HETATM   12  H23 UNL     1     -32.267   7.958   1.100  1.00 20.00     0.210 HD
ENDBRANCH  10  11
TORSDOF 1
ENDMDL
MODEL 5
REMARK VINA RESULT:      -4.2     12.406     13.493
REMARK  1 active torsions:
REMARK  status: ('A' for Active; 'I' for Inactive)
REMARK    1  A    between atoms: C10_10  and  O11_11 
ROOT
HETATM    1  C1  UNL     1     -33.973  17.997  -2.277  1.00 20.00    -0.021 C 
HETATM    2  C2  UNL     1     -35.863  17.915  -4.082  1.00 20.00    -0.021 C 
HETATM    3  C3  UNL     1     -33.423  16.769  -2.149  1.00 20.00    -0.025 C 
HETATM    4  C4  UNL     1     -35.888  17.018  -5.092  1.00 20.00    -0.022 C 
HETATM    5  C5  UNL     1     -33.158  14.924  -4.232  1.00 20.00     0.041 C 
HETATM    6  C6  UNL     1     -34.459  18.279  -3.685  1.00 20.00     0.035 C 
HETATM    7  C7  UNL     1     -33.761  16.003  -3.368  1.00 20.00     0.016 C 
HETATM    8  C8  UNL     1     -34.504  16.602  -5.547  1.00 20.00     0.042 C 
HETATM    9  C9  UNL     1     -33.722  17.164  -4.383  1.00 20.00     0.015 C 
HETATM   10  C10 UNL     1     -34.024  15.115  -5.527  1.00 20.00     0.127 C 
ENDROOT
BRANCH  10  11
HETATM   11  O11 UNL     1     -35.126  14.220  -5.512  1.00 20.00    -0.395 OA
HETATM   12  H23 UNL     1     -35.103  13.759  -4.657  1.00 20.00     0.210 HD
ENDBRANCH  10  11
TORSDOF 1
ENDMDL
MODEL 6
REMARK VINA RESULT:      -4.2      1.076      2.554
REMARK  1 active torsions:
REMARK  status: ('A' for Active; 'I' for Inactive)
REMARK    1  A    between atoms: C10_10  and  O11_11 
ROOT
HETATM    1  C1  UNL     1     -32.508   8.835   3.939  1.00 20.00    -0.021 C 
HETATM    2  C2  UNL     1     -32.899   6.728   2.442  1.00 20.00    -0.021 C 
HETATM    3  C3  UNL     1     -33.429   8.858   4.928  1.00 20.00    -0.025 C 
HETATM    4  C4  UNL     1     -33.489   5.597   2.887  1.00 20.00    -0.022 C 
HETATM    5  C5  UNL     1     -34.521   6.585   6.134  1.00 20.00     0.041 C 
HETATM    6  C6  UNL     1     -32.126   7.427   3.525  1.00 20.00     0.035 C 
HETATM    7  C7  UNL     1     -33.974   7.489   5.057  1.00 20.00     0.016 C 
HETATM    8  C8  UNL     1     -33.235   5.340   4.359  1.00 20.00     0.042 C 
HETATM    9  C9  UNL     1     -32.691   6.702   4.721  1.00 20.00     0.015 C 
HETATM   10  C10 UNL     1     -34.391   5.203   5.401  1.00 20.00     0.127 C 
ENDROOT
BRANCH  10  11
HETATM   11  O11 UNL     1     -35.617   4.872   4.766  1.00 20.00    -0.395 OA
HETATM   12  H23 UNL     1     -35.391   4.477   3.907  1.00 20.00     0.210 HD
ENDBRANCH  10  11
TORSDOF 1
ENDMDL
MODEL 7
REMARK VINA RESULT:      -4.1     13.133     14.123
REMARK  1 active torsions:
REMARK  status: ('A' for Active; 'I' for Inactive)
REMARK    1  A    between atoms: C10_10  and  O11_11 
ROOT
HETATM    1  C1  UNL     1     -34.336  18.874  -4.053  1.00 20.00    -0.021 C 
HETATM    2  C2  UNL     1     -33.247  16.638  -3.249  1.00 20.00    -0.021 C 
HETATM    3  C3  UNL     1     -34.394  18.883  -5.403  1.00 20.00    -0.025 C 
HETATM    4  C4  UNL     1     -33.284  15.493  -3.964  1.00 20.00    -0.022 C 
HETATM    5  C5  UNL     1     -34.754  16.612  -6.992  1.00 20.00     0.041 C 
HETATM    6  C6  UNL     1     -34.471  17.482  -3.468  1.00 20.00     0.035 C 
HETATM    7  C7  UNL     1     -34.266  17.483  -5.861  1.00 20.00     0.016 C 
HETATM    8  C8  UNL     1     -34.534  15.366  -4.811  1.00 20.00     0.042 C 
HETATM    9  C9  UNL     1     -35.011  16.795  -4.699  1.00 20.00     0.015 C 
HETATM   10  C10 UNL     1     -34.485  15.199  -6.364  1.00 20.00     0.127 C 
ENDROOT
BRANCH  10  11
HETATM   11  O11 UNL     1     -33.221  14.711  -6.787  1.00 20.00    -0.395 OA
HETATM   12  H23 UNL     1     -32.684  15.485  -7.023  1.00 20.00     0.210 HD
ENDBRANCH  10  11
TORSDOF 1
ENDMDL
MODEL 8
REMARK VINA RESULT:      -4.0     12.600     13.705
REMARK  1 active torsions:
REMARK  status: ('A' for Active; 'I' for Inactive)
REMARK    1  A    between atoms: C10_10  and  O11_11 
ROOT
HETATM    1  C1  UNL     1     -36.506  15.999  -6.567  1.00 20.00    -0.021 C 
HETATM    2  C2  UNL     1     -35.691  14.027  -5.056  1.00 20.00    -0.021 C 
HETATM    3  C3  UNL     1     -36.260  17.172  -5.943  1.00 20.00    -0.025 C 
HETATM    4  C4  UNL     1     -34.706  14.149  -4.141  1.00 20.00    -0.022 C 
HETATM    5  C5  UNL     1     -34.090  17.641  -4.245  1.00 20.00     0.041 C 
HETATM    6  C6  UNL     1     -35.481  14.931  -6.238  1.00 20.00     0.035 C 
HETATM    7  C7  UNL     1     -35.234  16.916  -4.909  1.00 20.00     0.016 C 
HETATM    8  C8  UNL     1     -33.660  15.173  -4.533  1.00 20.00     0.042 C 
HETATM    9  C9  UNL     1     -34.424  15.836  -5.655  1.00 20.00     0.015 C 
HETATM   10  C10 UNL     1     -33.320  16.412  -3.643  1.00 20.00     0.127 C 
ENDROOT
BRANCH  10  11
HETATM   11  O11 UNL     1     -33.718  16.200  -2.297  1.00 20.00    -0.395 OA
HETATM   12  H23 UNL     1     -34.489  16.769  -2.138  1.00 20.00     0.210 HD
ENDBRANCH  10  11
TORSDOF 1
ENDMDL
MODEL 9
REMARK VINA RESULT:      -3.9     12.860     14.036
REMARK  1 active torsions:
REMARK  status: ('A' for Active; 'I' for Inactive)
REMARK    1  A    between atoms: C10_10  and  O11_11 
ROOT
HETATM    1  C1  UNL     1     -35.463  14.771  -6.241  1.00 20.00    -0.021 C 
HETATM    2  C2  UNL     1     -33.789  14.752  -4.232  1.00 20.00    -0.021 C 
HETATM    3  C3  UNL     1     -36.421  15.696  -6.016  1.00 20.00    -0.025 C 
HETATM    4  C4  UNL     1     -33.568  15.821  -3.438  1.00 20.00    -0.022 C 
HETATM    5  C5  UNL     1     -36.021  18.090  -4.629  1.00 20.00     0.041 C 
HETATM    6  C6  UNL     1     -34.124  15.153  -5.642  1.00 20.00     0.035 C 
HETATM    7  C7  UNL     1     -35.902  16.631  -4.994  1.00 20.00     0.016 C 
HETATM    8  C8  UNL     1     -33.732  17.140  -4.165  1.00 20.00     0.042 C 
HETATM    9  C9  UNL     1     -34.416  16.615  -5.405  1.00 20.00     0.015 C 
HETATM   10  C10 UNL     1     -34.756  18.231  -3.711  1.00 20.00     0.127 C 
ENDROOT
BRANCH  10  11
HETATM   11  O11 UNL     1     -35.119  18.056  -2.350  1.00 20.00    -0.395 OA
HETATM   12  H23 UNL     1     -34.364  18.356  -1.816  1.00 20.00     0.210 HD
ENDBRANCH  10  11
TORSDOF 1
ENDMDL
