MODEL 1
REMARK VINA RESULT:      -4.0      0.000      0.000
REMARK  0 active torsions:
REMARK  status: ('A' for Active; 'I' for Inactive)
ROOT
HETATM    1  C1  UNL     1     -37.038  15.660  -5.244  1.00 20.00     0.064 C 
HETATM    2  C2  UNL     1     -33.663  15.934  -3.229  1.00 20.00    -0.030 C 
HETATM    3  C3  UNL     1     -34.022  14.924  -4.029  1.00 20.00    -0.030 C 
HETATM    4  C4  UNL     1     -33.386  17.308  -3.752  1.00 20.00     0.037 C 
HETATM    5  C5  UNL     1     -34.141  15.078  -5.511  1.00 20.00     0.038 C 
HETATM    6  C6  UNL     1     -34.539  19.263  -6.909  1.00 20.00     0.001 C 
HETATM    7  C7  UNL     1     -34.617  18.119  -7.918  1.00 20.00     0.001 C 
HETATM    8  C8  UNL     1     -33.758  18.915  -5.650  1.00 20.00     0.011 C 
HETATM    9  C9  UNL     1     -34.222  16.746  -7.379  1.00 20.00     0.012 C 
HETATM   10  C10 UNL     1     -35.801  17.738  -4.520  1.00 20.00     0.030 C 
HETATM   11  C11 UNL     1     -36.197  16.768  -5.651  1.00 20.00     0.103 C 
HETATM   12  C12 UNL     1     -34.301  17.656  -4.945  1.00 20.00    -0.027 C 
HETATM   13  C13 UNL     1     -34.670  16.474  -5.925  1.00 20.00    -0.013 C 
HETATM   14  N14 UNL     1     -37.712  14.774  -4.917  1.00 20.00    -0.197 NA
ENDROOT
TORSDOF 0
ENDMDL
MODEL 2
REMARK VINA RESULT:      -3.9     13.170     14.498
REMARK  0 active torsions:
REMARK  status: ('A' for Active; 'I' for Inactive)
ROOT
HETATM    1  C1  UNL     1     -43.238  12.918   8.150  1.00 20.00     0.064 C 
HETATM    2  C2  UNL     1     -40.456  15.655   8.693  1.00 20.00    -0.030 C 
HETATM    3  C3  UNL     1     -40.246  14.352   8.471  1.00 20.00    -0.030 C 
HETATM    4  C4  UNL     1     -41.048  16.556   7.656  1.00 20.00     0.037 C 
HETATM    5  C5  UNL     1     -40.553  13.703   7.162  1.00 20.00     0.038 C 
HETATM    6  C6  UNL     1     -43.359  15.965   4.586  1.00 20.00     0.001 C 
HETATM    7  C7  UNL     1     -42.860  14.594   4.136  1.00 20.00     0.001 C 
HETATM    8  C8  UNL     1     -42.418  16.672   5.551  1.00 20.00     0.011 C 
HETATM    9  C9  UNL     1     -41.716  14.012   4.964  1.00 20.00     0.012 C 
HETATM   10  C10 UNL     1     -43.337  15.387   7.634  1.00 20.00     0.030 C 
HETATM   11  C11 UNL     1     -43.207  13.939   7.122  1.00 20.00     0.103 C 
HETATM   12  C12 UNL     1     -42.094  15.820   6.794  1.00 20.00    -0.027 C 
HETATM   13  C13 UNL     1     -41.810  14.298   6.480  1.00 20.00    -0.013 C 
HETATM   14  N14 UNL     1     -43.263  12.102   8.974  1.00 20.00    -0.197 NA
ENDROOT
TORSDOF 0
ENDMDL
MODEL 3
REMARK VINA RESULT:      -3.9      1.317      3.525
REMARK  0 active torsions:
REMARK  status: ('A' for Active; 'I' for Inactive)
ROOT
HETATM    1  C1  UNL     1     -37.116  17.509  -5.654  1.00 20.00     0.064 C 
HETATM    2  C2  UNL     1     -34.375  15.801  -7.911  1.00 20.00    -0.030 C 
HETATM    3  C3  UNL     1     -34.697  17.099  -7.911  1.00 20.00    -0.030 C 
HETATM    4  C4  UNL     1     -33.728  15.138  -6.736  1.00 20.00     0.037 C 
HETATM    5  C5  UNL     1     -34.404  17.997  -6.753  1.00 20.00     0.038 C 
HETATM    6  C6  UNL     1     -33.660  15.897  -2.924  1.00 20.00     0.001 C 
HETATM    7  C7  UNL     1     -33.686  17.423  -2.955  1.00 20.00     0.001 C 
HETATM    8  C8  UNL     1     -33.303  15.264  -4.261  1.00 20.00     0.011 C 
HETATM    9  C9  UNL     1     -33.699  18.047  -4.349  1.00 20.00     0.012 C 
HETATM   10  C10 UNL     1     -35.747  15.444  -5.175  1.00 20.00     0.030 C 
HETATM   11  C11 UNL     1     -36.012  16.939  -4.909  1.00 20.00     0.103 C 
HETATM   12  C12 UNL     1     -34.229  15.730  -5.403  1.00 20.00    -0.027 C 
HETATM   13  C13 UNL     1     -34.545  17.277  -5.388  1.00 20.00    -0.013 C 
HETATM   14  N14 UNL     1     -38.001  17.964  -6.251  1.00 20.00    -0.197 NA
ENDROOT
TORSDOF 0
ENDMDL
MODEL 4
REMARK VINA RESULT:      -3.7     14.263     15.709
REMARK  0 active torsions:
REMARK  status: ('A' for Active; 'I' for Inactive)
ROOT
HETATM    1  C1  UNL     1     -42.645  13.239  10.153  1.00 20.00     0.064 C 
HETATM    2  C2  UNL     1     -41.200  12.699   6.528  1.00 20.00    -0.030 C 
HETATM    3  C3  UNL     1     -42.480  12.564   6.892  1.00 20.00    -0.030 C 
HETATM    4  C4  UNL     1     -40.501  14.021   6.538  1.00 20.00     0.037 C 
HETATM    5  C5  UNL     1     -43.322  13.727   7.306  1.00 20.00     0.038 C 
HETATM    6  C6  UNL     1     -41.040  17.328   8.511  1.00 20.00     0.001 C 
HETATM    7  C7  UNL     1     -42.563  17.327   8.623  1.00 20.00     0.001 C 
HETATM    8  C8  UNL     1     -40.503  16.357   7.469  1.00 20.00     0.011 C 
HETATM    9  C9  UNL     1     -43.266  16.146   7.955  1.00 20.00     0.012 C 
HETATM   10  C10 UNL     1     -40.622  14.309   9.090  1.00 20.00     0.030 C 
HETATM   11  C11 UNL     1     -42.086  14.436   9.558  1.00 20.00     0.103 C 
HETATM   12  C12 UNL     1     -40.991  14.913   7.698  1.00 20.00    -0.027 C 
HETATM   13  C13 UNL     1     -42.518  14.799   8.084  1.00 20.00    -0.013 C 
HETATM   14  N14 UNL     1     -43.093  12.280  10.630  1.00 20.00    -0.197 NA
ENDROOT
TORSDOF 0
ENDMDL
MODEL 5
REMARK VINA RESULT:      -3.6     13.056     14.542
REMARK  0 active torsions:
REMARK  status: ('A' for Active; 'I' for Inactive)
ROOT
HETATM    1  C1  UNL     1     -42.006  14.856   4.324  1.00 20.00     0.064 C 
HETATM    2  C2  UNL     1     -42.661  12.147   7.109  1.00 20.00    -0.030 C 
HETATM    3  C3  UNL     1     -41.569  12.238   6.342  1.00 20.00    -0.030 C 
HETATM    4  C4  UNL     1     -43.011  13.184   8.128  1.00 20.00     0.037 C 
HETATM    5  C5  UNL     1     -40.595  13.365   6.466  1.00 20.00     0.038 C 
HETATM    6  C6  UNL     1     -42.176  16.962   8.512  1.00 20.00     0.001 C 
HETATM    7  C7  UNL     1     -40.765  16.984   7.929  1.00 20.00     0.001 C 
HETATM    8  C8  UNL     1     -42.672  15.566   8.860  1.00 20.00     0.011 C 
HETATM    9  C9  UNL     1     -40.226  15.630   7.471  1.00 20.00     0.012 C 
HETATM   10  C10 UNL     1     -43.417  15.050   6.407  1.00 20.00     0.030 C 
HETATM   11  C11 UNL     1     -42.114  15.402   5.662  1.00 20.00     0.103 C 
HETATM   12  C12 UNL     1     -42.605  14.598   7.662  1.00 20.00    -0.027 C 
HETATM   13  C13 UNL     1     -41.279  14.711   6.811  1.00 20.00    -0.013 C 
HETATM   14  N14 UNL     1     -41.919  14.419   3.253  1.00 20.00    -0.197 NA
ENDROOT
TORSDOF 0
ENDMDL
MODEL 6
REMARK VINA RESULT:      -3.6      1.955      3.663
REMARK  0 active torsions:
REMARK  status: ('A' for Active; 'I' for Inactive)
ROOT
HETATM    1  C1  UNL     1     -34.990  18.519  -7.000  1.00 20.00     0.064 C 
HETATM    2  C2  UNL     1     -36.390  19.213  -3.382  1.00 20.00    -0.030 C 
HETATM    3  C3  UNL     1     -37.091  18.745  -4.421  1.00 20.00    -0.030 C 
HETATM    4  C4  UNL     1     -35.295  18.425  -2.736  1.00 20.00     0.037 C 
HETATM    5  C5  UNL     1     -36.860  17.385  -4.995  1.00 20.00     0.038 C 
HETATM    6  C6  UNL     1     -32.946  15.581  -3.968  1.00 20.00     0.001 C 
HETATM    7  C7  UNL     1     -33.892  14.844  -4.914  1.00 20.00     0.001 C 
HETATM    8  C8  UNL     1     -33.653  16.542  -3.022  1.00 20.00     0.011 C 
HETATM    9  C9  UNL     1     -35.303  15.421  -5.005  1.00 20.00     0.012 C 
HETATM   10  C10 UNL     1     -33.759  18.458  -4.797  1.00 20.00     0.030 C 
HETATM   11  C11 UNL     1     -34.399  17.688  -5.970  1.00 20.00     0.103 C 
HETATM   12  C12 UNL     1     -34.526  17.572  -3.767  1.00 20.00    -0.027 C 
HETATM   13  C13 UNL     1     -35.369  16.965  -4.956  1.00 20.00    -0.013 C 
HETATM   14  N14 UNL     1     -35.464  19.185  -7.824  1.00 20.00    -0.197 NA
ENDROOT
TORSDOF 0
ENDMDL
MODEL 7
REMARK VINA RESULT:      -3.4     13.502     15.190
REMARK  0 active torsions:
REMARK  status: ('A' for Active; 'I' for Inactive)
ROOT
HETATM    1  C1  UNL     1     -40.045  13.062   6.437  1.00 20.00     0.064 C 
HETATM    2  C2  UNL     1     -42.607  15.796   5.217  1.00 20.00    -0.030 C 
HETATM    3  C3  UNL     1     -42.751  14.472   5.093  1.00 20.00    -0.030 C 
HETATM    4  C4  UNL     1     -42.612  16.479   6.548  1.00 20.00     0.037 C 
HETATM    5  C5  UNL     1     -42.963  13.575   6.269  1.00 20.00     0.038 C 
HETATM    6  C6  UNL     1     -41.778  15.320  10.165  1.00 20.00     0.001 C 
HETATM    7  C7  UNL     1     -42.272  13.877  10.103  1.00 20.00     0.001 C 
HETATM    8  C8  UNL     1     -42.289  16.191   9.025  1.00 20.00     0.011 C 
HETATM    9  C9  UNL     1     -42.887  13.454   8.770  1.00 20.00     0.012 C 
HETATM   10  C10 UNL     1     -40.440  15.376   7.366  1.00 20.00     0.030 C 
HETATM   11  C11 UNL     1     -40.620  13.851   7.509  1.00 20.00     0.103 C 
HETATM   12  C12 UNL     1     -41.960  15.603   7.638  1.00 20.00    -0.027 C 
HETATM   13  C13 UNL     1     -42.187  14.044   7.525  1.00 20.00    -0.013 C 
HETATM   14  N14 UNL     1     -39.585  12.431   5.578  1.00 20.00    -0.197 NA
ENDROOT
TORSDOF 0
ENDMDL
MODEL 8
REMARK VINA RESULT:      -3.4     13.810     15.224
REMARK  0 active torsions:
REMARK  status: ('A' for Active; 'I' for Inactive)
ROOT
HETATM    1  C1  UNL     1     -40.374  13.343   6.739  1.00 20.00     0.064 C 
HETATM    2  C2  UNL     1     -41.949  14.043  10.282  1.00 20.00    -0.030 C 
HETATM    3  C3  UNL     1     -40.648  14.094   9.976  1.00 20.00    -0.030 C 
HETATM    4  C4  UNL     1     -42.940  15.014   9.723  1.00 20.00     0.037 C 
HETATM    5  C5  UNL     1     -40.076  15.143   9.079  1.00 20.00     0.038 C 
HETATM    6  C6  UNL     1     -43.042  17.193   6.504  1.00 20.00     0.001 C 
HETATM    7  C7  UNL     1     -41.559  17.528   6.361  1.00 20.00     0.001 C 
HETATM    8  C8  UNL     1     -43.417  16.654   7.877  1.00 20.00     0.011 C 
HETATM    9  C9  UNL     1     -40.654  16.960   7.453  1.00 20.00     0.012 C 
HETATM   10  C10 UNL     1     -42.677  14.215   7.294  1.00 20.00     0.030 C 
HETATM   11  C11 UNL     1     -41.252  14.495   6.776  1.00 20.00     0.103 C 
HETATM   12  C12 UNL     1     -42.581  15.422   8.279  1.00 20.00    -0.027 C 
HETATM   13  C13 UNL     1     -41.044  15.545   7.938  1.00 20.00    -0.013 C 
HETATM   14  N14 UNL     1     -39.672  12.419   6.710  1.00 20.00    -0.197 NA
ENDROOT
TORSDOF 0
ENDMDL
MODEL 9
REMARK VINA RESULT:      -3.4     13.488     15.013
REMARK  0 active torsions:
REMARK  status: ('A' for Active; 'I' for Inactive)
ROOT
HETATM    1  C1  UNL     1     -40.688  17.096   7.540  1.00 20.00     0.064 C 
HETATM    2  C2  UNL     1     -43.043  14.708   9.607  1.00 20.00    -0.030 C 
HETATM    3  C3  UNL     1     -43.417  15.822   8.969  1.00 20.00    -0.030 C 
HETATM    4  C4  UNL     1     -42.560  13.493   8.879  1.00 20.00     0.037 C 
HETATM    5  C5  UNL     1     -43.416  15.931   7.478  1.00 20.00     0.038 C 
HETATM    6  C6  UNL     1     -40.907  12.924   5.406  1.00 20.00     0.001 C 
HETATM    7  C7  UNL     1     -41.611  14.009   4.594  1.00 20.00     0.001 C 
HETATM    8  C8  UNL     1     -41.585  12.616   6.734  1.00 20.00     0.011 C 
HETATM    9  C9  UNL     1     -42.641  14.834   5.363  1.00 20.00     0.012 C 
HETATM   10  C10 UNL     1     -40.439  14.620   7.962  1.00 20.00     0.030 C 
HETATM   11  C11 UNL     1     -40.801  15.760   6.989  1.00 20.00     0.103 C 
HETATM   12  C12 UNL     1     -41.763  13.870   7.613  1.00 20.00    -0.027 C 
HETATM   13  C13 UNL     1     -42.248  15.150   6.824  1.00 20.00    -0.013 C 
HETATM   14  N14 UNL     1     -40.596  18.165   7.981  1.00 20.00    -0.197 NA
ENDROOT
TORSDOF 0
ENDMDL
