MODEL 1
REMARK VINA RESULT:      -4.4      0.000      0.000
REMARK  3 active torsions:
REMARK  status: ('A' for Active; 'I' for Inactive)
REMARK    1  A    between atoms: C2_2  and  N8_8 
REMARK    2  A    between atoms: C6_6  and  C7_7 
REMARK    3  A    between atoms: C6_6  and  N8_8 
ROOT
HETATM    1  N8  UNL     1     -33.005   7.226   6.024  1.00 20.00     0.097 N 
HETATM    2  H23 UNL     1     -32.729   7.159   7.000  1.00 20.00     0.316 HD
ENDROOT
BRANCH   1   3
HETATM    3  C2  UNL     1     -34.356   6.676   5.877  1.00 20.00     0.229 A 
HETATM    4  C1  UNL     1     -34.610   5.219   6.161  1.00 20.00     0.047 A 
HETATM    5  C3  UNL     1     -34.712   5.732   4.742  1.00 20.00    -0.015 A 
HETATM    6  C4  UNL     1     -36.086   5.864   4.138  1.00 20.00     0.017 C 
HETATM    7  C5  UNL     1     -33.650   5.304   3.764  1.00 20.00     0.017 C 
ENDBRANCH   1   3
BRANCH   1   8
HETATM    8  C6  UNL     1     -32.971   8.616   5.600  1.00 20.00     0.386 C 
BRANCH   8   9
HETATM    9  C7  UNL     1     -32.460   8.754   4.188  1.00 20.00     0.413 C 
HETATM   10  F9  UNL     1     -31.974   9.999   3.982  1.00 20.00    -0.169 F 
HETATM   11  F10 UNL     1     -31.464   7.880   3.936  1.00 20.00    -0.169 F 
HETATM   12  F11 UNL     1     -33.442   8.544   3.286  1.00 20.00    -0.169 F 
ENDBRANCH   8   9
ENDBRANCH   1   8
TORSDOF 3
ENDMDL
MODEL 2
REMARK VINA RESULT:      -4.3      1.329      2.226
REMARK  3 active torsions:
REMARK  status: ('A' for Active; 'I' for Inactive)
REMARK    1  A    between atoms: C2_2  and  N8_8 
REMARK    2  A    between atoms: C6_6  and  C7_7 
REMARK    3  A    between atoms: C6_6  and  N8_8 
ROOT
HETATM    1  N8  UNL     1     -33.076   6.397   3.032  1.00 20.00     0.097 N 
HETATM    2  H23 UNL     1     -32.715   5.806   2.288  1.00 20.00     0.316 HD
ENDROOT
BRANCH   1   3
HETATM    3  C2  UNL     1     -33.248   5.581   4.238  1.00 20.00     0.229 A 
HETATM    4  C1  UNL     1     -33.960   4.257   4.157  1.00 20.00     0.047 A 
HETATM    5  C3  UNL     1     -34.605   5.408   4.895  1.00 20.00    -0.015 A 
HETATM    6  C4  UNL     1     -34.644   5.346   6.400  1.00 20.00     0.017 C 
HETATM    7  C5  UNL     1     -35.823   6.043   4.276  1.00 20.00     0.017 C 
ENDBRANCH   1   3
BRANCH   1   8
HETATM    8  C6  UNL     1     -32.151   7.489   3.281  1.00 20.00     0.386 C 
BRANCH   8   9
HETATM    9  C7  UNL     1     -32.694   8.454   4.306  1.00 20.00     0.413 C 
HETATM   10  F9  UNL     1     -32.121   9.670   4.160  1.00 20.00    -0.169 F 
HETATM   11  F10 UNL     1     -34.028   8.612   4.176  1.00 20.00    -0.169 F 
HETATM   12  F11 UNL     1     -32.441   8.032   5.562  1.00 20.00    -0.169 F 
ENDBRANCH   8   9
ENDBRANCH   1   8
TORSDOF 3
ENDMDL
MODEL 3
REMARK VINA RESULT:      -4.0     11.682     12.488
REMARK  3 active torsions:
REMARK  status: ('A' for Active; 'I' for Inactive)
REMARK    1  A    between atoms: C2_2  and  N8_8 
REMARK    2  A    between atoms: C6_6  and  C7_7 
REMARK    3  A    between atoms: C6_6  and  N8_8 
ROOT
HETATM    1  N8  UNL     1     -32.966  16.628  -2.787  1.00 20.00     0.097 N 
HETATM    2  H23 UNL     1     -32.201  17.243  -3.048  1.00 20.00     0.316 HD
ENDROOT
BRANCH   1   3
HETATM    3  C2  UNL     1     -33.798  17.311  -1.790  1.00 20.00     0.229 A 
HETATM    4  C1  UNL     1     -33.994  18.801  -1.867  1.00 20.00     0.047 A 
HETATM    5  C3  UNL     1     -33.190  18.211  -0.730  1.00 20.00    -0.015 A 
HETATM    6  C4  UNL     1     -33.818  18.190   0.640  1.00 20.00     0.017 C 
HETATM    7  C5  UNL     1     -31.704  18.458  -0.719  1.00 20.00     0.017 C 
ENDBRANCH   1   3
BRANCH   1   8
HETATM    8  C6  UNL     1     -33.750  16.295  -3.964  1.00 20.00     0.386 C 
BRANCH   8   9
HETATM    9  C7  UNL     1     -33.516  14.872  -4.404  1.00 20.00     0.413 C 
HETATM   10  F9  UNL     1     -33.748  14.743  -5.730  1.00 20.00    -0.169 F 
HETATM   11  F10 UNL     1     -32.244  14.487  -4.172  1.00 20.00    -0.169 F 
HETATM   12  F11 UNL     1     -34.338  14.016  -3.761  1.00 20.00    -0.169 F 
ENDBRANCH   8   9
ENDBRANCH   1   8
TORSDOF 3
ENDMDL
MODEL 4
REMARK VINA RESULT:      -3.9      8.906      9.647
REMARK  3 active torsions:
REMARK  status: ('A' for Active; 'I' for Inactive)
REMARK    1  A    between atoms: C2_2  and  N8_8 
REMARK    2  A    between atoms: C6_6  and  C7_7 
REMARK    3  A    between atoms: C6_6  and  N8_8 
ROOT
HETATM    1  N8  UNL     1     -39.846  13.495   6.369  1.00 20.00     0.097 N 
HETATM    2  H23 UNL     1     -39.977  13.914   5.453  1.00 20.00     0.316 HD
ENDROOT
BRANCH   1   3
HETATM    3  C2  UNL     1     -41.120  13.546   7.095  1.00 20.00     0.229 A 
HETATM    4  C1  UNL     1     -42.225  12.587   6.743  1.00 20.00     0.047 A 
HETATM    5  C3  UNL     1     -42.389  14.059   6.440  1.00 20.00    -0.015 A 
HETATM    6  C4  UNL     1     -43.340  14.853   7.297  1.00 20.00     0.017 C 
HETATM    7  C5  UNL     1     -42.366  14.484   4.995  1.00 20.00     0.017 C 
ENDBRANCH   1   3
BRANCH   1   8
HETATM    8  C6  UNL     1     -39.397  12.122   6.221  1.00 20.00     0.386 C 
BRANCH   8   9
HETATM    9  C7  UNL     1     -39.224  11.747   4.770  1.00 20.00     0.413 C 
HETATM   10  F9  UNL     1     -39.663  10.487   4.552  1.00 20.00    -0.169 F 
HETATM   11  F10 UNL     1     -39.923  12.570   3.961  1.00 20.00    -0.169 F 
HETATM   12  F11 UNL     1     -37.927  11.797   4.401  1.00 20.00    -0.169 F 
ENDBRANCH   8   9
ENDBRANCH   1   8
TORSDOF 3
ENDMDL
MODEL 5
REMARK VINA RESULT:      -3.9     12.269     13.265
REMARK  3 active torsions:
REMARK  status: ('A' for Active; 'I' for Inactive)
REMARK    1  A    between atoms: C2_2  and  N8_8 
REMARK    2  A    between atoms: C6_6  and  C7_7 
REMARK    3  A    between atoms: C6_6  and  N8_8 
ROOT
HETATM    1  N8  UNL     1     -34.079  15.491  -3.384  1.00 20.00     0.097 N 
HETATM    2  H23 UNL     1     -34.199  14.789  -2.659  1.00 20.00     0.316 HD
ENDROOT
BRANCH   1   3
HETATM    3  C2  UNL     1     -33.255  16.582  -2.851  1.00 20.00     0.229 A 
HETATM    4  C1  UNL     1     -33.585  17.189  -1.514  1.00 20.00     0.047 A 
HETATM    5  C3  UNL     1     -33.776  18.005  -2.772  1.00 20.00    -0.015 A 
HETATM    6  C4  UNL     1     -32.796  19.117  -3.046  1.00 20.00     0.017 C 
HETATM    7  C5  UNL     1     -35.186  18.312  -3.203  1.00 20.00     0.017 C 
ENDBRANCH   1   3
BRANCH   1   8
HETATM    8  C6  UNL     1     -33.443  14.891  -4.545  1.00 20.00     0.386 C 
BRANCH   8   9
HETATM    9  C7  UNL     1     -34.224  15.158  -5.807  1.00 20.00     0.413 C 
HETATM   10  F9  UNL     1     -33.475  14.872  -6.895  1.00 20.00    -0.169 F 
HETATM   11  F10 UNL     1     -35.338  14.398  -5.866  1.00 20.00    -0.169 F 
HETATM   12  F11 UNL     1     -34.593  16.453  -5.893  1.00 20.00    -0.169 F 
ENDBRANCH   8   9
ENDBRANCH   1   8
TORSDOF 3
ENDMDL
MODEL 6
REMARK VINA RESULT:      -3.8      8.725      9.609
REMARK  3 active torsions:
REMARK  status: ('A' for Active; 'I' for Inactive)
REMARK    1  A    between atoms: C2_2  and  N8_8 
REMARK    2  A    between atoms: C6_6  and  C7_7 
REMARK    3  A    between atoms: C6_6  and  N8_8 
ROOT
HETATM    1  N8  UNL     1     -39.691  13.529   6.178  1.00 20.00     0.097 N 
HETATM    2  H23 UNL     1     -39.815  14.476   5.830  1.00 20.00     0.316 HD
ENDROOT
BRANCH   1   3
HETATM    3  C2  UNL     1     -40.302  13.434   7.508  1.00 20.00     0.229 A 
HETATM    4  C1  UNL     1     -41.752  13.788   7.697  1.00 20.00     0.047 A 
HETATM    5  C3  UNL     1     -40.683  14.673   8.299  1.00 20.00    -0.015 A 
HETATM    6  C4  UNL     1     -40.490  14.628   9.792  1.00 20.00     0.017 C 
HETATM    7  C5  UNL     1     -40.481  16.038   7.694  1.00 20.00     0.017 C 
ENDBRANCH   1   3
BRANCH   1   8
HETATM    8  C6  UNL     1     -40.312  12.586   5.263  1.00 20.00     0.386 C 
BRANCH   8   9
HETATM    9  C7  UNL     1     -39.282  11.793   4.499  1.00 20.00     0.413 C 
HETATM   10  F9  UNL     1     -38.059  11.949   5.054  1.00 20.00    -0.169 F 
HETATM   11  F10 UNL     1     -39.570  10.475   4.506  1.00 20.00    -0.169 F 
HETATM   12  F11 UNL     1     -39.202  12.198   3.214  1.00 20.00    -0.169 F 
ENDBRANCH   8   9
ENDBRANCH   1   8
TORSDOF 3
ENDMDL
MODEL 7
REMARK VINA RESULT:      -3.7      1.586      2.519
REMARK  3 active torsions:
REMARK  status: ('A' for Active; 'I' for Inactive)
REMARK    1  A    between atoms: C2_2  and  N8_8 
REMARK    2  A    between atoms: C6_6  and  C7_7 
REMARK    3  A    between atoms: C6_6  and  N8_8 
ROOT
HETATM    1  N8  UNL     1     -32.875   5.454   3.489  1.00 20.00     0.097 N 
HETATM    2  H23 UNL     1     -32.141   5.832   4.081  1.00 20.00     0.316 HD
ENDROOT
BRANCH   1   3
HETATM    3  C2  UNL     1     -34.044   5.155   4.324  1.00 20.00     0.229 A 
HETATM    4  C1  UNL     1     -35.242   6.066   4.294  1.00 20.00     0.047 A 
HETATM    5  C3  UNL     1     -34.389   5.996   5.540  1.00 20.00    -0.015 A 
HETATM    6  C4  UNL     1     -34.952   5.279   6.740  1.00 20.00     0.017 C 
HETATM    7  C5  UNL     1     -33.548   7.198   5.882  1.00 20.00     0.017 C 
ENDBRANCH   1   3
BRANCH   1   8
HETATM    8  C6  UNL     1     -33.218   6.419   2.458  1.00 20.00     0.386 C 
BRANCH   8   9
HETATM    9  C7  UNL     1     -32.329   7.636   2.517  1.00 20.00     0.413 C 
HETATM   10  F9  UNL     1     -31.316   7.438   3.391  1.00 20.00    -0.169 F 
HETATM   11  F10 UNL     1     -31.783   7.907   1.313  1.00 20.00    -0.169 F 
HETATM   12  F11 UNL     1     -33.013   8.725   2.924  1.00 20.00    -0.169 F 
ENDBRANCH   8   9
ENDBRANCH   1   8
TORSDOF 3
ENDMDL
MODEL 8
REMARK VINA RESULT:      -3.7      2.730      3.967
REMARK  3 active torsions:
REMARK  status: ('A' for Active; 'I' for Inactive)
REMARK    1  A    between atoms: C2_2  and  N8_8 
REMARK    2  A    between atoms: C6_6  and  C7_7 
REMARK    3  A    between atoms: C6_6  and  N8_8 
ROOT
HETATM    1  N8  UNL     1     -32.849   7.089   5.978  1.00 20.00     0.097 N 
HETATM    2  H23 UNL     1     -32.489   6.181   5.696  1.00 20.00     0.316 HD
ENDROOT
BRANCH   1   3
HETATM    3  C2  UNL     1     -32.746   8.009   4.840  1.00 20.00     0.229 A 
HETATM    4  C1  UNL     1     -33.936   8.236   3.947  1.00 20.00     0.047 A 
HETATM    5  C3  UNL     1     -32.727   7.504   3.408  1.00 20.00    -0.015 A 
HETATM    6  C4  UNL     1     -31.842   8.230   2.429  1.00 20.00     0.017 C 
HETATM    7  C5  UNL     1     -32.867   6.029   3.133  1.00 20.00     0.017 C 
ENDBRANCH   1   3
BRANCH   1   8
HETATM    8  C6  UNL     1     -34.232   6.956   6.404  1.00 20.00     0.386 C 
BRANCH   8   9
HETATM    9  C7  UNL     1     -34.763   5.569   6.146  1.00 20.00     0.413 C 
HETATM   10  F9  UNL     1     -35.527   5.156   7.183  1.00 20.00    -0.169 F 
HETATM   11  F10 UNL     1     -35.526   5.531   5.034  1.00 20.00    -0.169 F 
HETATM   12  F11 UNL     1     -33.760   4.677   5.998  1.00 20.00    -0.169 F 
ENDBRANCH   8   9
ENDBRANCH   1   8
TORSDOF 3
ENDMDL
MODEL 9
REMARK VINA RESULT:      -3.7     14.988     16.142
REMARK  3 active torsions:
REMARK  status: ('A' for Active; 'I' for Inactive)
REMARK    1  A    between atoms: C2_2  and  N8_8 
REMARK    2  A    between atoms: C6_6  and  C7_7 
REMARK    3  A    between atoms: C6_6  and  N8_8 
ROOT
HETATM    1  N8  UNL     1     -23.280  19.016  11.259  1.00 20.00     0.097 N 
HETATM    2  H23 UNL     1     -22.831  19.740  11.813  1.00 20.00     0.316 HD
ENDROOT
BRANCH   1   3
HETATM    3  C2  UNL     1     -22.274  18.397  10.390  1.00 20.00     0.229 A 
HETATM    4  C1  UNL     1     -21.321  19.262   9.608  1.00 20.00     0.047 A 
HETATM    5  C3  UNL     1     -22.379  18.467   8.877  1.00 20.00    -0.015 A 
HETATM    6  C4  UNL     1     -21.937  17.257   8.095  1.00 20.00     0.017 C 
HETATM    7  C5  UNL     1     -23.512  19.228   8.240  1.00 20.00     0.017 C 
ENDBRANCH   1   3
BRANCH   1   8
HETATM    8  C6  UNL     1     -23.874  18.024  12.139  1.00 20.00     0.386 C 
BRANCH   8   9
HETATM    9  C7  UNL     1     -24.937  17.220  11.433  1.00 20.00     0.413 C 
HETATM   10  F9  UNL     1     -26.004  17.034  12.242  1.00 20.00    -0.169 F 
HETATM   11  F10 UNL     1     -25.371  17.847  10.320  1.00 20.00    -0.169 F 
HETATM   12  F11 UNL     1     -24.477  16.002  11.076  1.00 20.00    -0.169 F 
ENDBRANCH   8   9
ENDBRANCH   1   8
TORSDOF 3
ENDMDL
