MODEL 1
REMARK VINA RESULT:      -3.8      0.000      0.000
REMARK  2 active torsions:
REMARK  status: ('A' for Active; 'I' for Inactive)
REMARK    1  A    between atoms: C6_6  and  N9_9 
REMARK    2  A    between atoms: C7_7  and  N9_9 
ROOT
HETATM    1  C1  UNL     1     -27.360  19.174  12.254  1.00 20.00     0.013 C 
HETATM    2  C2  UNL     1     -26.176  18.975  12.286  1.00 20.00    -0.087 C 
HETATM    3  C6  UNL     1     -24.731  18.736  12.331  1.00 20.00     0.366 C 
ENDROOT
BRANCH   3   4
HETATM    4  N9  UNL     1     -24.288  18.026  11.132  1.00 20.00     0.112 N 
HETATM    5  C5  UNL     1     -24.336  16.580  11.347  1.00 20.00     0.312 C 
BRANCH   4   6
HETATM    6  C7  UNL     1     -22.936  18.442  10.760  1.00 20.00     0.325 C 
HETATM    7  C3  UNL     1     -22.434  17.592   9.673  1.00 20.00     0.095 C 
HETATM    8  N8  UNL     1     -22.034  16.924   8.813  1.00 20.00    -0.195 NA
HETATM    9  C4  UNL     1     -22.007  18.394  11.965  1.00 20.00     0.059 C 
ENDBRANCH   4   6
ENDBRANCH   3   4
TORSDOF 2
ENDMDL
MODEL 2
REMARK VINA RESULT:      -3.8     14.869     15.887
REMARK  2 active torsions:
REMARK  status: ('A' for Active; 'I' for Inactive)
REMARK    1  A    between atoms: C6_6  and  N9_9 
REMARK    2  A    between atoms: C7_7  and  N9_9 
ROOT
HETATM    1  C1  UNL     1     -34.592   5.558   6.437  1.00 20.00     0.013 C 
HETATM    2  C2  UNL     1     -34.343   6.425   5.645  1.00 20.00    -0.087 C 
HETATM    3  C6  UNL     1     -34.045   7.484   4.676  1.00 20.00     0.366 C 
ENDROOT
BRANCH   3   4
HETATM    4  N9  UNL     1     -32.602   7.686   4.561  1.00 20.00     0.112 N 
HETATM    5  C5  UNL     1     -32.243   9.048   4.956  1.00 20.00     0.312 C 
BRANCH   4   6
HETATM    6  C7  UNL     1     -32.154   7.417   3.195  1.00 20.00     0.325 C 
HETATM    7  C3  UNL     1     -32.553   8.521   2.312  1.00 20.00     0.095 C 
HETATM    8  N8  UNL     1     -32.865   9.392   1.612  1.00 20.00    -0.195 NA
HETATM    9  C4  UNL     1     -32.713   6.091   2.697  1.00 20.00     0.059 C 
ENDBRANCH   4   6
ENDBRANCH   3   4
TORSDOF 2
ENDMDL
MODEL 3
REMARK VINA RESULT:      -3.7     15.241     16.398
REMARK  2 active torsions:
REMARK  status: ('A' for Active; 'I' for Inactive)
REMARK    1  A    between atoms: C6_6  and  N9_9 
REMARK    2  A    between atoms: C7_7  and  N9_9 
ROOT
HETATM    1  C1  UNL     1     -32.247   8.498   1.002  1.00 20.00     0.013 C 
HETATM    2  C2  UNL     1     -32.317   7.821   1.991  1.00 20.00    -0.087 C 
HETATM    3  C6  UNL     1     -32.399   6.991   3.196  1.00 20.00     0.366 C 
ENDROOT
BRANCH   3   4
HETATM    4  N9  UNL     1     -33.146   7.679   4.247  1.00 20.00     0.112 N 
HETATM    5  C5  UNL     1     -32.411   8.855   4.711  1.00 20.00     0.312 C 
BRANCH   4   6
HETATM    6  C7  UNL     1     -33.414   6.772   5.363  1.00 20.00     0.325 C 
HETATM    7  C3  UNL     1     -34.258   5.659   4.909  1.00 20.00     0.095 C 
HETATM    8  N8  UNL     1     -34.924   4.777   4.553  1.00 20.00    -0.195 NA
HETATM    9  C4  UNL     1     -34.068   7.517   6.518  1.00 20.00     0.059 C 
ENDBRANCH   4   6
ENDBRANCH   3   4
TORSDOF 2
ENDMDL
MODEL 4
REMARK VINA RESULT:      -3.7     15.237     16.029
REMARK  2 active torsions:
REMARK  status: ('A' for Active; 'I' for Inactive)
REMARK    1  A    between atoms: C6_6  and  N9_9 
REMARK    2  A    between atoms: C7_7  and  N9_9 
ROOT
HETATM    1  C1  UNL     1     -33.454  15.630  -4.074  1.00 20.00     0.013 C 
HETATM    2  C2  UNL     1     -33.449  16.234  -3.036  1.00 20.00    -0.087 C 
HETATM    3  C6  UNL     1     -33.442  16.968  -1.768  1.00 20.00     0.366 C 
ENDROOT
BRANCH   3   4
HETATM    4  N9  UNL     1     -33.621  18.400  -1.999  1.00 20.00     0.112 N 
HETATM    5  C5  UNL     1     -32.859  18.828  -3.171  1.00 20.00     0.312 C 
BRANCH   4   6
HETATM    6  C7  UNL     1     -33.214  19.163  -0.819  1.00 20.00     0.325 C 
HETATM    7  C3  UNL     1     -31.797  18.910  -0.525  1.00 20.00     0.095 C 
HETATM    8  N8  UNL     1     -30.678  18.714  -0.291  1.00 20.00    -0.195 NA
HETATM    9  C4  UNL     1     -34.090  18.815   0.376  1.00 20.00     0.059 C 
ENDBRANCH   4   6
ENDBRANCH   3   4
TORSDOF 2
ENDMDL
MODEL 5
REMARK VINA RESULT:      -3.6     15.166     16.161
REMARK  2 active torsions:
REMARK  status: ('A' for Active; 'I' for Inactive)
REMARK    1  A    between atoms: C6_6  and  N9_9 
REMARK    2  A    between atoms: C7_7  and  N9_9 
ROOT
HETATM    1  C1  UNL     1     -34.619   5.252   6.316  1.00 20.00     0.013 C 
HETATM    2  C2  UNL     1     -34.348   6.349   5.910  1.00 20.00    -0.087 C 
HETATM    3  C6  UNL     1     -34.021   7.690   5.416  1.00 20.00     0.366 C 
ENDROOT
BRANCH   3   4
HETATM    4  N9  UNL     1     -32.774   7.669   4.653  1.00 20.00     0.112 N 
HETATM    5  C5  UNL     1     -32.043   8.922   4.833  1.00 20.00     0.312 C 
BRANCH   4   6
HETATM    6  C7  UNL     1     -33.046   7.436   3.235  1.00 20.00     0.325 C 
HETATM    7  C3  UNL     1     -32.895   6.008   2.925  1.00 20.00     0.095 C 
HETATM    8  N8  UNL     1     -32.778   4.881   2.678  1.00 20.00    -0.195 NA
HETATM    9  C4  UNL     1     -32.130   8.284   2.364  1.00 20.00     0.059 C 
ENDBRANCH   4   6
ENDBRANCH   3   4
TORSDOF 2
ENDMDL
MODEL 6
REMARK VINA RESULT:      -3.5     17.603     18.909
REMARK  2 active torsions:
REMARK  status: ('A' for Active; 'I' for Inactive)
REMARK    1  A    between atoms: C6_6  and  N9_9 
REMARK    2  A    between atoms: C7_7  and  N9_9 
ROOT
HETATM    1  C1  UNL     1     -38.915  11.660   3.977  1.00 20.00     0.013 C 
HETATM    2  C2  UNL     1     -39.653  11.916   4.888  1.00 20.00    -0.087 C 
HETATM    3  C6  UNL     1     -40.555  12.223   6.002  1.00 20.00     0.366 C 
ENDROOT
BRANCH   3   4
HETATM    4  N9  UNL     1     -40.746  13.667   6.128  1.00 20.00     0.112 N 
HETATM    5  C5  UNL     1     -40.500  14.097   7.504  1.00 20.00     0.312 C 
BRANCH   4   6
HETATM    6  C7  UNL     1     -42.096  14.043   5.709  1.00 20.00     0.325 C 
HETATM    7  C3  UNL     1     -42.104  14.355   4.274  1.00 20.00     0.095 C 
HETATM    8  N8  UNL     1     -42.114  14.600   3.139  1.00 20.00    -0.195 NA
HETATM    9  C4  UNL     1     -42.605  15.222   6.526  1.00 20.00     0.059 C 
ENDBRANCH   4   6
ENDBRANCH   3   4
TORSDOF 2
ENDMDL
MODEL 7
REMARK VINA RESULT:      -3.5     18.520     19.183
REMARK  2 active torsions:
REMARK  status: ('A' for Active; 'I' for Inactive)
REMARK    1  A    between atoms: C6_6  and  N9_9 
REMARK    2  A    between atoms: C7_7  and  N9_9 
ROOT
HETATM    1  C1  UNL     1     -33.650  17.319  -1.260  1.00 20.00     0.013 C 
HETATM    2  C2  UNL     1     -33.514  17.087  -2.430  1.00 20.00    -0.087 C 
HETATM    3  C6  UNL     1     -33.344  16.808  -3.859  1.00 20.00     0.366 C 
ENDROOT
BRANCH   3   4
HETATM    4  N9  UNL     1     -34.260  15.754  -4.291  1.00 20.00     0.112 N 
HETATM    5  C5  UNL     1     -33.564  14.471  -4.369  1.00 20.00     0.312 C 
BRANCH   4   6
HETATM    6  C7  UNL     1     -34.855  16.092  -5.584  1.00 20.00     0.325 C 
HETATM    7  C3  UNL     1     -36.284  15.756  -5.579  1.00 20.00     0.095 C 
HETATM    8  N8  UNL     1     -37.415  15.492  -5.578  1.00 20.00    -0.195 NA
HETATM    9  C4  UNL     1     -34.129  15.376  -6.714  1.00 20.00     0.059 C 
ENDBRANCH   4   6
ENDBRANCH   3   4
TORSDOF 2
ENDMDL
MODEL 8
REMARK VINA RESULT:      -3.4     18.619     19.291
REMARK  2 active torsions:
REMARK  status: ('A' for Active; 'I' for Inactive)
REMARK    1  A    between atoms: C6_6  and  N9_9 
REMARK    2  A    between atoms: C7_7  and  N9_9 
ROOT
HETATM    1  C1  UNL     1     -33.367  17.335  -1.726  1.00 20.00     0.013 C 
HETATM    2  C2  UNL     1     -33.642  17.070  -2.864  1.00 20.00    -0.087 C 
HETATM    3  C6  UNL     1     -33.978  16.752  -4.254  1.00 20.00     0.366 C 
ENDROOT
BRANCH   3   4
HETATM    4  N9  UNL     1     -34.426  15.365  -4.373  1.00 20.00     0.112 N 
HETATM    5  C5  UNL     1     -33.280  14.457  -4.387  1.00 20.00     0.312 C 
BRANCH   4   6
HETATM    6  C7  UNL     1     -35.232  15.190  -5.580  1.00 20.00     0.325 C 
HETATM    7  C3  UNL     1     -34.370  15.236  -6.768  1.00 20.00     0.095 C 
HETATM    8  N8  UNL     1     -33.690  15.271  -7.708  1.00 20.00    -0.195 NA
HETATM    9  C4  UNL     1     -36.325  16.247  -5.657  1.00 20.00     0.059 C 
ENDBRANCH   4   6
ENDBRANCH   3   4
TORSDOF 2
ENDMDL
MODEL 9
REMARK VINA RESULT:      -3.4     18.644     19.404
REMARK  2 active torsions:
REMARK  status: ('A' for Active; 'I' for Inactive)
REMARK    1  A    between atoms: C6_6  and  N9_9 
REMARK    2  A    between atoms: C7_7  and  N9_9 
ROOT
HETATM    1  C1  UNL     1     -33.575  17.128  -1.643  1.00 20.00     0.013 C 
HETATM    2  C2  UNL     1     -33.502  16.549  -2.692  1.00 20.00    -0.087 C 
HETATM    3  C6  UNL     1     -33.411  15.838  -3.971  1.00 20.00     0.366 C 
ENDROOT
BRANCH   3   4
HETATM    4  N9  UNL     1     -34.180  16.531  -5.002  1.00 20.00     0.112 N 
HETATM    5  C5  UNL     1     -34.132  17.978  -4.792  1.00 20.00     0.312 C 
BRANCH   4   6
HETATM    6  C7  UNL     1     -35.565  16.062  -5.010  1.00 20.00     0.325 C 
HETATM    7  C3  UNL     1     -35.769  15.125  -6.122  1.00 20.00     0.095 C 
HETATM    8  N8  UNL     1     -35.933  14.383  -6.999  1.00 20.00    -0.195 NA
HETATM    9  C4  UNL     1     -36.532  17.235  -5.100  1.00 20.00     0.059 C 
ENDBRANCH   4   6
ENDBRANCH   3   4
TORSDOF 2
ENDMDL
