MODEL 1
REMARK VINA RESULT:      -4.1      0.000      0.000
REMARK  2 active torsions:
REMARK  status: ('A' for Active; 'I' for Inactive)
REMARK    1  A    between atoms: C3_3  and  N10_10 
REMARK    2  A    between atoms: C8_8  and  N10_10 
ROOT
HETATM    1  C1  UNL     1     -32.348   8.098   4.043  1.00 20.00     0.094 C 
HETATM    2  C7  UNL     1     -32.184   8.049   1.583  1.00 20.00     0.059 C 
HETATM    3  C8  UNL     1     -32.128   7.240   2.872  1.00 20.00     0.322 C 
HETATM    4  N9  UNL     1     -32.520   8.777   4.969  1.00 20.00    -0.195 NA
ENDROOT
BRANCH   3   5
HETATM    5  N10 UNL     1     -33.112   6.171   2.851  1.00 20.00     0.106 N 
HETATM    6  H24 UNL     1     -32.818   5.449   2.198  1.00 20.00     0.318 HD
BRANCH   5   7
HETATM    7  C3  UNL     1     -33.251   5.572   4.182  1.00 20.00     0.230 A 
HETATM    8  C2  UNL     1     -33.999   4.276   4.349  1.00 20.00     0.047 A 
HETATM    9  C4  UNL     1     -34.584   5.552   4.910  1.00 20.00    -0.015 A 
HETATM   10  C5  UNL     1     -34.561   5.742   6.403  1.00 20.00     0.017 C 
HETATM   11  C6  UNL     1     -35.811   6.114   4.238  1.00 20.00     0.017 C 
ENDBRANCH   5   7
ENDBRANCH   3   5
TORSDOF 2
ENDMDL
MODEL 2
REMARK VINA RESULT:      -3.9     15.779     16.757
REMARK  2 active torsions:
REMARK  status: ('A' for Active; 'I' for Inactive)
REMARK    1  A    between atoms: C3_3  and  N10_10 
REMARK    2  A    between atoms: C8_8  and  N10_10 
ROOT
HETATM    1  C1  UNL     1     -24.646  17.030  11.852  1.00 20.00     0.094 C 
HETATM    2  C7  UNL     1     -26.354  18.799  12.035  1.00 20.00     0.059 C 
HETATM    3  C8  UNL     1     -25.011  18.392  11.442  1.00 20.00     0.322 C 
HETATM    4  N9  UNL     1     -24.355  15.955  12.179  1.00 20.00    -0.195 NA
ENDROOT
BRANCH   3   5
HETATM    5  N10 UNL     1     -25.043  18.479   9.992  1.00 20.00     0.106 N 
HETATM    6  H24 UNL     1     -25.901  18.937   9.695  1.00 20.00     0.318 HD
BRANCH   5   7
HETATM    7  C3  UNL     1     -23.901  19.255   9.497  1.00 20.00     0.230 A 
HETATM    8  C2  UNL     1     -23.576  19.263   8.027  1.00 20.00     0.047 A 
HETATM    9  C4  UNL     1     -22.637  18.580   8.995  1.00 20.00    -0.015 A 
HETATM   10  C5  UNL     1     -21.325  19.252   9.298  1.00 20.00     0.017 C 
HETATM   11  C6  UNL     1     -22.560  17.075   8.952  1.00 20.00     0.017 C 
ENDBRANCH   5   7
ENDBRANCH   3   5
TORSDOF 2
ENDMDL
MODEL 3
REMARK VINA RESULT:      -3.8      1.504      2.276
REMARK  2 active torsions:
REMARK  status: ('A' for Active; 'I' for Inactive)
REMARK    1  A    between atoms: C3_3  and  N10_10 
REMARK    2  A    between atoms: C8_8  and  N10_10 
ROOT
HETATM    1  C1  UNL     1     -32.256   7.836   1.688  1.00 20.00     0.094 C 
HETATM    2  C7  UNL     1     -32.682   5.477   2.269  1.00 20.00     0.059 C 
HETATM    3  C8  UNL     1     -32.220   6.842   2.767  1.00 20.00     0.322 C 
HETATM    4  N9  UNL     1     -32.282   8.622   0.834  1.00 20.00    -0.195 NA
ENDROOT
BRANCH   3   5
HETATM    5  N10 UNL     1     -33.043   7.288   3.879  1.00 20.00     0.106 N 
HETATM    6  H24 UNL     1     -33.669   8.026   3.566  1.00 20.00     0.318 HD
BRANCH   5   7
HETATM    7  C3  UNL     1     -33.848   6.180   4.401  1.00 20.00     0.230 A 
HETATM    8  C2  UNL     1     -35.329   6.358   4.610  1.00 20.00     0.047 A 
HETATM    9  C4  UNL     1     -34.419   6.205   5.808  1.00 20.00    -0.015 A 
HETATM   10  C5  UNL     1     -34.461   4.904   6.563  1.00 20.00     0.017 C 
HETATM   11  C6  UNL     1     -34.203   7.415   6.681  1.00 20.00     0.017 C 
ENDBRANCH   5   7
ENDBRANCH   3   5
TORSDOF 2
ENDMDL
MODEL 4
REMARK VINA RESULT:      -3.8     12.011     13.328
REMARK  2 active torsions:
REMARK  status: ('A' for Active; 'I' for Inactive)
REMARK    1  A    between atoms: C3_3  and  N10_10 
REMARK    2  A    between atoms: C8_8  and  N10_10 
ROOT
HETATM    1  C1  UNL     1     -35.093  14.921  -5.937  1.00 20.00     0.094 C 
HETATM    2  C7  UNL     1     -33.172  14.400  -4.481  1.00 20.00     0.059 C 
HETATM    3  C8  UNL     1     -34.031  15.495  -5.103  1.00 20.00     0.322 C 
HETATM    4  N9  UNL     1     -35.932  14.467  -6.599  1.00 20.00    -0.195 NA
ENDROOT
BRANCH   3   5
HETATM    5  N10 UNL     1     -34.612  16.339  -4.073  1.00 20.00     0.106 N 
HETATM    6  H24 UNL     1     -35.193  15.776  -3.457  1.00 20.00     0.318 HD
BRANCH   5   7
HETATM    7  C3  UNL     1     -33.561  16.975  -3.273  1.00 20.00     0.230 A 
HETATM    8  C2  UNL     1     -33.653  16.975  -1.771  1.00 20.00     0.047 A 
HETATM    9  C4  UNL     1     -33.805  18.275  -2.527  1.00 20.00    -0.015 A 
HETATM   10  C5  UNL     1     -32.671  19.263  -2.466  1.00 20.00     0.017 C 
HETATM   11  C6  UNL     1     -35.172  18.911  -2.560  1.00 20.00     0.017 C 
ENDBRANCH   5   7
ENDBRANCH   3   5
TORSDOF 2
ENDMDL
MODEL 5
REMARK VINA RESULT:      -3.8     12.116     13.756
REMARK  2 active torsions:
REMARK  status: ('A' for Active; 'I' for Inactive)
REMARK    1  A    between atoms: C3_3  and  N10_10 
REMARK    2  A    between atoms: C8_8  and  N10_10 
ROOT
HETATM    1  C1  UNL     1     -35.122  14.890  -6.345  1.00 20.00     0.094 C 
HETATM    2  C7  UNL     1     -33.969  14.502  -4.200  1.00 20.00     0.059 C 
HETATM    3  C8  UNL     1     -33.984  15.286  -5.506  1.00 20.00     0.322 C 
HETATM    4  N9  UNL     1     -36.020  14.576  -7.010  1.00 20.00    -0.195 NA
ENDROOT
BRANCH   3   5
HETATM    5  N10 UNL     1     -34.033  16.715  -5.247  1.00 20.00     0.106 N 
HETATM    6  H24 UNL     1     -34.871  17.110  -5.667  1.00 20.00     0.318 HD
BRANCH   5   7
HETATM    7  C3  UNL     1     -34.063  16.977  -3.805  1.00 20.00     0.230 A 
HETATM    8  C2  UNL     1     -34.937  18.073  -3.257  1.00 20.00     0.047 A 
HETATM    9  C4  UNL     1     -33.433  18.224  -3.210  1.00 20.00    -0.015 A 
HETATM   10  C5  UNL     1     -32.753  18.087  -1.875  1.00 20.00     0.017 C 
HETATM   11  C6  UNL     1     -32.805  19.250  -4.118  1.00 20.00     0.017 C 
ENDBRANCH   5   7
ENDBRANCH   3   5
TORSDOF 2
ENDMDL
MODEL 6
REMARK VINA RESULT:      -3.7     12.201     13.407
REMARK  2 active torsions:
REMARK  status: ('A' for Active; 'I' for Inactive)
REMARK    1  A    between atoms: C3_3  and  N10_10 
REMARK    2  A    between atoms: C8_8  and  N10_10 
ROOT
HETATM    1  C1  UNL     1     -32.869  18.796  -2.802  1.00 20.00     0.094 C 
HETATM    2  C7  UNL     1     -35.205  18.248  -3.371  1.00 20.00     0.059 C 
HETATM    3  C8  UNL     1     -33.787  18.446  -3.893  1.00 20.00     0.322 C 
HETATM    4  N9  UNL     1     -32.143  19.075  -1.940  1.00 20.00    -0.195 NA
ENDROOT
BRANCH   3   5
HETATM    5  N10 UNL     1     -33.318  17.250  -4.571  1.00 20.00     0.106 N 
HETATM    6  H24 UNL     1     -32.387  17.012  -4.238  1.00 20.00     0.318 HD
BRANCH   5   7
HETATM    7  C3  UNL     1     -34.215  16.121  -4.306  1.00 20.00     0.230 A 
HETATM    8  C2  UNL     1     -33.666  14.720  -4.252  1.00 20.00     0.047 A 
HETATM    9  C4  UNL     1     -34.578  15.122  -5.389  1.00 20.00    -0.015 A 
HETATM   10  C5  UNL     1     -35.982  14.581  -5.391  1.00 20.00     0.017 C 
HETATM   11  C6  UNL     1     -33.969  15.253  -6.762  1.00 20.00     0.017 C 
ENDBRANCH   5   7
ENDBRANCH   3   5
TORSDOF 2
ENDMDL
MODEL 7
REMARK VINA RESULT:      -3.7      9.064     10.469
REMARK  2 active torsions:
REMARK  status: ('A' for Active; 'I' for Inactive)
REMARK    1  A    between atoms: C3_3  and  N10_10 
REMARK    2  A    between atoms: C8_8  and  N10_10 
ROOT
HETATM    1  C1  UNL     1     -41.998  13.866   8.071  1.00 20.00     0.094 C 
HETATM    2  C7  UNL     1     -42.211  14.797   5.798  1.00 20.00     0.059 C 
HETATM    3  C8  UNL     1     -41.323  14.646   7.026  1.00 20.00     0.322 C 
HETATM    4  N9  UNL     1     -42.532  13.251   8.899  1.00 20.00    -0.195 NA
ENDROOT
BRANCH   3   5
HETATM    5  N10 UNL     1     -40.062  14.016   6.675  1.00 20.00     0.106 N 
HETATM    6  H24 UNL     1     -39.681  13.537   7.487  1.00 20.00     0.318 HD
BRANCH   5   7
HETATM    7  C3  UNL     1     -40.257  13.036   5.601  1.00 20.00     0.230 A 
HETATM    8  C2  UNL     1     -40.363  11.571   5.929  1.00 20.00     0.047 A 
HETATM    9  C4  UNL     1     -39.152  12.083   5.183  1.00 20.00    -0.015 A 
HETATM   10  C5  UNL     1     -39.036  11.756   3.718  1.00 20.00     0.017 C 
HETATM   11  C6  UNL     1     -37.834  12.100   5.914  1.00 20.00     0.017 C 
ENDBRANCH   5   7
ENDBRANCH   3   5
TORSDOF 2
ENDMDL
MODEL 8
REMARK VINA RESULT:      -3.6     10.277     11.629
REMARK  2 active torsions:
REMARK  status: ('A' for Active; 'I' for Inactive)
REMARK    1  A    between atoms: C3_3  and  N10_10 
REMARK    2  A    between atoms: C8_8  and  N10_10 
ROOT
HETATM    1  C1  UNL     1     -40.920  14.139  10.063  1.00 20.00     0.094 C 
HETATM    2  C7  UNL     1     -40.816  16.154   8.645  1.00 20.00     0.059 C 
HETATM    3  C8  UNL     1     -40.151  14.836   9.024  1.00 20.00     0.322 C 
HETATM    4  N9  UNL     1     -41.526  13.589  10.886  1.00 20.00    -0.195 NA
ENDROOT
BRANCH   3   5
HETATM    5  N10 UNL     1     -40.005  13.981   7.859  1.00 20.00     0.106 N 
HETATM    6  H24 UNL     1     -39.905  13.013   8.155  1.00 20.00     0.318 HD
BRANCH   5   7
HETATM    7  C3  UNL     1     -41.182  14.086   6.991  1.00 20.00     0.230 A 
HETATM    8  C2  UNL     1     -42.089  12.900   6.806  1.00 20.00     0.047 A 
HETATM    9  C4  UNL     1     -41.245  13.381   5.647  1.00 20.00    -0.015 A 
HETATM   10  C5  UNL     1     -41.939  14.099   4.520  1.00 20.00     0.017 C 
HETATM   11  C6  UNL     1     -40.099  12.508   5.206  1.00 20.00     0.017 C 
ENDBRANCH   5   7
ENDBRANCH   3   5
TORSDOF 2
ENDMDL
MODEL 9
REMARK VINA RESULT:      -3.6      1.100      2.461
REMARK  2 active torsions:
REMARK  status: ('A' for Active; 'I' for Inactive)
REMARK    1  A    between atoms: C3_3  and  N10_10 
REMARK    2  A    between atoms: C8_8  and  N10_10 
ROOT
HETATM    1  C1  UNL     1     -32.472   7.919   3.134  1.00 20.00     0.094 C 
HETATM    2  C7  UNL     1     -31.909   9.283   5.110  1.00 20.00     0.059 C 
HETATM    3  C8  UNL     1     -33.022   8.682   4.261  1.00 20.00     0.322 C 
HETATM    4  N9  UNL     1     -32.037   7.318   2.241  1.00 20.00    -0.195 NA
ENDROOT
BRANCH   3   5
HETATM    5  N10 UNL     1     -33.878   7.827   5.066  1.00 20.00     0.106 N 
HETATM    6  H24 UNL     1     -34.751   8.308   5.267  1.00 20.00     0.318 HD
BRANCH   5   7
HETATM    7  C3  UNL     1     -34.181   6.583   4.353  1.00 20.00     0.230 A 
HETATM    8  C2  UNL     1     -35.572   6.008   4.398  1.00 20.00     0.047 A 
HETATM    9  C4  UNL     1     -34.442   5.283   5.094  1.00 20.00    -0.015 A 
HETATM   10  C5  UNL     1     -33.929   4.014   4.469  1.00 20.00     0.017 C 
HETATM   11  C6  UNL     1     -34.442   5.270   6.601  1.00 20.00     0.017 C 
ENDBRANCH   5   7
ENDBRANCH   3   5
TORSDOF 2
ENDMDL
