MODEL 1
REMARK VINA RESULT:      -3.9      0.000      0.000
REMARK  1 active torsions:
REMARK  status: ('A' for Active; 'I' for Inactive)
REMARK    1  A    between atoms: C6_6  and  N10_10 
ROOT
HETATM    1  C1  UNL     1     -31.785  18.985   2.314  1.00 20.00     0.156 C 
HETATM    2  C2  UNL     1     -30.649  18.419   1.513  1.00 20.00     0.110 C 
HETATM    3  C3  UNL     1     -32.981  19.263   1.440  1.00 20.00     0.350 C 
HETATM    4  C5  UNL     1     -31.139  18.702   0.100  1.00 20.00     0.281 C 
HETATM    5  N10 UNL     1     -32.598  18.581   0.203  1.00 20.00     0.101 N 
HETATM    6  O11 UNL     1     -31.747  19.191   3.519  1.00 20.00    -0.296 OA
ENDROOT
BRANCH   5   7
HETATM    7  C6  UNL     1     -33.286  19.115  -0.962  1.00 20.00     0.232 A 
HETATM    8  C4  UNL     1     -32.606  19.146  -2.305  1.00 20.00     0.047 A 
HETATM    9  C7  UNL     1     -33.788  18.228  -2.088  1.00 20.00    -0.015 A 
HETATM   10  C8  UNL     1     -33.531  16.744  -2.053  1.00 20.00     0.017 C 
HETATM   11  C9  UNL     1     -35.099  18.604  -2.728  1.00 20.00     0.017 C 
ENDBRANCH   5   7
TORSDOF 1
ENDMDL
MODEL 2
REMARK VINA RESULT:      -3.7      5.018      7.053
REMARK  1 active torsions:
REMARK  status: ('A' for Active; 'I' for Inactive)
REMARK    1  A    between atoms: C6_6  and  N10_10 
ROOT
HETATM    1  C1  UNL     1     -35.521  15.317  -6.620  1.00 20.00     0.156 C 
HETATM    2  C2  UNL     1     -35.478  16.717  -7.157  1.00 20.00     0.110 C 
HETATM    3  C3  UNL     1     -34.951  15.251  -5.227  1.00 20.00     0.350 C 
HETATM    4  C5  UNL     1     -34.558  17.376  -6.139  1.00 20.00     0.281 C 
HETATM    5  N10 UNL     1     -34.857  16.672  -4.888  1.00 20.00     0.101 N 
HETATM    6  O11 UNL     1     -35.962  14.354  -7.233  1.00 20.00    -0.296 OA
ENDROOT
BRANCH   5   7
HETATM    7  C6  UNL     1     -33.870  16.931  -3.851  1.00 20.00     0.232 A 
HETATM    8  C4  UNL     1     -33.179  18.266  -3.769  1.00 20.00     0.047 A 
HETATM    9  C7  UNL     1     -34.144  17.857  -2.679  1.00 20.00    -0.015 A 
HETATM   10  C8  UNL     1     -35.456  18.593  -2.589  1.00 20.00     0.017 C 
HETATM   11  C9  UNL     1     -33.572  17.465  -1.343  1.00 20.00     0.017 C 
ENDBRANCH   5   7
TORSDOF 1
ENDMDL
MODEL 3
REMARK VINA RESULT:      -3.7      4.007      5.364
REMARK  1 active torsions:
REMARK  status: ('A' for Active; 'I' for Inactive)
REMARK    1  A    between atoms: C6_6  and  N10_10 
ROOT
HETATM    1  C1  UNL     1     -34.220  18.169  -2.464  1.00 20.00     0.156 C 
HETATM    2  C2  UNL     1     -33.416  16.964  -2.075  1.00 20.00     0.110 C 
HETATM    3  C3  UNL     1     -34.800  18.013  -3.846  1.00 20.00     0.350 C 
HETATM    4  C5  UNL     1     -33.292  16.267  -3.423  1.00 20.00     0.281 C 
HETATM    5  N10 UNL     1     -34.549  16.594  -4.104  1.00 20.00     0.101 N 
HETATM    6  O11 UNL     1     -34.386  19.150  -1.751  1.00 20.00    -0.296 OA
ENDROOT
BRANCH   5   7
HETATM    7  C6  UNL     1     -34.510  16.287  -5.525  1.00 20.00     0.232 A 
HETATM    8  C4  UNL     1     -33.799  15.057  -6.023  1.00 20.00     0.047 A 
HETATM    9  C7  UNL     1     -35.305  15.144  -6.133  1.00 20.00    -0.015 A 
HETATM   10  C8  UNL     1     -36.128  14.243  -5.249  1.00 20.00     0.017 C 
HETATM   11  C9  UNL     1     -35.900  15.368  -7.498  1.00 20.00     0.017 C 
ENDBRANCH   5   7
TORSDOF 1
ENDMDL
MODEL 4
REMARK VINA RESULT:      -3.7      3.767      5.730
REMARK  1 active torsions:
REMARK  status: ('A' for Active; 'I' for Inactive)
REMARK    1  A    between atoms: C6_6  and  N10_10 
ROOT
HETATM    1  C1  UNL     1     -34.396  15.597  -4.826  1.00 20.00     0.156 C 
HETATM    2  C2  UNL     1     -35.342  16.758  -4.914  1.00 20.00     0.110 C 
HETATM    3  C3  UNL     1     -33.297  15.864  -3.831  1.00 20.00     0.350 C 
HETATM    4  C5  UNL     1     -34.542  17.822  -4.175  1.00 20.00     0.281 C 
HETATM    5  N10 UNL     1     -33.802  17.063  -3.160  1.00 20.00     0.101 N 
HETATM    6  O11 UNL     1     -34.505  14.565  -5.475  1.00 20.00    -0.296 OA
ENDROOT
BRANCH   5   7
HETATM    7  C6  UNL     1     -32.741  17.843  -2.544  1.00 20.00     0.232 A 
HETATM    8  C4  UNL     1     -32.989  19.263  -2.107  1.00 20.00     0.047 A 
HETATM    9  C7  UNL     1     -32.741  18.194  -1.066  1.00 20.00    -0.015 A 
HETATM   10  C8  UNL     1     -33.897  17.781  -0.192  1.00 20.00     0.017 C 
HETATM   11  C9  UNL     1     -31.412  18.195  -0.358  1.00 20.00     0.017 C 
ENDBRANCH   5   7
TORSDOF 1
ENDMDL
MODEL 5
REMARK VINA RESULT:      -3.7      5.396      7.501
REMARK  1 active torsions:
REMARK  status: ('A' for Active; 'I' for Inactive)
REMARK    1  A    between atoms: C6_6  and  N10_10 
ROOT
HETATM    1  C1  UNL     1     -36.397  15.910  -6.989  1.00 20.00     0.156 C 
HETATM    2  C2  UNL     1     -35.092  15.597  -7.660  1.00 20.00     0.110 C 
HETATM    3  C3  UNL     1     -36.207  16.140  -5.511  1.00 20.00     0.350 C 
HETATM    4  C5  UNL     1     -34.213  15.332  -6.445  1.00 20.00     0.281 C 
HETATM    5  N10 UNL     1     -34.749  16.234  -5.420  1.00 20.00     0.101 N 
HETATM    6  O11 UNL     1     -37.474  15.974  -7.565  1.00 20.00    -0.296 OA
ENDROOT
BRANCH   5   7
HETATM    7  C6  UNL     1     -34.255  15.921  -4.088  1.00 20.00     0.232 A 
HETATM    8  C4  UNL     1     -32.787  15.684  -3.853  1.00 20.00     0.047 A 
HETATM    9  C7  UNL     1     -33.448  16.911  -3.267  1.00 20.00    -0.015 A 
HETATM   10  C8  UNL     1     -33.081  18.253  -3.847  1.00 20.00     0.017 C 
HETATM   11  C9  UNL     1     -33.695  16.937  -1.781  1.00 20.00     0.017 C 
ENDBRANCH   5   7
TORSDOF 1
ENDMDL
MODEL 6
REMARK VINA RESULT:      -3.5      3.763      5.227
REMARK  1 active torsions:
REMARK  status: ('A' for Active; 'I' for Inactive)
REMARK    1  A    between atoms: C6_6  and  N10_10 
ROOT
HETATM    1  C1  UNL     1     -32.917  18.265  -2.750  1.00 20.00     0.156 C 
HETATM    2  C2  UNL     1     -33.279  17.057  -1.937  1.00 20.00     0.110 C 
HETATM    3  C3  UNL     1     -33.379  18.118  -4.177  1.00 20.00     0.350 C 
HETATM    4  C5  UNL     1     -33.667  16.085  -3.042  1.00 20.00     0.281 C 
HETATM    5  N10 UNL     1     -34.250  16.946  -4.077  1.00 20.00     0.101 N 
HETATM    6  O11 UNL     1     -32.327  19.242  -2.312  1.00 20.00    -0.296 OA
ENDROOT
BRANCH   5   7
HETATM    7  C6  UNL     1     -34.406  16.260  -5.351  1.00 20.00     0.232 A 
HETATM    8  C4  UNL     1     -35.001  14.878  -5.408  1.00 20.00     0.047 A 
HETATM    9  C7  UNL     1     -35.763  16.044  -5.998  1.00 20.00    -0.015 A 
HETATM   10  C8  UNL     1     -37.017  16.494  -5.293  1.00 20.00     0.017 C 
HETATM   11  C9  UNL     1     -35.835  16.151  -7.499  1.00 20.00     0.017 C 
ENDBRANCH   5   7
TORSDOF 1
ENDMDL
MODEL 7
REMARK VINA RESULT:      -3.4     24.269     25.629
REMARK  1 active torsions:
REMARK  status: ('A' for Active; 'I' for Inactive)
REMARK    1  A    between atoms: C6_6  and  N10_10 
ROOT
HETATM    1  C1  UNL     1     -22.467  -3.931   8.538  1.00 20.00     0.156 C 
HETATM    2  C2  UNL     1     -22.385  -4.737   9.800  1.00 20.00     0.110 C 
HETATM    3  C3  UNL     1     -23.686  -3.046   8.535  1.00 20.00     0.350 C 
HETATM    4  C5  UNL     1     -23.783  -4.515  10.361  1.00 20.00     0.281 C 
HETATM    5  N10 UNL     1     -24.123  -3.156   9.928  1.00 20.00     0.101 N 
HETATM    6  O11 UNL     1     -21.649  -3.983   7.629  1.00 20.00    -0.296 OA
ENDROOT
BRANCH   5   7
HETATM    7  C6  UNL     1     -25.537  -2.856  10.091  1.00 20.00     0.232 A 
HETATM    8  C4  UNL     1     -26.312  -3.427  11.249  1.00 20.00     0.047 A 
HETATM    9  C7  UNL     1     -26.053  -1.938  11.186  1.00 20.00    -0.015 A 
HETATM   10  C8  UNL     1     -25.098  -1.347  12.189  1.00 20.00     0.017 C 
HETATM   11  C9  UNL     1     -27.210  -1.037  10.840  1.00 20.00     0.017 C 
ENDBRANCH   5   7
TORSDOF 1
ENDMDL
MODEL 8
REMARK VINA RESULT:      -3.3     11.742     12.755
REMARK  1 active torsions:
REMARK  status: ('A' for Active; 'I' for Inactive)
REMARK    1  A    between atoms: C6_6  and  N10_10 
ROOT
HETATM    1  C1  UNL     1     -32.213   8.129   1.969  1.00 20.00     0.156 C 
HETATM    2  C2  UNL     1     -32.540   9.457   2.585  1.00 20.00     0.110 C 
HETATM    3  C3  UNL     1     -32.522   6.998   2.917  1.00 20.00     0.350 C 
HETATM    4  C5  UNL     1     -32.734   9.048   4.038  1.00 20.00     0.281 C 
HETATM    5  N10 UNL     1     -33.291   7.693   3.951  1.00 20.00     0.101 N 
HETATM    6  O11 UNL     1     -31.756   7.981   0.844  1.00 20.00    -0.296 OA
ENDROOT
BRANCH   5   7
HETATM    7  C6  UNL     1     -33.263   6.995   5.226  1.00 20.00     0.232 A 
HETATM    8  C4  UNL     1     -34.232   7.359   6.320  1.00 20.00     0.047 A 
HETATM    9  C7  UNL     1     -34.345   6.013   5.640  1.00 20.00    -0.015 A 
HETATM   10  C8  UNL     1     -35.532   5.774   4.743  1.00 20.00     0.017 C 
HETATM   11  C9  UNL     1     -33.911   4.795   6.413  1.00 20.00     0.017 C 
ENDBRANCH   5   7
TORSDOF 1
ENDMDL
MODEL 9
REMARK VINA RESULT:      -3.3     11.004     12.050
REMARK  1 active torsions:
REMARK  status: ('A' for Active; 'I' for Inactive)
REMARK    1  A    between atoms: C6_6  and  N10_10 
ROOT
HETATM    1  C1  UNL     1     -39.558  12.273   4.467  1.00 20.00     0.156 C 
HETATM    2  C2  UNL     1     -38.709  12.030   5.680  1.00 20.00     0.110 C 
HETATM    3  C3  UNL     1     -40.763  13.111   4.805  1.00 20.00     0.350 C 
HETATM    4  C5  UNL     1     -39.660  12.485   6.778  1.00 20.00     0.281 C 
HETATM    5  N10 UNL     1     -40.425  13.569   6.153  1.00 20.00     0.101 N 
HETATM    6  O11 UNL     1     -39.303  11.848   3.348  1.00 20.00    -0.296 OA
ENDROOT
BRANCH   5   7
HETATM    7  C6  UNL     1     -41.601  13.940   6.925  1.00 20.00     0.232 A 
HETATM    8  C4  UNL     1     -41.534  14.032   8.427  1.00 20.00     0.047 A 
HETATM    9  C7  UNL     1     -41.734  15.289   7.610  1.00 20.00    -0.015 A 
HETATM   10  C8  UNL     1     -40.600  16.280   7.553  1.00 20.00     0.017 C 
HETATM   11  C9  UNL     1     -43.099  15.925   7.620  1.00 20.00     0.017 C 
ENDBRANCH   5   7
TORSDOF 1
ENDMDL
