MODEL 1
REMARK VINA RESULT:      -4.7      0.000      0.000
REMARK  0 active torsions:
REMARK  status: ('A' for Active; 'I' for Inactive)
ROOT
HETATM    1  C1  UNL     1     -33.008   6.385   2.862  1.00 20.00     0.060 A 
HETATM    2  C2  UNL     1     -33.192   8.273   4.945  1.00 20.00     0.065 A 
HETATM    3  C3  UNL     1     -34.621   4.793   5.616  1.00 20.00     0.167 A 
HETATM    4  C4  UNL     1     -33.611   6.018   4.085  1.00 20.00     0.076 A 
HETATM    5  C5  UNL     1     -32.601   8.610   3.725  1.00 20.00     0.139 A 
HETATM    6  C6  UNL     1     -33.691   6.969   5.106  1.00 20.00     0.038 A 
HETATM    7  C7  UNL     1     -32.510   7.680   2.696  1.00 20.00     0.074 A 
HETATM    8  N8  UNL     1     -34.147   4.775   4.393  1.00 20.00    -0.253 NA
HETATM    9  F9  UNL     1     -32.122   9.852   3.563  1.00 20.00    -0.204 F 
HETATM   10  S10 UNL     1     -34.464   6.263   6.475  1.00 20.00    -0.080 SA
HETATM   11 CL11 UNL     1     -31.777   8.118   1.198  1.00 20.00    -0.081 Cl
ENDROOT
TORSDOF 0
ENDMDL
MODEL 2
REMARK VINA RESULT:      -4.1     12.519     12.753
REMARK  0 active torsions:
REMARK  status: ('A' for Active; 'I' for Inactive)
ROOT
HETATM    1  C1  UNL     1     -29.601  18.978   1.986  1.00 20.00     0.060 A 
HETATM    2  C2  UNL     1     -32.206  19.067   3.058  1.00 20.00     0.065 A 
HETATM    3  C3  UNL     1     -31.892  18.729  -0.736  1.00 20.00     0.167 A 
HETATM    4  C4  UNL     1     -30.715  18.898   1.121  1.00 20.00     0.076 A 
HETATM    5  C5  UNL     1     -31.087  19.144   3.890  1.00 20.00     0.139 A 
HETATM    6  C6  UNL     1     -31.998  18.943   1.674  1.00 20.00     0.038 A 
HETATM    7  C7  UNL     1     -29.801  19.101   3.364  1.00 20.00     0.074 A 
HETATM    8  N8  UNL     1     -30.670  18.774  -0.260  1.00 20.00    -0.253 NA
HETATM    9  F9  UNL     1     -31.275  19.263   5.213  1.00 20.00    -0.204 F 
HETATM   10  S10 UNL     1     -33.161  18.827   0.407  1.00 20.00    -0.080 SA
HETATM   11 CL11 UNL     1     -28.434  19.199   4.410  1.00 20.00    -0.081 Cl
ENDROOT
TORSDOF 0
ENDMDL
MODEL 3
REMARK VINA RESULT:      -3.8     12.267     12.960
REMARK  0 active torsions:
REMARK  status: ('A' for Active; 'I' for Inactive)
ROOT
HETATM    1  C1  UNL     1     -33.285  16.367  -2.756  1.00 20.00     0.060 A 
HETATM    2  C2  UNL     1     -35.321  17.992  -3.832  1.00 20.00     0.065 A 
HETATM    3  C3  UNL     1     -34.043  15.124  -6.012  1.00 20.00     0.167 A 
HETATM    4  C4  UNL     1     -33.782  16.097  -4.050  1.00 20.00     0.076 A 
HETATM    5  C5  UNL     1     -34.810  18.237  -2.555  1.00 20.00     0.139 A 
HETATM    6  C6  UNL     1     -34.793  16.915  -4.564  1.00 20.00     0.038 A 
HETATM    7  C7  UNL     1     -33.805  17.437  -2.023  1.00 20.00     0.074 A 
HETATM    8  N8  UNL     1     -33.364  15.075  -4.890  1.00 20.00    -0.253 NA
HETATM    9  F9  UNL     1     -35.308  19.263  -1.849  1.00 20.00    -0.204 F 
HETATM   10  S10 UNL     1     -35.211  16.367  -6.144  1.00 20.00    -0.080 SA
HETATM   11 CL11 UNL     1     -33.190  17.759  -0.445  1.00 20.00    -0.081 Cl
ENDROOT
TORSDOF 0
ENDMDL
MODEL 4
REMARK VINA RESULT:      -3.8     12.494     13.287
REMARK  0 active torsions:
REMARK  status: ('A' for Active; 'I' for Inactive)
ROOT
HETATM    1  C1  UNL     1     -35.237  18.131  -3.790  1.00 20.00     0.060 A 
HETATM    2  C2  UNL     1     -33.341  16.075  -3.445  1.00 20.00     0.065 A 
HETATM    3  C3  UNL     1     -35.364  16.055  -6.687  1.00 20.00     0.167 A 
HETATM    4  C4  UNL     1     -35.074  17.155  -4.798  1.00 20.00     0.076 A 
HETATM    5  C5  UNL     1     -33.522  17.052  -2.464  1.00 20.00     0.139 A 
HETATM    6  C6  UNL     1     -34.128  16.145  -4.607  1.00 20.00     0.038 A 
HETATM    7  C7  UNL     1     -34.457  18.067  -2.632  1.00 20.00     0.074 A 
HETATM    8  N8  UNL     1     -35.774  17.091  -5.994  1.00 20.00    -0.253 NA
HETATM    9  F9  UNL     1     -32.775  16.994  -1.351  1.00 20.00    -0.204 F 
HETATM   10  S10 UNL     1     -34.136  15.099  -5.978  1.00 20.00    -0.080 SA
HETATM   11 CL11 UNL     1     -34.665  19.263  -1.407  1.00 20.00    -0.081 Cl
ENDROOT
TORSDOF 0
ENDMDL
MODEL 5
REMARK VINA RESULT:      -3.8     12.628     12.912
REMARK  0 active torsions:
REMARK  status: ('A' for Active; 'I' for Inactive)
ROOT
HETATM    1  C1  UNL     1     -30.894  18.729   0.318  1.00 20.00     0.060 A 
HETATM    2  C2  UNL     1     -33.378  19.262   1.537  1.00 20.00     0.065 A 
HETATM    3  C3  UNL     1     -33.336  18.957  -2.272  1.00 20.00     0.167 A 
HETATM    4  C4  UNL     1     -32.049  18.870  -0.483  1.00 20.00     0.076 A 
HETATM    5  C5  UNL     1     -32.221  19.118   2.306  1.00 20.00     0.139 A 
HETATM    6  C6  UNL     1     -33.271  19.133   0.142  1.00 20.00     0.038 A 
HETATM    7  C7  UNL     1     -30.994  18.856   1.706  1.00 20.00     0.074 A 
HETATM    8  N8  UNL     1     -32.102  18.771  -1.866  1.00 20.00    -0.253 NA
HETATM    9  F9  UNL     1     -32.313  19.239   3.639  1.00 20.00    -0.204 F 
HETATM   10  S10 UNL     1     -34.503  19.256  -1.057  1.00 20.00    -0.080 SA
HETATM   11 CL11 UNL     1     -29.578  18.683   2.675  1.00 20.00    -0.081 Cl
ENDROOT
TORSDOF 0
ENDMDL
MODEL 6
REMARK VINA RESULT:      -3.7     12.531     12.671
REMARK  0 active torsions:
REMARK  status: ('A' for Active; 'I' for Inactive)
ROOT
HETATM    1  C1  UNL     1     -31.089  18.771  -0.291  1.00 20.00     0.060 A 
HETATM    2  C2  UNL     1     -33.378  18.989   1.339  1.00 20.00     0.065 A 
HETATM    3  C3  UNL     1     -29.977  19.194   3.072  1.00 20.00     0.167 A 
HETATM    4  C4  UNL     1     -30.939  18.948   1.102  1.00 20.00     0.076 A 
HETATM    5  C5  UNL     1     -33.497  18.814  -0.041  1.00 20.00     0.139 A 
HETATM    6  C6  UNL     1     -32.088  19.055   1.892  1.00 20.00     0.038 A 
HETATM    7  C7  UNL     1     -32.369  18.705  -0.847  1.00 20.00     0.074 A 
HETATM    8  N8  UNL     1     -29.738  19.031   1.792  1.00 20.00    -0.253 NA
HETATM    9  F9  UNL     1     -34.725  18.750  -0.579  1.00 20.00    -0.204 F 
HETATM   10  S10 UNL     1     -31.621  19.263   3.539  1.00 20.00    -0.080 SA
HETATM   11 CL11 UNL     1     -32.541  18.488  -2.549  1.00 20.00    -0.081 Cl
ENDROOT
TORSDOF 0
ENDMDL
MODEL 7
REMARK VINA RESULT:      -3.7     12.853     13.040
REMARK  0 active torsions:
REMARK  status: ('A' for Active; 'I' for Inactive)
ROOT
HETATM    1  C1  UNL     1     -32.557  18.383  -2.146  1.00 20.00     0.060 A 
HETATM    2  C2  UNL     1     -34.447  19.087  -0.177  1.00 20.00     0.065 A 
HETATM    3  C3  UNL     1     -30.789  18.885   0.912  1.00 20.00     0.167 A 
HETATM    4  C4  UNL     1     -32.126  18.642  -0.825  1.00 20.00     0.076 A 
HETATM    5  C5  UNL     1     -34.845  18.826  -1.490  1.00 20.00     0.139 A 
HETATM    6  C6  UNL     1     -33.080  18.990   0.135  1.00 20.00     0.038 A 
HETATM    7  C7  UNL     1     -33.915  18.478  -2.463  1.00 20.00     0.074 A 
HETATM    8  N8  UNL     1     -30.818  18.587  -0.366  1.00 20.00    -0.253 NA
HETATM    9  F9  UNL     1     -36.148  18.916  -1.798  1.00 20.00    -0.204 F 
HETATM   10  S10 UNL     1     -32.291  19.248   1.646  1.00 20.00    -0.080 SA
HETATM   11 CL11 UNL     1     -34.429  18.160  -4.077  1.00 20.00    -0.081 Cl
ENDROOT
TORSDOF 0
ENDMDL
MODEL 8
REMARK VINA RESULT:      -3.7      2.132      2.665
REMARK  0 active torsions:
REMARK  status: ('A' for Active; 'I' for Inactive)
ROOT
HETATM    1  C1  UNL     1     -32.872   7.758   3.745  1.00 20.00     0.060 A 
HETATM    2  C2  UNL     1     -33.608   5.038   3.690  1.00 20.00     0.065 A 
HETATM    3  C3  UNL     1     -34.418   6.999   6.868  1.00 20.00     0.167 A 
HETATM    4  C4  UNL     1     -33.511   7.185   4.866  1.00 20.00     0.076 A 
HETATM    5  C5  UNL     1     -32.975   5.630   2.594  1.00 20.00     0.139 A 
HETATM    6  C6  UNL     1     -33.869   5.834   4.818  1.00 20.00     0.038 A 
HETATM    7  C7  UNL     1     -32.611   6.972   2.619  1.00 20.00     0.074 A 
HETATM    8  N8  UNL     1     -33.834   7.839   6.047  1.00 20.00    -0.253 NA
HETATM    9  F9  UNL     1     -32.722   4.878   1.512  1.00 20.00    -0.204 F 
HETATM   10  S10 UNL     1     -34.625   5.398   6.304  1.00 20.00    -0.080 SA
HETATM   11 CL11 UNL     1     -31.830   7.681   1.256  1.00 20.00    -0.081 Cl
ENDROOT
TORSDOF 0
ENDMDL
MODEL 9
REMARK VINA RESULT:      -3.7     12.746     13.717
REMARK  0 active torsions:
REMARK  status: ('A' for Active; 'I' for Inactive)
ROOT
HETATM    1  C1  UNL     1     -34.976  17.099  -4.451  1.00 20.00     0.060 A 
HETATM    2  C2  UNL     1     -34.043  14.878  -5.913  1.00 20.00     0.065 A 
HETATM    3  C3  UNL     1     -36.814  16.973  -7.505  1.00 20.00     0.167 A 
HETATM    4  C4  UNL     1     -35.537  16.809  -5.715  1.00 20.00     0.076 A 
HETATM    5  C5  UNL     1     -33.506  15.187  -4.661  1.00 20.00     0.139 A 
HETATM    6  C6  UNL     1     -35.059  15.703  -6.423  1.00 20.00     0.038 A 
HETATM    7  C7  UNL     1     -33.965  16.282  -3.938  1.00 20.00     0.074 A 
HETATM    8  N8  UNL     1     -36.541  17.527  -6.348  1.00 20.00    -0.253 NA
HETATM    9  F9  UNL     1     -32.535  14.404  -4.166  1.00 20.00    -0.204 F 
HETATM   10  S10 UNL     1     -35.909  15.582  -7.918  1.00 20.00    -0.080 SA
HETATM   11 CL11 UNL     1     -33.287  16.644  -2.395  1.00 20.00    -0.081 Cl
ENDROOT
TORSDOF 0
ENDMDL
