MODEL 1
REMARK VINA RESULT:      -4.9      0.000      0.000
REMARK  0 active torsions:
REMARK  status: ('A' for Active; 'I' for Inactive)
ROOT
HETATM    1  C1  UNL     1     -32.853   8.513   4.861  1.00 20.00     0.035 A 
HETATM    2  C2  UNL     1     -32.310   8.748   3.594  1.00 20.00     0.026 A 
HETATM    3  C3  UNL     1     -33.040   6.565   2.834  1.00 20.00     0.045 A 
HETATM    4  C4  UNL     1     -33.503   7.288   5.127  1.00 20.00     0.077 A 
HETATM    5  C5  UNL     1     -33.584   6.336   4.108  1.00 20.00     0.039 A 
HETATM    6  C6  UNL     1     -32.403   7.785   2.596  1.00 20.00     0.035 A 
HETATM    7  C7  UNL     1     -34.597   5.712   6.218  1.00 20.00     0.253 A 
HETATM    8  N8  UNL     1     -34.087   6.917   6.330  1.00 20.00    -0.213 NA
HETATM    9  F9  UNL     1     -35.222   5.113   7.241  1.00 20.00    -0.176 F 
HETATM   10  S10 UNL     1     -34.420   4.948   4.698  1.00 20.00    -0.037 SA
HETATM   11 CL11 UNL     1     -31.727   8.099   1.042  1.00 20.00    -0.084 Cl
ENDROOT
TORSDOF 0
ENDMDL
MODEL 2
REMARK VINA RESULT:      -4.1     12.573     13.394
REMARK  0 active torsions:
REMARK  status: ('A' for Active; 'I' for Inactive)
ROOT
HETATM    1  C1  UNL     1     -34.948  18.369  -3.747  1.00 20.00     0.035 A 
HETATM    2  C2  UNL     1     -34.643  18.678  -2.418  1.00 20.00     0.026 A 
HETATM    3  C3  UNL     1     -33.436  16.590  -2.169  1.00 20.00     0.045 A 
HETATM    4  C4  UNL     1     -34.494  17.154  -4.305  1.00 20.00     0.077 A 
HETATM    5  C5  UNL     1     -33.745  16.286  -3.505  1.00 20.00     0.039 A 
HETATM    6  C6  UNL     1     -33.897  17.798  -1.642  1.00 20.00     0.035 A 
HETATM    7  C7  UNL     1     -34.150  15.544  -5.775  1.00 20.00     0.253 A 
HETATM    8  N8  UNL     1     -34.718  16.716  -5.603  1.00 20.00    -0.213 NA
HETATM    9  F9  UNL     1     -34.216  14.895  -6.946  1.00 20.00    -0.176 F 
HETATM   10  S10 UNL     1     -33.323  14.892  -4.427  1.00 20.00    -0.037 SA
HETATM   11 CL11 UNL     1     -33.533  18.203  -0.006  1.00 20.00    -0.084 Cl
ENDROOT
TORSDOF 0
ENDMDL
MODEL 3
REMARK VINA RESULT:      -4.1      1.333      2.066
REMARK  0 active torsions:
REMARK  status: ('A' for Active; 'I' for Inactive)
ROOT
HETATM    1  C1  UNL     1     -33.414   5.057   2.887  1.00 20.00     0.035 A 
HETATM    2  C2  UNL     1     -32.756   5.923   2.007  1.00 20.00     0.026 A 
HETATM    3  C3  UNL     1     -32.858   7.717   3.635  1.00 20.00     0.045 A 
HETATM    4  C4  UNL     1     -33.802   5.520   4.163  1.00 20.00     0.077 A 
HETATM    5  C5  UNL     1     -33.517   6.842   4.514  1.00 20.00     0.039 A 
HETATM    6  C6  UNL     1     -32.483   7.235   2.379  1.00 20.00     0.035 A 
HETATM    7  C7  UNL     1     -34.661   5.528   6.196  1.00 20.00     0.253 A 
HETATM    8  N8  UNL     1     -34.458   4.779   5.136  1.00 20.00    -0.213 NA
HETATM    9  F9  UNL     1     -35.279   5.052   7.287  1.00 20.00    -0.176 F 
HETATM   10  S10 UNL     1     -34.096   7.139   6.111  1.00 20.00    -0.037 SA
HETATM   11 CL11 UNL     1     -31.670   8.281   1.278  1.00 20.00    -0.084 Cl
ENDROOT
TORSDOF 0
ENDMDL
MODEL 4
REMARK VINA RESULT:      -3.9     12.717     12.851
REMARK  0 active torsions:
REMARK  status: ('A' for Active; 'I' for Inactive)
ROOT
HETATM    1  C1  UNL     1     -31.083  18.377  -0.414  1.00 20.00     0.035 A 
HETATM    2  C2  UNL     1     -32.299  18.452  -1.100  1.00 20.00     0.026 A 
HETATM    3  C3  UNL     1     -33.456  19.064   0.941  1.00 20.00     0.045 A 
HETATM    4  C4  UNL     1     -31.043  18.647   0.971  1.00 20.00     0.077 A 
HETATM    5  C5  UNL     1     -32.232  18.986   1.624  1.00 20.00     0.039 A 
HETATM    6  C6  UNL     1     -33.468  18.792  -0.429  1.00 20.00     0.035 A 
HETATM    7  C7  UNL     1     -30.248  18.917   3.012  1.00 20.00     0.253 A 
HETATM    8  N8  UNL     1     -29.915  18.612   1.779  1.00 20.00    -0.213 NA
HETATM    9  F9  UNL     1     -29.340  18.956   3.998  1.00 20.00    -0.176 F 
HETATM   10  S10 UNL     1     -31.899  19.263   3.293  1.00 20.00    -0.037 SA
HETATM   11 CL11 UNL     1     -34.954  18.881  -1.297  1.00 20.00    -0.084 Cl
ENDROOT
TORSDOF 0
ENDMDL
MODEL 5
REMARK VINA RESULT:      -3.9     12.538     13.218
REMARK  0 active torsions:
REMARK  status: ('A' for Active; 'I' for Inactive)
ROOT
HETATM    1  C1  UNL     1     -33.375  15.088  -4.148  1.00 20.00     0.035 A 
HETATM    2  C2  UNL     1     -33.776  14.932  -5.479  1.00 20.00     0.026 A 
HETATM    3  C3  UNL     1     -34.856  17.102  -5.448  1.00 20.00     0.045 A 
HETATM    4  C4  UNL     1     -33.715  16.266  -3.449  1.00 20.00     0.077 A 
HETATM    5  C5  UNL     1     -34.450  17.253  -4.113  1.00 20.00     0.039 A 
HETATM    6  C6  UNL     1     -34.506  15.927  -6.118  1.00 20.00     0.035 A 
HETATM    7  C7  UNL     1     -33.866  17.741  -1.814  1.00 20.00     0.253 A 
HETATM    8  N8  UNL     1     -33.388  16.560  -2.133  1.00 20.00    -0.213 NA
HETATM    9  F9  UNL     1     -33.689  18.265  -0.593  1.00 20.00    -0.176 F 
HETATM   10  S10 UNL     1     -34.724  18.572  -3.037  1.00 20.00    -0.037 SA
HETATM   11 CL11 UNL     1     -34.987  15.712  -7.759  1.00 20.00    -0.084 Cl
ENDROOT
TORSDOF 0
ENDMDL
MODEL 6
REMARK VINA RESULT:      -3.9     13.091     13.877
REMARK  0 active torsions:
REMARK  status: ('A' for Active; 'I' for Inactive)
ROOT
HETATM    1  C1  UNL     1     -33.347  15.818  -3.451  1.00 20.00     0.035 A 
HETATM    2  C2  UNL     1     -33.418  16.723  -2.387  1.00 20.00     0.026 A 
HETATM    3  C3  UNL     1     -34.949  18.129  -3.636  1.00 20.00     0.045 A 
HETATM    4  C4  UNL     1     -34.085  16.063  -4.629  1.00 20.00     0.077 A 
HETATM    5  C5  UNL     1     -34.874  17.216  -4.699  1.00 20.00     0.039 A 
HETATM    6  C6  UNL     1     -34.209  17.863  -2.481  1.00 20.00     0.035 A 
HETATM    7  C7  UNL     1     -34.905  15.793  -6.659  1.00 20.00     0.253 A 
HETATM    8  N8  UNL     1     -34.113  15.258  -5.759  1.00 20.00    -0.213 NA
HETATM    9  F9  UNL     1     -35.110  15.213  -7.851  1.00 20.00    -0.176 F 
HETATM   10  S10 UNL     1     -35.660  17.267  -6.233  1.00 20.00    -0.037 SA
HETATM   11 CL11 UNL     1     -34.282  18.962  -1.156  1.00 20.00    -0.084 Cl
ENDROOT
TORSDOF 0
ENDMDL
MODEL 7
REMARK VINA RESULT:      -3.7     13.122     13.970
REMARK  0 active torsions:
REMARK  status: ('A' for Active; 'I' for Inactive)
ROOT
HETATM    1  C1  UNL     1     -33.804  14.955  -4.767  1.00 20.00     0.035 A 
HETATM    2  C2  UNL     1     -33.152  15.524  -3.669  1.00 20.00     0.026 A 
HETATM    3  C3  UNL     1     -34.499  17.531  -3.862  1.00 20.00     0.045 A 
HETATM    4  C4  UNL     1     -34.821  15.677  -5.429  1.00 20.00     0.077 A 
HETATM    5  C5  UNL     1     -35.150  16.953  -4.963  1.00 20.00     0.039 A 
HETATM    6  C6  UNL     1     -33.497  16.795  -3.224  1.00 20.00     0.035 A 
HETATM    7  C7  UNL     1     -36.411  16.171  -6.877  1.00 20.00     0.253 A 
HETATM    8  N8  UNL     1     -35.551  15.242  -6.526  1.00 20.00    -0.213 NA
HETATM    9  F9  UNL     1     -37.244  16.003  -7.915  1.00 20.00    -0.176 F 
HETATM   10  S10 UNL     1     -36.411  17.603  -5.943  1.00 20.00    -0.037 SA
HETATM   11 CL11 UNL     1     -32.681  17.475  -1.867  1.00 20.00    -0.084 Cl
ENDROOT
TORSDOF 0
ENDMDL
MODEL 8
REMARK VINA RESULT:      -3.7     12.775     12.880
REMARK  0 active torsions:
REMARK  status: ('A' for Active; 'I' for Inactive)
ROOT
HETATM    1  C1  UNL     1     -33.023  19.260   2.272  1.00 20.00     0.035 A 
HETATM    2  C2  UNL     1     -31.749  19.241   2.846  1.00 20.00     0.026 A 
HETATM    3  C3  UNL     1     -30.775  18.495   0.755  1.00 20.00     0.045 A 
HETATM    4  C4  UNL     1     -33.186  18.893   0.918  1.00 20.00     0.077 A 
HETATM    5  C5  UNL     1     -32.058  18.517   0.184  1.00 20.00     0.039 A 
HETATM    6  C6  UNL     1     -30.641  18.863   2.096  1.00 20.00     0.035 A 
HETATM    7  C7  UNL     1     -34.160  18.476  -1.017  1.00 20.00     0.253 A 
HETATM    8  N8  UNL     1     -34.384  18.864   0.217  1.00 20.00    -0.213 NA
HETATM    9  F9  UNL     1     -35.154  18.362  -1.910  1.00 20.00    -0.176 F 
HETATM   10  S10 UNL     1     -32.538  18.122  -1.424  1.00 20.00    -0.037 SA
HETATM   11 CL11 UNL     1     -29.080  18.850   2.826  1.00 20.00    -0.084 Cl
ENDROOT
TORSDOF 0
ENDMDL
MODEL 9
REMARK VINA RESULT:      -3.7     12.989     13.317
REMARK  0 active torsions:
REMARK  status: ('A' for Active; 'I' for Inactive)
ROOT
HETATM    1  C1  UNL     1     -31.070  18.231  -0.057  1.00 20.00     0.035 A 
HETATM    2  C2  UNL     1     -30.868  18.470   1.306  1.00 20.00     0.026 A 
HETATM    3  C3  UNL     1     -33.148  19.261   1.544  1.00 20.00     0.045 A 
HETATM    4  C4  UNL     1     -32.327  18.508  -0.637  1.00 20.00     0.077 A 
HETATM    5  C5  UNL     1     -33.344  19.018   0.175  1.00 20.00     0.039 A 
HETATM    6  C6  UNL     1     -31.895  18.978   2.094  1.00 20.00     0.035 A 
HETATM    7  C7  UNL     1     -33.920  18.684  -2.153  1.00 20.00     0.253 A 
HETATM    8  N8  UNL     1     -32.672  18.322  -1.968  1.00 20.00    -0.213 NA
HETATM    9  F9  UNL     1     -34.506  18.605  -3.357  1.00 20.00    -0.176 F 
HETATM   10  S10 UNL     1     -34.759  19.262  -0.780  1.00 20.00    -0.037 SA
HETATM   11 CL11 UNL     1     -31.623  19.262   3.772  1.00 20.00    -0.084 Cl
ENDROOT
TORSDOF 0
ENDMDL
