MODEL 1
REMARK VINA RESULT:      -4.5      0.000      0.000
REMARK  0 active torsions:
REMARK  status: ('A' for Active; 'I' for Inactive)
ROOT
HETATM    1  C1  UNL     1     -33.091   6.125   2.726  1.00 20.00     0.042 C 
HETATM    2  C2  UNL     1     -34.449   4.632   6.001  1.00 20.00    -0.026 A 
HETATM    3  C3  UNL     1     -34.643   5.739   6.729  1.00 20.00    -0.026 A 
HETATM    4  C4  UNL     1     -33.569   6.032   4.098  1.00 20.00    -0.050 A 
HETATM    5  C5  UNL     1     -33.763   7.154   4.830  1.00 20.00    -0.067 A 
HETATM    6  C6  UNL     1     -32.552   7.268   2.286  1.00 20.00     0.079 C 
HETATM    7  C7  UNL     1     -33.895   4.652   4.607  1.00 20.00     0.065 A 
HETATM    8  C8  UNL     1     -34.325   7.117   6.230  1.00 20.00     0.061 A 
HETATM    9  C9  UNL     1     -33.433   8.529   4.276  1.00 20.00     0.074 C 
HETATM   10  C10 UNL     1     -32.118   8.958   0.967  1.00 20.00     0.345 C 
HETATM   11  C11 UNL     1     -32.407   8.470   3.142  1.00 20.00     0.184 C 
HETATM   12  O12 UNL     1     -32.242   7.528   0.972  1.00 20.00    -0.328 OA
HETATM   13  O13 UNL     1     -32.575   9.526   2.203  1.00 20.00    -0.354 OA
ENDROOT
TORSDOF 0
ENDMDL
MODEL 2
REMARK VINA RESULT:      -4.5     11.684     13.074
REMARK  0 active torsions:
REMARK  status: ('A' for Active; 'I' for Inactive)
ROOT
HETATM    1  C1  UNL     1     -35.017  17.956  -4.839  1.00 20.00     0.042 C 
HETATM    2  C2  UNL     1     -34.691  19.262  -1.235  1.00 20.00    -0.026 A 
HETATM    3  C3  UNL     1     -33.927  18.311  -0.683  1.00 20.00    -0.026 A 
HETATM    4  C4  UNL     1     -34.667  18.016  -3.428  1.00 20.00    -0.050 A 
HETATM    5  C5  UNL     1     -33.896  17.052  -2.874  1.00 20.00    -0.067 A 
HETATM    6  C6  UNL     1     -34.849  16.815  -5.517  1.00 20.00     0.079 C 
HETATM    7  C7  UNL     1     -35.144  19.225  -2.665  1.00 20.00     0.065 A 
HETATM    8  C8  UNL     1     -33.444  17.105  -1.435  1.00 20.00     0.061 A 
HETATM    9  C9  UNL     1     -33.426  15.854  -3.680  1.00 20.00     0.074 C 
HETATM   10  C10 UNL     1     -34.294  15.453  -7.136  1.00 20.00     0.345 C 
HETATM   11  C11 UNL     1     -34.318  15.579  -4.892  1.00 20.00     0.184 C 
HETATM   12  O12 UNL     1     -34.967  16.695  -6.882  1.00 20.00    -0.328 OA
HETATM   13  O13 UNL     1     -33.603  14.985  -5.969  1.00 20.00    -0.354 OA
ENDROOT
TORSDOF 0
ENDMDL
MODEL 3
REMARK VINA RESULT:      -4.4     11.580     13.215
REMARK  0 active torsions:
REMARK  status: ('A' for Active; 'I' for Inactive)
ROOT
HETATM    1  C1  UNL     1     -35.239  18.242  -3.614  1.00 20.00     0.042 C 
HETATM    2  C2  UNL     1     -34.890  16.080  -6.776  1.00 20.00    -0.026 A 
HETATM    3  C3  UNL     1     -34.047  15.131  -6.349  1.00 20.00    -0.026 A 
HETATM    4  C4  UNL     1     -34.777  17.203  -4.521  1.00 20.00    -0.050 A 
HETATM    5  C5  UNL     1     -33.924  16.246  -4.085  1.00 20.00    -0.067 A 
HETATM    6  C6  UNL     1     -34.600  18.446  -2.456  1.00 20.00     0.079 C 
HETATM    7  C7  UNL     1     -35.352  17.218  -5.913  1.00 20.00     0.065 A 
HETATM    8  C8  UNL     1     -33.472  15.106  -4.964  1.00 20.00     0.061 A 
HETATM    9  C9  UNL     1     -33.375  16.260  -2.669  1.00 20.00     0.074 C 
HETATM   10  C10 UNL     1     -34.286  18.813  -0.322  1.00 20.00     0.345 C 
HETATM   11  C11 UNL     1     -33.417  17.654  -2.040  1.00 20.00     0.184 C 
HETATM   12  O12 UNL     1     -35.055  19.263  -1.448  1.00 20.00    -0.328 OA
HETATM   13  O13 UNL     1     -33.572  17.607  -0.627  1.00 20.00    -0.354 OA
ENDROOT
TORSDOF 0
ENDMDL
MODEL 4
REMARK VINA RESULT:      -4.4     12.112     12.455
REMARK  0 active torsions:
REMARK  status: ('A' for Active; 'I' for Inactive)
ROOT
HETATM    1  C1  UNL     1     -33.817  18.960   0.679  1.00 20.00     0.042 C 
HETATM    2  C2  UNL     1     -31.453  19.263   3.698  1.00 20.00    -0.026 A 
HETATM    3  C3  UNL     1     -30.272  18.983   3.131  1.00 20.00    -0.026 A 
HETATM    4  C4  UNL     1     -32.605  18.911   1.483  1.00 20.00    -0.050 A 
HETATM    5  C5  UNL     1     -31.414  18.627   0.906  1.00 20.00    -0.067 A 
HETATM    6  C6  UNL     1     -33.821  18.429  -0.550  1.00 20.00     0.079 C 
HETATM    7  C7  UNL     1     -32.748  19.262   2.941  1.00 20.00     0.065 A 
HETATM    8  C8  UNL     1     -30.119  18.636   1.680  1.00 20.00     0.061 A 
HETATM    9  C9  UNL     1     -31.310  18.290  -0.571  1.00 20.00     0.074 C 
HETATM   10  C10 UNL     1     -34.199  18.222  -2.694  1.00 20.00     0.345 C 
HETATM   11  C11 UNL     1     -32.632  17.776  -1.147  1.00 20.00     0.184 C 
HETATM   12  O12 UNL     1     -34.840  18.581  -1.460  1.00 20.00    -0.328 OA
HETATM   13  O13 UNL     1     -32.781  18.090  -2.526  1.00 20.00    -0.354 OA
ENDROOT
TORSDOF 0
ENDMDL
MODEL 5
REMARK VINA RESULT:      -4.4     11.829     13.276
REMARK  0 active torsions:
REMARK  status: ('A' for Active; 'I' for Inactive)
ROOT
HETATM    1  C1  UNL     1     -33.908  15.701  -4.673  1.00 20.00     0.042 C 
HETATM    2  C2  UNL     1     -33.609  17.624  -1.354  1.00 20.00    -0.026 A 
HETATM    3  C3  UNL     1     -34.443  18.649  -1.573  1.00 20.00    -0.026 A 
HETATM    4  C4  UNL     1     -34.078  16.741  -3.669  1.00 20.00    -0.050 A 
HETATM    5  C5  UNL     1     -34.921  17.776  -3.896  1.00 20.00    -0.067 A 
HETATM    6  C6  UNL     1     -34.328  15.911  -5.926  1.00 20.00     0.079 C 
HETATM    7  C7  UNL     1     -33.336  16.555  -2.372  1.00 20.00     0.065 A 
HETATM    8  C8  UNL     1     -35.190  18.840  -2.860  1.00 20.00     0.061 A 
HETATM    9  C9  UNL     1     -35.662  17.921  -5.214  1.00 20.00     0.074 C 
HETATM   10  C10 UNL     1     -35.271  15.536  -7.864  1.00 20.00     0.345 C 
HETATM   11  C11 UNL     1     -34.969  17.176  -6.357  1.00 20.00     0.184 C 
HETATM   12  O12 UNL     1     -34.389  14.942  -6.900  1.00 20.00    -0.328 OA
HETATM   13  O13 UNL     1     -35.887  16.724  -7.345  1.00 20.00    -0.354 OA
ENDROOT
TORSDOF 0
ENDMDL
MODEL 6
REMARK VINA RESULT:      -4.4     12.303     13.082
REMARK  0 active torsions:
REMARK  status: ('A' for Active; 'I' for Inactive)
ROOT
HETATM    1  C1  UNL     1     -33.388  19.177   1.541  1.00 20.00     0.042 C 
HETATM    2  C2  UNL     1     -34.996  19.056  -1.951  1.00 20.00    -0.026 A 
HETATM    3  C3  UNL     1     -33.944  18.722  -2.709  1.00 20.00    -0.026 A 
HETATM    4  C4  UNL     1     -33.526  19.060   0.097  1.00 20.00    -0.050 A 
HETATM    5  C5  UNL     1     -32.459  18.724  -0.665  1.00 20.00    -0.067 A 
HETATM    6  C6  UNL     1     -32.170  19.260   2.088  1.00 20.00     0.079 C 
HETATM    7  C7  UNL     1     -34.908  19.259  -0.467  1.00 20.00     0.065 A 
HETATM    8  C8  UNL     1     -32.564  18.518  -2.156  1.00 20.00     0.061 A 
HETATM    9  C9  UNL     1     -31.083  18.520  -0.055  1.00 20.00     0.074 C 
HETATM   10  C10 UNL     1     -30.509  18.895   3.465  1.00 20.00     0.345 C 
HETATM   11  C11 UNL     1     -30.925  19.244   1.284  1.00 20.00     0.184 C 
HETATM   12  O12 UNL     1     -31.915  19.185   3.438  1.00 20.00    -0.328 OA
HETATM   13  O13 UNL     1     -30.016  18.581   2.154  1.00 20.00    -0.354 OA
ENDROOT
TORSDOF 0
ENDMDL
MODEL 7
REMARK VINA RESULT:      -4.3     11.648     13.100
REMARK  0 active torsions:
REMARK  status: ('A' for Active; 'I' for Inactive)
ROOT
HETATM    1  C1  UNL     1     -33.288  16.253  -2.857  1.00 20.00     0.042 C 
HETATM    2  C2  UNL     1     -34.086  15.024  -6.414  1.00 20.00    -0.026 A 
HETATM    3  C3  UNL     1     -34.822  16.041  -6.880  1.00 20.00    -0.026 A 
HETATM    4  C4  UNL     1     -33.863  16.197  -4.192  1.00 20.00    -0.050 A 
HETATM    5  C5  UNL     1     -34.607  17.227  -4.659  1.00 20.00    -0.067 A 
HETATM    6  C6  UNL     1     -33.736  17.158  -1.978  1.00 20.00     0.079 C 
HETATM    7  C7  UNL     1     -33.522  14.987  -5.023  1.00 20.00     0.065 A 
HETATM    8  C8  UNL     1     -35.163  17.251  -6.062  1.00 20.00     0.061 A 
HETATM    9  C9  UNL     1     -34.919  18.435  -3.794  1.00 20.00     0.074 C 
HETATM   10  C10 UNL     1     -33.709  18.701  -0.428  1.00 20.00     0.345 C 
HETATM   11  C11 UNL     1     -34.813  18.125  -2.299  1.00 20.00     0.184 C 
HETATM   12  O12 UNL     1     -33.146  17.424  -0.765  1.00 20.00    -0.328 OA
HETATM   13  O13 UNL     1     -34.430  19.262  -1.535  1.00 20.00    -0.354 OA
ENDROOT
TORSDOF 0
ENDMDL
MODEL 8
REMARK VINA RESULT:      -4.2     12.526     12.980
REMARK  0 active torsions:
REMARK  status: ('A' for Active; 'I' for Inactive)
ROOT
HETATM    1  C1  UNL     1     -34.807  19.116  -0.553  1.00 20.00     0.042 C 
HETATM    2  C2  UNL     1     -32.040  19.144   2.119  1.00 20.00    -0.026 A 
HETATM    3  C3  UNL     1     -30.972  18.800   1.389  1.00 20.00    -0.026 A 
HETATM    4  C4  UNL     1     -33.505  18.953   0.075  1.00 20.00    -0.050 A 
HETATM    5  C5  UNL     1     -32.428  18.604  -0.667  1.00 20.00    -0.067 A 
HETATM    6  C6  UNL     1     -35.018  18.630  -1.782  1.00 20.00     0.079 C 
HETATM    7  C7  UNL     1     -33.423  19.263   1.547  1.00 20.00     0.065 A 
HETATM    8  C8  UNL     1     -31.043  18.494  -0.078  1.00 20.00     0.061 A 
HETATM    9  C9  UNL     1     -32.550  18.312  -2.152  1.00 20.00     0.074 C 
HETATM   10  C10 UNL     1     -35.697  18.526  -3.859  1.00 20.00     0.345 C 
HETATM   11  C11 UNL     1     -33.973  17.915  -2.553  1.00 20.00     0.184 C 
HETATM   12  O12 UNL     1     -36.136  18.887  -2.540  1.00 20.00    -0.328 OA
HETATM   13  O13 UNL     1     -34.282  18.286  -3.891  1.00 20.00    -0.354 OA
ENDROOT
TORSDOF 0
ENDMDL
MODEL 9
REMARK VINA RESULT:      -3.9     12.093     13.580
REMARK  0 active torsions:
REMARK  status: ('A' for Active; 'I' for Inactive)
ROOT
HETATM    1  C1  UNL     1     -36.144  17.976  -4.973  1.00 20.00     0.042 C 
HETATM    2  C2  UNL     1     -34.101  18.236  -1.724  1.00 20.00    -0.026 A 
HETATM    3  C3  UNL     1     -33.263  17.200  -1.862  1.00 20.00    -0.026 A 
HETATM    4  C4  UNL     1     -35.190  17.654  -3.923  1.00 20.00    -0.050 A 
HETATM    5  C5  UNL     1     -34.345  16.605  -4.066  1.00 20.00    -0.067 A 
HETATM    6  C6  UNL     1     -36.409  17.078  -5.929  1.00 20.00     0.079 C 
HETATM    7  C7  UNL     1     -35.153  18.582  -2.736  1.00 20.00     0.065 A 
HETATM    8  C8  UNL     1     -33.289  16.273  -3.041  1.00 20.00     0.061 A 
HETATM    9  C9  UNL     1     -34.406  15.700  -5.284  1.00 20.00     0.074 C 
HETATM   10  C10 UNL     1     -36.777  16.246  -7.918  1.00 20.00     0.345 C 
HETATM   11  C11 UNL     1     -35.772  15.740  -5.973  1.00 20.00     0.184 C 
HETATM   12  O12 UNL     1     -37.142  17.339  -7.062  1.00 20.00    -0.328 OA
HETATM   13  O13 UNL     1     -35.680  15.500  -7.372  1.00 20.00    -0.354 OA
ENDROOT
TORSDOF 0
ENDMDL
