MODEL 1
REMARK VINA RESULT:      -4.0      0.000      0.000
REMARK  1 active torsions:
REMARK  status: ('A' for Active; 'I' for Inactive)
REMARK    1  A    between atoms: C6_6  and  N7_7 
ROOT
HETATM    1  C1  UNL     1     -33.004   8.153   4.881  1.00 20.00     0.015 C 
HETATM    2  C2  UNL     1     -33.662   7.150   4.933  1.00 20.00    -0.084 C 
HETATM    3  C4  UNL     1     -34.710   5.507   6.448  1.00 20.00     0.055 C 
HETATM    4  C5  UNL     1     -35.792   6.096   4.254  1.00 20.00     0.055 C 
HETATM    5  C6  UNL     1     -34.472   5.923   5.000  1.00 20.00     0.112 C 
ENDROOT
BRANCH   5   6
HETATM    6  N7  UNL     1     -33.688   4.870   4.343  1.00 20.00    -0.224 NA
HETATM    7  C3  UNL     1     -33.312   5.150   3.268  1.00 20.00     0.333 C 
HETATM    8  O8  UNL     1     -32.933   5.425   2.190  1.00 20.00    -0.260 OA
ENDBRANCH   5   6
TORSDOF 1
ENDMDL
MODEL 2
REMARK VINA RESULT:      -3.9      1.610      2.699
REMARK  1 active torsions:
REMARK  status: ('A' for Active; 'I' for Inactive)
REMARK    1  A    between atoms: C6_6  and  N7_7 
ROOT
HETATM    1  C1  UNL     1     -32.889   5.079   2.674  1.00 20.00     0.015 C 
HETATM    2  C2  UNL     1     -33.537   5.477   3.604  1.00 20.00    -0.084 C 
HETATM    3  C4  UNL     1     -35.724   6.397   4.287  1.00 20.00     0.055 C 
HETATM    4  C5  UNL     1     -34.425   4.901   5.838  1.00 20.00     0.055 C 
HETATM    5  C6  UNL     1     -34.334   5.960   4.742  1.00 20.00     0.112 C 
ENDROOT
BRANCH   5   6
HETATM    6  N7  UNL     1     -33.635   7.136   5.273  1.00 20.00    -0.224 NA
HETATM    7  C3  UNL     1     -33.232   7.868   4.450  1.00 20.00     0.333 C 
HETATM    8  O8  UNL     1     -32.826   8.605   3.629  1.00 20.00    -0.260 OA
ENDBRANCH   5   6
TORSDOF 1
ENDMDL
MODEL 3
REMARK VINA RESULT:      -3.7     16.242     17.131
REMARK  1 active torsions:
REMARK  status: ('A' for Active; 'I' for Inactive)
REMARK    1  A    between atoms: C6_6  and  N7_7 
ROOT
HETATM    1  C1  UNL     1     -22.167  17.298   8.987  1.00 20.00     0.015 C 
HETATM    2  C2  UNL     1     -22.883  17.484   9.934  1.00 20.00    -0.084 C 
HETATM    3  C4  UNL     1     -24.440  16.412  11.522  1.00 20.00     0.055 C 
HETATM    4  C5  UNL     1     -22.979  18.326  12.256  1.00 20.00     0.055 C 
HETATM    5  C6  UNL     1     -23.756  17.709  11.096  1.00 20.00     0.112 C 
ENDROOT
BRANCH   5   6
HETATM    6  N7  UNL     1     -24.794  18.652  10.662  1.00 20.00    -0.224 NA
HETATM    7  C3  UNL     1     -25.568  18.932  11.497  1.00 20.00     0.333 C 
HETATM    8  O8  UNL     1     -26.347  19.216  12.331  1.00 20.00    -0.260 OA
ENDBRANCH   5   6
TORSDOF 1
ENDMDL
MODEL 4
REMARK VINA RESULT:      -3.7     13.004     13.752
REMARK  1 active torsions:
REMARK  status: ('A' for Active; 'I' for Inactive)
REMARK    1  A    between atoms: C6_6  and  N7_7 
ROOT
HETATM    1  C1  UNL     1     -33.292  16.261  -3.049  1.00 20.00     0.015 C 
HETATM    2  C2  UNL     1     -33.503  17.164  -2.284  1.00 20.00    -0.084 C 
HETATM    3  C4  UNL     1     -35.049  19.003  -1.718  1.00 20.00     0.055 C 
HETATM    4  C5  UNL     1     -33.816  17.764   0.093  1.00 20.00     0.055 C 
HETATM    5  C6  UNL     1     -33.764  18.268  -1.347  1.00 20.00     0.112 C 
ENDROOT
BRANCH   5   6
HETATM    6  N7  UNL     1     -32.643  19.206  -1.483  1.00 20.00    -0.224 NA
HETATM    7  C3  UNL     1     -31.658  18.858  -0.951  1.00 20.00     0.333 C 
HETATM    8  O8  UNL     1     -30.668  18.514  -0.418  1.00 20.00    -0.260 OA
ENDBRANCH   5   6
TORSDOF 1
ENDMDL
MODEL 5
REMARK VINA RESULT:      -3.7     16.087     17.065
REMARK  1 active torsions:
REMARK  status: ('A' for Active; 'I' for Inactive)
REMARK    1  A    between atoms: C6_6  and  N7_7 
ROOT
HETATM    1  C1  UNL     1     -24.414  16.423  11.419  1.00 20.00     0.015 C 
HETATM    2  C2  UNL     1     -23.719  17.080  10.691  1.00 20.00    -0.084 C 
HETATM    3  C4  UNL     1     -23.708  18.884   9.006  1.00 20.00     0.055 C 
HETATM    4  C5  UNL     1     -21.774  18.602  10.592  1.00 20.00     0.055 C 
HETATM    5  C6  UNL     1     -22.870  17.888   9.804  1.00 20.00     0.112 C 
ENDROOT
BRANCH   5   6
HETATM    6  N7  UNL     1     -22.245  16.954   8.859  1.00 20.00    -0.224 NA
HETATM    7  C3  UNL     1     -21.835  17.460   7.884  1.00 20.00     0.333 C 
HETATM    8  O8  UNL     1     -21.421  17.962   6.904  1.00 20.00    -0.260 OA
ENDBRANCH   5   6
TORSDOF 1
ENDMDL
MODEL 6
REMARK VINA RESULT:      -3.6      9.242     10.029
REMARK  1 active torsions:
REMARK  status: ('A' for Active; 'I' for Inactive)
REMARK    1  A    between atoms: C6_6  and  N7_7 
ROOT
HETATM    1  C1  UNL     1     -43.417  12.092   7.457  1.00 20.00     0.015 C 
HETATM    2  C2  UNL     1     -42.376  12.484   7.005  1.00 20.00    -0.084 C 
HETATM    3  C4  UNL     1     -41.309  13.592   5.074  1.00 20.00     0.055 C 
HETATM    4  C5  UNL     1     -40.428  13.953   7.403  1.00 20.00     0.055 C 
HETATM    5  C6  UNL     1     -41.102  12.968   6.451  1.00 20.00     0.112 C 
ENDROOT
BRANCH   5   6
HETATM    6  N7  UNL     1     -40.239  11.790   6.295  1.00 20.00    -0.224 NA
HETATM    7  C3  UNL     1     -39.223  12.008   5.753  1.00 20.00     0.333 C 
HETATM    8  O8  UNL     1     -38.202  12.219   5.209  1.00 20.00    -0.260 OA
ENDBRANCH   5   6
TORSDOF 1
ENDMDL
MODEL 7
REMARK VINA RESULT:      -3.6     10.049     10.734
REMARK  1 active torsions:
REMARK  status: ('A' for Active; 'I' for Inactive)
REMARK    1  A    between atoms: C6_6  and  N7_7 
ROOT
HETATM    1  C1  UNL     1     -39.296  11.863   5.211  1.00 20.00     0.015 C 
HETATM    2  C2  UNL     1     -40.205  12.569   5.554  1.00 20.00    -0.084 C 
HETATM    3  C4  UNL     1     -41.971  14.103   4.767  1.00 20.00     0.055 C 
HETATM    4  C5  UNL     1     -42.348  12.645   6.783  1.00 20.00     0.055 C 
HETATM    5  C6  UNL     1     -41.321  13.431   5.973  1.00 20.00     0.112 C 
ENDROOT
BRANCH   5   6
HETATM    6  N7  UNL     1     -40.743  14.478   6.824  1.00 20.00    -0.224 NA
HETATM    7  C3  UNL     1     -40.465  14.119   7.906  1.00 20.00     0.333 C 
HETATM    8  O8  UNL     1     -40.184  13.765   8.991  1.00 20.00    -0.260 OA
ENDBRANCH   5   6
TORSDOF 1
ENDMDL
MODEL 8
REMARK VINA RESULT:      -3.5     16.647     17.362
REMARK  1 active torsions:
REMARK  status: ('A' for Active; 'I' for Inactive)
REMARK    1  A    between atoms: C6_6  and  N7_7 
ROOT
HETATM    1  C1  UNL     1     -24.686  19.258   9.222  1.00 20.00     0.015 C 
HETATM    2  C2  UNL     1     -24.644  18.674  10.271  1.00 20.00    -0.084 C 
HETATM    3  C4  UNL     1     -25.898  18.142  12.330  1.00 20.00     0.055 C 
HETATM    4  C5  UNL     1     -24.290  16.476  11.345  1.00 20.00     0.055 C 
HETATM    5  C6  UNL     1     -24.597  17.956  11.554  1.00 20.00     0.112 C 
ENDROOT
BRANCH   5   6
HETATM    6  N7  UNL     1     -23.509  18.562  12.332  1.00 20.00    -0.224 NA
HETATM    7  C3  UNL     1     -22.460  18.514  11.809  1.00 20.00     0.333 C 
HETATM    8  O8  UNL     1     -21.406  18.469  11.291  1.00 20.00    -0.260 OA
ENDBRANCH   5   6
TORSDOF 1
ENDMDL
MODEL 9
REMARK VINA RESULT:      -3.5      1.781      2.224
REMARK  1 active torsions:
REMARK  status: ('A' for Active; 'I' for Inactive)
REMARK    1  A    between atoms: C6_6  and  N7_7 
ROOT
HETATM    1  C1  UNL     1     -32.084   7.255   3.084  1.00 20.00     0.015 C 
HETATM    2  C2  UNL     1     -32.871   7.268   3.993  1.00 20.00    -0.084 C 
HETATM    3  C4  UNL     1     -33.201   6.721   6.377  1.00 20.00     0.055 C 
HETATM    4  C5  UNL     1     -34.370   8.696   5.343  1.00 20.00     0.055 C 
HETATM    5  C6  UNL     1     -33.831   7.287   5.107  1.00 20.00     0.112 C 
ENDROOT
BRANCH   5   6
HETATM    6  N7  UNL     1     -34.942   6.411   4.717  1.00 20.00    -0.224 NA
HETATM    7  C3  UNL     1     -34.655   5.276   4.641  1.00 20.00     0.333 C 
HETATM    8  O8  UNL     1     -34.373   4.137   4.564  1.00 20.00    -0.260 OA
ENDBRANCH   5   6
TORSDOF 1
ENDMDL
