MODEL 1
REMARK VINA RESULT:      -4.3      0.000      0.000
REMARK  0 active torsions:
REMARK  status: ('A' for Active; 'I' for Inactive)
ROOT
HETATM    1  C1  UNL     1     -34.463   6.284   6.049  1.00 20.00     0.317 C 
HETATM    2  C2  UNL     1     -34.021   6.566   4.823  1.00 20.00     0.253 C 
HETATM    3  F3  UNL     1     -34.463   7.223   7.019  1.00 20.00    -0.169 F 
HETATM    4  F4  UNL     1     -34.919   5.043   6.324  1.00 20.00    -0.169 F 
HETATM    5  F5  UNL     1     -34.039   5.597   3.880  1.00 20.00    -0.187 F 
HETATM    6 CL6  UNL     1     -33.427   8.126   4.407  1.00 20.00    -0.046 Cl
ENDROOT
TORSDOF 0
ENDMDL
MODEL 2
REMARK VINA RESULT:      -4.3      1.540      2.028
REMARK  0 active torsions:
REMARK  status: ('A' for Active; 'I' for Inactive)
ROOT
HETATM    1  C1  UNL     1     -34.323   6.311   6.131  1.00 20.00     0.317 C 
HETATM    2  C2  UNL     1     -34.088   6.630   4.858  1.00 20.00     0.253 C 
HETATM    3  F3  UNL     1     -34.354   5.020   6.528  1.00 20.00    -0.169 F 
HETATM    4  F4  UNL     1     -34.533   7.290   7.036  1.00 20.00    -0.169 F 
HETATM    5  F5  UNL     1     -34.065   7.933   4.502  1.00 20.00    -0.187 F 
HETATM    6 CL6  UNL     1     -33.814   5.430   3.655  1.00 20.00    -0.046 Cl
ENDROOT
TORSDOF 0
ENDMDL
MODEL 3
REMARK VINA RESULT:      -4.2      1.954      3.147
REMARK  0 active torsions:
REMARK  status: ('A' for Active; 'I' for Inactive)
ROOT
HETATM    1  C1  UNL     1     -33.508   7.433   4.961  1.00 20.00     0.317 C 
HETATM    2  C2  UNL     1     -34.173   6.691   5.847  1.00 20.00     0.253 C 
HETATM    3  F3  UNL     1     -33.126   6.918   3.773  1.00 20.00    -0.169 F 
HETATM    4  F4  UNL     1     -33.214   8.718   5.255  1.00 20.00    -0.169 F 
HETATM    5  F5  UNL     1     -34.537   7.244   7.025  1.00 20.00    -0.187 F 
HETATM    6 CL6  UNL     1     -34.577   5.048   5.535  1.00 20.00    -0.046 Cl
ENDROOT
TORSDOF 0
ENDMDL
MODEL 4
REMARK VINA RESULT:      -4.2      0.576      2.141
REMARK  0 active torsions:
REMARK  status: ('A' for Active; 'I' for Inactive)
ROOT
HETATM    1  C1  UNL     1     -34.400   5.802   5.128  1.00 20.00     0.317 C 
HETATM    2  C2  UNL     1     -34.073   7.000   5.614  1.00 20.00     0.253 C 
HETATM    3  F3  UNL     1     -34.123   5.474   3.847  1.00 20.00    -0.169 F 
HETATM    4  F4  UNL     1     -35.017   4.904   5.926  1.00 20.00    -0.169 F 
HETATM    5  F5  UNL     1     -34.368   7.288   6.901  1.00 20.00    -0.187 F 
HETATM    6 CL6  UNL     1     -33.287   8.188   4.650  1.00 20.00    -0.046 Cl
ENDROOT
TORSDOF 0
ENDMDL
MODEL 5
REMARK VINA RESULT:      -4.1      1.828      2.563
REMARK  0 active torsions:
REMARK  status: ('A' for Active; 'I' for Inactive)
ROOT
HETATM    1  C1  UNL     1     -33.778   7.217   5.221  1.00 20.00     0.317 C 
HETATM    2  C2  UNL     1     -32.813   7.914   4.621  1.00 20.00     0.253 C 
HETATM    3  F3  UNL     1     -34.328   6.138   4.622  1.00 20.00    -0.169 F 
HETATM    4  F4  UNL     1     -34.211   7.592   6.443  1.00 20.00    -0.169 F 
HETATM    5  F5  UNL     1     -32.289   8.987   5.254  1.00 20.00    -0.187 F 
HETATM    6 CL6  UNL     1     -32.217   7.489   3.063  1.00 20.00    -0.046 Cl
ENDROOT
TORSDOF 0
ENDMDL
MODEL 6
REMARK VINA RESULT:      -4.1      1.896      2.315
REMARK  0 active torsions:
REMARK  status: ('A' for Active; 'I' for Inactive)
ROOT
HETATM    1  C1  UNL     1     -33.710   7.416   5.601  1.00 20.00     0.317 C 
HETATM    2  C2  UNL     1     -33.847   6.473   4.668  1.00 20.00     0.253 C 
HETATM    3  F3  UNL     1     -34.403   7.351   6.759  1.00 20.00    -0.169 F 
HETATM    4  F4  UNL     1     -32.869   8.450   5.386  1.00 20.00    -0.169 F 
HETATM    5  F5  UNL     1     -33.136   6.575   3.523  1.00 20.00    -0.187 F 
HETATM    6 CL6  UNL     1     -34.902   5.131   4.880  1.00 20.00    -0.046 Cl
ENDROOT
TORSDOF 0
ENDMDL
MODEL 7
REMARK VINA RESULT:      -4.0      2.134      3.011
REMARK  0 active torsions:
REMARK  status: ('A' for Active; 'I' for Inactive)
ROOT
HETATM    1  C1  UNL     1     -33.843   5.280   3.948  1.00 20.00     0.317 C 
HETATM    2  C2  UNL     1     -34.163   6.252   4.802  1.00 20.00     0.253 C 
HETATM    3  F3  UNL     1     -33.976   3.981   4.294  1.00 20.00    -0.169 F 
HETATM    4  F4  UNL     1     -33.379   5.596   2.720  1.00 20.00    -0.169 F 
HETATM    5  F5  UNL     1     -34.015   7.539   4.417  1.00 20.00    -0.187 F 
HETATM    6 CL6  UNL     1     -34.758   5.916   6.381  1.00 20.00    -0.046 Cl
ENDROOT
TORSDOF 0
ENDMDL
MODEL 8
REMARK VINA RESULT:      -4.0      1.053      2.372
REMARK  0 active torsions:
REMARK  status: ('A' for Active; 'I' for Inactive)
ROOT
HETATM    1  C1  UNL     1     -34.079   5.515   4.271  1.00 20.00     0.317 C 
HETATM    2  C2  UNL     1     -34.210   6.525   5.132  1.00 20.00     0.253 C 
HETATM    3  F3  UNL     1     -33.463   5.693   3.083  1.00 20.00    -0.169 F 
HETATM    4  F4  UNL     1     -34.568   4.298   4.591  1.00 20.00    -0.169 F 
HETATM    5  F5  UNL     1     -34.833   6.305   6.311  1.00 20.00    -0.187 F 
HETATM    6 CL6  UNL     1     -33.610   8.100   4.784  1.00 20.00    -0.046 Cl
ENDROOT
TORSDOF 0
ENDMDL
MODEL 9
REMARK VINA RESULT:      -4.0      1.795      2.564
REMARK  0 active torsions:
REMARK  status: ('A' for Active; 'I' for Inactive)
ROOT
HETATM    1  C1  UNL     1     -34.043   6.890   5.671  1.00 20.00     0.317 C 
HETATM    2  C2  UNL     1     -34.484   5.632   5.648  1.00 20.00     0.253 C 
HETATM    3  F3  UNL     1     -33.347   7.400   4.633  1.00 20.00    -0.169 F 
HETATM    4  F4  UNL     1     -34.298   7.666   6.747  1.00 20.00    -0.169 F 
HETATM    5  F5  UNL     1     -35.178   5.160   6.707  1.00 20.00    -0.187 F 
HETATM    6 CL6  UNL     1     -34.193   4.592   4.308  1.00 20.00    -0.046 Cl
ENDROOT
TORSDOF 0
ENDMDL
