MODEL 1
REMARK VINA RESULT:      -5.0      0.000      0.000
REMARK  1 active torsions:
REMARK  status: ('A' for Active; 'I' for Inactive)
REMARK    1  A    between atoms: C1_1  and  C2_2 
ROOT
HETATM    1  C2  UNL     1     -34.773   5.661   4.785  1.00 20.00     0.447 C 
HETATM    2  F5  UNL     1     -34.443   4.403   4.424  1.00 20.00    -0.166 F 
HETATM    3  F6  UNL     1     -35.992   5.935   4.274  1.00 20.00    -0.166 F 
HETATM    4  F7  UNL     1     -33.887   6.505   4.214  1.00 20.00    -0.166 F 
ENDROOT
BRANCH   1   5
HETATM    5  C1  UNL     1     -34.772   5.814   6.277  1.00 20.00     0.459 C 
HETATM    6  F3  UNL     1     -34.392   7.073   6.603  1.00 20.00    -0.205 F 
HETATM    7  F4  UNL     1     -33.858   4.974   6.819  1.00 20.00    -0.205 F 
ENDBRANCH   1   5
TORSDOF 1
ENDMDL
MODEL 2
REMARK VINA RESULT:      -4.7      0.995      1.944
REMARK  1 active torsions:
REMARK  status: ('A' for Active; 'I' for Inactive)
REMARK    1  A    between atoms: C1_1  and  C2_2 
ROOT
HETATM    1  C2  UNL     1     -34.752   5.661   5.159  1.00 20.00     0.447 C 
HETATM    2  F5  UNL     1     -34.054   4.802   4.388  1.00 20.00    -0.166 F 
HETATM    3  F6  UNL     1     -35.113   5.012   6.286  1.00 20.00    -0.166 F 
HETATM    4  F7  UNL     1     -35.880   5.994   4.496  1.00 20.00    -0.166 F 
ENDROOT
BRANCH   1   5
HETATM    5  C1  UNL     1     -33.942   6.882   5.481  1.00 20.00     0.459 C 
HETATM    6  F3  UNL     1     -34.336   7.386   6.675  1.00 20.00    -0.205 F 
HETATM    7  F4  UNL     1     -34.175   7.840   4.552  1.00 20.00    -0.205 F 
ENDBRANCH   1   5
TORSDOF 1
ENDMDL
MODEL 3
REMARK VINA RESULT:      -4.7      0.988      2.197
REMARK  1 active torsions:
REMARK  status: ('A' for Active; 'I' for Inactive)
REMARK    1  A    between atoms: C1_1  and  C2_2 
ROOT
HETATM    1  C2  UNL     1     -34.754   5.649   5.166  1.00 20.00     0.447 C 
HETATM    2  F5  UNL     1     -35.880   5.974   4.498  1.00 20.00    -0.166 F 
HETATM    3  F6  UNL     1     -34.050   4.787   4.404  1.00 20.00    -0.166 F 
HETATM    4  F7  UNL     1     -35.112   5.003   6.296  1.00 20.00    -0.166 F 
ENDROOT
BRANCH   1   5
HETATM    5  C1  UNL     1     -33.942   6.870   5.483  1.00 20.00     0.459 C 
HETATM    6  F3  UNL     1     -34.335   7.379   6.676  1.00 20.00    -0.205 F 
HETATM    7  F4  UNL     1     -34.174   7.825   4.552  1.00 20.00    -0.205 F 
ENDBRANCH   1   5
TORSDOF 1
ENDMDL
MODEL 4
REMARK VINA RESULT:      -4.7      0.997      1.823
REMARK  1 active torsions:
REMARK  status: ('A' for Active; 'I' for Inactive)
REMARK    1  A    between atoms: C1_1  and  C2_2 
ROOT
HETATM    1  C2  UNL     1     -34.735   5.665   5.139  1.00 20.00     0.447 C 
HETATM    2  F5  UNL     1     -35.071   4.985   6.255  1.00 20.00    -0.166 F 
HETATM    3  F6  UNL     1     -35.873   5.994   4.493  1.00 20.00    -0.166 F 
HETATM    4  F7  UNL     1     -34.033   4.834   4.340  1.00 20.00    -0.166 F 
ENDROOT
BRANCH   1   5
HETATM    5  C1  UNL     1     -33.935   6.889   5.471  1.00 20.00     0.459 C 
HETATM    6  F3  UNL     1     -34.334   7.381   6.669  1.00 20.00    -0.205 F 
HETATM    7  F4  UNL     1     -34.175   7.853   4.550  1.00 20.00    -0.205 F 
ENDBRANCH   1   5
TORSDOF 1
ENDMDL
MODEL 5
REMARK VINA RESULT:      -4.6      0.932      2.583
REMARK  1 active torsions:
REMARK  status: ('A' for Active; 'I' for Inactive)
REMARK    1  A    between atoms: C1_1  and  C2_2 
ROOT
HETATM    1  C2  UNL     1     -34.226   5.962   6.213  1.00 20.00     0.447 C 
HETATM    2  F5  UNL     1     -33.286   6.921   6.338  1.00 20.00    -0.166 F 
HETATM    3  F6  UNL     1     -35.330   6.371   6.872  1.00 20.00    -0.166 F 
HETATM    4  F7  UNL     1     -33.770   4.848   6.825  1.00 20.00    -0.166 F 
ENDROOT
BRANCH   1   5
HETATM    5  C1  UNL     1     -34.533   5.690   4.770  1.00 20.00     0.459 C 
HETATM    6  F3  UNL     1     -35.844   5.937   4.532  1.00 20.00    -0.205 F 
HETATM    7  F4  UNL     1     -34.323   4.379   4.500  1.00 20.00    -0.205 F 
ENDBRANCH   1   5
TORSDOF 1
ENDMDL
MODEL 6
REMARK VINA RESULT:      -4.6      0.940      2.575
REMARK  1 active torsions:
REMARK  status: ('A' for Active; 'I' for Inactive)
REMARK    1  A    between atoms: C1_1  and  C2_2 
ROOT
HETATM    1  C2  UNL     1     -34.222   5.962   6.197  1.00 20.00     0.447 C 
HETATM    2  F5  UNL     1     -33.762   4.856   6.818  1.00 20.00    -0.166 F 
HETATM    3  F6  UNL     1     -33.279   6.922   6.301  1.00 20.00    -0.166 F 
HETATM    4  F7  UNL     1     -35.318   6.386   6.861  1.00 20.00    -0.166 F 
ENDROOT
BRANCH   1   5
HETATM    5  C1  UNL     1     -34.544   5.681   4.760  1.00 20.00     0.459 C 
HETATM    6  F3  UNL     1     -35.857   5.925   4.533  1.00 20.00    -0.205 F 
HETATM    7  F4  UNL     1     -34.335   4.369   4.494  1.00 20.00    -0.205 F 
ENDBRANCH   1   5
TORSDOF 1
ENDMDL
MODEL 7
REMARK VINA RESULT:      -4.3      1.160      2.481
REMARK  1 active torsions:
REMARK  status: ('A' for Active; 'I' for Inactive)
REMARK    1  A    between atoms: C1_1  and  C2_2 
ROOT
HETATM    1  C2  UNL     1     -34.937   5.814   4.866  1.00 20.00     0.447 C 
HETATM    2  F5  UNL     1     -36.144   6.085   4.327  1.00 20.00    -0.166 F 
HETATM    3  F6  UNL     1     -35.125   5.456   6.153  1.00 20.00    -0.166 F 
HETATM    4  F7  UNL     1     -34.211   6.952   4.856  1.00 20.00    -0.166 F 
ENDROOT
BRANCH   1   5
HETATM    5  C1  UNL     1     -34.236   4.728   4.105  1.00 20.00     0.459 C 
HETATM    6  F3  UNL     1     -33.664   3.861   4.975  1.00 20.00    -0.205 F 
HETATM    7  F4  UNL     1     -33.235   5.263   3.366  1.00 20.00    -0.205 F 
ENDBRANCH   1   5
TORSDOF 1
ENDMDL
MODEL 8
REMARK VINA RESULT:      -4.3      1.352      2.531
REMARK  1 active torsions:
REMARK  status: ('A' for Active; 'I' for Inactive)
REMARK    1  A    between atoms: C1_1  and  C2_2 
ROOT
HETATM    1  C2  UNL     1     -33.649   7.132   4.837  1.00 20.00     0.447 C 
HETATM    2  F5  UNL     1     -34.358   8.223   4.481  1.00 20.00    -0.166 F 
HETATM    3  F6  UNL     1     -32.888   7.457   5.902  1.00 20.00    -0.166 F 
HETATM    4  F7  UNL     1     -32.821   6.823   3.817  1.00 20.00    -0.166 F 
ENDROOT
BRANCH   1   5
HETATM    5  C1  UNL     1     -34.554   5.979   5.157  1.00 20.00     0.459 C 
HETATM    6  F3  UNL     1     -35.712   6.105   4.464  1.00 20.00    -0.205 F 
HETATM    7  F4  UNL     1     -34.877   6.006   6.472  1.00 20.00    -0.205 F 
ENDBRANCH   1   5
TORSDOF 1
ENDMDL
MODEL 9
REMARK VINA RESULT:      -4.3      1.324      2.256
REMARK  1 active torsions:
REMARK  status: ('A' for Active; 'I' for Inactive)
REMARK    1  A    between atoms: C1_1  and  C2_2 
ROOT
HETATM    1  C2  UNL     1     -33.707   7.065   4.870  1.00 20.00     0.447 C 
HETATM    2  F5  UNL     1     -32.836   6.838   3.865  1.00 20.00    -0.166 F 
HETATM    3  F6  UNL     1     -34.412   8.176   4.569  1.00 20.00    -0.166 F 
HETATM    4  F7  UNL     1     -32.996   7.319   5.989  1.00 20.00    -0.166 F 
ENDROOT
BRANCH   1   5
HETATM    5  C1  UNL     1     -34.618   5.891   5.072  1.00 20.00     0.459 C 
HETATM    6  F3  UNL     1     -35.761   6.076   4.366  1.00 20.00    -0.205 F 
HETATM    7  F4  UNL     1     -34.971   5.808   6.377  1.00 20.00    -0.205 F 
ENDBRANCH   1   5
TORSDOF 1
ENDMDL
