MODEL 1
REMARK VINA RESULT:      -3.8      0.000      0.000
REMARK  0 active torsions:
REMARK  status: ('A' for Active; 'I' for Inactive)
ROOT
HETATM    1  C1  UNL     1     -34.600   5.387   6.165  1.00 20.00     0.089 C 
HETATM    2  C2  UNL     1     -34.625   5.983   4.771  1.00 20.00     0.251 C 
HETATM    3  F3  UNL     1     -35.918   6.051   4.354  1.00 20.00    -0.208 F 
HETATM    4 CL4  UNL     1     -33.715   4.954   3.642  1.00 20.00    -0.066 Cl
HETATM    5 CL5  UNL     1     -33.942   7.625   4.785  1.00 20.00    -0.066 Cl
ENDROOT
TORSDOF 0
ENDMDL
MODEL 2
REMARK VINA RESULT:      -3.7      1.430      2.063
REMARK  0 active torsions:
REMARK  status: ('A' for Active; 'I' for Inactive)
ROOT
HETATM    1  C1  UNL     1     -33.995   7.453   4.947  1.00 20.00     0.089 C 
HETATM    2  C2  UNL     1     -34.527   6.046   4.750  1.00 20.00     0.251 C 
HETATM    3  F3  UNL     1     -35.829   6.128   4.365  1.00 20.00    -0.208 F 
HETATM    4 CL4  UNL     1     -34.438   5.131   6.272  1.00 20.00    -0.066 Cl
HETATM    5 CL5  UNL     1     -33.608   5.208   3.480  1.00 20.00    -0.066 Cl
ENDROOT
TORSDOF 0
ENDMDL
MODEL 3
REMARK VINA RESULT:      -3.7      1.445      2.204
REMARK  0 active torsions:
REMARK  status: ('A' for Active; 'I' for Inactive)
ROOT
HETATM    1  C1  UNL     1     -33.753   5.322   3.712  1.00 20.00     0.089 C 
HETATM    2  C2  UNL     1     -34.549   6.092   4.749  1.00 20.00     0.251 C 
HETATM    3  F3  UNL     1     -35.853   6.111   4.365  1.00 20.00    -0.208 F 
HETATM    4 CL4  UNL     1     -33.961   7.766   4.862  1.00 20.00    -0.066 Cl
HETATM    5 CL5  UNL     1     -34.432   5.297   6.336  1.00 20.00    -0.066 Cl
ENDROOT
TORSDOF 0
ENDMDL
MODEL 4
REMARK VINA RESULT:      -3.3      1.729      1.881
REMARK  0 active torsions:
REMARK  status: ('A' for Active; 'I' for Inactive)
ROOT
HETATM    1  C1  UNL     1     -34.436   5.895   6.355  1.00 20.00     0.089 C 
HETATM    2  C2  UNL     1     -34.423   5.722   4.848  1.00 20.00     0.251 C 
HETATM    3  F3  UNL     1     -34.073   4.438   4.565  1.00 20.00    -0.208 F 
HETATM    4 CL4  UNL     1     -33.229   6.815   4.111  1.00 20.00    -0.066 Cl
HETATM    5 CL5  UNL     1     -36.037   6.037   4.173  1.00 20.00    -0.066 Cl
ENDROOT
TORSDOF 0
ENDMDL
MODEL 5
REMARK VINA RESULT:      -3.2      2.408      2.958
REMARK  0 active torsions:
REMARK  status: ('A' for Active; 'I' for Inactive)
ROOT
HETATM    1  C1  UNL     1     -32.286   8.645   4.805  1.00 20.00     0.089 C 
HETATM    2  C2  UNL     1     -33.411   7.632   4.704  1.00 20.00     0.251 C 
HETATM    3  F3  UNL     1     -34.535   8.275   4.287  1.00 20.00    -0.208 F 
HETATM    4 CL4  UNL     1     -33.729   6.900   6.293  1.00 20.00    -0.066 Cl
HETATM    5 CL5  UNL     1     -33.004   6.368   3.521  1.00 20.00    -0.066 Cl
ENDROOT
TORSDOF 0
ENDMDL
MODEL 6
REMARK VINA RESULT:      -3.2      2.175      2.369
REMARK  0 active torsions:
REMARK  status: ('A' for Active; 'I' for Inactive)
ROOT
HETATM    1  C1  UNL     1     -33.683   7.302   4.841  1.00 20.00     0.089 C 
HETATM    2  C2  UNL     1     -34.367   5.950   4.763  1.00 20.00     0.251 C 
HETATM    3  F3  UNL     1     -33.667   5.162   3.904  1.00 20.00    -0.208 F 
HETATM    4 CL4  UNL     1     -36.026   6.131   4.149  1.00 20.00    -0.066 Cl
HETATM    5 CL5  UNL     1     -34.390   5.174   6.362  1.00 20.00    -0.066 Cl
ENDROOT
TORSDOF 0
ENDMDL
MODEL 7
REMARK VINA RESULT:      -3.1      1.566      2.303
REMARK  0 active torsions:
REMARK  status: ('A' for Active; 'I' for Inactive)
ROOT
HETATM    1  C1  UNL     1     -35.718   5.948   4.349  1.00 20.00     0.089 C 
HETATM    2  C2  UNL     1     -34.290   5.681   4.787  1.00 20.00     0.251 C 
HETATM    3  F3  UNL     1     -34.214   4.406   5.255  1.00 20.00    -0.208 F 
HETATM    4 CL4  UNL     1     -33.824   6.796   6.090  1.00 20.00    -0.066 Cl
HETATM    5 CL5  UNL     1     -33.178   5.851   3.410  1.00 20.00    -0.066 Cl
ENDROOT
TORSDOF 0
ENDMDL
MODEL 8
REMARK VINA RESULT:      -3.1      1.841      1.996
REMARK  0 active torsions:
REMARK  status: ('A' for Active; 'I' for Inactive)
ROOT
HETATM    1  C1  UNL     1     -35.762   6.045   4.276  1.00 20.00     0.089 C 
HETATM    2  C2  UNL     1     -34.340   6.062   4.803  1.00 20.00     0.251 C 
HETATM    3  F3  UNL     1     -33.559   5.333   3.961  1.00 20.00    -0.208 F 
HETATM    4 CL4  UNL     1     -34.272   5.329   6.422  1.00 20.00    -0.066 Cl
HETATM    5 CL5  UNL     1     -33.719   7.727   4.861  1.00 20.00    -0.066 Cl
ENDROOT
TORSDOF 0
ENDMDL
MODEL 9
REMARK VINA RESULT:      -3.1      1.977      1.977
REMARK  0 active torsions:
REMARK  status: ('A' for Active; 'I' for Inactive)
ROOT
HETATM    1  C1  UNL     1     -33.788   7.025   6.222  1.00 20.00     0.089 C 
HETATM    2  C2  UNL     1     -33.538   7.563   4.825  1.00 20.00     0.251 C 
HETATM    3  F3  UNL     1     -34.652   8.226   4.412  1.00 20.00    -0.208 F 
HETATM    4 CL4  UNL     1     -33.218   6.227   3.696  1.00 20.00    -0.066 Cl
HETATM    5 CL5  UNL     1     -32.168   8.696   4.833  1.00 20.00    -0.066 Cl
ENDROOT
TORSDOF 0
ENDMDL
