MODEL 1
REMARK VINA RESULT:      -4.2      0.000      0.000
REMARK  2 active torsions:
REMARK  status: ('A' for Active; 'I' for Inactive)
REMARK    1  A    between atoms: C4_4  and  C5_5 
REMARK    2  A    between atoms: C4_4  and  C6_6 
ROOT
HETATM    1  C1  UNL     1     -34.395   5.056   4.623  1.00 20.00     0.079 C 
HETATM    2  C5  UNL     1     -34.873   6.360   5.099  1.00 20.00     0.189 C 
HETATM    3  N7  UNL     1     -34.021   4.026   4.244  1.00 20.00    -0.196 NA
HETATM    4 CL8  UNL     1     -34.375   6.509   6.813  1.00 20.00    -0.109 Cl
ENDROOT
BRANCH   2   5
HETATM    5  C4  UNL     1     -34.287   7.529   4.298  1.00 20.00     0.039 C 
BRANCH   5   6
HETATM    6  C6  UNL     1     -32.745   7.604   4.293  1.00 20.00    -0.020 C 
HETATM    7  C2  UNL     1     -32.153   7.380   2.900  1.00 20.00     0.009 C 
HETATM    8  C3  UNL     1     -32.292   8.964   4.832  1.00 20.00     0.009 C 
ENDBRANCH   5   6
ENDBRANCH   2   5
TORSDOF 2
ENDMDL
MODEL 2
REMARK VINA RESULT:      -4.1      2.190      3.390
REMARK  2 active torsions:
REMARK  status: ('A' for Active; 'I' for Inactive)
REMARK    1  A    between atoms: C4_4  and  C5_5 
REMARK    2  A    between atoms: C4_4  and  C6_6 
ROOT
HETATM    1  C1  UNL     1     -32.395   7.531   3.010  1.00 20.00     0.079 C 
HETATM    2  C5  UNL     1     -32.853   7.472   4.404  1.00 20.00     0.189 C 
HETATM    3  N7  UNL     1     -32.032   7.572   1.910  1.00 20.00    -0.196 NA
HETATM    4 CL8  UNL     1     -32.402   9.025   5.172  1.00 20.00    -0.109 Cl
ENDROOT
BRANCH   2   5
HETATM    5  C4  UNL     1     -34.370   7.274   4.514  1.00 20.00     0.039 C 
BRANCH   5   6
HETATM    6  C6  UNL     1     -34.808   5.894   5.052  1.00 20.00    -0.020 C 
HETATM    7  C2  UNL     1     -34.173   4.738   4.278  1.00 20.00     0.009 C 
HETATM    8  C3  UNL     1     -34.449   5.780   6.536  1.00 20.00     0.009 C 
ENDBRANCH   5   6
ENDBRANCH   2   5
TORSDOF 2
ENDMDL
MODEL 3
REMARK VINA RESULT:      -4.0      2.334      3.668
REMARK  2 active torsions:
REMARK  status: ('A' for Active; 'I' for Inactive)
REMARK    1  A    between atoms: C4_4  and  C5_5 
REMARK    2  A    between atoms: C4_4  and  C6_6 
ROOT
HETATM    1  C1  UNL     1     -32.308   7.619   3.248  1.00 20.00     0.079 C 
HETATM    2  C5  UNL     1     -32.470   7.844   4.689  1.00 20.00     0.189 C 
HETATM    3  N7  UNL     1     -32.179   7.436   2.110  1.00 20.00    -0.196 NA
HETATM    4 CL8  UNL     1     -32.081   9.564   4.999  1.00 20.00    -0.109 Cl
ENDROOT
BRANCH   2   5
HETATM    5  C4  UNL     1     -33.896   7.552   5.173  1.00 20.00     0.039 C 
BRANCH   5   6
HETATM    6  C6  UNL     1     -34.306   6.064   5.124  1.00 20.00    -0.020 C 
HETATM    7  C2  UNL     1     -34.498   5.465   6.518  1.00 20.00     0.009 C 
HETATM    8  C3  UNL     1     -35.598   5.911   4.316  1.00 20.00     0.009 C 
ENDBRANCH   5   6
ENDBRANCH   2   5
TORSDOF 2
ENDMDL
MODEL 4
REMARK VINA RESULT:      -3.7      2.308      3.466
REMARK  2 active torsions:
REMARK  status: ('A' for Active; 'I' for Inactive)
REMARK    1  A    between atoms: C4_4  and  C5_5 
REMARK    2  A    between atoms: C4_4  and  C6_6 
ROOT
HETATM    1  C1  UNL     1     -32.600   6.304   2.939  1.00 20.00     0.079 C 
HETATM    2  C5  UNL     1     -32.505   7.594   3.633  1.00 20.00     0.189 C 
HETATM    3  N7  UNL     1     -32.672   5.282   2.396  1.00 20.00    -0.196 NA
HETATM    4 CL8  UNL     1     -32.648   8.872   2.387  1.00 20.00    -0.109 Cl
ENDROOT
BRANCH   2   5
HETATM    5  C4  UNL     1     -33.610   7.781   4.679  1.00 20.00     0.039 C 
BRANCH   5   6
HETATM    6  C6  UNL     1     -34.139   6.473   5.307  1.00 20.00    -0.020 C 
HETATM    7  C2  UNL     1     -34.407   6.611   6.807  1.00 20.00     0.009 C 
HETATM    8  C3  UNL     1     -35.422   6.039   4.592  1.00 20.00     0.009 C 
ENDBRANCH   5   6
ENDBRANCH   2   5
TORSDOF 2
ENDMDL
MODEL 5
REMARK VINA RESULT:      -3.5      2.299      3.295
REMARK  2 active torsions:
REMARK  status: ('A' for Active; 'I' for Inactive)
REMARK    1  A    between atoms: C4_4  and  C5_5 
REMARK    2  A    between atoms: C4_4  and  C6_6 
ROOT
HETATM    1  C1  UNL     1     -32.750   8.250   5.024  1.00 20.00     0.079 C 
HETATM    2  C5  UNL     1     -33.436   6.995   5.353  1.00 20.00     0.189 C 
HETATM    3  N7  UNL     1     -32.203   9.239   4.762  1.00 20.00    -0.196 NA
HETATM    4 CL8  UNL     1     -34.327   7.268   6.882  1.00 20.00    -0.109 Cl
ENDROOT
BRANCH   2   5
HETATM    5  C4  UNL     1     -34.423   6.562   4.262  1.00 20.00     0.039 C 
BRANCH   5   6
HETATM    6  C6  UNL     1     -34.109   5.202   3.603  1.00 20.00    -0.020 C 
HETATM    7  C2  UNL     1     -32.887   5.266   2.685  1.00 20.00     0.009 C 
HETATM    8  C3  UNL     1     -33.884   4.143   4.686  1.00 20.00     0.009 C 
ENDBRANCH   5   6
ENDBRANCH   2   5
TORSDOF 2
ENDMDL
MODEL 6
REMARK VINA RESULT:      -3.5     12.558     13.201
REMARK  2 active torsions:
REMARK  status: ('A' for Active; 'I' for Inactive)
REMARK    1  A    between atoms: C4_4  and  C5_5 
REMARK    2  A    between atoms: C4_4  and  C6_6 
ROOT
HETATM    1  C1  UNL     1     -34.172  15.128  -6.353  1.00 20.00     0.079 C 
HETATM    2  C5  UNL     1     -34.737  15.252  -5.004  1.00 20.00     0.189 C 
HETATM    3  N7  UNL     1     -33.726  15.036  -7.419  1.00 20.00    -0.196 NA
HETATM    4 CL8  UNL     1     -35.658  13.750  -4.679  1.00 20.00    -0.109 Cl
ENDROOT
BRANCH   2   5
HETATM    5  C4  UNL     1     -33.657  15.425  -3.929  1.00 20.00     0.039 C 
BRANCH   5   6
HETATM    6  C6  UNL     1     -33.464  16.873  -3.429  1.00 20.00    -0.020 C 
HETATM    7  C2  UNL     1     -34.549  17.819  -3.946  1.00 20.00     0.009 C 
HETATM    8  C3  UNL     1     -33.451  16.894  -1.898  1.00 20.00     0.009 C 
ENDBRANCH   5   6
ENDBRANCH   2   5
TORSDOF 2
ENDMDL
MODEL 7
REMARK VINA RESULT:      -3.3     16.009     16.457
REMARK  2 active torsions:
REMARK  status: ('A' for Active; 'I' for Inactive)
REMARK    1  A    between atoms: C4_4  and  C5_5 
REMARK    2  A    between atoms: C4_4  and  C6_6 
ROOT
HETATM    1  C1  UNL     1     -22.487  17.268   9.061  1.00 20.00     0.079 C 
HETATM    2  C5  UNL     1     -22.996  17.575  10.403  1.00 20.00     0.189 C 
HETATM    3  N7  UNL     1     -22.088  17.021   8.000  1.00 20.00    -0.196 NA
HETATM    4 CL8  UNL     1     -21.729  18.522  11.242  1.00 20.00    -0.109 Cl
ENDROOT
BRANCH   2   5
HETATM    5  C4  UNL     1     -24.295  18.390  10.365  1.00 20.00     0.039 C 
BRANCH   5   6
HETATM    6  C6  UNL     1     -25.018  18.523  11.723  1.00 20.00    -0.020 C 
HETATM    7  C2  UNL     1     -26.352  19.263  11.606  1.00 20.00     0.009 C 
HETATM    8  C3  UNL     1     -25.250  17.134  12.324  1.00 20.00     0.009 C 
ENDBRANCH   5   6
ENDBRANCH   2   5
TORSDOF 2
ENDMDL
MODEL 8
REMARK VINA RESULT:      -3.3      2.812      3.997
REMARK  2 active torsions:
REMARK  status: ('A' for Active; 'I' for Inactive)
REMARK    1  A    between atoms: C4_4  and  C5_5 
REMARK    2  A    between atoms: C4_4  and  C6_6 
ROOT
HETATM    1  C1  UNL     1     -32.769   8.212   4.529  1.00 20.00     0.079 C 
HETATM    2  C5  UNL     1     -33.267   7.217   3.572  1.00 20.00     0.189 C 
HETATM    3  N7  UNL     1     -32.381   8.999   5.287  1.00 20.00    -0.196 NA
HETATM    4 CL8  UNL     1     -32.209   7.299   2.130  1.00 20.00    -0.109 Cl
ENDROOT
BRANCH   2   5
HETATM    5  C4  UNL     1     -33.240   5.792   4.139  1.00 20.00     0.039 C 
BRANCH   5   6
HETATM    6  C6  UNL     1     -34.531   5.357   4.865  1.00 20.00    -0.020 C 
HETATM    7  C2  UNL     1     -34.481   5.641   6.368  1.00 20.00     0.009 C 
HETATM    8  C3  UNL     1     -35.737   6.069   4.246  1.00 20.00     0.009 C 
ENDBRANCH   5   6
ENDBRANCH   2   5
TORSDOF 2
ENDMDL
MODEL 9
REMARK VINA RESULT:      -3.3     12.398     12.862
REMARK  2 active torsions:
REMARK  status: ('A' for Active; 'I' for Inactive)
REMARK    1  A    between atoms: C4_4  and  C5_5 
REMARK    2  A    between atoms: C4_4  and  C6_6 
ROOT
HETATM    1  C1  UNL     1     -33.727  15.181  -3.903  1.00 20.00     0.079 C 
HETATM    2  C5  UNL     1     -33.292  16.531  -3.525  1.00 20.00     0.189 C 
HETATM    3  N7  UNL     1     -34.065  14.113  -4.201  1.00 20.00    -0.196 NA
HETATM    4 CL8  UNL     1     -34.334  17.686  -4.412  1.00 20.00    -0.109 Cl
ENDROOT
BRANCH   2   5
HETATM    5  C4  UNL     1     -33.419  16.789  -2.019  1.00 20.00     0.039 C 
BRANCH   5   6
HETATM    6  C6  UNL     1     -33.193  18.255  -1.589  1.00 20.00    -0.020 C 
HETATM    7  C2  UNL     1     -34.331  18.791  -0.719  1.00 20.00     0.009 C 
HETATM    8  C3  UNL     1     -31.867  18.373  -0.833  1.00 20.00     0.009 C 
ENDBRANCH   5   6
ENDBRANCH   2   5
TORSDOF 2
ENDMDL
