MODEL 1
REMARK VINA RESULT:      -3.4      0.000      0.000
REMARK  0 active torsions:
REMARK  status: ('A' for Active; 'I' for Inactive)
ROOT
HETATM    1  C1  UNL     1     -31.794  18.444  -1.118  1.00 20.00     0.085 C 
HETATM    2  C2  UNL     1     -32.921  19.258  -3.165  1.00 20.00     0.067 C 
HETATM    3  C3  UNL     1     -32.985  16.819  -2.557  1.00 20.00     0.067 C 
HETATM    4  C4  UNL     1     -33.977  18.946  -4.223  1.00 20.00     0.170 C 
HETATM    5  C5  UNL     1     -34.036  16.648  -3.650  1.00 20.00     0.170 C 
HETATM    6  C6  UNL     1     -32.953  18.252  -2.004  1.00 20.00     0.129 C 
HETATM    7  N7  UNL     1     -30.881  18.595  -0.419  1.00 20.00    -0.195 NA
HETATM    8  O8  UNL     1     -33.844  17.605  -4.691  1.00 20.00    -0.391 OA
HETATM    9 CL9  UNL     1     -34.410  18.543  -0.989  1.00 20.00    -0.103 Cl
ENDROOT
TORSDOF 0
ENDMDL
MODEL 2
REMARK VINA RESULT:      -3.2     13.293     13.745
REMARK  0 active torsions:
REMARK  status: ('A' for Active; 'I' for Inactive)
ROOT
HETATM    1  C1  UNL     1     -40.244  12.458   5.279  1.00 20.00     0.085 C 
HETATM    2  C2  UNL     1     -42.222  12.218   6.747  1.00 20.00     0.067 C 
HETATM    3  C3  UNL     1     -40.396  13.847   7.322  1.00 20.00     0.067 C 
HETATM    4  C4  UNL     1     -43.053  12.871   7.849  1.00 20.00     0.170 C 
HETATM    5  C5  UNL     1     -41.331  14.407   8.391  1.00 20.00     0.170 C 
HETATM    6  C6  UNL     1     -41.165  13.175   6.176  1.00 20.00     0.129 C 
HETATM    7  N7  UNL     1     -39.518  11.894   4.573  1.00 20.00    -0.195 NA
HETATM    8  O8  UNL     1     -42.210  13.393   8.875  1.00 20.00    -0.391 OA
HETATM    9 CL9  UNL     1     -41.966  14.430   5.165  1.00 20.00    -0.103 Cl
ENDROOT
TORSDOF 0
ENDMDL
MODEL 3
REMARK VINA RESULT:      -3.2      4.005      4.958
REMARK  0 active torsions:
REMARK  status: ('A' for Active; 'I' for Inactive)
ROOT
HETATM    1  C1  UNL     1     -33.945  15.323  -6.857  1.00 20.00     0.085 C 
HETATM    2  C2  UNL     1     -33.322  15.353  -4.462  1.00 20.00     0.067 C 
HETATM    3  C3  UNL     1     -34.643  17.244  -5.462  1.00 20.00     0.067 C 
HETATM    4  C4  UNL     1     -33.629  15.958  -3.094  1.00 20.00     0.170 C 
HETATM    5  C5  UNL     1     -34.874  17.741  -4.037  1.00 20.00     0.170 C 
HETATM    6  C6  UNL     1     -34.378  15.733  -5.512  1.00 20.00     0.129 C 
HETATM    7  N7  UNL     1     -33.604  15.000  -7.917  1.00 20.00    -0.195 NA
HETATM    8  O8  UNL     1     -33.786  17.373  -3.191  1.00 20.00    -0.391 OA
HETATM    9 CL9  UNL     1     -35.905  14.838  -5.187  1.00 20.00    -0.103 Cl
ENDROOT
TORSDOF 0
ENDMDL
MODEL 4
REMARK VINA RESULT:      -3.2      4.174      5.041
REMARK  0 active torsions:
REMARK  status: ('A' for Active; 'I' for Inactive)
ROOT
HETATM    1  C1  UNL     1     -36.611  15.949  -5.654  1.00 20.00     0.085 C 
HETATM    2  C2  UNL     1     -34.927  17.237  -4.377  1.00 20.00     0.067 C 
HETATM    3  C3  UNL     1     -34.609  14.778  -4.792  1.00 20.00     0.067 C 
HETATM    4  C4  UNL     1     -33.483  17.265  -3.880  1.00 20.00     0.170 C 
HETATM    5  C5  UNL     1     -33.184  14.948  -4.271  1.00 20.00     0.170 C 
HETATM    6  C6  UNL     1     -35.175  16.086  -5.364  1.00 20.00     0.129 C 
HETATM    7  N7  UNL     1     -37.743  15.842  -5.883  1.00 20.00    -0.195 NA
HETATM    8  O8  UNL     1     -33.117  16.007  -3.318  1.00 20.00    -0.391 OA
HETATM    9 CL9  UNL     1     -34.383  16.453  -6.937  1.00 20.00    -0.103 Cl
ENDROOT
TORSDOF 0
ENDMDL
MODEL 5
REMARK VINA RESULT:      -3.2     14.936     15.897
REMARK  0 active torsions:
REMARK  status: ('A' for Active; 'I' for Inactive)
ROOT
HETATM    1  C1  UNL     1     -43.028   4.555  -1.254  1.00 20.00     0.085 C 
HETATM    2  C2  UNL     1     -41.060   5.769  -0.369  1.00 20.00     0.067 C 
HETATM    3  C3  UNL     1     -43.381   6.668  -0.013  1.00 20.00     0.067 C 
HETATM    4  C4  UNL     1     -40.579   6.816   0.632  1.00 20.00     0.170 C 
HETATM    5  C5  UNL     1     -42.767   7.663   0.968  1.00 20.00     0.170 C 
HETATM    6  C6  UNL     1     -42.534   5.394  -0.150  1.00 20.00     0.129 C 
HETATM    7  N7  UNL     1     -43.417   3.895  -2.123  1.00 20.00    -0.195 NA
HETATM    8  O8  UNL     1     -41.421   7.967   0.603  1.00 20.00    -0.391 OA
HETATM    9 CL9  UNL     1     -42.692   4.398   1.340  1.00 20.00    -0.103 Cl
ENDROOT
TORSDOF 0
ENDMDL
MODEL 6
REMARK VINA RESULT:      -3.2      1.840      2.356
REMARK  0 active torsions:
REMARK  status: ('A' for Active; 'I' for Inactive)
ROOT
HETATM    1  C1  UNL     1     -33.902  18.146  -0.425  1.00 20.00     0.085 C 
HETATM    2  C2  UNL     1     -33.408  16.629  -2.318  1.00 20.00     0.067 C 
HETATM    3  C3  UNL     1     -35.077  18.492  -2.576  1.00 20.00     0.067 C 
HETATM    4  C4  UNL     1     -33.487  16.447  -3.832  1.00 20.00     0.170 C 
HETATM    5  C5  UNL     1     -35.060  18.202  -4.075  1.00 20.00     0.170 C 
HETATM    6  C6  UNL     1     -33.773  18.059  -1.889  1.00 20.00     0.129 C 
HETATM    7  N7  UNL     1     -34.002  18.215   0.728  1.00 20.00    -0.195 NA
HETATM    8  O8  UNL     1     -34.772  16.827  -4.321  1.00 20.00    -0.391 OA
HETATM    9 CL9  UNL     1     -32.446  19.186  -2.340  1.00 20.00    -0.103 Cl
ENDROOT
TORSDOF 0
ENDMDL
MODEL 7
REMARK VINA RESULT:      -3.1      3.976      4.791
REMARK  0 active torsions:
REMARK  status: ('A' for Active; 'I' for Inactive)
ROOT
HETATM    1  C1  UNL     1     -35.356  14.096  -4.667  1.00 20.00     0.085 C 
HETATM    2  C2  UNL     1     -35.796  16.472  -5.204  1.00 20.00     0.067 C 
HETATM    3  C3  UNL     1     -33.804  15.824  -3.813  1.00 20.00     0.067 C 
HETATM    4  C4  UNL     1     -35.190  17.870  -5.289  1.00 20.00     0.170 C 
HETATM    5  C5  UNL     1     -33.313  17.259  -3.978  1.00 20.00     0.170 C 
HETATM    6  C6  UNL     1     -34.728  15.393  -4.962  1.00 20.00     0.129 C 
HETATM    7  N7  UNL     1     -35.851  13.073  -4.436  1.00 20.00    -0.195 NA
HETATM    8  O8  UNL     1     -34.413  18.156  -4.128  1.00 20.00    -0.391 OA
HETATM    9 CL9  UNL     1     -33.761  15.149  -6.459  1.00 20.00    -0.103 Cl
ENDROOT
TORSDOF 0
ENDMDL
MODEL 8
REMARK VINA RESULT:      -3.1      1.637      2.003
REMARK  0 active torsions:
REMARK  status: ('A' for Active; 'I' for Inactive)
ROOT
HETATM    1  C1  UNL     1     -32.186  18.502  -1.525  1.00 20.00     0.085 C 
HETATM    2  C2  UNL     1     -34.631  18.643  -1.888  1.00 20.00     0.067 C 
HETATM    3  C3  UNL     1     -33.039  18.824  -3.826  1.00 20.00     0.067 C 
HETATM    4  C4  UNL     1     -35.754  18.528  -2.915  1.00 20.00     0.170 C 
HETATM    5  C5  UNL     1     -34.254  18.699  -4.742  1.00 20.00     0.170 C 
HETATM    6  C6  UNL     1     -33.280  18.177  -2.454  1.00 20.00     0.129 C 
HETATM    7  N7  UNL     1     -31.324  18.757  -0.793  1.00 20.00    -0.195 NA
HETATM    8  O8  UNL     1     -35.419  19.229  -4.111  1.00 20.00    -0.391 OA
HETATM    9 CL9  UNL     1     -33.277  16.386  -2.619  1.00 20.00    -0.103 Cl
ENDROOT
TORSDOF 0
ENDMDL
MODEL 9
REMARK VINA RESULT:      -3.1     24.884     25.229
REMARK  0 active torsions:
REMARK  status: ('A' for Active; 'I' for Inactive)
ROOT
HETATM    1  C1  UNL     1     -25.305  -2.883  10.095  1.00 20.00     0.085 C 
HETATM    2  C2  UNL     1     -26.351  -1.155  11.526  1.00 20.00     0.067 C 
HETATM    3  C3  UNL     1     -27.756  -2.559   9.985  1.00 20.00     0.067 C 
HETATM    4  C4  UNL     1     -27.655  -0.667  12.152  1.00 20.00     0.170 C 
HETATM    5  C5  UNL     1     -28.979  -1.990  10.700  1.00 20.00     0.170 C 
HETATM    6  C6  UNL     1     -26.505  -2.538  10.875  1.00 20.00     0.129 C 
HETATM    7  N7  UNL     1     -24.360  -3.156   9.482  1.00 20.00    -0.195 NA
HETATM    8  O8  UNL     1     -28.711  -0.679  11.195  1.00 20.00    -0.391 OA
HETATM    9 CL9  UNL     1     -26.648  -3.798  12.152  1.00 20.00    -0.103 Cl
ENDROOT
TORSDOF 0
ENDMDL
