MODEL 1
REMARK VINA RESULT:      -3.9      0.000      0.000
REMARK  1 active torsions:
REMARK  status: ('A' for Active; 'I' for Inactive)
REMARK    1  A    between atoms: C5_5  and  C6_6 
ROOT
HETATM    1  C1  UNL     1     -32.557   8.026   2.744  1.00 20.00     0.084 C 
HETATM    2  C6  UNL     1     -33.249   8.272   4.029  1.00 20.00     0.222 C 
HETATM    3  N7  UNL     1     -31.998   7.842   1.744  1.00 20.00    -0.195 NA
HETATM    4 CL9  UNL     1     -32.101   9.141   5.101  1.00 20.00    -0.104 Cl
ENDROOT
BRANCH   2   5
HETATM    5  C5  UNL     1     -33.766   7.052   4.689  1.00 20.00    -0.019 A 
HETATM    6  C2  UNL     1     -34.107   5.855   3.995  1.00 20.00     0.017 A 
HETATM    7  C3  UNL     1     -34.563   4.873   4.846  1.00 20.00     0.050 A 
HETATM    8  S8  UNL     1     -34.579   5.395   6.477  1.00 20.00    -0.113 SA
HETATM    9  C4  UNL     1     -33.975   6.938   6.046  1.00 20.00     0.059 A 
ENDBRANCH   2   5
TORSDOF 1
ENDMDL
MODEL 2
REMARK VINA RESULT:      -3.8     12.298     12.886
REMARK  1 active torsions:
REMARK  status: ('A' for Active; 'I' for Inactive)
REMARK    1  A    between atoms: C5_5  and  C6_6 
ROOT
HETATM    1  C1  UNL     1     -31.759  18.617  -0.689  1.00 20.00     0.084 C 
HETATM    2  C6  UNL     1     -33.208  18.606  -0.993  1.00 20.00     0.222 C 
HETATM    3  N7  UNL     1     -30.627  18.617  -0.434  1.00 20.00    -0.195 NA
HETATM    4 CL9  UNL     1     -34.046  17.864   0.411  1.00 20.00    -0.104 Cl
ENDROOT
BRANCH   2   5
HETATM    5  C5  UNL     1     -33.565  17.907  -2.249  1.00 20.00    -0.019 A 
HETATM    6  C2  UNL     1     -33.258  16.542  -2.515  1.00 20.00     0.017 A 
HETATM    7  C3  UNL     1     -33.702  16.142  -3.756  1.00 20.00     0.050 A 
HETATM    8  S8  UNL     1     -34.485  17.412  -4.596  1.00 20.00    -0.113 SA
HETATM    9  C4  UNL     1     -34.232  18.500  -3.299  1.00 20.00     0.059 A 
ENDBRANCH   2   5
TORSDOF 1
ENDMDL
MODEL 3
REMARK VINA RESULT:      -3.7     15.707     16.278
REMARK  1 active torsions:
REMARK  status: ('A' for Active; 'I' for Inactive)
REMARK    1  A    between atoms: C5_5  and  C6_6 
ROOT
HETATM    1  C1  UNL     1     -24.420  19.255   7.862  1.00 20.00     0.084 C 
HETATM    2  C6  UNL     1     -23.205  19.229   8.707  1.00 20.00     0.222 C 
HETATM    3  N7  UNL     1     -25.365  19.263   7.188  1.00 20.00    -0.195 NA
HETATM    4 CL9  UNL     1     -22.014  18.151   7.904  1.00 20.00    -0.104 Cl
ENDROOT
BRANCH   2   5
HETATM    5  C5  UNL     1     -23.440  18.803  10.106  1.00 20.00    -0.019 A 
HETATM    6  C2  UNL     1     -22.400  18.514  11.035  1.00 20.00     0.017 A 
HETATM    7  C3  UNL     1     -22.892  18.141  12.266  1.00 20.00     0.050 A 
HETATM    8  S8  UNL     1     -24.604  18.141  12.299  1.00 20.00    -0.113 SA
HETATM    9  C4  UNL     1     -24.690  18.641  10.663  1.00 20.00     0.059 A 
ENDBRANCH   2   5
TORSDOF 1
ENDMDL
MODEL 4
REMARK VINA RESULT:      -3.6     12.384     13.046
REMARK  1 active torsions:
REMARK  status: ('A' for Active; 'I' for Inactive)
REMARK    1  A    between atoms: C5_5  and  C6_6 
ROOT
HETATM    1  C1  UNL     1     -35.439  14.195  -4.878  1.00 20.00     0.084 C 
HETATM    2  C6  UNL     1     -34.959  15.479  -5.434  1.00 20.00     0.222 C 
HETATM    3  N7  UNL     1     -35.805  13.177  -4.455  1.00 20.00    -0.195 NA
HETATM    4 CL9  UNL     1     -33.861  15.097  -6.802  1.00 20.00    -0.104 Cl
ENDROOT
BRANCH   2   5
HETATM    5  C5  UNL     1     -34.288  16.360  -4.450  1.00 20.00    -0.019 A 
HETATM    6  C2  UNL     1     -33.614  15.886  -3.288  1.00 20.00     0.017 A 
HETATM    7  C3  UNL     1     -33.079  16.914  -2.544  1.00 20.00     0.050 A 
HETATM    8  S8  UNL     1     -33.389  18.444  -3.246  1.00 20.00    -0.113 SA
HETATM    9  C4  UNL     1     -34.242  17.734  -4.550  1.00 20.00     0.059 A 
ENDBRANCH   2   5
TORSDOF 1
ENDMDL
MODEL 5
REMARK VINA RESULT:      -3.6     12.515     13.137
REMARK  1 active torsions:
REMARK  status: ('A' for Active; 'I' for Inactive)
REMARK    1  A    between atoms: C5_5  and  C6_6 
ROOT
HETATM    1  C1  UNL     1     -34.030  15.104  -6.438  1.00 20.00     0.084 C 
HETATM    2  C6  UNL     1     -34.008  14.877  -4.976  1.00 20.00     0.222 C 
HETATM    3  N7  UNL     1     -34.064  15.271  -7.587  1.00 20.00    -0.195 NA
HETATM    4 CL9  UNL     1     -35.431  13.862  -4.567  1.00 20.00    -0.104 Cl
ENDROOT
BRANCH   2   5
HETATM    5  C5  UNL     1     -33.993  16.116  -4.165  1.00 20.00    -0.019 A 
HETATM    6  C2  UNL     1     -33.339  16.233  -2.904  1.00 20.00     0.017 A 
HETATM    7  C3  UNL     1     -33.480  17.491  -2.362  1.00 20.00     0.050 A 
HETATM    8  S8  UNL     1     -34.398  18.526  -3.371  1.00 20.00    -0.113 SA
HETATM    9  C4  UNL     1     -34.609  17.290  -4.538  1.00 20.00     0.059 A 
ENDBRANCH   2   5
TORSDOF 1
ENDMDL
MODEL 6
REMARK VINA RESULT:      -3.3     12.492     12.891
REMARK  1 active torsions:
REMARK  status: ('A' for Active; 'I' for Inactive)
REMARK    1  A    between atoms: C5_5  and  C6_6 
ROOT
HETATM    1  C1  UNL     1     -34.129  18.623   0.460  1.00 20.00     0.084 C 
HETATM    2  C6  UNL     1     -33.239  17.832  -0.419  1.00 20.00     0.222 C 
HETATM    3  N7  UNL     1     -34.813  19.256   1.153  1.00 20.00    -0.195 NA
HETATM    4 CL9  UNL     1     -31.634  18.636  -0.423  1.00 20.00    -0.104 Cl
ENDROOT
BRANCH   2   5
HETATM    5  C5  UNL     1     -33.743  17.654  -1.800  1.00 20.00    -0.019 A 
HETATM    6  C2  UNL     1     -33.293  16.632  -2.685  1.00 20.00     0.017 A 
HETATM    7  C3  UNL     1     -33.923  16.692  -3.908  1.00 20.00     0.050 A 
HETATM    8  S8  UNL     1     -35.052  17.976  -3.987  1.00 20.00    -0.113 SA
HETATM    9  C4  UNL     1     -34.700  18.456  -2.382  1.00 20.00     0.059 A 
ENDBRANCH   2   5
TORSDOF 1
ENDMDL
MODEL 7
REMARK VINA RESULT:      -3.3     12.418     13.256
REMARK  1 active torsions:
REMARK  status: ('A' for Active; 'I' for Inactive)
REMARK    1  A    between atoms: C5_5  and  C6_6 
ROOT
HETATM    1  C1  UNL     1     -32.738  18.852  -2.242  1.00 20.00     0.084 C 
HETATM    2  C6  UNL     1     -33.905  18.610  -3.119  1.00 20.00     0.222 C 
HETATM    3  N7  UNL     1     -31.834  19.045  -1.540  1.00 20.00    -0.195 NA
HETATM    4 CL9  UNL     1     -35.381  18.812  -2.117  1.00 20.00    -0.104 Cl
ENDROOT
BRANCH   2   5
HETATM    5  C5  UNL     1     -33.902  17.290  -3.792  1.00 20.00    -0.019 A 
HETATM    6  C2  UNL     1     -33.284  16.125  -3.254  1.00 20.00     0.017 A 
HETATM    7  C3  UNL     1     -33.428  15.033  -4.082  1.00 20.00     0.050 A 
HETATM    8  S8  UNL     1     -34.307  15.415  -5.500  1.00 20.00    -0.113 SA
HETATM    9  C4  UNL     1     -34.496  17.044  -5.010  1.00 20.00     0.059 A 
ENDBRANCH   2   5
TORSDOF 1
ENDMDL
MODEL 8
REMARK VINA RESULT:      -3.3     12.754     12.956
REMARK  1 active torsions:
REMARK  status: ('A' for Active; 'I' for Inactive)
REMARK    1  A    between atoms: C5_5  and  C6_6 
ROOT
HETATM    1  C1  UNL     1     -34.923  18.556  -2.295  1.00 20.00     0.084 C 
HETATM    2  C6  UNL     1     -33.508  18.141  -2.181  1.00 20.00     0.222 C 
HETATM    3  N7  UNL     1     -36.039  18.864  -2.389  1.00 20.00    -0.195 NA
HETATM    4 CL9  UNL     1     -33.438  16.374  -2.491  1.00 20.00    -0.104 Cl
ENDROOT
BRANCH   2   5
HETATM    5  C5  UNL     1     -32.874  18.473  -0.885  1.00 20.00    -0.019 A 
HETATM    6  C2  UNL     1     -31.467  18.469  -0.662  1.00 20.00     0.017 A 
HETATM    7  C3  UNL     1     -31.145  18.815   0.631  1.00 20.00     0.050 A 
HETATM    8  S8  UNL     1     -32.537  19.144   1.573  1.00 20.00    -0.113 SA
HETATM    9  C4  UNL     1     -33.574  18.824   0.249  1.00 20.00     0.059 A 
ENDBRANCH   2   5
TORSDOF 1
ENDMDL
MODEL 9
REMARK VINA RESULT:      -3.2      3.347      4.105
REMARK  1 active torsions:
REMARK  status: ('A' for Active; 'I' for Inactive)
REMARK    1  A    between atoms: C5_5  and  C6_6 
ROOT
HETATM    1  C1  UNL     1     -34.748   5.392   5.886  1.00 20.00     0.084 C 
HETATM    2  C6  UNL     1     -34.446   5.705   4.472  1.00 20.00     0.222 C 
HETATM    3  N7  UNL     1     -34.980   5.128   6.992  1.00 20.00    -0.195 NA
HETATM    4 CL9  UNL     1     -33.791   4.213   3.718  1.00 20.00    -0.104 Cl
ENDROOT
BRANCH   2   5
HETATM    5  C5  UNL     1     -33.517   6.843   4.281  1.00 20.00    -0.019 A 
HETATM    6  C2  UNL     1     -32.605   6.952   3.192  1.00 20.00     0.017 A 
HETATM    7  C3  UNL     1     -31.858   8.107   3.254  1.00 20.00     0.050 A 
HETATM    8  S8  UNL     1     -32.255   9.055   4.623  1.00 20.00    -0.113 SA
HETATM    9  C4  UNL     1     -33.430   7.920   5.136  1.00 20.00     0.059 A 
ENDBRANCH   2   5
TORSDOF 1
ENDMDL
