MODEL 1
REMARK VINA RESULT:      -3.7      0.000      0.000
REMARK  0 active torsions:
REMARK  status: ('A' for Active; 'I' for Inactive)
ROOT
HETATM    1  C1  UNL     1     -22.707  17.350   9.211  1.00 20.00     0.085 C 
HETATM    2  C2  UNL     1     -24.511  18.747  10.139  1.00 20.00     0.051 C 
HETATM    3  C3  UNL     1     -24.029  16.416  11.068  1.00 20.00     0.051 C 
HETATM    4  C4  UNL     1     -25.376  19.153  11.330  1.00 20.00     0.076 C 
HETATM    5  C5  UNL     1     -24.856  16.639  12.332  1.00 20.00     0.076 C 
HETATM    6  C6  UNL     1     -23.433  17.692  10.448  1.00 20.00     0.127 C 
HETATM    7  N7  UNL     1     -22.135  17.079   8.238  1.00 20.00    -0.195 NA
HETATM    8  S8  UNL     1     -26.267  17.739  12.033  1.00 20.00    -0.169 SA
HETATM    9 CL9  UNL     1     -22.196  18.390  11.554  1.00 20.00    -0.103 Cl
ENDROOT
TORSDOF 0
ENDMDL
MODEL 2
REMARK VINA RESULT:      -3.3      2.035      2.612
REMARK  0 active torsions:
REMARK  status: ('A' for Active; 'I' for Inactive)
ROOT
HETATM    1  C1  UNL     1     -21.879  17.453   7.953  1.00 20.00     0.085 C 
HETATM    2  C2  UNL     1     -23.512  16.746   9.657  1.00 20.00     0.051 C 
HETATM    3  C3  UNL     1     -21.637  18.389  10.219  1.00 20.00     0.051 C 
HETATM    4  C4  UNL     1     -24.301  17.056  10.926  1.00 20.00     0.076 C 
HETATM    5  C5  UNL     1     -22.280  18.827  11.533  1.00 20.00     0.076 C 
HETATM    6  C6  UNL     1     -22.625  17.895   9.146  1.00 20.00     0.127 C 
HETATM    7  N7  UNL     1     -21.293  17.106   7.014  1.00 20.00    -0.195 NA
HETATM    8  S8  UNL     1     -23.214  17.482  12.313  1.00 20.00    -0.169 SA
HETATM    9 CL9  UNL     1     -23.656  19.262   8.589  1.00 20.00    -0.103 Cl
ENDROOT
TORSDOF 0
ENDMDL
MODEL 3
REMARK VINA RESULT:      -3.1     18.132     18.527
REMARK  0 active torsions:
REMARK  status: ('A' for Active; 'I' for Inactive)
ROOT
HETATM    1  C1  UNL     1     -40.092  12.401   5.329  1.00 20.00     0.085 C 
HETATM    2  C2  UNL     1     -42.131  12.287   6.707  1.00 20.00     0.051 C 
HETATM    3  C3  UNL     1     -40.418  14.155   7.028  1.00 20.00     0.051 C 
HETATM    4  C4  UNL     1     -43.213  13.004   7.512  1.00 20.00     0.076 C 
HETATM    5  C5  UNL     1     -41.365  15.018   7.858  1.00 20.00     0.076 C 
HETATM    6  C6  UNL     1     -41.108  13.213   6.025  1.00 20.00     0.127 C 
HETATM    7  N7  UNL     1     -39.293  11.763   4.781  1.00 20.00    -0.195 NA
HETATM    8  S8  UNL     1     -42.509  14.013   8.843  1.00 20.00    -0.169 SA
HETATM    9 CL9  UNL     1     -41.918  14.177   4.738  1.00 20.00    -0.103 Cl
ENDROOT
TORSDOF 0
ENDMDL
MODEL 4
REMARK VINA RESULT:      -3.1     16.303     16.882
REMARK  0 active torsions:
REMARK  status: ('A' for Active; 'I' for Inactive)
ROOT
HETATM    1  C1  UNL     1     -33.958  18.182  -0.452  1.00 20.00     0.085 C 
HETATM    2  C2  UNL     1     -33.445  16.632  -2.297  1.00 20.00     0.051 C 
HETATM    3  C3  UNL     1     -35.082  18.569  -2.610  1.00 20.00     0.051 C 
HETATM    4  C4  UNL     1     -33.302  16.377  -3.796  1.00 20.00     0.076 C 
HETATM    5  C5  UNL     1     -35.068  18.466  -4.133  1.00 20.00     0.076 C 
HETATM    6  C6  UNL     1     -33.798  18.080  -1.914  1.00 20.00     0.127 C 
HETATM    7  N7  UNL     1     -34.085  18.262   0.699  1.00 20.00    -0.195 NA
HETATM    8  S8  UNL     1     -34.830  16.758  -4.695  1.00 20.00    -0.169 SA
HETATM    9 CL9  UNL     1     -32.427  19.173  -2.324  1.00 20.00    -0.103 Cl
ENDROOT
TORSDOF 0
ENDMDL
MODEL 5
REMARK VINA RESULT:      -3.1     15.578     16.051
REMARK  0 active torsions:
REMARK  status: ('A' for Active; 'I' for Inactive)
ROOT
HETATM    1  C1  UNL     1     -31.788  18.516  -0.912  1.00 20.00     0.085 C 
HETATM    2  C2  UNL     1     -33.755  19.259  -2.196  1.00 20.00     0.051 C 
HETATM    3  C3  UNL     1     -32.724  16.951  -2.569  1.00 20.00     0.051 C 
HETATM    4  C4  UNL     1     -35.043  18.915  -2.939  1.00 20.00     0.076 C 
HETATM    5  C5  UNL     1     -33.931  16.426  -3.342  1.00 20.00     0.076 C 
HETATM    6  C6  UNL     1     -33.037  18.061  -1.549  1.00 20.00     0.127 C 
HETATM    7  N7  UNL     1     -30.805  18.873  -0.411  1.00 20.00    -0.195 NA
HETATM    8  S8  UNL     1     -34.753  17.738  -4.287  1.00 20.00    -0.169 SA
HETATM    9 CL9  UNL     1     -34.044  17.395  -0.212  1.00 20.00    -0.103 Cl
ENDROOT
TORSDOF 0
ENDMDL
MODEL 6
REMARK VINA RESULT:      -3.1     18.677     19.112
REMARK  0 active torsions:
REMARK  status: ('A' for Active; 'I' for Inactive)
ROOT
HETATM    1  C1  UNL     1     -34.042  15.455  -6.853  1.00 20.00     0.085 C 
HETATM    2  C2  UNL     1     -33.375  15.478  -4.481  1.00 20.00     0.051 C 
HETATM    3  C3  UNL     1     -34.771  17.369  -5.482  1.00 20.00     0.051 C 
HETATM    4  C4  UNL     1     -33.664  15.890  -3.040  1.00 20.00     0.076 C 
HETATM    5  C5  UNL     1     -35.170  17.929  -4.120  1.00 20.00     0.076 C 
HETATM    6  C6  UNL     1     -34.464  15.860  -5.499  1.00 20.00     0.127 C 
HETATM    7  N7  UNL     1     -33.710  15.138  -7.918  1.00 20.00    -0.195 NA
HETATM    8  S8  UNL     1     -33.871  17.684  -2.879  1.00 20.00    -0.169 SA
HETATM    9 CL9  UNL     1     -35.967  14.926  -5.165  1.00 20.00    -0.103 Cl
ENDROOT
TORSDOF 0
ENDMDL
MODEL 7
REMARK VINA RESULT:      -3.1     18.801     19.211
REMARK  0 active torsions:
REMARK  status: ('A' for Active; 'I' for Inactive)
ROOT
HETATM    1  C1  UNL     1     -35.375  14.098  -4.677  1.00 20.00     0.085 C 
HETATM    2  C2  UNL     1     -35.915  16.421  -5.294  1.00 20.00     0.051 C 
HETATM    3  C3  UNL     1     -33.902  15.877  -3.817  1.00 20.00     0.051 C 
HETATM    4  C4  UNL     1     -35.447  17.846  -5.582  1.00 20.00     0.076 C 
HETATM    5  C5  UNL     1     -33.276  17.258  -3.989  1.00 20.00     0.076 C 
HETATM    6  C6  UNL     1     -34.791  15.416  -4.987  1.00 20.00     0.127 C 
HETATM    7  N7  UNL     1     -35.834  13.061  -4.432  1.00 20.00    -0.195 NA
HETATM    8  S8  UNL     1     -34.532  18.552  -4.185  1.00 20.00    -0.169 SA
HETATM    9 CL9  UNL     1     -33.782  15.160  -6.457  1.00 20.00    -0.103 Cl
ENDROOT
TORSDOF 0
ENDMDL
MODEL 8
REMARK VINA RESULT:      -3.0     17.378     17.926
REMARK  0 active torsions:
REMARK  status: ('A' for Active; 'I' for Inactive)
ROOT
HETATM    1  C1  UNL     1     -34.683  18.596  -2.075  1.00 20.00     0.085 C 
HETATM    2  C2  UNL     1     -33.567  16.511  -2.766  1.00 20.00     0.051 C 
HETATM    3  C3  UNL     1     -35.286  17.656  -4.271  1.00 20.00     0.051 C 
HETATM    4  C4  UNL     1     -33.038  15.613  -3.882  1.00 20.00     0.076 C 
HETATM    5  C5  UNL     1     -34.892  16.848  -5.505  1.00 20.00     0.076 C 
HETATM    6  C6  UNL     1     -34.163  17.850  -3.236  1.00 20.00     0.127 C 
HETATM    7  N7  UNL     1     -35.092  19.183  -1.162  1.00 20.00    -0.195 NA
HETATM    8  S8  UNL     1     -34.335  15.177  -5.072  1.00 20.00    -0.169 SA
HETATM    9 CL9  UNL     1     -32.864  18.887  -3.930  1.00 20.00    -0.103 Cl
ENDROOT
TORSDOF 0
ENDMDL
MODEL 9
REMARK VINA RESULT:      -3.0     18.149     18.574
REMARK  0 active torsions:
REMARK  status: ('A' for Active; 'I' for Inactive)
ROOT
HETATM    1  C1  UNL     1     -40.209  12.442   5.277  1.00 20.00     0.085 C 
HETATM    2  C2  UNL     1     -40.473  14.240   6.941  1.00 20.00     0.051 C 
HETATM    3  C3  UNL     1     -41.942  14.141   4.853  1.00 20.00     0.051 C 
HETATM    4  C4  UNL     1     -41.370  15.252   7.648  1.00 20.00     0.076 C 
HETATM    5  C5  UNL     1     -42.955  15.146   5.396  1.00 20.00     0.076 C 
HETATM    6  C6  UNL     1     -41.190  13.333   5.925  1.00 20.00     0.127 C 
HETATM    7  N7  UNL     1     -39.438  11.742   4.766  1.00 20.00    -0.195 NA
HETATM    8  S8  UNL     1     -42.176  16.377   6.476  1.00 20.00    -0.169 SA
HETATM    9 CL9  UNL     1     -42.336  12.241   6.784  1.00 20.00    -0.103 Cl
ENDROOT
TORSDOF 0
ENDMDL
