MODEL 1
REMARK VINA RESULT:      -4.5      0.000      0.000
REMARK  1 active torsions:
REMARK  status: ('A' for Active; 'I' for Inactive)
REMARK    1  A    between atoms: C5_5  and  C6_6 
ROOT
HETATM    1  C1  UNL     1     -34.315   4.902   4.510  1.00 20.00     0.080 C 
HETATM    2  C6  UNL     1     -34.799   6.210   4.968  1.00 20.00     0.195 C 
HETATM    3  N7  UNL     1     -33.935   3.866   4.150  1.00 20.00    -0.196 NA
HETATM    4 CL9  UNL     1     -34.712   6.233   6.751  1.00 20.00    -0.109 Cl
ENDROOT
BRANCH   2   5
HETATM    5  C5  UNL     1     -33.973   7.346   4.396  1.00 20.00     0.044 C 
HETATM    6  C2  UNL     1     -33.318   8.224   5.441  1.00 20.00     0.035 C 
HETATM    7  C3  UNL     1     -32.228   8.898   4.634  1.00 20.00     0.168 C 
HETATM    8  O8  UNL     1     -31.826   7.966   3.619  1.00 20.00    -0.391 OA
HETATM    9  C4  UNL     1     -32.768   6.884   3.594  1.00 20.00     0.174 C 
ENDBRANCH   2   5
TORSDOF 1
ENDMDL
MODEL 2
REMARK VINA RESULT:      -4.5      2.836      3.746
REMARK  1 active torsions:
REMARK  status: ('A' for Active; 'I' for Inactive)
REMARK    1  A    between atoms: C5_5  and  C6_6 
ROOT
HETATM    1  C1  UNL     1     -32.286   7.710   2.928  1.00 20.00     0.080 C 
HETATM    2  C6  UNL     1     -32.445   7.693   4.387  1.00 20.00     0.195 C 
HETATM    3  N7  UNL     1     -32.157   7.726   1.775  1.00 20.00    -0.196 NA
HETATM    4 CL9  UNL     1     -32.307   9.373   4.974  1.00 20.00    -0.109 Cl
ENDROOT
BRANCH   2   5
HETATM    5  C5  UNL     1     -33.783   7.110   4.799  1.00 20.00     0.044 C 
HETATM    6  C2  UNL     1     -34.076   5.749   4.206  1.00 20.00     0.035 C 
HETATM    7  C3  UNL     1     -35.157   5.237   5.135  1.00 20.00     0.168 C 
HETATM    8  O8  UNL     1     -34.898   5.804   6.428  1.00 20.00    -0.391 OA
HETATM    9  C4  UNL     1     -33.893   6.819   6.286  1.00 20.00     0.174 C 
ENDBRANCH   2   5
TORSDOF 1
ENDMDL
MODEL 3
REMARK VINA RESULT:      -4.4      3.230      3.969
REMARK  1 active torsions:
REMARK  status: ('A' for Active; 'I' for Inactive)
REMARK    1  A    between atoms: C5_5  and  C6_6 
ROOT
HETATM    1  C1  UNL     1     -32.431   8.806   4.759  1.00 20.00     0.080 C 
HETATM    2  C6  UNL     1     -33.157   7.793   3.985  1.00 20.00     0.195 C 
HETATM    3  N7  UNL     1     -31.856   9.610   5.368  1.00 20.00    -0.196 NA
HETATM    4 CL9  UNL     1     -32.186   7.407   2.538  1.00 20.00    -0.109 Cl
ENDROOT
BRANCH   2   5
HETATM    5  C5  UNL     1     -33.399   6.533   4.796  1.00 20.00     0.044 C 
HETATM    6  C2  UNL     1     -34.172   6.760   6.077  1.00 20.00     0.035 C 
HETATM    7  C3  UNL     1     -34.669   5.363   6.384  1.00 20.00     0.168 C 
HETATM    8  O8  UNL     1     -34.863   4.703   5.124  1.00 20.00    -0.391 OA
HETATM    9  C4  UNL     1     -34.275   5.511   4.093  1.00 20.00     0.174 C 
ENDBRANCH   2   5
TORSDOF 1
ENDMDL
MODEL 4
REMARK VINA RESULT:      -3.9     12.871     13.415
REMARK  1 active torsions:
REMARK  status: ('A' for Active; 'I' for Inactive)
REMARK    1  A    between atoms: C5_5  and  C6_6 
ROOT
HETATM    1  C1  UNL     1     -31.826  18.344  -0.678  1.00 20.00     0.080 C 
HETATM    2  C6  UNL     1     -33.154  17.812  -1.005  1.00 20.00     0.195 C 
HETATM    3  N7  UNL     1     -30.777  18.765  -0.415  1.00 20.00    -0.196 NA
HETATM    4 CL9  UNL     1     -34.373  18.924  -0.326  1.00 20.00    -0.109 Cl
ENDROOT
BRANCH   2   5
HETATM    5  C5  UNL     1     -33.352  17.681  -2.504  1.00 20.00     0.044 C 
HETATM    6  C2  UNL     1     -33.380  16.253  -3.003  1.00 20.00     0.035 C 
HETATM    7  C3  UNL     1     -34.058  16.412  -4.348  1.00 20.00     0.168 C 
HETATM    8  O8  UNL     1     -34.965  17.518  -4.227  1.00 20.00    -0.391 OA
HETATM    9  C4  UNL     1     -34.696  18.195  -2.991  1.00 20.00     0.174 C 
ENDBRANCH   2   5
TORSDOF 1
ENDMDL
MODEL 5
REMARK VINA RESULT:      -3.8      2.840      3.700
REMARK  1 active torsions:
REMARK  status: ('A' for Active; 'I' for Inactive)
REMARK    1  A    between atoms: C5_5  and  C6_6 
ROOT
HETATM    1  C1  UNL     1     -32.351   7.348   3.410  1.00 20.00     0.080 C 
HETATM    2  C6  UNL     1     -33.487   6.451   3.165  1.00 20.00     0.195 C 
HETATM    3  N7  UNL     1     -31.452   8.056   3.601  1.00 20.00    -0.196 NA
HETATM    4 CL9  UNL     1     -32.836   4.865   2.670  1.00 20.00    -0.109 Cl
ENDROOT
BRANCH   2   5
HETATM    5  C5  UNL     1     -34.354   6.292   4.400  1.00 20.00     0.044 C 
HETATM    6  C2  UNL     1     -34.312   4.908   5.012  1.00 20.00     0.035 C 
HETATM    7  C3  UNL     1     -34.823   5.178   6.412  1.00 20.00     0.168 C 
HETATM    8  O8  UNL     1     -34.410   6.509   6.755  1.00 20.00    -0.391 OA
HETATM    9  C4  UNL     1     -33.913   7.151   5.572  1.00 20.00     0.174 C 
ENDBRANCH   2   5
TORSDOF 1
ENDMDL
MODEL 6
REMARK VINA RESULT:      -3.7      0.817      1.370
REMARK  1 active torsions:
REMARK  status: ('A' for Active; 'I' for Inactive)
REMARK    1  A    between atoms: C5_5  and  C6_6 
ROOT
HETATM    1  C1  UNL     1     -34.256   4.909   4.586  1.00 20.00     0.080 C 
HETATM    2  C6  UNL     1     -34.448   6.292   5.039  1.00 20.00     0.195 C 
HETATM    3  N7  UNL     1     -34.108   3.814   4.230  1.00 20.00    -0.196 NA
HETATM    4 CL9  UNL     1     -34.870   6.248   6.772  1.00 20.00    -0.109 Cl
ENDROOT
BRANCH   2   5
HETATM    5  C5  UNL     1     -33.199   7.128   4.832  1.00 20.00     0.044 C 
HETATM    6  C2  UNL     1     -32.665   7.105   3.416  1.00 20.00     0.035 C 
HETATM    7  C3  UNL     1     -31.792   8.343   3.399  1.00 20.00     0.168 C 
HETATM    8  O8  UNL     1     -32.393   9.288   4.296  1.00 20.00    -0.391 OA
HETATM    9  C4  UNL     1     -33.416   8.616   5.046  1.00 20.00     0.174 C 
ENDBRANCH   2   5
TORSDOF 1
ENDMDL
MODEL 7
REMARK VINA RESULT:      -3.6      2.524      3.292
REMARK  1 active torsions:
REMARK  status: ('A' for Active; 'I' for Inactive)
REMARK    1  A    between atoms: C5_5  and  C6_6 
ROOT
HETATM    1  C1  UNL     1     -32.800   5.575   2.643  1.00 20.00     0.080 C 
HETATM    2  C6  UNL     1     -32.633   6.720   3.546  1.00 20.00     0.195 C 
HETATM    3  N7  UNL     1     -32.929   4.671   1.927  1.00 20.00    -0.196 NA
HETATM    4 CL9  UNL     1     -32.540   8.197   2.548  1.00 20.00    -0.109 Cl
ENDROOT
BRANCH   2   5
HETATM    5  C5  UNL     1     -33.784   6.832   4.529  1.00 20.00     0.044 C 
HETATM    6  C2  UNL     1     -34.293   5.503   5.041  1.00 20.00     0.035 C 
HETATM    7  C3  UNL     1     -35.031   5.921   6.295  1.00 20.00     0.168 C 
HETATM    8  O8  UNL     1     -34.350   7.073   6.814  1.00 20.00    -0.391 OA
HETATM    9  C4  UNL     1     -33.416   7.532   5.826  1.00 20.00     0.174 C 
ENDBRANCH   2   5
TORSDOF 1
ENDMDL
MODEL 8
REMARK VINA RESULT:      -3.5     12.662     12.977
REMARK  1 active torsions:
REMARK  status: ('A' for Active; 'I' for Inactive)
REMARK    1  A    between atoms: C5_5  and  C6_6 
ROOT
HETATM    1  C1  UNL     1     -33.651  15.351  -3.845  1.00 20.00     0.080 C 
HETATM    2  C6  UNL     1     -33.275  16.742  -3.566  1.00 20.00     0.195 C 
HETATM    3  N7  UNL     1     -33.947  14.251  -4.069  1.00 20.00    -0.196 NA
HETATM    4 CL9  UNL     1     -34.102  17.783  -4.757  1.00 20.00    -0.109 Cl
ENDROOT
BRANCH   2   5
HETATM    5  C5  UNL     1     -33.665  17.157  -2.160  1.00 20.00     0.044 C 
HETATM    6  C2  UNL     1     -32.543  17.794  -1.368  1.00 20.00     0.035 C 
HETATM    7  C3  UNL     1     -33.309  18.518  -0.281  1.00 20.00     0.168 C 
HETATM    8  O8  UNL     1     -34.568  18.907  -0.847  1.00 20.00    -0.391 OA
HETATM    9  C4  UNL     1     -34.721  18.248  -2.113  1.00 20.00     0.174 C 
ENDBRANCH   2   5
TORSDOF 1
ENDMDL
MODEL 9
REMARK VINA RESULT:      -3.5     12.695     12.875
REMARK  1 active torsions:
REMARK  status: ('A' for Active; 'I' for Inactive)
REMARK    1  A    between atoms: C5_5  and  C6_6 
ROOT
HETATM    1  C1  UNL     1     -33.331  16.583  -3.194  1.00 20.00     0.080 C 
HETATM    2  C6  UNL     1     -33.392  17.875  -2.500  1.00 20.00     0.195 C 
HETATM    3  N7  UNL     1     -33.284  15.563  -3.746  1.00 20.00    -0.196 NA
HETATM    4 CL9  UNL     1     -35.079  18.455  -2.569  1.00 20.00    -0.109 Cl
ENDROOT
BRANCH   2   5
HETATM    5  C5  UNL     1     -32.945  17.758  -1.055  1.00 20.00     0.044 C 
HETATM    6  C2  UNL     1     -31.682  18.527  -0.733  1.00 20.00     0.035 C 
HETATM    7  C3  UNL     1     -31.768  18.636   0.776  1.00 20.00     0.168 C 
HETATM    8  O8  UNL     1     -33.162  18.687   1.111  1.00 20.00    -0.391 OA
HETATM    9  C4  UNL     1     -33.924  18.358  -0.061  1.00 20.00     0.174 C 
ENDBRANCH   2   5
TORSDOF 1
ENDMDL
