MODEL 1
REMARK VINA RESULT:      -3.5      0.000      0.000
REMARK  1 active torsions:
REMARK  status: ('A' for Active; 'I' for Inactive)
REMARK    1  A    between atoms: C7_7  and  N8_8 
ROOT
HETATM    1  C1  UNL     1     -33.966  14.710  -4.522  1.00 20.00     0.045 C 
HETATM    2  C2  UNL     1     -33.025  15.607  -3.728  1.00 20.00     0.236 C 
HETATM    3  C3  UNL     1     -34.504  16.920  -5.167  1.00 20.00     0.251 C 
HETATM    4  C4  UNL     1     -34.299  15.534  -5.761  1.00 20.00     0.086 C 
HETATM    5  N8  UNL     1     -33.390  17.020  -4.142  1.00 20.00    -0.066 N 
HETATM    6  S9  UNL     1     -35.788  14.939  -6.596  1.00 20.00    -0.091 SA
HETATM    7  H24 UNL     1     -32.570  17.409  -4.629  1.00 20.00     0.280 HD
ENDROOT
BRANCH   5   8
HETATM    8  C7  UNL     1     -33.698  17.936  -3.002  1.00 20.00     0.180 C 
HETATM    9  C5  UNL     1     -33.528  17.163  -1.703  1.00 20.00     0.039 C 
HETATM   10  C6  UNL     1     -35.112  18.464  -3.177  1.00 20.00     0.039 C 
ENDBRANCH   5   8
TORSDOF 1
ENDMDL
MODEL 2
REMARK VINA RESULT:      -3.2      2.343      4.025
REMARK  1 active torsions:
REMARK  status: ('A' for Active; 'I' for Inactive)
REMARK    1  A    between atoms: C7_7  and  N8_8 
ROOT
HETATM    1  C1  UNL     1     -34.784  18.123  -3.517  1.00 20.00     0.045 C 
HETATM    2  C2  UNL     1     -34.536  17.574  -4.916  1.00 20.00     0.236 C 
HETATM    3  C3  UNL     1     -33.208  16.383  -3.243  1.00 20.00     0.251 C 
HETATM    4  C4  UNL     1     -33.502  17.796  -2.762  1.00 20.00     0.086 C 
HETATM    5  N8  UNL     1     -33.534  16.452  -4.723  1.00 20.00    -0.066 N 
HETATM    6  S9  UNL     1     -33.731  17.858  -0.970  1.00 20.00    -0.091 SA
HETATM    7  H24 UNL     1     -32.669  16.737  -5.205  1.00 20.00     0.280 HD
ENDROOT
BRANCH   5   8
HETATM    8  C7  UNL     1     -33.953  15.143  -5.311  1.00 20.00     0.180 C 
HETATM    9  C5  UNL     1     -35.102  15.394  -6.275  1.00 20.00     0.039 C 
HETATM   10  C6  UNL     1     -34.345  14.209  -4.178  1.00 20.00     0.039 C 
ENDBRANCH   5   8
TORSDOF 1
ENDMDL
MODEL 3
REMARK VINA RESULT:      -3.2      2.478      4.032
REMARK  1 active torsions:
REMARK  status: ('A' for Active; 'I' for Inactive)
REMARK    1  A    between atoms: C7_7  and  N8_8 
ROOT
HETATM    1  C1  UNL     1     -34.389  18.565  -3.311  1.00 20.00     0.045 C 
HETATM    2  C2  UNL     1     -34.347  17.973  -4.713  1.00 20.00     0.236 C 
HETATM    3  C3  UNL     1     -33.327  16.466  -3.078  1.00 20.00     0.251 C 
HETATM    4  C4  UNL     1     -33.215  17.905  -2.598  1.00 20.00     0.086 C 
HETATM    5  N8  UNL     1     -33.675  16.623  -4.547  1.00 20.00    -0.066 N 
HETATM    6  S9  UNL     1     -33.355  18.023  -0.799  1.00 20.00    -0.091 SA
HETATM    7  H24 UNL     1     -32.784  16.668  -5.061  1.00 20.00     0.280 HD
ENDROOT
BRANCH   5   8
HETATM    8  C7  UNL     1     -34.450  15.476  -5.110  1.00 20.00     0.180 C 
HETATM    9  C5  UNL     1     -34.261  14.274  -4.197  1.00 20.00     0.039 C 
HETATM   10  C6  UNL     1     -33.957  15.209  -6.522  1.00 20.00     0.039 C 
ENDBRANCH   5   8
TORSDOF 1
ENDMDL
MODEL 4
REMARK VINA RESULT:      -3.2      2.318      3.738
REMARK  1 active torsions:
REMARK  status: ('A' for Active; 'I' for Inactive)
REMARK    1  A    between atoms: C7_7  and  N8_8 
ROOT
HETATM    1  C1  UNL     1     -33.110  15.909  -3.568  1.00 20.00     0.045 C 
HETATM    2  C2  UNL     1     -34.017  14.819  -4.123  1.00 20.00     0.236 C 
HETATM    3  C3  UNL     1     -34.842  17.046  -4.706  1.00 20.00     0.251 C 
HETATM    4  C4  UNL     1     -34.033  17.113  -3.420  1.00 20.00     0.086 C 
HETATM    5  N8  UNL     1     -35.115  15.561  -4.860  1.00 20.00    -0.066 N 
HETATM    6  S9  UNL     1     -33.114  18.665  -3.289  1.00 20.00    -0.091 SA
HETATM    7  H24 UNL     1     -35.994  15.367  -4.361  1.00 20.00     0.280 HD
ENDROOT
BRANCH   5   8
HETATM    8  C7  UNL     1     -35.309  15.126  -6.277  1.00 20.00     0.180 C 
HETATM    9  C5  UNL     1     -33.996  15.311  -7.022  1.00 20.00     0.039 C 
HETATM   10  C6  UNL     1     -36.435  15.947  -6.883  1.00 20.00     0.039 C 
ENDBRANCH   5   8
TORSDOF 1
ENDMDL
MODEL 5
REMARK VINA RESULT:      -3.1      1.136      2.035
REMARK  1 active torsions:
REMARK  status: ('A' for Active; 'I' for Inactive)
REMARK    1  A    between atoms: C7_7  and  N8_8 
ROOT
HETATM    1  C1  UNL     1     -34.942  17.515  -5.133  1.00 20.00     0.045 C 
HETATM    2  C2  UNL     1     -35.004  17.996  -3.690  1.00 20.00     0.236 C 
HETATM    3  C3  UNL     1     -33.721  15.924  -3.882  1.00 20.00     0.251 C 
HETATM    4  C4  UNL     1     -34.740  16.009  -5.009  1.00 20.00     0.086 C 
HETATM    5  N8  UNL     1     -34.208  16.975  -2.902  1.00 20.00    -0.066 N 
HETATM    6  S9  UNL     1     -34.109  15.277  -6.537  1.00 20.00    -0.091 SA
HETATM    7  H24 UNL     1     -34.868  16.506  -2.266  1.00 20.00     0.280 HD
ENDROOT
BRANCH   5   8
HETATM    8  C7  UNL     1     -33.123  17.558  -2.054  1.00 20.00     0.180 C 
HETATM    9  C5  UNL     1     -33.647  17.702  -0.634  1.00 20.00     0.039 C 
HETATM   10  C6  UNL     1     -32.709  18.892  -2.653  1.00 20.00     0.039 C 
ENDBRANCH   5   8
TORSDOF 1
ENDMDL
MODEL 6
REMARK VINA RESULT:      -3.1      3.988      5.490
REMARK  1 active torsions:
REMARK  status: ('A' for Active; 'I' for Inactive)
REMARK    1  A    between atoms: C7_7  and  N8_8 
ROOT
HETATM    1  C1  UNL     1     -33.560  18.338   0.587  1.00 20.00     0.045 C 
HETATM    2  C2  UNL     1     -34.217  18.642  -0.752  1.00 20.00     0.236 C 
HETATM    3  C3  UNL     1     -31.778  18.718  -0.919  1.00 20.00     0.251 C 
HETATM    4  C4  UNL     1     -32.211  19.043   0.502  1.00 20.00     0.086 C 
HETATM    5  N8  UNL     1     -33.063  18.871  -1.711  1.00 20.00    -0.066 N 
HETATM    6  S9  UNL     1     -31.033  18.412   1.720  1.00 20.00    -0.091 SA
HETATM    7  H24 UNL     1     -33.114  19.855  -2.009  1.00 20.00     0.280 HD
ENDROOT
BRANCH   5   8
HETATM    8  C7  UNL     1     -33.114  18.034  -2.948  1.00 20.00     0.180 C 
HETATM    9  C5  UNL     1     -34.226  18.562  -3.841  1.00 20.00     0.039 C 
HETATM   10  C6  UNL     1     -33.340  16.587  -2.542  1.00 20.00     0.039 C 
ENDBRANCH   5   8
TORSDOF 1
ENDMDL
MODEL 7
REMARK VINA RESULT:      -3.1      1.918      2.904
REMARK  1 active torsions:
REMARK  status: ('A' for Active; 'I' for Inactive)
REMARK    1  A    between atoms: C7_7  and  N8_8 
ROOT
HETATM    1  C1  UNL     1     -36.243  16.592  -5.683  1.00 20.00     0.045 C 
HETATM    2  C2  UNL     1     -34.810  16.097  -5.825  1.00 20.00     0.236 C 
HETATM    3  C3  UNL     1     -34.989  17.823  -4.103  1.00 20.00     0.251 C 
HETATM    4  C4  UNL     1     -36.090  18.007  -5.137  1.00 20.00     0.086 C 
HETATM    5  N8  UNL     1     -34.021  16.885  -4.798  1.00 20.00    -0.066 N 
HETATM    6  S9  UNL     1     -37.617  18.617  -4.386  1.00 20.00    -0.091 SA
HETATM    7  H24 UNL     1     -33.357  17.475  -5.320  1.00 20.00     0.280 HD
ENDROOT
BRANCH   5   8
HETATM    8  C7  UNL     1     -33.216  16.044  -3.861  1.00 20.00     0.180 C 
HETATM    9  C5  UNL     1     -33.650  14.595  -4.020  1.00 20.00     0.039 C 
HETATM   10  C6  UNL     1     -33.431  16.557  -2.447  1.00 20.00     0.039 C 
ENDBRANCH   5   8
TORSDOF 1
ENDMDL
MODEL 8
REMARK VINA RESULT:      -3.0      2.529      3.898
REMARK  1 active torsions:
REMARK  status: ('A' for Active; 'I' for Inactive)
REMARK    1  A    between atoms: C7_7  and  N8_8 
ROOT
HETATM    1  C1  UNL     1     -32.995  16.361  -3.061  1.00 20.00     0.045 C 
HETATM    2  C2  UNL     1     -33.893  15.443  -3.879  1.00 20.00     0.236 C 
HETATM    3  C3  UNL     1     -34.659  17.763  -3.984  1.00 20.00     0.251 C 
HETATM    4  C4  UNL     1     -33.905  17.524  -2.685  1.00 20.00     0.086 C 
HETATM    5  N8  UNL     1     -34.947  16.356  -4.475  1.00 20.00    -0.066 N 
HETATM    6  S9  UNL     1     -32.971  18.985  -2.176  1.00 20.00    -0.091 SA
HETATM    7  H24 UNL     1     -35.850  16.077  -4.066  1.00 20.00     0.280 HD
ENDROOT
BRANCH   5   8
HETATM    8  C7  UNL     1     -35.087  16.251  -5.959  1.00 20.00     0.180 C 
HETATM    9  C5  UNL     1     -36.538  15.934  -6.285  1.00 20.00     0.039 C 
HETATM   10  C6  UNL     1     -34.137  15.175  -6.458  1.00 20.00     0.039 C 
ENDBRANCH   5   8
TORSDOF 1
ENDMDL
MODEL 9
REMARK VINA RESULT:      -3.0      1.624      2.791
REMARK  1 active torsions:
REMARK  status: ('A' for Active; 'I' for Inactive)
REMARK    1  A    between atoms: C7_7  and  N8_8 
ROOT
HETATM    1  C1  UNL     1     -36.056  18.276  -5.609  1.00 20.00     0.045 C 
HETATM    2  C2  UNL     1     -35.398  18.085  -4.250  1.00 20.00     0.236 C 
HETATM    3  C3  UNL     1     -35.531  15.975  -5.479  1.00 20.00     0.251 C 
HETATM    4  C4  UNL     1     -36.647  16.908  -5.926  1.00 20.00     0.086 C 
HETATM    5  N8  UNL     1     -35.055  16.609  -4.185  1.00 20.00    -0.066 N 
HETATM    6  S9  UNL     1     -37.014  16.714  -7.686  1.00 20.00    -0.091 SA
HETATM    7  H24 UNL     1     -35.624  16.204  -3.428  1.00 20.00     0.280 HD
ENDROOT
BRANCH   5   8
HETATM    8  C7  UNL     1     -33.625  16.321  -3.862  1.00 20.00     0.180 C 
HETATM    9  C5  UNL     1     -33.350  14.855  -4.157  1.00 20.00     0.039 C 
HETATM   10  C6  UNL     1     -33.380  16.671  -2.404  1.00 20.00     0.039 C 
ENDBRANCH   5   8
TORSDOF 1
ENDMDL
