MODEL 1
REMARK VINA RESULT:      -4.0      0.000      0.000
REMARK  1 active torsions:
REMARK  status: ('A' for Active; 'I' for Inactive)
REMARK    1  A    between atoms: C4_4  and  C5_5 
ROOT
HETATM    1  C1  UNL     1     -33.688   7.181   4.744  1.00 20.00     0.085 C 
HETATM    2  C3  UNL     1     -34.560   5.446   6.248  1.00 20.00     0.049 C 
HETATM    3  C5  UNL     1     -34.410   5.898   4.792  1.00 20.00     0.121 C 
HETATM    4  N6  UNL     1     -33.116   8.190   4.710  1.00 20.00    -0.195 NA
HETATM    5 CL7  UNL     1     -36.053   6.191   4.128  1.00 20.00    -0.103 Cl
ENDROOT
BRANCH   3   6
HETATM    6  C4  UNL     1     -33.681   4.807   3.979  1.00 20.00     0.036 C 
HETATM    7  C2  UNL     1     -32.994   5.281   2.699  1.00 20.00     0.008 C 
ENDBRANCH   3   6
TORSDOF 1
ENDMDL
MODEL 2
REMARK VINA RESULT:      -3.7      1.983      2.705
REMARK  1 active torsions:
REMARK  status: ('A' for Active; 'I' for Inactive)
REMARK    1  A    between atoms: C4_4  and  C5_5 
ROOT
HETATM    1  C1  UNL     1     -33.510   5.547   3.593  1.00 20.00     0.085 C 
HETATM    2  C3  UNL     1     -35.786   6.173   4.274  1.00 20.00     0.049 C 
HETATM    3  C5  UNL     1     -34.316   6.092   4.700  1.00 20.00     0.121 C 
HETATM    4  N6  UNL     1     -32.878   5.120   2.719  1.00 20.00    -0.195 NA
HETATM    5 CL7  UNL     1     -34.196   4.928   6.063  1.00 20.00    -0.103 Cl
ENDROOT
BRANCH   3   6
HETATM    6  C4  UNL     1     -33.818   7.487   5.130  1.00 20.00     0.036 C 
HETATM    7  C2  UNL     1     -32.590   8.011   4.387  1.00 20.00     0.008 C 
ENDBRANCH   3   6
TORSDOF 1
ENDMDL
MODEL 3
REMARK VINA RESULT:      -3.5      1.640      2.601
REMARK  1 active torsions:
REMARK  status: ('A' for Active; 'I' for Inactive)
REMARK    1  A    between atoms: C4_4  and  C5_5 
ROOT
HETATM    1  C1  UNL     1     -33.365   6.677   4.060  1.00 20.00     0.085 C 
HETATM    2  C3  UNL     1     -35.746   6.081   4.154  1.00 20.00     0.049 C 
HETATM    3  C5  UNL     1     -34.350   5.805   4.724  1.00 20.00     0.121 C 
HETATM    4  N6  UNL     1     -32.592   7.367   3.538  1.00 20.00    -0.195 NA
HETATM    5 CL7  UNL     1     -33.910   4.111   4.321  1.00 20.00    -0.103 Cl
ENDROOT
BRANCH   3   6
HETATM    6  C4  UNL     1     -34.357   6.017   6.252  1.00 20.00     0.036 C 
HETATM    7  C2  UNL     1     -34.042   7.435   6.725  1.00 20.00     0.008 C 
ENDBRANCH   3   6
TORSDOF 1
ENDMDL
MODEL 4
REMARK VINA RESULT:      -3.4     16.164     16.875
REMARK  1 active torsions:
REMARK  status: ('A' for Active; 'I' for Inactive)
REMARK    1  A    between atoms: C4_4  and  C5_5 
ROOT
HETATM    1  C1  UNL     1     -22.545  17.282   9.377  1.00 20.00     0.085 C 
HETATM    2  C3  UNL     1     -22.575  18.423  11.552  1.00 20.00     0.049 C 
HETATM    3  C5  UNL     1     -23.420  17.742  10.470  1.00 20.00     0.121 C 
HETATM    4  N6  UNL     1     -21.853  16.919   8.519  1.00 20.00    -0.195 NA
HETATM    5 CL7  UNL     1     -24.530  18.971   9.776  1.00 20.00    -0.103 Cl
ENDROOT
BRANCH   3   6
HETATM    6  C4  UNL     1     -24.217  16.574  11.087  1.00 20.00     0.036 C 
HETATM    7  C2  UNL     1     -25.166  16.948  12.225  1.00 20.00     0.008 C 
ENDBRANCH   3   6
TORSDOF 1
ENDMDL
MODEL 5
REMARK VINA RESULT:      -3.4     13.200     13.765
REMARK  1 active torsions:
REMARK  status: ('A' for Active; 'I' for Inactive)
REMARK    1  A    between atoms: C4_4  and  C5_5 
ROOT
HETATM    1  C1  UNL     1     -31.801  18.588  -1.001  1.00 20.00     0.085 C 
HETATM    2  C3  UNL     1     -34.163  19.262  -0.991  1.00 20.00     0.049 C 
HETATM    3  C5  UNL     1     -33.083  18.450  -1.714  1.00 20.00     0.121 C 
HETATM    4  N6  UNL     1     -30.794  18.696  -0.435  1.00 20.00    -0.195 NA
HETATM    5 CL7  UNL     1     -32.856  19.159  -3.349  1.00 20.00    -0.103 Cl
ENDROOT
BRANCH   3   6
HETATM    6  C4  UNL     1     -33.519  16.974  -1.817  1.00 20.00     0.036 C 
HETATM    7  C2  UNL     1     -33.300  16.311  -3.176  1.00 20.00     0.008 C 
ENDBRANCH   3   6
TORSDOF 1
ENDMDL
MODEL 6
REMARK VINA RESULT:      -3.3     16.458     16.998
REMARK  1 active torsions:
REMARK  status: ('A' for Active; 'I' for Inactive)
REMARK    1  A    between atoms: C4_4  and  C5_5 
ROOT
HETATM    1  C1  UNL     1     -22.701  17.292   9.568  1.00 20.00     0.085 C 
HETATM    2  C3  UNL     1     -24.277  16.524  11.289  1.00 20.00     0.049 C 
HETATM    3  C5  UNL     1     -23.563  17.735  10.677  1.00 20.00     0.121 C 
HETATM    4  N6  UNL     1     -22.025  16.941   8.693  1.00 20.00    -0.195 NA
HETATM    5 CL7  UNL     1     -22.489  18.439  11.932  1.00 20.00    -0.103 Cl
ENDROOT
BRANCH   3   6
HETATM    6  C4  UNL     1     -24.604  18.772  10.207  1.00 20.00     0.036 C 
HETATM    7  C2  UNL     1     -24.479  19.225   8.753  1.00 20.00     0.008 C 
ENDBRANCH   3   6
TORSDOF 1
ENDMDL
MODEL 7
REMARK VINA RESULT:      -3.3     12.935     13.667
REMARK  1 active torsions:
REMARK  status: ('A' for Active; 'I' for Inactive)
REMARK    1  A    between atoms: C4_4  and  C5_5 
ROOT
HETATM    1  C1  UNL     1     -34.070  15.176  -6.573  1.00 20.00     0.085 C 
HETATM    2  C3  UNL     1     -35.242  16.702  -5.046  1.00 20.00     0.049 C 
HETATM    3  C5  UNL     1     -34.616  15.313  -5.212  1.00 20.00     0.121 C 
HETATM    4  N6  UNL     1     -33.638  15.072  -7.645  1.00 20.00    -0.195 NA
HETATM    5 CL7  UNL     1     -35.921  14.091  -5.041  1.00 20.00    -0.103 Cl
ENDROOT
BRANCH   3   6
HETATM    6  C4  UNL     1     -33.527  15.099  -4.140  1.00 20.00     0.036 C 
HETATM    7  C2  UNL     1     -33.395  16.208  -3.098  1.00 20.00     0.008 C 
ENDBRANCH   3   6
TORSDOF 1
ENDMDL
MODEL 8
REMARK VINA RESULT:      -3.3      9.242      9.840
REMARK  1 active torsions:
REMARK  status: ('A' for Active; 'I' for Inactive)
REMARK    1  A    between atoms: C4_4  and  C5_5 
ROOT
HETATM    1  C1  UNL     1     -41.408  13.593   4.900  1.00 20.00     0.085 C 
HETATM    2  C3  UNL     1     -40.459  13.983   7.131  1.00 20.00     0.049 C 
HETATM    3  C5  UNL     1     -41.005  12.935   6.155  1.00 20.00     0.121 C 
HETATM    4  N6  UNL     1     -41.721  14.113   3.911  1.00 20.00    -0.195 NA
HETATM    5 CL7  UNL     1     -42.487  12.222   6.876  1.00 20.00    -0.103 Cl
ENDROOT
BRANCH   3   6
HETATM    6  C4  UNL     1     -39.941  11.845   5.908  1.00 20.00     0.036 C 
HETATM    7  C2  UNL     1     -39.314  11.834   4.515  1.00 20.00     0.008 C 
ENDBRANCH   3   6
TORSDOF 1
ENDMDL
MODEL 9
REMARK VINA RESULT:      -3.2      9.414     10.045
REMARK  1 active torsions:
REMARK  status: ('A' for Active; 'I' for Inactive)
REMARK    1  A    between atoms: C4_4  and  C5_5 
ROOT
HETATM    1  C1  UNL     1     -42.042  12.462   6.838  1.00 20.00     0.085 C 
HETATM    2  C3  UNL     1     -41.326  13.605   4.786  1.00 20.00     0.049 C 
HETATM    3  C5  UNL     1     -40.892  13.085   6.160  1.00 20.00     0.121 C 
HETATM    4  N6  UNL     1     -42.949  11.969   7.369  1.00 20.00    -0.195 NA
HETATM    5 CL7  UNL     1     -40.393  14.494   7.155  1.00 20.00    -0.103 Cl
ENDROOT
BRANCH   3   6
HETATM    6  C4  UNL     1     -39.723  12.091   5.998  1.00 20.00     0.036 C 
HETATM    7  C2  UNL     1     -39.310  11.783   4.560  1.00 20.00     0.008 C 
ENDBRANCH   3   6
TORSDOF 1
ENDMDL
