MODEL 1
REMARK VINA RESULT:      -3.9      0.000      0.000
REMARK  1 active torsions:
REMARK  status: ('A' for Active; 'I' for Inactive)
REMARK    1  A    between atoms: C5_5  and  C6_6 
ROOT
HETATM    1  C1  UNL     1     -32.759   7.659   3.812  1.00 20.00     0.080 C 
HETATM    2  C5  UNL     1     -33.035   6.272   4.224  1.00 20.00     0.196 C 
HETATM    3  N7  UNL     1     -32.538   8.752   3.490  1.00 20.00    -0.196 NA
HETATM    4 CL8  UNL     1     -33.153   5.311   2.713  1.00 20.00    -0.109 Cl
ENDROOT
BRANCH   2   5
HETATM    5  C6  UNL     1     -34.291   6.130   5.138  1.00 20.00    -0.022 C 
HETATM    6  C2  UNL     1     -34.261   4.774   5.877  1.00 20.00     0.017 C 
HETATM    7  C3  UNL     1     -34.282   7.241   6.213  1.00 20.00     0.017 C 
HETATM    8  C4  UNL     1     -35.614   6.226   4.351  1.00 20.00     0.017 C 
ENDBRANCH   2   5
TORSDOF 1
ENDMDL
MODEL 2
REMARK VINA RESULT:      -3.8      1.850      2.248
REMARK  1 active torsions:
REMARK  status: ('A' for Active; 'I' for Inactive)
REMARK    1  A    between atoms: C5_5  and  C6_6 
ROOT
HETATM    1  C1  UNL     1     -32.773   7.675   4.225  1.00 20.00     0.080 C 
HETATM    2  C5  UNL     1     -34.028   7.331   4.913  1.00 20.00     0.196 C 
HETATM    3  N7  UNL     1     -31.786   7.949   3.678  1.00 20.00    -0.196 NA
HETATM    4 CL8  UNL     1     -33.749   7.652   6.657  1.00 20.00    -0.109 Cl
ENDROOT
BRANCH   2   5
HETATM    5  C6  UNL     1     -34.519   5.878   4.630  1.00 20.00    -0.022 C 
HETATM    6  C2  UNL     1     -34.488   5.043   5.929  1.00 20.00     0.017 C 
HETATM    7  C3  UNL     1     -35.982   5.910   4.136  1.00 20.00     0.017 C 
HETATM    8  C4  UNL     1     -33.662   5.157   3.569  1.00 20.00     0.017 C 
ENDBRANCH   2   5
TORSDOF 1
ENDMDL
MODEL 3
REMARK VINA RESULT:      -3.7      1.844      2.131
REMARK  1 active torsions:
REMARK  status: ('A' for Active; 'I' for Inactive)
REMARK    1  A    between atoms: C5_5  and  C6_6 
ROOT
HETATM    1  C1  UNL     1     -32.751   7.619   4.169  1.00 20.00     0.080 C 
HETATM    2  C5  UNL     1     -34.001   7.332   4.893  1.00 20.00     0.196 C 
HETATM    3  N7  UNL     1     -31.768   7.848   3.595  1.00 20.00    -0.196 NA
HETATM    4 CL8  UNL     1     -33.668   7.664   6.625  1.00 20.00    -0.109 Cl
ENDROOT
BRANCH   2   5
HETATM    5  C6  UNL     1     -34.554   5.896   4.641  1.00 20.00    -0.022 C 
HETATM    6  C2  UNL     1     -33.685   5.167   3.592  1.00 20.00     0.017 C 
HETATM    7  C3  UNL     1     -34.484   5.075   5.948  1.00 20.00     0.017 C 
HETATM    8  C4  UNL     1     -36.014   5.898   4.145  1.00 20.00     0.017 C 
ENDBRANCH   2   5
TORSDOF 1
ENDMDL
MODEL 4
REMARK VINA RESULT:      -3.4     12.572     13.519
REMARK  1 active torsions:
REMARK  status: ('A' for Active; 'I' for Inactive)
REMARK    1  A    between atoms: C5_5  and  C6_6 
ROOT
HETATM    1  C1  UNL     1     -31.746  18.718  -0.551  1.00 20.00     0.080 C 
HETATM    2  C5  UNL     1     -33.193  18.847  -0.791  1.00 20.00     0.196 C 
HETATM    3  N7  UNL     1     -30.604  18.622  -0.362  1.00 20.00    -0.196 NA
HETATM    4 CL8  UNL     1     -34.006  18.041   0.591  1.00 20.00    -0.109 Cl
ENDROOT
BRANCH   2   5
HETATM    5  C6  UNL     1     -33.648  18.293  -2.176  1.00 20.00    -0.022 C 
HETATM    6  C2  UNL     1     -35.153  18.566  -2.390  1.00 20.00     0.017 C 
HETATM    7  C3  UNL     1     -32.882  19.018  -3.305  1.00 20.00     0.017 C 
HETATM    8  C4  UNL     1     -33.405  16.776  -2.319  1.00 20.00     0.017 C 
ENDBRANCH   2   5
TORSDOF 1
ENDMDL
MODEL 5
REMARK VINA RESULT:      -3.4     12.578     13.535
REMARK  1 active torsions:
REMARK  status: ('A' for Active; 'I' for Inactive)
REMARK    1  A    between atoms: C5_5  and  C6_6 
ROOT
HETATM    1  C1  UNL     1     -31.754  18.722  -0.567  1.00 20.00     0.080 C 
HETATM    2  C5  UNL     1     -33.200  18.877  -0.793  1.00 20.00     0.196 C 
HETATM    3  N7  UNL     1     -30.612  18.604  -0.389  1.00 20.00    -0.196 NA
HETATM    4 CL8  UNL     1     -34.015  18.083   0.595  1.00 20.00    -0.109 Cl
ENDROOT
BRANCH   2   5
HETATM    5  C6  UNL     1     -33.679  18.336  -2.175  1.00 20.00    -0.022 C 
HETATM    6  C2  UNL     1     -32.888  19.013  -3.316  1.00 20.00     0.017 C 
HETATM    7  C3  UNL     1     -33.405  16.817  -2.262  1.00 20.00     0.017 C 
HETATM    8  C4  UNL     1     -35.183  18.573  -2.419  1.00 20.00     0.017 C 
ENDBRANCH   2   5
TORSDOF 1
ENDMDL
MODEL 6
REMARK VINA RESULT:      -3.3      8.741      9.833
REMARK  1 active torsions:
REMARK  status: ('A' for Active; 'I' for Inactive)
REMARK    1  A    between atoms: C5_5  and  C6_6 
ROOT
HETATM    1  C1  UNL     1     -42.490   5.156  -0.901  1.00 20.00     0.080 C 
HETATM    2  C5  UNL     1     -41.681   5.659   0.221  1.00 20.00     0.196 C 
HETATM    3  N7  UNL     1     -43.123   4.759  -1.790  1.00 20.00    -0.196 NA
HETATM    4 CL8  UNL     1     -41.965   4.534   1.590  1.00 20.00    -0.109 Cl
ENDROOT
BRANCH   2   5
HETATM    5  C6  UNL     1     -41.972   7.148   0.584  1.00 20.00    -0.022 C 
HETATM    6  C2  UNL     1     -43.157   7.234   1.572  1.00 20.00     0.017 C 
HETATM    7  C3  UNL     1     -40.741   7.764   1.285  1.00 20.00     0.017 C 
HETATM    8  C4  UNL     1     -42.308   8.007  -0.653  1.00 20.00     0.017 C 
ENDBRANCH   2   5
TORSDOF 1
ENDMDL
MODEL 7
REMARK VINA RESULT:      -3.1     10.216     10.969
REMARK  1 active torsions:
REMARK  status: ('A' for Active; 'I' for Inactive)
REMARK    1  A    between atoms: C5_5  and  C6_6 
ROOT
HETATM    1  C1  UNL     1     -40.501  14.197   8.448  1.00 20.00     0.080 C 
HETATM    2  C5  UNL     1     -40.571  14.470   7.002  1.00 20.00     0.196 C 
HETATM    3  N7  UNL     1     -40.440  13.982   9.587  1.00 20.00    -0.196 NA
HETATM    4 CL8  UNL     1     -41.596  15.931   6.815  1.00 20.00    -0.109 Cl
ENDROOT
BRANCH   2   5
HETATM    5  C6  UNL     1     -41.075  13.257   6.161  1.00 20.00    -0.022 C 
HETATM    6  C2  UNL     1     -42.298  12.607   6.844  1.00 20.00     0.017 C 
HETATM    7  C3  UNL     1     -41.529  13.743   4.766  1.00 20.00     0.017 C 
HETATM    8  C4  UNL     1     -39.992  12.175   5.970  1.00 20.00     0.017 C 
ENDBRANCH   2   5
TORSDOF 1
ENDMDL
MODEL 8
REMARK VINA RESULT:      -3.1      8.816     10.006
REMARK  1 active torsions:
REMARK  status: ('A' for Active; 'I' for Inactive)
REMARK    1  A    between atoms: C5_5  and  C6_6 
ROOT
HETATM    1  C1  UNL     1     -42.978   4.777   0.535  1.00 20.00     0.080 C 
HETATM    2  C5  UNL     1     -42.425   5.900  -0.240  1.00 20.00     0.196 C 
HETATM    3  N7  UNL     1     -43.417   3.891   1.143  1.00 20.00    -0.196 NA
HETATM    4 CL8  UNL     1     -40.791   5.387  -0.775  1.00 20.00    -0.109 Cl
ENDROOT
BRANCH   2   5
HETATM    5  C6  UNL     1     -42.418   7.252   0.537  1.00 20.00    -0.022 C 
HETATM    6  C2  UNL     1     -40.996   7.558   1.059  1.00 20.00     0.017 C 
HETATM    7  C3  UNL     1     -42.818   8.402  -0.413  1.00 20.00     0.017 C 
HETATM    8  C4  UNL     1     -43.386   7.254   1.738  1.00 20.00     0.017 C 
ENDBRANCH   2   5
TORSDOF 1
ENDMDL
MODEL 9
REMARK VINA RESULT:      -3.0     15.957     16.741
REMARK  1 active torsions:
REMARK  status: ('A' for Active; 'I' for Inactive)
REMARK    1  A    between atoms: C5_5  and  C6_6 
ROOT
HETATM    1  C1  UNL     1     -24.074  17.117  11.174  1.00 20.00     0.080 C 
HETATM    2  C5  UNL     1     -23.770  18.451  10.630  1.00 20.00     0.196 C 
HETATM    3  N7  UNL     1     -24.310  16.066  11.607  1.00 20.00    -0.196 NA
HETATM    4 CL8  UNL     1     -25.351  19.261  10.371  1.00 20.00    -0.109 Cl
ENDROOT
BRANCH   2   5
HETATM    5  C6  UNL     1     -22.884  18.416   9.348  1.00 20.00    -0.022 C 
HETATM    6  C2  UNL     1     -23.646  19.038   8.156  1.00 20.00     0.017 C 
HETATM    7  C3  UNL     1     -21.610  19.261   9.571  1.00 20.00     0.017 C 
HETATM    8  C4  UNL     1     -22.457  16.986   8.958  1.00 20.00     0.017 C 
ENDBRANCH   2   5
TORSDOF 1
ENDMDL
