MODEL 1
REMARK VINA RESULT:      -3.5      0.000      0.000
REMARK  4 active torsions:
REMARK  status: ('A' for Active; 'I' for Inactive)
REMARK    1  A    between atoms: C4_4  and  C6_6 
REMARK    2  A    between atoms: C4_4  and  N7_7 
REMARK    3  A    between atoms: C5_5  and  C6_6 
REMARK    4  A    between atoms: C5_5  and  O8_8 
ROOT
HETATM    1  C1  UNL     1     -30.775  18.703   0.818  1.00 20.00     0.157 C 
HETATM    2  N7  UNL     1     -30.685  18.668  -0.353  1.00 20.00    -0.275 NA
HETATM    3  S9  UNL     1     -30.870  18.742   2.408  1.00 20.00    -0.055 SA
ENDROOT
BRANCH   2   4
HETATM    4  C4  UNL     1     -31.898  19.055  -1.077  1.00 20.00     0.157 C 
BRANCH   4   5
HETATM    5  C6  UNL     1     -32.926  17.919  -1.069  1.00 20.00     0.025 C 
HETATM    6  C2  UNL     1     -34.132  18.259  -0.187  1.00 20.00     0.014 C 
BRANCH   5   7
HETATM    7  C5  UNL     1     -33.363  17.540  -2.489  1.00 20.00     0.172 C 
BRANCH   7   8
HETATM    8  O8  UNL     1     -33.581  16.138  -2.568  1.00 20.00    -0.396 OA
HETATM    9  C3  UNL     1     -33.244  15.630  -3.851  1.00 20.00     0.201 C 
ENDBRANCH   7   8
ENDBRANCH   5   7
ENDBRANCH   4   5
ENDBRANCH   2   4
TORSDOF 4
ENDMDL
MODEL 2
REMARK VINA RESULT:      -3.3      3.466      4.718
REMARK  4 active torsions:
REMARK  status: ('A' for Active; 'I' for Inactive)
REMARK    1  A    between atoms: C4_4  and  C6_6 
REMARK    2  A    between atoms: C4_4  and  N7_7 
REMARK    3  A    between atoms: C5_5  and  C6_6 
REMARK    4  A    between atoms: C5_5  and  O8_8 
ROOT
HETATM    1  C1  UNL     1     -33.433  16.258  -2.870  1.00 20.00     0.157 C 
HETATM    2  N7  UNL     1     -33.559  16.942  -1.924  1.00 20.00    -0.275 NA
HETATM    3  S9  UNL     1     -33.283  15.313  -4.144  1.00 20.00    -0.055 SA
ENDROOT
BRANCH   2   4
HETATM    4  C4  UNL     1     -32.645  18.085  -1.862  1.00 20.00     0.157 C 
BRANCH   4   5
HETATM    5  C6  UNL     1     -32.621  18.691  -0.454  1.00 20.00     0.025 C 
HETATM    6  C2  UNL     1     -33.752  18.133   0.417  1.00 20.00     0.014 C 
BRANCH   5   7
HETATM    7  C5  UNL     1     -31.256  18.508   0.219  1.00 20.00     0.172 C 
BRANCH   7   8
HETATM    8  O8  UNL     1     -31.429  18.330   1.619  1.00 20.00    -0.396 OA
HETATM    9  C3  UNL     1     -30.228  18.597   2.330  1.00 20.00     0.201 C 
ENDBRANCH   7   8
ENDBRANCH   5   7
ENDBRANCH   4   5
ENDBRANCH   2   4
TORSDOF 4
ENDMDL
MODEL 3
REMARK VINA RESULT:      -3.2     12.861     13.226
REMARK  4 active torsions:
REMARK  status: ('A' for Active; 'I' for Inactive)
REMARK    1  A    between atoms: C4_4  and  C6_6 
REMARK    2  A    between atoms: C4_4  and  N7_7 
REMARK    3  A    between atoms: C5_5  and  C6_6 
REMARK    4  A    between atoms: C5_5  and  O8_8 
ROOT
HETATM    1  C1  UNL     1     -33.378   7.906   5.375  1.00 20.00     0.157 C 
HETATM    2  N7  UNL     1     -34.215   7.445   6.057  1.00 20.00    -0.275 NA
HETATM    3  S9  UNL     1     -32.255   8.557   4.451  1.00 20.00    -0.055 SA
ENDROOT
BRANCH   2   4
HETATM    4  C4  UNL     1     -34.052   6.021   6.357  1.00 20.00     0.157 C 
BRANCH   4   5
HETATM    5  C6  UNL     1     -34.789   5.156   5.327  1.00 20.00     0.025 C 
HETATM    6  C2  UNL     1     -35.766   5.989   4.491  1.00 20.00     0.014 C 
BRANCH   5   7
HETATM    7  C5  UNL     1     -33.811   4.382   4.436  1.00 20.00     0.172 C 
BRANCH   7   8
HETATM    8  O8  UNL     1     -33.913   4.843   3.095  1.00 20.00    -0.396 OA
HETATM    9  C3  UNL     1     -32.678   5.368   2.630  1.00 20.00     0.201 C 
ENDBRANCH   7   8
ENDBRANCH   5   7
ENDBRANCH   4   5
ENDBRANCH   2   4
TORSDOF 4
ENDMDL
MODEL 4
REMARK VINA RESULT:      -3.1      3.796      5.334
REMARK  4 active torsions:
REMARK  status: ('A' for Active; 'I' for Inactive)
REMARK    1  A    between atoms: C4_4  and  C6_6 
REMARK    2  A    between atoms: C4_4  and  N7_7 
REMARK    3  A    between atoms: C5_5  and  C6_6 
REMARK    4  A    between atoms: C5_5  and  O8_8 
ROOT
HETATM    1  C1  UNL     1     -33.245  16.476  -2.810  1.00 20.00     0.157 C 
HETATM    2  N7  UNL     1     -32.933  15.814  -3.728  1.00 20.00    -0.275 NA
HETATM    3  S9  UNL     1     -33.643  17.389  -1.566  1.00 20.00    -0.055 SA
ENDROOT
BRANCH   2   4
HETATM    4  C4  UNL     1     -33.897  14.775  -4.096  1.00 20.00     0.157 C 
BRANCH   4   5
HETATM    5  C6  UNL     1     -34.760  15.223  -5.281  1.00 20.00     0.025 C 
HETATM    6  C2  UNL     1     -33.972  15.186  -6.595  1.00 20.00     0.014 C 
BRANCH   5   7
HETATM    7  C5  UNL     1     -36.052  14.404  -5.382  1.00 20.00     0.172 C 
BRANCH   7   8
HETATM    8  O8  UNL     1     -37.024  15.128  -6.126  1.00 20.00    -0.396 OA
HETATM    9  C3  UNL     1     -37.451  16.292  -5.432  1.00 20.00     0.201 C 
ENDBRANCH   7   8
ENDBRANCH   5   7
ENDBRANCH   4   5
ENDBRANCH   2   4
TORSDOF 4
ENDMDL
MODEL 5
REMARK VINA RESULT:      -3.1     12.303     12.620
REMARK  4 active torsions:
REMARK  status: ('A' for Active; 'I' for Inactive)
REMARK    1  A    between atoms: C4_4  and  C6_6 
REMARK    2  A    between atoms: C4_4  and  N7_7 
REMARK    3  A    between atoms: C5_5  and  C6_6 
REMARK    4  A    between atoms: C5_5  and  O8_8 
ROOT
HETATM    1  C1  UNL     1     -32.241   7.952   2.515  1.00 20.00     0.157 C 
HETATM    2  N7  UNL     1     -32.235   7.599   3.635  1.00 20.00    -0.275 NA
HETATM    3  S9  UNL     1     -32.222   8.419   0.992  1.00 20.00    -0.055 SA
ENDROOT
BRANCH   2   4
HETATM    4  C4  UNL     1     -33.441   7.937   4.395  1.00 20.00     0.157 C 
BRANCH   4   5
HETATM    5  C6  UNL     1     -33.889   6.755   5.264  1.00 20.00     0.025 C 
HETATM    6  C2  UNL     1     -34.169   7.192   6.705  1.00 20.00     0.014 C 
BRANCH   5   7
HETATM    7  C5  UNL     1     -35.095   6.031   4.656  1.00 20.00     0.172 C 
BRANCH   7   8
HETATM    8  O8  UNL     1     -34.930   4.625   4.787  1.00 20.00    -0.396 OA
HETATM    9  C3  UNL     1     -33.768   4.171   4.106  1.00 20.00     0.201 C 
ENDBRANCH   7   8
ENDBRANCH   5   7
ENDBRANCH   4   5
ENDBRANCH   2   4
TORSDOF 4
ENDMDL
MODEL 6
REMARK VINA RESULT:      -3.1      2.773      4.054
REMARK  4 active torsions:
REMARK  status: ('A' for Active; 'I' for Inactive)
REMARK    1  A    between atoms: C4_4  and  C6_6 
REMARK    2  A    between atoms: C4_4  and  N7_7 
REMARK    3  A    between atoms: C5_5  and  C6_6 
REMARK    4  A    between atoms: C5_5  and  O8_8 
ROOT
HETATM    1  C1  UNL     1     -33.550  17.231  -1.523  1.00 20.00     0.157 C 
HETATM    2  N7  UNL     1     -33.371  16.515  -2.437  1.00 20.00    -0.275 NA
HETATM    3  S9  UNL     1     -33.788  18.180  -0.266  1.00 20.00    -0.055 SA
ENDROOT
BRANCH   2   4
HETATM    4  C4  UNL     1     -33.589  17.125  -3.751  1.00 20.00     0.157 C 
BRANCH   4   5
HETATM    5  C6  UNL     1     -34.391  16.190  -4.662  1.00 20.00     0.025 C 
HETATM    6  C2  UNL     1     -34.626  16.814  -6.041  1.00 20.00     0.014 C 
BRANCH   5   7
HETATM    7  C5  UNL     1     -33.731  14.811  -4.779  1.00 20.00     0.172 C 
BRANCH   7   8
HETATM    8  O8  UNL     1     -34.497  13.848  -4.066  1.00 20.00    -0.396 OA
HETATM    9  C3  UNL     1     -35.790  13.688  -4.633  1.00 20.00     0.201 C 
ENDBRANCH   7   8
ENDBRANCH   5   7
ENDBRANCH   4   5
ENDBRANCH   2   4
TORSDOF 4
ENDMDL
MODEL 7
REMARK VINA RESULT:      -3.1     11.225     12.058
REMARK  4 active torsions:
REMARK  status: ('A' for Active; 'I' for Inactive)
REMARK    1  A    between atoms: C4_4  and  C6_6 
REMARK    2  A    between atoms: C4_4  and  N7_7 
REMARK    3  A    between atoms: C5_5  and  C6_6 
REMARK    4  A    between atoms: C5_5  and  O8_8 
ROOT
HETATM    1  C1  UNL     1     -39.416  12.081   5.738  1.00 20.00     0.157 C 
HETATM    2  N7  UNL     1     -39.669  12.419   6.833  1.00 20.00    -0.275 NA
HETATM    3  S9  UNL     1     -39.053  11.602   4.262  1.00 20.00    -0.055 SA
ENDROOT
BRANCH   2   4
HETATM    4  C4  UNL     1     -40.623  13.526   6.932  1.00 20.00     0.157 C 
BRANCH   4   5
HETATM    5  C6  UNL     1     -41.863  13.260   6.070  1.00 20.00     0.025 C 
HETATM    6  C2  UNL     1     -43.059  12.828   6.924  1.00 20.00     0.014 C 
BRANCH   5   7
HETATM    7  C5  UNL     1     -42.211  14.466   5.191  1.00 20.00     0.172 C 
BRANCH   7   8
HETATM    8  O8  UNL     1     -41.881  14.186   3.836  1.00 20.00    -0.396 OA
HETATM    9  C3  UNL     1     -42.347  15.208   2.965  1.00 20.00     0.201 C 
ENDBRANCH   7   8
ENDBRANCH   5   7
ENDBRANCH   4   5
ENDBRANCH   2   4
TORSDOF 4
ENDMDL
MODEL 8
REMARK VINA RESULT:      -3.1      3.137      4.463
REMARK  4 active torsions:
REMARK  status: ('A' for Active; 'I' for Inactive)
REMARK    1  A    between atoms: C4_4  and  C6_6 
REMARK    2  A    between atoms: C4_4  and  N7_7 
REMARK    3  A    between atoms: C5_5  and  C6_6 
REMARK    4  A    between atoms: C5_5  and  O8_8 
ROOT
HETATM    1  C1  UNL     1     -33.520  17.165  -1.761  1.00 20.00     0.157 C 
HETATM    2  N7  UNL     1     -33.309  16.470  -2.684  1.00 20.00    -0.275 NA
HETATM    3  S9  UNL     1     -33.788  18.092  -0.494  1.00 20.00    -0.055 SA
ENDROOT
BRANCH   2   4
HETATM    4  C4  UNL     1     -34.049  16.816  -3.900  1.00 20.00     0.157 C 
BRANCH   4   5
HETATM    5  C6  UNL     1     -33.960  15.688  -4.934  1.00 20.00     0.025 C 
HETATM    6  C2  UNL     1     -33.592  14.352  -4.279  1.00 20.00     0.014 C 
BRANCH   5   7
HETATM    7  C5  UNL     1     -35.248  15.570  -5.756  1.00 20.00     0.172 C 
BRANCH   7   8
HETATM    8  O8  UNL     1     -34.975  14.923  -6.992  1.00 20.00    -0.396 OA
HETATM    9  C3  UNL     1     -34.078  15.682  -7.791  1.00 20.00     0.201 C 
ENDBRANCH   7   8
ENDBRANCH   5   7
ENDBRANCH   4   5
ENDBRANCH   2   4
TORSDOF 4
ENDMDL
MODEL 9
REMARK VINA RESULT:      -3.0     13.173     13.622
REMARK  4 active torsions:
REMARK  status: ('A' for Active; 'I' for Inactive)
REMARK    1  A    between atoms: C4_4  and  C6_6 
REMARK    2  A    between atoms: C4_4  and  N7_7 
REMARK    3  A    between atoms: C5_5  and  C6_6 
REMARK    4  A    between atoms: C5_5  and  O8_8 
ROOT
HETATM    1  C1  UNL     1     -33.774   4.874   3.493  1.00 20.00     0.157 C 
HETATM    2  N7  UNL     1     -34.515   4.684   4.384  1.00 20.00    -0.275 NA
HETATM    3  S9  UNL     1     -32.761   5.102   2.284  1.00 20.00    -0.055 SA
ENDROOT
BRANCH   2   4
HETATM    4  C4  UNL     1     -35.192   5.881   4.889  1.00 20.00     0.157 C 
BRANCH   4   5
HETATM    5  C6  UNL     1     -34.587   6.329   6.224  1.00 20.00     0.025 C 
HETATM    6  C2  UNL     1     -33.784   5.203   6.884  1.00 20.00     0.014 C 
BRANCH   5   7
HETATM    7  C5  UNL     1     -33.741   7.598   6.065  1.00 20.00     0.172 C 
BRANCH   7   8
HETATM    8  O8  UNL     1     -33.768   8.028   4.710  1.00 20.00    -0.396 OA
HETATM    9  C3  UNL     1     -32.474   8.401   4.256  1.00 20.00     0.201 C 
ENDBRANCH   7   8
ENDBRANCH   5   7
ENDBRANCH   4   5
ENDBRANCH   2   4
TORSDOF 4
ENDMDL
