MODEL 1
REMARK VINA RESULT:      -4.2      0.000      0.000
REMARK  1 active torsions:
REMARK  status: ('A' for Active; 'I' for Inactive)
REMARK    1  A    between atoms: C3_3  and  C8_8 
ROOT
HETATM    1  C1  UNL     1     -41.001  16.417   7.538  1.00 20.00    -0.028 C 
HETATM    2  C2  UNL     1     -42.075  16.408   6.730  1.00 20.00    -0.016 C 
HETATM    3  C4  UNL     1     -40.401  15.185   8.162  1.00 20.00     0.042 C 
HETATM    4  C5  UNL     1     -42.409  14.641   4.974  1.00 20.00     0.020 C 
HETATM    5  C6  UNL     1     -41.392  13.491   5.023  1.00 20.00     0.016 C 
HETATM    6  C7  UNL     1     -42.869  15.184   6.337  1.00 20.00     0.070 C 
HETATM    7  C8  UNL     1     -40.344  13.624   6.136  1.00 20.00     0.086 C 
HETATM    8  C9  UNL     1     -40.896  13.847   7.572  1.00 20.00     0.063 C 
HETATM    9  S11 UNL     1     -42.722  13.891   7.611  1.00 20.00    -0.154 SA
ENDROOT
BRANCH   7  10
HETATM   10  C3  UNL     1     -39.508  12.377   6.127  1.00 20.00     0.224 C 
HETATM   11  O10 UNL     1     -39.004  11.930   7.152  1.00 20.00    -0.279 OA
HETATM   12 CL12 UNL     1     -39.365  11.697   4.534  1.00 20.00    -0.043 Cl
ENDBRANCH   7  10
TORSDOF 1
ENDMDL
MODEL 2
REMARK VINA RESULT:      -4.1     12.352     12.961
REMARK  1 active torsions:
REMARK  status: ('A' for Active; 'I' for Inactive)
REMARK    1  A    between atoms: C3_3  and  C8_8 
ROOT
HETATM    1  C1  UNL     1     -36.362  18.541  -3.513  1.00 20.00    -0.028 C 
HETATM    2  C2  UNL     1     -35.540  18.883  -2.506  1.00 20.00    -0.016 C 
HETATM    3  C4  UNL     1     -35.900  17.951  -4.819  1.00 20.00     0.042 C 
HETATM    4  C5  UNL     1     -33.577  17.460  -1.844  1.00 20.00     0.020 C 
HETATM    5  C6  UNL     1     -33.295  16.282  -2.788  1.00 20.00     0.016 C 
HETATM    6  C7  UNL     1     -34.034  18.763  -2.521  1.00 20.00     0.070 C 
HETATM    7  C8  UNL     1     -34.267  16.175  -3.971  1.00 20.00     0.086 C 
HETATM    8  C9  UNL     1     -34.438  17.458  -4.833  1.00 20.00     0.063 C 
HETATM    9  S11 UNL     1     -33.405  18.838  -4.229  1.00 20.00    -0.154 SA
ENDROOT
BRANCH   7  10
HETATM   10  C3  UNL     1     -33.790  15.058  -4.854  1.00 20.00     0.224 C 
HETATM   11  O10 UNL     1     -33.265  14.050  -4.393  1.00 20.00    -0.279 OA
HETATM   12 CL12 UNL     1     -34.078  15.387  -6.537  1.00 20.00    -0.043 Cl
ENDBRANCH   7  10
TORSDOF 1
ENDMDL
MODEL 3
REMARK VINA RESULT:      -3.9      1.231      1.328
REMARK  1 active torsions:
REMARK  status: ('A' for Active; 'I' for Inactive)
REMARK    1  A    between atoms: C3_3  and  C8_8 
ROOT
HETATM    1  C1  UNL     1     -41.700  16.412   7.232  1.00 20.00    -0.028 C 
HETATM    2  C2  UNL     1     -42.913  15.879   7.458  1.00 20.00    -0.016 C 
HETATM    3  C4  UNL     1     -40.400  15.718   7.541  1.00 20.00     0.042 C 
HETATM    4  C5  UNL     1     -43.416  13.461   6.994  1.00 20.00     0.020 C 
HETATM    5  C6  UNL     1     -42.193  12.616   6.610  1.00 20.00     0.016 C 
HETATM    6  C7  UNL     1     -43.178  14.527   8.077  1.00 20.00     0.070 C 
HETATM    7  C8  UNL     1     -40.874  13.399   6.571  1.00 20.00     0.086 C 
HETATM    8  C9  UNL     1     -40.522  14.210   7.849  1.00 20.00     0.063 C 
HETATM    9  S11 UNL     1     -41.792  14.033   9.151  1.00 20.00    -0.154 SA
ENDROOT
BRANCH   7  10
HETATM   10  C3  UNL     1     -39.769  12.419   6.299  1.00 20.00     0.224 C 
HETATM   11  O10 UNL     1     -39.050  11.992   7.197  1.00 20.00    -0.279 OA
HETATM   12 CL12 UNL     1     -39.663  12.003   4.615  1.00 20.00    -0.043 Cl
ENDBRANCH   7  10
TORSDOF 1
ENDMDL
MODEL 4
REMARK VINA RESULT:      -3.9     11.902     12.549
REMARK  1 active torsions:
REMARK  status: ('A' for Active; 'I' for Inactive)
REMARK    1  A    between atoms: C3_3  and  C8_8 
ROOT
HETATM    1  C1  UNL     1     -34.162  15.958  -4.288  1.00 20.00    -0.028 C 
HETATM    2  C2  UNL     1     -35.020  16.886  -4.745  1.00 20.00    -0.016 C 
HETATM    3  C4  UNL     1     -32.988  16.259  -3.393  1.00 20.00     0.042 C 
HETATM    4  C5  UNL     1     -35.854  18.763  -3.297  1.00 20.00     0.020 C 
HETATM    5  C6  UNL     1     -35.172  18.863  -1.925  1.00 20.00     0.016 C 
HETATM    6  C7  UNL     1     -34.941  18.369  -4.470  1.00 20.00     0.070 C 
HETATM    7  C8  UNL     1     -34.100  17.793  -1.675  1.00 20.00     0.086 C 
HETATM    8  C9  UNL     1     -32.994  17.667  -2.760  1.00 20.00     0.063 C 
HETATM    9  S11 UNL     1     -33.222  18.863  -4.122  1.00 20.00    -0.154 SA
ENDROOT
BRANCH   7  10
HETATM   10  C3  UNL     1     -33.451  18.096  -0.355  1.00 20.00     0.224 C 
HETATM   11  O10 UNL     1     -34.096  18.132   0.688  1.00 20.00    -0.279 OA
HETATM   12 CL12 UNL     1     -31.743  18.375  -0.515  1.00 20.00    -0.043 Cl
ENDBRANCH   7  10
TORSDOF 1
ENDMDL
MODEL 5
REMARK VINA RESULT:      -3.8     12.975     13.867
REMARK  1 active torsions:
REMARK  status: ('A' for Active; 'I' for Inactive)
REMARK    1  A    between atoms: C3_3  and  C8_8 
ROOT
HETATM    1  C1  UNL     1     -34.290  16.998  -7.424  1.00 20.00    -0.028 C 
HETATM    2  C2  UNL     1     -34.228  15.668  -7.242  1.00 20.00    -0.016 C 
HETATM    3  C4  UNL     1     -34.959  17.953  -6.471  1.00 20.00     0.042 C 
HETATM    4  C5  UNL     1     -33.786  14.650  -4.986  1.00 20.00     0.020 C 
HETATM    5  C6  UNL     1     -33.775  15.653  -3.824  1.00 20.00     0.016 C 
HETATM    6  C7  UNL     1     -34.833  14.911  -6.083  1.00 20.00     0.070 C 
HETATM    7  C8  UNL     1     -34.031  17.107  -4.244  1.00 20.00     0.086 C 
HETATM    8  C9  UNL     1     -35.310  17.359  -5.090  1.00 20.00     0.063 C 
HETATM    9  S11 UNL     1     -36.251  15.823  -5.394  1.00 20.00    -0.154 SA
ENDROOT
BRANCH   7  10
HETATM   10  C3  UNL     1     -34.105  17.937  -2.994  1.00 20.00     0.224 C 
HETATM   11  O10 UNL     1     -34.478  19.105  -3.017  1.00 20.00    -0.279 OA
HETATM   12 CL12 UNL     1     -33.612  17.045  -1.586  1.00 20.00    -0.043 Cl
ENDBRANCH   7  10
TORSDOF 1
ENDMDL
MODEL 6
REMARK VINA RESULT:      -3.8     12.978     13.549
REMARK  1 active torsions:
REMARK  status: ('A' for Active; 'I' for Inactive)
REMARK    1  A    between atoms: C3_3  and  C8_8 
ROOT
HETATM    1  C1  UNL     1     -35.494  13.819  -4.476  1.00 20.00    -0.028 C 
HETATM    2  C2  UNL     1     -36.293  14.353  -5.415  1.00 20.00    -0.016 C 
HETATM    3  C4  UNL     1     -34.090  14.286  -4.194  1.00 20.00     0.042 C 
HETATM    4  C5  UNL     1     -36.409  16.831  -5.817  1.00 20.00     0.020 C 
HETATM    5  C6  UNL     1     -35.373  17.654  -5.038  1.00 20.00     0.016 C 
HETATM    6  C7  UNL     1     -35.919  15.476  -6.354  1.00 20.00     0.070 C 
HETATM    7  C8  UNL     1     -34.449  16.818  -4.143  1.00 20.00     0.086 C 
HETATM    8  C9  UNL     1     -33.711  15.638  -4.835  1.00 20.00     0.063 C 
HETATM    9  S11 UNL     1     -34.116  15.517  -6.612  1.00 20.00    -0.154 SA
ENDROOT
BRANCH   7  10
HETATM   10  C3  UNL     1     -33.428  17.745  -3.547  1.00 20.00     0.224 C 
HETATM   11  O10 UNL     1     -33.010  18.723  -4.159  1.00 20.00    -0.279 OA
HETATM   12 CL12 UNL     1     -32.952  17.253  -1.949  1.00 20.00    -0.043 Cl
ENDBRANCH   7  10
TORSDOF 1
ENDMDL
MODEL 7
REMARK VINA RESULT:      -3.7     10.244     11.299
REMARK  1 active torsions:
REMARK  status: ('A' for Active; 'I' for Inactive)
REMARK    1  A    between atoms: C3_3  and  C8_8 
ROOT
HETATM    1  C1  UNL     1     -33.297   4.254   3.796  1.00 20.00    -0.028 C 
HETATM    2  C2  UNL     1     -34.038   4.158   4.913  1.00 20.00    -0.016 C 
HETATM    3  C4  UNL     1     -33.240   5.478   2.921  1.00 20.00     0.042 C 
HETATM    4  C5  UNL     1     -34.239   6.057   6.548  1.00 20.00     0.020 C 
HETATM    5  C6  UNL     1     -33.603   7.374   6.079  1.00 20.00     0.016 C 
HETATM    6  C7  UNL     1     -34.948   5.233   5.460  1.00 20.00     0.070 C 
HETATM    7  C8  UNL     1     -32.949   7.299   4.693  1.00 20.00     0.086 C 
HETATM    8  C9  UNL     1     -33.843   6.755   3.543  1.00 20.00     0.063 C 
HETATM    9  S11 UNL     1     -35.523   6.325   4.119  1.00 20.00    -0.154 SA
ENDROOT
BRANCH   7  10
HETATM   10  C3  UNL     1     -32.484   8.680   4.332  1.00 20.00     0.224 C 
HETATM   11  O10 UNL     1     -32.059   9.460   5.179  1.00 20.00    -0.279 OA
HETATM   12 CL12 UNL     1     -32.628   8.995   2.629  1.00 20.00    -0.043 Cl
ENDBRANCH   7  10
TORSDOF 1
ENDMDL
MODEL 8
REMARK VINA RESULT:      -3.7     13.196     13.921
REMARK  1 active torsions:
REMARK  status: ('A' for Active; 'I' for Inactive)
REMARK    1  A    between atoms: C3_3  and  C8_8 
ROOT
HETATM    1  C1  UNL     1     -34.657  18.554  -7.014  1.00 20.00    -0.028 C 
HETATM    2  C2  UNL     1     -35.617  17.868  -7.658  1.00 20.00    -0.016 C 
HETATM    3  C4  UNL     1     -34.341  18.397  -5.550  1.00 20.00     0.042 C 
HETATM    4  C5  UNL     1     -36.028  15.426  -7.229  1.00 20.00     0.020 C 
HETATM    5  C6  UNL     1     -35.225  14.838  -6.060  1.00 20.00     0.016 C 
HETATM    6  C7  UNL     1     -36.549  16.859  -7.028  1.00 20.00     0.070 C 
HETATM    7  C8  UNL     1     -34.305  15.847  -5.358  1.00 20.00     0.086 C 
HETATM    8  C9  UNL     1     -34.975  17.163  -4.874  1.00 20.00     0.063 C 
HETATM    9  S11 UNL     1     -36.762  17.207  -5.253  1.00 20.00    -0.154 SA
ENDROOT
BRANCH   7  10
HETATM   10  C3  UNL     1     -33.686  15.156  -4.177  1.00 20.00     0.224 C 
HETATM   11  O10 UNL     1     -33.399  13.963  -4.204  1.00 20.00    -0.279 OA
HETATM   12 CL12 UNL     1     -33.451  16.237  -2.836  1.00 20.00    -0.043 Cl
ENDBRANCH   7  10
TORSDOF 1
ENDMDL
MODEL 9
REMARK VINA RESULT:      -3.7     12.667     13.331
REMARK  1 active torsions:
REMARK  status: ('A' for Active; 'I' for Inactive)
REMARK    1  A    between atoms: C3_3  and  C8_8 
ROOT
HETATM    1  C1  UNL     1     -36.295  18.539  -3.282  1.00 20.00    -0.028 C 
HETATM    2  C2  UNL     1     -35.138  18.490  -2.600  1.00 20.00    -0.016 C 
HETATM    3  C4  UNL     1     -36.425  18.235  -4.751  1.00 20.00     0.042 C 
HETATM    4  C5  UNL     1     -33.445  16.670  -2.972  1.00 20.00     0.020 C 
HETATM    5  C6  UNL     1     -33.758  15.739  -4.153  1.00 20.00     0.016 C 
HETATM    6  C7  UNL     1     -33.786  18.155  -3.184  1.00 20.00     0.070 C 
HETATM    7  C8  UNL     1     -35.055  16.080  -4.898  1.00 20.00     0.086 C 
HETATM    8  C9  UNL     1     -35.197  17.549  -5.387  1.00 20.00     0.063 C 
HETATM    9  S11 UNL     1     -33.739  18.563  -4.959  1.00 20.00    -0.154 SA
ENDROOT
BRANCH   7  10
HETATM   10  C3  UNL     1     -35.156  15.163  -6.083  1.00 20.00     0.224 C 
HETATM   11  O10 UNL     1     -36.134  14.444  -6.261  1.00 20.00    -0.279 OA
HETATM   12 CL12 UNL     1     -33.757  15.265  -7.109  1.00 20.00    -0.043 Cl
ENDBRANCH   7  10
TORSDOF 1
ENDMDL
