MODEL 1
REMARK VINA RESULT:      -3.7      0.000      0.000
REMARK  1 active torsions:
REMARK  status: ('A' for Active; 'I' for Inactive)
REMARK    1  A    between atoms: C3_3  and  C8_8 
ROOT
HETATM    1  C1  UNL     1     -33.527  17.473  -4.075  1.00 20.00    -0.029 C 
HETATM    2  C2  UNL     1     -33.279  16.277  -3.526  1.00 20.00    -0.030 C 
HETATM    3  C4  UNL     1     -34.695  17.788  -4.952  1.00 20.00     0.045 C 
HETATM    4  C5  UNL     1     -34.127  15.066  -3.741  1.00 20.00     0.037 C 
HETATM    5  C6  UNL     1     -34.808  16.179  -6.975  1.00 20.00     0.019 C 
HETATM    6  C7  UNL     1     -33.921  15.104  -6.336  1.00 20.00     0.012 C 
HETATM    7  C8  UNL     1     -35.378  16.542  -5.557  1.00 20.00     0.031 C 
HETATM    8  C9  UNL     1     -34.855  15.112  -5.088  1.00 20.00    -0.026 C 
HETATM    9  C11 UNL     1     -35.881  13.970  -5.165  1.00 20.00     0.016 C 
ENDROOT
BRANCH   7  10
HETATM   10  C3  UNL     1     -36.931  16.737  -5.530  1.00 20.00     0.132 C 
HETATM   11  C10 UNL     1     -37.483  17.626  -4.447  1.00 20.00     0.091 C 
HETATM   12  O12 UNL     1     -37.665  16.193  -6.354  1.00 20.00    -0.298 OA
ENDBRANCH   7  10
TORSDOF 1
ENDMDL
MODEL 2
REMARK VINA RESULT:      -3.5      1.775      3.289
REMARK  1 active torsions:
REMARK  status: ('A' for Active; 'I' for Inactive)
REMARK    1  A    between atoms: C3_3  and  C8_8 
ROOT
HETATM    1  C1  UNL     1     -35.885  18.485  -5.462  1.00 20.00    -0.029 C 
HETATM    2  C2  UNL     1     -35.314  18.630  -6.664  1.00 20.00    -0.030 C 
HETATM    3  C4  UNL     1     -35.685  17.316  -4.553  1.00 20.00     0.045 C 
HETATM    4  C5  UNL     1     -34.411  17.617  -7.289  1.00 20.00     0.037 C 
HETATM    5  C6  UNL     1     -36.260  15.094  -5.747  1.00 20.00     0.019 C 
HETATM    6  C7  UNL     1     -36.135  15.670  -7.162  1.00 20.00     0.012 C 
HETATM    7  C8  UNL     1     -35.124  16.062  -5.259  1.00 20.00     0.031 C 
HETATM    8  C9  UNL     1     -34.716  16.199  -6.793  1.00 20.00    -0.026 C 
HETATM    9  C11 UNL     1     -33.627  15.231  -7.282  1.00 20.00     0.016 C 
ENDROOT
BRANCH   7  10
HETATM   10  C3  UNL     1     -34.062  15.378  -4.335  1.00 20.00     0.132 C 
HETATM   11  C10 UNL     1     -33.173  16.292  -3.533  1.00 20.00     0.091 C 
HETATM   12  O12 UNL     1     -33.959  14.154  -4.266  1.00 20.00    -0.298 OA
ENDBRANCH   7  10
TORSDOF 1
ENDMDL
MODEL 3
REMARK VINA RESULT:      -3.5      1.283      3.114
REMARK  1 active torsions:
REMARK  status: ('A' for Active; 'I' for Inactive)
REMARK    1  A    between atoms: C3_3  and  C8_8 
ROOT
HETATM    1  C1  UNL     1     -33.808  15.825  -3.807  1.00 20.00    -0.029 C 
HETATM    2  C2  UNL     1     -33.666  17.155  -3.858  1.00 20.00    -0.030 C 
HETATM    3  C4  UNL     1     -34.455  14.990  -4.864  1.00 20.00     0.045 C 
HETATM    4  C5  UNL     1     -34.170  18.008  -4.976  1.00 20.00     0.037 C 
HETATM    5  C6  UNL     1     -36.854  15.817  -5.368  1.00 20.00     0.019 C 
HETATM    6  C7  UNL     1     -36.640  17.213  -4.771  1.00 20.00     0.012 C 
HETATM    7  C8  UNL     1     -35.354  15.792  -5.831  1.00 20.00     0.031 C 
HETATM    8  C9  UNL     1     -35.380  17.377  -5.673  1.00 20.00    -0.026 C 
HETATM    9  C11 UNL     1     -35.718  18.168  -6.947  1.00 20.00     0.016 C 
ENDROOT
BRANCH   7  10
HETATM   10  C3  UNL     1     -35.150  15.260  -7.289  1.00 20.00     0.132 C 
HETATM   11  C10 UNL     1     -33.776  15.424  -7.883  1.00 20.00     0.091 C 
HETATM   12  O12 UNL     1     -36.066  14.732  -7.918  1.00 20.00    -0.298 OA
ENDBRANCH   7  10
TORSDOF 1
ENDMDL
MODEL 4
REMARK VINA RESULT:      -3.5     13.077     14.432
REMARK  1 active torsions:
REMARK  status: ('A' for Active; 'I' for Inactive)
REMARK    1  A    between atoms: C3_3  and  C8_8 
ROOT
HETATM    1  C1  UNL     1     -43.417  15.725   5.984  1.00 20.00    -0.029 C 
HETATM    2  C2  UNL     1     -42.960  15.081   4.904  1.00 20.00    -0.030 C 
HETATM    3  C4  UNL     1     -42.894  15.550   7.373  1.00 20.00     0.045 C 
HETATM    4  C5  UNL     1     -41.872  14.059   4.937  1.00 20.00     0.037 C 
HETATM    5  C6  UNL     1     -42.972  13.066   8.094  1.00 20.00     0.019 C 
HETATM    6  C7  UNL     1     -43.063  12.518   6.665  1.00 20.00     0.012 C 
HETATM    7  C8  UNL     1     -42.082  14.252   7.576  1.00 20.00     0.031 C 
HETATM    8  C9  UNL     1     -41.798  13.349   6.294  1.00 20.00    -0.026 C 
HETATM    9  C11 UNL     1     -40.533  12.479   6.358  1.00 20.00     0.016 C 
ENDROOT
BRANCH   7  10
HETATM   10  C3  UNL     1     -40.840  14.553   8.479  1.00 20.00     0.132 C 
HETATM   11  C10 UNL     1     -40.161  15.881   8.277  1.00 20.00     0.091 C 
HETATM   12  O12 UNL     1     -40.439  13.745   9.316  1.00 20.00    -0.298 OA
ENDBRANCH   7  10
TORSDOF 1
ENDMDL
MODEL 5
REMARK VINA RESULT:      -3.5     13.104     14.501
REMARK  1 active torsions:
REMARK  status: ('A' for Active; 'I' for Inactive)
REMARK    1  A    between atoms: C3_3  and  C8_8 
ROOT
HETATM    1  C1  UNL     1     -43.417  12.334   8.358  1.00 20.00    -0.029 C 
HETATM    2  C2  UNL     1     -42.997  13.263   9.225  1.00 20.00    -0.030 C 
HETATM    3  C4  UNL     1     -42.911  12.173   6.961  1.00 20.00     0.045 C 
HETATM    4  C5  UNL     1     -41.973  14.303   8.906  1.00 20.00     0.037 C 
HETATM    5  C6  UNL     1     -43.144  14.375   5.622  1.00 20.00     0.019 C 
HETATM    6  C7  UNL     1     -43.263  15.269   6.861  1.00 20.00     0.012 C 
HETATM    7  C8  UNL     1     -42.182  13.418   6.412  1.00 20.00     0.031 C 
HETATM    8  C9  UNL     1     -41.948  14.638   7.410  1.00 20.00    -0.026 C 
HETATM    9  C11 UNL     1     -40.739  15.533   7.098  1.00 20.00     0.016 C 
ENDROOT
BRANCH   7  10
HETATM   10  C3  UNL     1     -40.927  12.965   5.593  1.00 20.00     0.132 C 
HETATM   11  C10 UNL     1     -39.898  12.147   6.327  1.00 20.00     0.091 C 
HETATM   12  O12 UNL     1     -40.789  13.261   4.407  1.00 20.00    -0.298 OA
ENDBRANCH   7  10
TORSDOF 1
ENDMDL
MODEL 6
REMARK VINA RESULT:      -3.3     12.215     13.555
REMARK  1 active torsions:
REMARK  status: ('A' for Active; 'I' for Inactive)
REMARK    1  A    between atoms: C3_3  and  C8_8 
ROOT
HETATM    1  C1  UNL     1     -40.513  14.935   8.406  1.00 20.00    -0.029 C 
HETATM    2  C2  UNL     1     -41.211  15.948   7.880  1.00 20.00    -0.030 C 
HETATM    3  C4  UNL     1     -40.178  13.664   7.695  1.00 20.00     0.045 C 
HETATM    4  C5  UNL     1     -41.790  15.939   6.503  1.00 20.00     0.037 C 
HETATM    5  C6  UNL     1     -42.311  12.504   6.800  1.00 20.00     0.019 C 
HETATM    6  C7  UNL     1     -43.179  13.766   6.857  1.00 20.00     0.012 C 
HETATM    7  C8  UNL     1     -41.059  13.388   6.457  1.00 20.00     0.031 C 
HETATM    8  C9  UNL     1     -42.097  14.516   6.023  1.00 20.00    -0.026 C 
HETATM    9  C11 UNL     1     -42.473  14.539   4.533  1.00 20.00     0.016 C 
ENDROOT
BRANCH   7  10
HETATM   10  C3  UNL     1     -40.170  12.809   5.306  1.00 20.00     0.132 C 
HETATM   11  C10 UNL     1     -38.899  12.115   5.717  1.00 20.00     0.091 C 
HETATM   12  O12 UNL     1     -40.495  12.913   4.124  1.00 20.00    -0.298 OA
ENDBRANCH   7  10
TORSDOF 1
ENDMDL
MODEL 7
REMARK VINA RESULT:      -3.3      1.398      1.971
REMARK  1 active torsions:
REMARK  status: ('A' for Active; 'I' for Inactive)
REMARK    1  A    between atoms: C3_3  and  C8_8 
ROOT
HETATM    1  C1  UNL     1     -33.252  15.627  -3.873  1.00 20.00    -0.029 C 
HETATM    2  C2  UNL     1     -33.985  14.562  -4.219  1.00 20.00    -0.030 C 
HETATM    3  C4  UNL     1     -33.679  17.050  -4.032  1.00 20.00     0.045 C 
HETATM    4  C5  UNL     1     -35.336  14.646  -4.850  1.00 20.00     0.037 C 
HETATM    5  C6  UNL     1     -34.338  17.561  -6.481  1.00 20.00     0.019 C 
HETATM    6  C7  UNL     1     -34.554  16.094  -6.868  1.00 20.00     0.012 C 
HETATM    7  C8  UNL     1     -34.843  17.247  -5.028  1.00 20.00     0.031 C 
HETATM    8  C9  UNL     1     -35.513  15.942  -5.649  1.00 20.00    -0.026 C 
HETATM    9  C11 UNL     1     -36.980  16.089  -6.084  1.00 20.00     0.016 C 
ENDROOT
BRANCH   7  10
HETATM   10  C3  UNL     1     -35.838  18.313  -4.459  1.00 20.00     0.132 C 
HETATM   11  C10 UNL     1     -35.929  18.422  -2.960  1.00 20.00     0.091 C 
HETATM   12  O12 UNL     1     -36.511  19.029  -5.200  1.00 20.00    -0.298 OA
ENDBRANCH   7  10
TORSDOF 1
ENDMDL
MODEL 8
REMARK VINA RESULT:      -3.3     13.143     14.474
REMARK  1 active torsions:
REMARK  status: ('A' for Active; 'I' for Inactive)
REMARK    1  A    between atoms: C3_3  and  C8_8 
ROOT
HETATM    1  C1  UNL     1     -40.817  13.056   5.085  1.00 20.00    -0.029 C 
HETATM    2  C2  UNL     1     -41.555  14.014   4.512  1.00 20.00    -0.030 C 
HETATM    3  C4  UNL     1     -40.915  12.638   6.517  1.00 20.00     0.045 C 
HETATM    4  C5  UNL     1     -42.571  14.834   5.239  1.00 20.00     0.037 C 
HETATM    5  C6  UNL     1     -40.591  14.656   8.104  1.00 20.00     0.019 C 
HETATM    6  C7  UNL     1     -40.907  15.712   7.039  1.00 20.00     0.012 C 
HETATM    7  C8  UNL     1     -41.612  13.674   7.424  1.00 20.00     0.031 C 
HETATM    8  C9  UNL     1     -42.239  14.963   6.729  1.00 20.00    -0.026 C 
HETATM    9  C11 UNL     1     -43.417  15.614   7.470  1.00 20.00     0.016 C 
ENDROOT
BRANCH   7  10
HETATM   10  C3  UNL     1     -42.546  12.931   8.438  1.00 20.00     0.132 C 
HETATM   11  C10 UNL     1     -43.417  11.838   7.878  1.00 20.00     0.091 C 
HETATM   12  O12 UNL     1     -42.565  13.223   9.633  1.00 20.00    -0.298 OA
ENDBRANCH   7  10
TORSDOF 1
ENDMDL
MODEL 9
REMARK VINA RESULT:      -3.2     13.677     14.996
REMARK  1 active torsions:
REMARK  status: ('A' for Active; 'I' for Inactive)
REMARK    1  A    between atoms: C3_3  and  C8_8 
ROOT
HETATM    1  C1  UNL     1     -41.400  17.107   7.720  1.00 20.00    -0.029 C 
HETATM    2  C2  UNL     1     -42.684  16.942   8.057  1.00 20.00    -0.030 C 
HETATM    3  C4  UNL     1     -40.432  15.998   7.459  1.00 20.00     0.045 C 
HETATM    4  C5  UNL     1     -43.333  15.611   8.256  1.00 20.00     0.037 C 
HETATM    5  C6  UNL     1     -40.307  14.374   9.470  1.00 20.00     0.019 C 
HETATM    6  C7  UNL     1     -41.649  14.807  10.072  1.00 20.00     0.012 C 
HETATM    7  C8  UNL     1     -40.876  14.633   8.030  1.00 20.00     0.031 C 
HETATM    8  C9  UNL     1     -42.323  14.544   8.691  1.00 20.00    -0.026 C 
HETATM    9  C11 UNL     1     -42.985  13.157   8.661  1.00 20.00     0.016 C 
ENDROOT
BRANCH   7  10
HETATM   10  C3  UNL     1     -40.532  13.504   7.001  1.00 20.00     0.132 C 
HETATM   11  C10 UNL     1     -41.158  13.618   5.636  1.00 20.00     0.091 C 
HETATM   12  O12 UNL     1     -39.785  12.571   7.292  1.00 20.00    -0.298 OA
ENDBRANCH   7  10
TORSDOF 1
ENDMDL
