MODEL 1
REMARK VINA RESULT:      -4.1      0.000      0.000
REMARK  2 active torsions:
REMARK  status: ('A' for Active; 'I' for Inactive)
REMARK    1  A    between atoms: C1_1  and  C3_3 
REMARK       I    between atoms: C1_1  and  N8_8 
REMARK    2  A    between atoms: N8_8  and  O10_10 
ROOT
HETATM    1  C1  UNL     1     -33.856   7.256   5.647  1.00 20.00     0.247 C 
HETATM    2  C6  UNL     1     -34.833   5.098   6.411  1.00 20.00     0.189 C 
HETATM    3  N8  UNL     1     -34.402   6.025   5.380  1.00 20.00    -0.231 N 
HETATM    4  O9  UNL     1     -33.677   7.697   6.784  1.00 20.00    -0.271 OA
ENDROOT
BRANCH   1   5
HETATM    5  C3  UNL     1     -33.480   8.087   4.446  1.00 20.00     0.084 A 
HETATM    6  C2  UNL     1     -32.300   8.985   4.561  1.00 20.00     0.019 A 
HETATM    7  C4  UNL     1     -32.225   7.739   3.725  1.00 20.00    -0.005 A 
HETATM    8  C5  UNL     1     -32.192   7.834   2.240  1.00 20.00     0.011 C 
ENDBRANCH   1   5
BRANCH   3   9
HETATM    9  O10 UNL     1     -34.601   5.529   4.078  1.00 20.00    -0.281 OA
HETATM   10  C7  UNL     1     -33.847   4.332   3.917  1.00 20.00     0.238 C 
ENDBRANCH   3   9
TORSDOF 2
ENDMDL
MODEL 2
REMARK VINA RESULT:      -4.0      9.287     10.172
REMARK  2 active torsions:
REMARK  status: ('A' for Active; 'I' for Inactive)
REMARK    1  A    between atoms: C1_1  and  C3_3 
REMARK       I    between atoms: C1_1  and  N8_8 
REMARK    2  A    between atoms: N8_8  and  O10_10 
ROOT
HETATM    1  C1  UNL     1     -41.228  12.974   6.726  1.00 20.00     0.247 C 
HETATM    2  C6  UNL     1     -42.579  14.356   8.294  1.00 20.00     0.189 C 
HETATM    3  N8  UNL     1     -41.417  14.121   7.456  1.00 20.00    -0.231 N 
HETATM    4  O9  UNL     1     -42.021  12.031   6.708  1.00 20.00    -0.271 OA
ENDROOT
BRANCH   1   5
HETATM    5  C3  UNL     1     -39.952  12.904   5.924  1.00 20.00     0.084 A 
HETATM    6  C2  UNL     1     -38.857  12.034   6.432  1.00 20.00     0.019 A 
HETATM    7  C4  UNL     1     -39.645  11.631   5.218  1.00 20.00    -0.005 A 
HETATM    8  C5  UNL     1     -39.019  11.684   3.868  1.00 20.00     0.011 C 
ENDBRANCH   1   5
BRANCH   3   9
HETATM    9  O10 UNL     1     -40.506  15.194   7.470  1.00 20.00    -0.281 OA
HETATM   10  C7  UNL     1     -40.222  15.544   8.821  1.00 20.00     0.238 C 
ENDBRANCH   3   9
TORSDOF 2
ENDMDL
MODEL 3
REMARK VINA RESULT:      -3.7      1.812      3.442
REMARK  2 active torsions:
REMARK  status: ('A' for Active; 'I' for Inactive)
REMARK    1  A    between atoms: C1_1  and  C3_3 
REMARK       I    between atoms: C1_1  and  N8_8 
REMARK    2  A    between atoms: N8_8  and  O10_10 
ROOT
HETATM    1  C1  UNL     1     -32.854   7.887   4.246  1.00 20.00     0.247 C 
HETATM    2  C6  UNL     1     -32.077   7.839   1.882  1.00 20.00     0.189 C 
HETATM    3  N8  UNL     1     -32.408   7.201   3.143  1.00 20.00    -0.231 N 
HETATM    4  O9  UNL     1     -33.018   9.109   4.277  1.00 20.00    -0.271 OA
ENDROOT
BRANCH   1   5
HETATM    5  C3  UNL     1     -33.134   7.056   5.473  1.00 20.00     0.084 A 
HETATM    6  C2  UNL     1     -34.086   7.598   6.480  1.00 20.00     0.019 A 
HETATM    7  C4  UNL     1     -34.485   6.445   5.604  1.00 20.00    -0.005 A 
HETATM    8  C5  UNL     1     -34.609   5.077   6.178  1.00 20.00     0.011 C 
ENDBRANCH   1   5
BRANCH   3   9
HETATM    9  O10 UNL     1     -32.225   5.806   3.117  1.00 20.00    -0.281 OA
HETATM   10  C7  UNL     1     -33.283   5.213   2.371  1.00 20.00     0.238 C 
ENDBRANCH   3   9
TORSDOF 2
ENDMDL
MODEL 4
REMARK VINA RESULT:      -3.7      1.830      4.262
REMARK  2 active torsions:
REMARK  status: ('A' for Active; 'I' for Inactive)
REMARK    1  A    between atoms: C1_1  and  C3_3 
REMARK       I    between atoms: C1_1  and  N8_8 
REMARK    2  A    between atoms: N8_8  and  O10_10 
ROOT
HETATM    1  C1  UNL     1     -33.299   6.032   3.254  1.00 20.00     0.247 C 
HETATM    2  C6  UNL     1     -31.815   7.757   2.246  1.00 20.00     0.189 C 
HETATM    3  N8  UNL     1     -32.845   7.325   3.173  1.00 20.00    -0.231 N 
HETATM    4  O9  UNL     1     -32.880   5.110   2.549  1.00 20.00    -0.271 OA
ENDROOT
BRANCH   1   5
HETATM    5  C3  UNL     1     -34.384   5.774   4.269  1.00 20.00     0.084 A 
HETATM    6  C2  UNL     1     -34.431   4.434   4.914  1.00 20.00     0.019 A 
HETATM    7  C4  UNL     1     -33.982   5.635   5.695  1.00 20.00    -0.005 A 
HETATM    8  C5  UNL     1     -34.857   6.210   6.754  1.00 20.00     0.011 C 
ENDBRANCH   1   5
BRANCH   3   9
HETATM    9  O10 UNL     1     -33.328   8.370   3.982  1.00 20.00    -0.281 OA
HETATM   10  C7  UNL     1     -32.276   8.829   4.826  1.00 20.00     0.238 C 
ENDBRANCH   3   9
TORSDOF 2
ENDMDL
MODEL 5
REMARK VINA RESULT:      -3.6     12.770     13.886
REMARK  2 active torsions:
REMARK  status: ('A' for Active; 'I' for Inactive)
REMARK    1  A    between atoms: C1_1  and  C3_3 
REMARK       I    between atoms: C1_1  and  N8_8 
REMARK    2  A    between atoms: N8_8  and  O10_10 
ROOT
HETATM    1  C1  UNL     1     -34.554  15.243  -6.003  1.00 20.00     0.247 C 
HETATM    2  C6  UNL     1     -36.344  16.006  -7.554  1.00 20.00     0.189 C 
HETATM    3  N8  UNL     1     -35.800  15.775  -6.229  1.00 20.00    -0.231 N 
HETATM    4  O9  UNL     1     -33.776  14.909  -6.899  1.00 20.00    -0.271 OA
ENDROOT
BRANCH   1   5
HETATM    5  C3  UNL     1     -34.165  15.063  -4.557  1.00 20.00     0.084 A 
HETATM    6  C2  UNL     1     -32.741  14.761  -4.251  1.00 20.00     0.019 A 
HETATM    7  C4  UNL     1     -33.314  16.112  -3.931  1.00 20.00    -0.005 A 
HETATM    8  C5  UNL     1     -33.568  16.502  -2.517  1.00 20.00     0.011 C 
ENDBRANCH   1   5
BRANCH   3   9
HETATM    9  O10 UNL     1     -36.681  16.155  -5.200  1.00 20.00    -0.281 OA
HETATM   10  C7  UNL     1     -36.778  17.575  -5.172  1.00 20.00     0.238 C 
ENDBRANCH   3   9
TORSDOF 2
ENDMDL
MODEL 6
REMARK VINA RESULT:      -3.6      1.694      3.580
REMARK  2 active torsions:
REMARK  status: ('A' for Active; 'I' for Inactive)
REMARK    1  A    between atoms: C1_1  and  C3_3 
REMARK       I    between atoms: C1_1  and  N8_8 
REMARK    2  A    between atoms: N8_8  and  O10_10 
ROOT
HETATM    1  C1  UNL     1     -33.441   7.969   5.243  1.00 20.00     0.247 C 
HETATM    2  C6  UNL     1     -32.500   9.568   3.584  1.00 20.00     0.189 C 
HETATM    3  N8  UNL     1     -32.716   8.231   4.106  1.00 20.00    -0.231 N 
HETATM    4  O9  UNL     1     -33.979   8.839   5.931  1.00 20.00    -0.271 OA
ENDROOT
BRANCH   1   5
HETATM    5  C3  UNL     1     -33.547   6.518   5.640  1.00 20.00     0.084 A 
HETATM    6  C2  UNL     1     -34.756   6.087   6.391  1.00 20.00     0.019 A 
HETATM    7  C4  UNL     1     -34.572   5.684   4.955  1.00 20.00    -0.005 A 
HETATM    8  C5  UNL     1     -34.246   4.273   4.610  1.00 20.00     0.011 C 
ENDBRANCH   1   5
BRANCH   3   9
HETATM    9  O10 UNL     1     -32.107   7.232   3.326  1.00 20.00    -0.281 OA
HETATM   10  C7  UNL     1     -32.188   7.601   1.953  1.00 20.00     0.238 C 
ENDBRANCH   3   9
TORSDOF 2
ENDMDL
MODEL 7
REMARK VINA RESULT:      -3.5      1.866      3.700
REMARK  2 active torsions:
REMARK  status: ('A' for Active; 'I' for Inactive)
REMARK    1  A    between atoms: C1_1  and  C3_3 
REMARK       I    between atoms: C1_1  and  N8_8 
REMARK    2  A    between atoms: N8_8  and  O10_10 
ROOT
HETATM    1  C1  UNL     1     -34.061   5.114   4.255  1.00 20.00     0.247 C 
HETATM    2  C6  UNL     1     -32.746   4.981   2.147  1.00 20.00     0.189 C 
HETATM    3  N8  UNL     1     -33.403   5.716   3.211  1.00 20.00    -0.231 N 
HETATM    4  O9  UNL     1     -34.160   3.893   4.393  1.00 20.00    -0.271 OA
ENDROOT
BRANCH   1   5
HETATM    5  C3  UNL     1     -34.695   6.043   5.261  1.00 20.00     0.084 A 
HETATM    6  C2  UNL     1     -34.787   5.583   6.672  1.00 20.00     0.019 A 
HETATM    7  C4  UNL     1     -33.814   6.660   6.289  1.00 20.00    -0.005 A 
HETATM    8  C5  UNL     1     -34.057   8.071   6.699  1.00 20.00     0.011 C 
ENDBRANCH   1   5
BRANCH   3   9
HETATM    9  O10 UNL     1     -33.295   7.111   3.062  1.00 20.00    -0.281 OA
HETATM   10  C7  UNL     1     -31.935   7.493   3.243  1.00 20.00     0.238 C 
ENDBRANCH   3   9
TORSDOF 2
ENDMDL
MODEL 8
REMARK VINA RESULT:      -3.5     12.120     13.094
REMARK  2 active torsions:
REMARK  status: ('A' for Active; 'I' for Inactive)
REMARK    1  A    between atoms: C1_1  and  C3_3 
REMARK       I    between atoms: C1_1  and  N8_8 
REMARK    2  A    between atoms: N8_8  and  O10_10 
ROOT
HETATM    1  C1  UNL     1     -34.172  17.683  -3.089  1.00 20.00     0.247 C 
HETATM    2  C6  UNL     1     -34.467  16.820  -5.405  1.00 20.00     0.189 C 
HETATM    3  N8  UNL     1     -33.974  16.716  -4.044  1.00 20.00    -0.231 N 
HETATM    4  O9  UNL     1     -34.787  18.733  -3.291  1.00 20.00    -0.271 OA
ENDROOT
BRANCH   1   5
HETATM    5  C3  UNL     1     -33.573  17.406  -1.733  1.00 20.00     0.084 A 
HETATM    6  C2  UNL     1     -32.324  18.124  -1.363  1.00 20.00     0.019 A 
HETATM    7  C4  UNL     1     -33.628  18.490  -0.715  1.00 20.00    -0.005 A 
HETATM    8  C5  UNL     1     -33.883  18.135   0.709  1.00 20.00     0.011 C 
ENDBRANCH   1   5
BRANCH   3   9
HETATM    9  O10 UNL     1     -33.272  15.520  -3.804  1.00 20.00    -0.281 OA
HETATM   10  C7  UNL     1     -34.066  14.421  -4.238  1.00 20.00     0.238 C 
ENDBRANCH   3   9
TORSDOF 2
ENDMDL
MODEL 9
REMARK VINA RESULT:      -3.3     12.564     13.710
REMARK  2 active torsions:
REMARK  status: ('A' for Active; 'I' for Inactive)
REMARK    1  A    between atoms: C1_1  and  C3_3 
REMARK       I    between atoms: C1_1  and  N8_8 
REMARK    2  A    between atoms: N8_8  and  O10_10 
ROOT
HETATM    1  C1  UNL     1     -33.812  16.172  -4.065  1.00 20.00     0.247 C 
HETATM    2  C6  UNL     1     -34.695  15.282  -6.215  1.00 20.00     0.189 C 
HETATM    3  N8  UNL     1     -34.285  16.365  -5.339  1.00 20.00    -0.231 N 
HETATM    4  O9  UNL     1     -33.689  15.065  -3.537  1.00 20.00    -0.271 OA
ENDROOT
BRANCH   1   5
HETATM    5  C3  UNL     1     -33.447  17.420  -3.299  1.00 20.00     0.084 A 
HETATM    6  C2  UNL     1     -34.500  18.058  -2.465  1.00 20.00     0.019 A 
HETATM    7  C4  UNL     1     -33.361  17.324  -1.816  1.00 20.00    -0.005 A 
HETATM    8  C5  UNL     1     -32.294  18.079  -1.103  1.00 20.00     0.011 C 
ENDBRANCH   1   5
BRANCH   3   9
HETATM    9  O10 UNL     1     -34.421  17.633  -5.934  1.00 20.00    -0.281 OA
HETATM   10  C7  UNL     1     -35.799  17.878  -6.195  1.00 20.00     0.238 C 
ENDBRANCH   3   9
TORSDOF 2
ENDMDL
