MODEL 1
REMARK VINA RESULT:      -5.6      0.000      0.000
REMARK  2 active torsions:
REMARK  status: ('A' for Active; 'I' for Inactive)
REMARK    1  A    between atoms: C4_4  and  C5_5 
REMARK    2  A    between atoms: C6_6  and  C10_10 
ROOT
HETATM    1  C1  UNL     1     -32.815   8.550   5.179  1.00 20.00    -0.003 C 
HETATM    2  C2  UNL     1     -33.735   7.476   5.449  1.00 20.00     0.010 C 
HETATM    3  C3  UNL     1     -32.084   8.581   4.058  1.00 20.00    -0.021 C 
HETATM    4  C4  UNL     1     -33.989   6.529   4.534  1.00 20.00    -0.016 C 
HETATM    5  C6  UNL     1     -32.147   7.500   3.007  1.00 20.00     0.016 C 
HETATM    6  C7  UNL     1     -33.335   6.490   3.169  1.00 20.00     0.025 C 
HETATM    7  C8  UNL     1     -32.839   5.081   2.805  1.00 20.00     0.016 C 
ENDROOT
BRANCH   4   8
HETATM    8  C5  UNL     1     -35.022   5.553   4.896  1.00 20.00     0.266 C 
HETATM    9  O11 UNL     1     -34.852   4.703   5.762  1.00 20.00    -0.302 OA
ENDBRANCH   4   8
BRANCH   5  10
HETATM   10  C10 UNL     1     -32.177   8.133   1.610  1.00 20.00     0.005 C 
HETATM   11  C9  UNL     1     -32.893   9.442   1.618  1.00 20.00     0.006 C 
ENDBRANCH   5  10
TORSDOF 2
ENDMDL
MODEL 2
REMARK VINA RESULT:      -4.3      1.631      3.572
REMARK  2 active torsions:
REMARK  status: ('A' for Active; 'I' for Inactive)
REMARK    1  A    between atoms: C4_4  and  C5_5 
REMARK    2  A    between atoms: C6_6  and  C10_10 
ROOT
HETATM    1  C1  UNL     1     -32.087   8.416   4.264  1.00 20.00    -0.003 C 
HETATM    2  C2  UNL     1     -32.155   7.444   3.205  1.00 20.00     0.010 C 
HETATM    3  C3  UNL     1     -32.976   8.427   5.265  1.00 20.00    -0.021 C 
HETATM    4  C4  UNL     1     -33.035   6.433   3.243  1.00 20.00    -0.016 C 
HETATM    5  C6  UNL     1     -34.119   7.446   5.357  1.00 20.00     0.016 C 
HETATM    6  C7  UNL     1     -34.030   6.233   4.368  1.00 20.00     0.025 C 
HETATM    7  C8  UNL     1     -35.440   5.917   3.844  1.00 20.00     0.016 C 
ENDROOT
BRANCH   4   8
HETATM    8  C5  UNL     1     -32.931   5.454   2.157  1.00 20.00     0.266 C 
HETATM    9  O11 UNL     1     -32.646   4.278   2.352  1.00 20.00    -0.302 OA
ENDBRANCH   4   8
BRANCH   5  10
HETATM   10  C10 UNL     1     -34.261   6.944   6.799  1.00 20.00     0.005 C 
HETATM   11  C9  UNL     1     -34.329   5.455   6.855  1.00 20.00     0.006 C 
ENDBRANCH   5  10
TORSDOF 2
ENDMDL
MODEL 3
REMARK VINA RESULT:      -4.2     11.568     13.040
REMARK  2 active torsions:
REMARK  status: ('A' for Active; 'I' for Inactive)
REMARK    1  A    between atoms: C4_4  and  C5_5 
REMARK    2  A    between atoms: C6_6  and  C10_10 
ROOT
HETATM    1  C1  UNL     1     -33.310  14.793  -4.198  1.00 20.00    -0.003 C 
HETATM    2  C2  UNL     1     -34.208  14.723  -5.320  1.00 20.00     0.010 C 
HETATM    3  C3  UNL     1     -33.122  15.934  -3.522  1.00 20.00    -0.021 C 
HETATM    4  C4  UNL     1     -34.986  15.761  -5.658  1.00 20.00    -0.016 C 
HETATM    5  C6  UNL     1     -33.811  17.226  -3.885  1.00 20.00     0.016 C 
HETATM    6  C7  UNL     1     -34.982  17.083  -4.918  1.00 20.00     0.025 C 
HETATM    7  C8  UNL     1     -34.943  18.283  -5.879  1.00 20.00     0.016 C 
ENDROOT
BRANCH   4   8
HETATM    8  C5  UNL     1     -35.929  15.523  -6.755  1.00 20.00     0.266 C 
HETATM    9  O11 UNL     1     -36.082  14.419  -7.266  1.00 20.00    -0.302 OA
ENDBRANCH   4   8
BRANCH   5  10
HETATM   10  C10 UNL     1     -34.309  17.927  -2.615  1.00 20.00     0.005 C 
HETATM   11  C9  UNL     1     -33.650  17.379  -1.394  1.00 20.00     0.006 C 
ENDBRANCH   5  10
TORSDOF 2
ENDMDL
MODEL 4
REMARK VINA RESULT:      -4.1      2.098      4.065
REMARK  2 active torsions:
REMARK  status: ('A' for Active; 'I' for Inactive)
REMARK    1  A    between atoms: C4_4  and  C5_5 
REMARK    2  A    between atoms: C6_6  and  C10_10 
ROOT
HETATM    1  C1  UNL     1     -32.592   5.955   2.617  1.00 20.00    -0.003 C 
HETATM    2  C2  UNL     1     -32.223   7.275   3.056  1.00 20.00     0.010 C 
HETATM    3  C3  UNL     1     -33.424   5.186   3.331  1.00 20.00    -0.021 C 
HETATM    4  C4  UNL     1     -32.794   7.838   4.130  1.00 20.00    -0.016 C 
HETATM    5  C6  UNL     1     -34.023   5.625   4.645  1.00 20.00     0.016 C 
HETATM    6  C7  UNL     1     -33.843   7.147   4.976  1.00 20.00     0.025 C 
HETATM    7  C8  UNL     1     -33.563   7.295   6.481  1.00 20.00     0.016 C 
ENDROOT
BRANCH   4   8
HETATM    8  C5  UNL     1     -32.406   9.224   4.408  1.00 20.00     0.266 C 
HETATM    9  O11 UNL     1     -31.710   9.535   5.367  1.00 20.00    -0.302 OA
ENDBRANCH   4   8
BRANCH   5  10
HETATM   10  C10 UNL     1     -35.507   5.244   4.694  1.00 20.00     0.005 C 
HETATM   11  C9  UNL     1     -36.349   6.225   3.949  1.00 20.00     0.006 C 
ENDBRANCH   5  10
TORSDOF 2
ENDMDL
MODEL 5
REMARK VINA RESULT:      -4.0      2.368      4.510
REMARK  2 active torsions:
REMARK  status: ('A' for Active; 'I' for Inactive)
REMARK    1  A    between atoms: C4_4  and  C5_5 
REMARK    2  A    between atoms: C6_6  and  C10_10 
ROOT
HETATM    1  C1  UNL     1     -32.955   5.413   2.661  1.00 20.00    -0.003 C 
HETATM    2  C2  UNL     1     -32.548   6.636   2.020  1.00 20.00     0.010 C 
HETATM    3  C3  UNL     1     -33.332   5.386   3.945  1.00 20.00    -0.021 C 
HETATM    4  C4  UNL     1     -32.649   7.817   2.645  1.00 20.00    -0.016 C 
HETATM    5  C6  UNL     1     -33.346   6.614   4.822  1.00 20.00     0.016 C 
HETATM    6  C7  UNL     1     -33.172   7.973   4.058  1.00 20.00     0.025 C 
HETATM    7  C8  UNL     1     -32.289   8.905   4.904  1.00 20.00     0.016 C 
ENDROOT
BRANCH   4   8
HETATM    8  C5  UNL     1     -32.299   8.995   1.846  1.00 20.00     0.266 C 
HETATM    9  O11 UNL     1     -32.638   9.123   0.675  1.00 20.00    -0.302 OA
ENDBRANCH   4   8
BRANCH   5  10
HETATM   10  C10 UNL     1     -34.628   6.640   5.663  1.00 20.00     0.005 C 
HETATM   11  C9  UNL     1     -34.781   5.390   6.463  1.00 20.00     0.006 C 
ENDBRANCH   5  10
TORSDOF 2
ENDMDL
MODEL 6
REMARK VINA RESULT:      -3.7     11.367     13.039
REMARK  2 active torsions:
REMARK  status: ('A' for Active; 'I' for Inactive)
REMARK    1  A    between atoms: C4_4  and  C5_5 
REMARK    2  A    between atoms: C6_6  and  C10_10 
ROOT
HETATM    1  C1  UNL     1     -33.620  14.680  -4.545  1.00 20.00    -0.003 C 
HETATM    2  C2  UNL     1     -33.318  15.527  -3.421  1.00 20.00     0.010 C 
HETATM    3  C3  UNL     1     -34.369  15.113  -5.568  1.00 20.00    -0.021 C 
HETATM    4  C4  UNL     1     -33.668  16.821  -3.410  1.00 20.00    -0.016 C 
HETATM    5  C6  UNL     1     -34.966  16.498  -5.619  1.00 20.00     0.016 C 
HETATM    6  C7  UNL     1     -34.413  17.495  -4.543  1.00 20.00     0.025 C 
HETATM    7  C8  UNL     1     -35.573  18.368  -4.035  1.00 20.00     0.016 C 
ENDROOT
BRANCH   4   8
HETATM    8  C5  UNL     1     -33.209  17.596  -2.253  1.00 20.00     0.266 C 
HETATM    9  O11 UNL     1     -33.616  17.388  -1.115  1.00 20.00    -0.302 OA
ENDBRANCH   4   8
BRANCH   5  10
HETATM   10  C10 UNL     1     -34.795  17.088  -7.025  1.00 20.00     0.005 C 
HETATM   11  C9  UNL     1     -34.041  16.160  -7.918  1.00 20.00     0.006 C 
ENDBRANCH   5  10
TORSDOF 2
ENDMDL
MODEL 7
REMARK VINA RESULT:      -3.7     11.595     12.589
REMARK  2 active torsions:
REMARK  status: ('A' for Active; 'I' for Inactive)
REMARK    1  A    between atoms: C4_4  and  C5_5 
REMARK    2  A    between atoms: C6_6  and  C10_10 
ROOT
HETATM    1  C1  UNL     1     -35.706  18.862  -2.616  1.00 20.00    -0.003 C 
HETATM    2  C2  UNL     1     -35.520  19.263  -1.246  1.00 20.00     0.010 C 
HETATM    3  C3  UNL     1     -34.799  18.114  -3.256  1.00 20.00    -0.021 C 
HETATM    4  C4  UNL     1     -34.495  18.800  -0.517  1.00 20.00    -0.016 C 
HETATM    5  C6  UNL     1     -33.516  17.649  -2.611  1.00 20.00     0.016 C 
HETATM    6  C7  UNL     1     -33.448  17.849  -1.058  1.00 20.00     0.025 C 
HETATM    7  C8  UNL     1     -32.022  18.280  -0.677  1.00 20.00     0.016 C 
ENDROOT
BRANCH   4   8
HETATM    8  C5  UNL     1     -34.480  19.203   0.893  1.00 20.00     0.266 C 
HETATM    9  O11 UNL     1     -35.340  18.848   1.690  1.00 20.00    -0.302 OA
ENDBRANCH   4   8
BRANCH   5  10
HETATM   10  C10 UNL     1     -33.256  16.180  -2.968  1.00 20.00     0.005 C 
HETATM   11  C9  UNL     1     -33.909  15.807  -4.257  1.00 20.00     0.006 C 
ENDBRANCH   5  10
TORSDOF 2
ENDMDL
MODEL 8
REMARK VINA RESULT:      -3.6     11.822     12.936
REMARK  2 active torsions:
REMARK  status: ('A' for Active; 'I' for Inactive)
REMARK    1  A    between atoms: C4_4  and  C5_5 
REMARK    2  A    between atoms: C6_6  and  C10_10 
ROOT
HETATM    1  C1  UNL     1     -35.355  19.263  -1.207  1.00 20.00    -0.003 C 
HETATM    2  C2  UNL     1     -35.634  18.896  -2.571  1.00 20.00     0.010 C 
HETATM    3  C3  UNL     1     -34.304  18.761  -0.548  1.00 20.00    -0.021 C 
HETATM    4  C4  UNL     1     -34.784  18.137  -3.276  1.00 20.00    -0.016 C 
HETATM    5  C6  UNL     1     -33.347  17.769  -1.162  1.00 20.00     0.016 C 
HETATM    6  C7  UNL     1     -33.490  17.588  -2.713  1.00 20.00     0.025 C 
HETATM    7  C8  UNL     1     -33.291  16.103  -3.058  1.00 20.00     0.016 C 
ENDROOT
BRANCH   4   8
HETATM    8  C5  UNL     1     -35.135  17.923  -4.684  1.00 20.00     0.266 C 
HETATM    9  O11 UNL     1     -36.153  17.333  -5.028  1.00 20.00    -0.302 OA
ENDBRANCH   4   8
BRANCH   5  10
HETATM   10  C10 UNL     1     -31.904  18.146  -0.804  1.00 20.00     0.005 C 
HETATM   11  C9  UNL     1     -31.807  18.672   0.589  1.00 20.00     0.006 C 
ENDBRANCH   5  10
TORSDOF 2
ENDMDL
MODEL 9
REMARK VINA RESULT:      -3.6     13.063     14.043
REMARK  2 active torsions:
REMARK  status: ('A' for Active; 'I' for Inactive)
REMARK    1  A    between atoms: C4_4  and  C5_5 
REMARK    2  A    between atoms: C6_6  and  C10_10 
ROOT
HETATM    1  C1  UNL     1     -24.379  -1.237  12.189  1.00 20.00    -0.003 C 
HETATM    2  C2  UNL     1     -25.773  -0.884  12.241  1.00 20.00     0.010 C 
HETATM    3  C3  UNL     1     -23.943  -2.268  11.454  1.00 20.00    -0.021 C 
HETATM    4  C4  UNL     1     -26.675  -1.493  11.459  1.00 20.00    -0.016 C 
HETATM    5  C6  UNL     1     -24.866  -3.146  10.644  1.00 20.00     0.016 C 
HETATM    6  C7  UNL     1     -26.326  -2.597  10.483  1.00 20.00     0.025 C 
HETATM    7  C8  UNL     1     -27.309  -3.777  10.566  1.00 20.00     0.016 C 
ENDROOT
BRANCH   4   8
HETATM    8  C5  UNL     1     -28.042  -0.968  11.533  1.00 20.00     0.266 C 
HETATM    9  O11 UNL     1     -28.626  -0.505  10.560  1.00 20.00    -0.302 OA
ENDBRANCH   4   8
BRANCH   5  10
HETATM   10  C10 UNL     1     -24.248  -3.421   9.267  1.00 20.00     0.005 C 
HETATM   11  C9  UNL     1     -22.849  -2.911   9.185  1.00 20.00     0.006 C 
ENDBRANCH   5  10
TORSDOF 2
ENDMDL
