MODEL 1
REMARK VINA RESULT:      -3.8      0.000      0.000
REMARK  2 active torsions:
REMARK  status: ('A' for Active; 'I' for Inactive)
REMARK    1  A    between atoms: C3_3  and  C8_8 
REMARK    2  A    between atoms: C8_8  and  C10_10 
ROOT
HETATM    1  C1  UNL     1     -34.535  17.282  -7.197  1.00 20.00    -0.026 C 
HETATM    2  C2  UNL     1     -34.162  16.037  -7.530  1.00 20.00    -0.024 C 
HETATM    3  C4  UNL     1     -36.444  15.997  -7.254  1.00 20.00     0.018 C 
HETATM    4  C5  UNL     1     -35.612  16.537  -5.086  1.00 20.00     0.025 C 
HETATM    5  C6  UNL     1     -35.859  17.175  -6.476  1.00 20.00     0.010 C 
HETATM    6  C7  UNL     1     -35.223  15.096  -7.000  1.00 20.00     0.024 C 
HETATM    7  C8  UNL     1     -35.158  15.081  -5.441  1.00 20.00     0.020 C 
ENDROOT
BRANCH   7   8
HETATM    8  C3  UNL     1     -36.143  14.061  -4.925  1.00 20.00     0.241 C 
HETATM    9  O11 UNL     1     -35.810  13.042  -4.328  1.00 20.00    -0.306 OA
ENDBRANCH   7   8
BRANCH   7  10
HETATM   10  C10 UNL     1     -33.787  14.729  -4.862  1.00 20.00     0.013 C 
HETATM   11  C9  UNL     1     -33.399  15.660  -3.763  1.00 20.00     0.006 C 
ENDBRANCH   7  10
TORSDOF 2
ENDMDL
MODEL 2
REMARK VINA RESULT:      -3.7     11.581     13.410
REMARK  2 active torsions:
REMARK  status: ('A' for Active; 'I' for Inactive)
REMARK    1  A    between atoms: C3_3  and  C8_8 
REMARK    2  A    between atoms: C8_8  and  C10_10 
ROOT
HETATM    1  C1  UNL     1     -41.567   8.207  -0.780  1.00 20.00    -0.026 C 
HETATM    2  C2  UNL     1     -42.782   8.078  -0.227  1.00 20.00    -0.024 C 
HETATM    3  C4  UNL     1     -41.252   7.496   1.388  1.00 20.00     0.018 C 
HETATM    4  C5  UNL     1     -40.955   5.847  -0.308  1.00 20.00     0.025 C 
HETATM    5  C6  UNL     1     -40.622   7.327   0.005  1.00 20.00     0.010 C 
HETATM    6  C7  UNL     1     -42.654   7.083   0.907  1.00 20.00     0.024 C 
HETATM    7  C8  UNL     1     -42.381   5.666   0.313  1.00 20.00     0.020 C 
ENDROOT
BRANCH   7   8
HETATM    8  C3  UNL     1     -42.363   4.663   1.440  1.00 20.00     0.241 C 
HETATM    9  O11 UNL     1     -43.146   3.723   1.520  1.00 20.00    -0.306 OA
ENDBRANCH   7   8
BRANCH   7  10
HETATM   10  C10 UNL     1     -43.416   5.190  -0.707  1.00 20.00     0.013 C 
HETATM   11  C9  UNL     1     -42.778   4.445  -1.832  1.00 20.00     0.006 C 
ENDBRANCH   7  10
TORSDOF 2
ENDMDL
MODEL 3
REMARK VINA RESULT:      -3.5     11.723     13.279
REMARK  2 active torsions:
REMARK  status: ('A' for Active; 'I' for Inactive)
REMARK    1  A    between atoms: C3_3  and  C8_8 
REMARK    2  A    between atoms: C8_8  and  C10_10 
ROOT
HETATM    1  C1  UNL     1     -40.982   7.979   0.995  1.00 20.00    -0.026 C 
HETATM    2  C2  UNL     1     -40.407   6.797   0.728  1.00 20.00    -0.024 C 
HETATM    3  C4  UNL     1     -41.550   7.424  -1.166  1.00 20.00     0.018 C 
HETATM    4  C5  UNL     1     -43.260   7.141   0.470  1.00 20.00     0.025 C 
HETATM    5  C6  UNL     1     -42.149   8.134   0.047  1.00 20.00     0.010 C 
HETATM    6  C7  UNL     1     -41.214   6.147  -0.376  1.00 20.00     0.024 C 
HETATM    7  C8  UNL     1     -42.613   5.744   0.185  1.00 20.00     0.020 C 
ENDROOT
BRANCH   7   8
HETATM    8  C3  UNL     1     -43.370   5.000  -0.888  1.00 20.00     0.241 C 
HETATM    9  O11 UNL     1     -42.827   4.453  -1.842  1.00 20.00    -0.306 OA
ENDBRANCH   7   8
BRANCH   7  10
HETATM   10  C10 UNL     1     -42.571   4.846   1.422  1.00 20.00     0.013 C 
HETATM   11  C9  UNL     1     -43.417   5.389   2.525  1.00 20.00     0.006 C 
ENDBRANCH   7  10
TORSDOF 2
ENDMDL
MODEL 4
REMARK VINA RESULT:      -3.4     12.842     14.374
REMARK  2 active torsions:
REMARK  status: ('A' for Active; 'I' for Inactive)
REMARK    1  A    between atoms: C3_3  and  C8_8 
REMARK    2  A    between atoms: C8_8  and  C10_10 
ROOT
HETATM    1  C1  UNL     1     -41.281  14.127   8.932  1.00 20.00    -0.026 C 
HETATM    2  C2  UNL     1     -40.533  14.925   8.155  1.00 20.00    -0.024 C 
HETATM    3  C4  UNL     1     -42.720  15.237   7.518  1.00 20.00     0.018 C 
HETATM    4  C5  UNL     1     -42.286  12.953   6.987  1.00 20.00     0.025 C 
HETATM    5  C6  UNL     1     -42.577  13.875   8.197  1.00 20.00     0.010 C 
HETATM    6  C7  UNL     1     -41.319  15.177   6.885  1.00 20.00     0.024 C 
HETATM    7  C8  UNL     1     -41.397  13.852   6.064  1.00 20.00     0.020 C 
ENDROOT
BRANCH   7   8
HETATM    8  C3  UNL     1     -42.086  14.136   4.752  1.00 20.00     0.241 C 
HETATM    9  O11 UNL     1     -41.544  13.998   3.660  1.00 20.00    -0.306 OA
ENDBRANCH   7   8
BRANCH   7  10
HETATM   10  C10 UNL     1     -40.043  13.218   5.743  1.00 20.00     0.013 C 
HETATM   11  C9  UNL     1     -40.078  11.735   5.906  1.00 20.00     0.006 C 
ENDBRANCH   7  10
TORSDOF 2
ENDMDL
MODEL 5
REMARK VINA RESULT:      -3.2     13.475     14.810
REMARK  2 active torsions:
REMARK  status: ('A' for Active; 'I' for Inactive)
REMARK    1  A    between atoms: C3_3  and  C8_8 
REMARK    2  A    between atoms: C8_8  and  C10_10 
ROOT
HETATM    1  C1  UNL     1     -41.948  13.988   5.006  1.00 20.00    -0.026 C 
HETATM    2  C2  UNL     1     -40.876  13.465   5.621  1.00 20.00    -0.024 C 
HETATM    3  C4  UNL     1     -42.729  12.716   6.759  1.00 20.00     0.018 C 
HETATM    4  C5  UNL     1     -42.772  15.078   7.080  1.00 20.00     0.025 C 
HETATM    5  C6  UNL     1     -43.078  14.002   6.009  1.00 20.00     0.010 C 
HETATM    6  C7  UNL     1     -41.284  13.160   7.047  1.00 20.00     0.024 C 
HETATM    7  C8  UNL     1     -41.512  14.503   7.809  1.00 20.00     0.020 C 
ENDROOT
BRANCH   7   8
HETATM    8  C3  UNL     1     -41.810  14.194   9.255  1.00 20.00     0.241 C 
HETATM    9  O11 UNL     1     -41.003  13.670  10.016  1.00 20.00    -0.306 OA
ENDBRANCH   7   8
BRANCH   7  10
HETATM   10  C10 UNL     1     -40.321  15.463   7.782  1.00 20.00     0.013 C 
HETATM   11  C9  UNL     1     -40.756  16.872   7.554  1.00 20.00     0.006 C 
ENDBRANCH   7  10
TORSDOF 2
ENDMDL
MODEL 6
REMARK VINA RESULT:      -3.1     24.800     26.326
REMARK  2 active torsions:
REMARK  status: ('A' for Active; 'I' for Inactive)
REMARK    1  A    between atoms: C3_3  and  C8_8 
REMARK    2  A    between atoms: C8_8  and  C10_10 
ROOT
HETATM    1  C1  UNL     1     -28.645  -3.024  10.448  1.00 20.00    -0.026 C 
HETATM    2  C2  UNL     1     -28.570  -2.930  11.784  1.00 20.00    -0.024 C 
HETATM    3  C4  UNL     1     -27.932  -0.890  10.937  1.00 20.00     0.018 C 
HETATM    4  C5  UNL     1     -26.263  -2.393  10.138  1.00 20.00     0.025 C 
HETATM    5  C6  UNL     1     -27.729  -1.969   9.873  1.00 20.00     0.010 C 
HETATM    6  C7  UNL     1     -27.576  -1.832  12.100  1.00 20.00     0.024 C 
HETATM    7  C8  UNL     1     -26.146  -2.309  11.697  1.00 20.00     0.020 C 
ENDROOT
BRANCH   7   8
HETATM    8  C3  UNL     1     -25.149  -1.256  12.114  1.00 20.00     0.241 C 
HETATM    9  O11 UNL     1     -23.994  -1.218  11.703  1.00 20.00    -0.306 OA
ENDBRANCH   7   8
BRANCH   7  10
HETATM   10  C10 UNL     1     -25.710  -3.630  12.332  1.00 20.00     0.013 C 
HETATM   11  C9  UNL     1     -25.186  -4.584  11.311  1.00 20.00     0.006 C 
ENDBRANCH   7  10
TORSDOF 2
ENDMDL
MODEL 7
REMARK VINA RESULT:      -3.1      1.638      2.387
REMARK  2 active torsions:
REMARK  status: ('A' for Active; 'I' for Inactive)
REMARK    1  A    between atoms: C3_3  and  C8_8 
REMARK    2  A    between atoms: C8_8  and  C10_10 
ROOT
HETATM    1  C1  UNL     1     -35.433  18.008  -4.339  1.00 20.00    -0.026 C 
HETATM    2  C2  UNL     1     -34.365  18.009  -5.153  1.00 20.00    -0.024 C 
HETATM    3  C4  UNL     1     -36.227  18.067  -6.500  1.00 20.00     0.018 C 
HETATM    4  C5  UNL     1     -36.390  15.967  -5.382  1.00 20.00     0.025 C 
HETATM    5  C6  UNL     1     -36.603  17.482  -5.138  1.00 20.00     0.010 C 
HETATM    6  C7  UNL     1     -34.817  17.450  -6.485  1.00 20.00     0.024 C 
HETATM    7  C8  UNL     1     -35.137  15.932  -6.318  1.00 20.00     0.020 C 
ENDROOT
BRANCH   7   8
HETATM    8  C3  UNL     1     -35.481  15.358  -7.671  1.00 20.00     0.241 C 
HETATM    9  O11 UNL     1     -36.175  14.359  -7.824  1.00 20.00    -0.306 OA
ENDBRANCH   7   8
BRANCH   7  10
HETATM   10  C10 UNL     1     -33.991  15.097  -5.745  1.00 20.00     0.013 C 
HETATM   11  C9  UNL     1     -34.391  14.405  -4.485  1.00 20.00     0.006 C 
ENDBRANCH   7  10
TORSDOF 2
ENDMDL
MODEL 8
REMARK VINA RESULT:      -3.0     13.454     14.823
REMARK  2 active torsions:
REMARK  status: ('A' for Active; 'I' for Inactive)
REMARK    1  A    between atoms: C3_3  and  C8_8 
REMARK    2  A    between atoms: C8_8  and  C10_10 
ROOT
HETATM    1  C1  UNL     1     -40.631  16.489   7.584  1.00 20.00    -0.026 C 
HETATM    2  C2  UNL     1     -41.658  16.481   6.721  1.00 20.00    -0.024 C 
HETATM    3  C4  UNL     1     -42.413  15.508   8.662  1.00 20.00     0.018 C 
HETATM    4  C5  UNL     1     -40.707  14.027   7.903  1.00 20.00     0.025 C 
HETATM    5  C6  UNL     1     -40.890  15.399   8.598  1.00 20.00     0.010 C 
HETATM    6  C7  UNL     1     -42.586  15.361   7.140  1.00 20.00     0.024 C 
HETATM    7  C8  UNL     1     -41.885  13.992   6.873  1.00 20.00     0.020 C 
ENDROOT
BRANCH   7   8
HETATM    8  C3  UNL     1     -42.856  12.881   7.191  1.00 20.00     0.241 C 
HETATM    9  O11 UNL     1     -42.729  12.126   8.149  1.00 20.00    -0.306 OA
ENDBRANCH   7   8
BRANCH   7  10
HETATM   10  C10 UNL     1     -41.410  13.788   5.434  1.00 20.00     0.013 C 
HETATM   11  C9  UNL     1     -40.382  12.711   5.342  1.00 20.00     0.006 C 
ENDBRANCH   7  10
TORSDOF 2
ENDMDL
MODEL 9
REMARK VINA RESULT:      -3.0      1.472      3.351
REMARK  2 active torsions:
REMARK  status: ('A' for Active; 'I' for Inactive)
REMARK    1  A    between atoms: C3_3  and  C8_8 
REMARK    2  A    between atoms: C8_8  and  C10_10 
ROOT
HETATM    1  C1  UNL     1     -33.598  15.957  -4.238  1.00 20.00    -0.026 C 
HETATM    2  C2  UNL     1     -34.634  16.798  -4.377  1.00 20.00    -0.024 C 
HETATM    3  C4  UNL     1     -35.419  14.691  -4.857  1.00 20.00     0.018 C 
HETATM    4  C5  UNL     1     -33.804  15.106  -6.562  1.00 20.00     0.025 C 
HETATM    5  C6  UNL     1     -33.904  14.729  -5.063  1.00 20.00     0.010 C 
HETATM    6  C7  UNL     1     -35.616  16.144  -5.325  1.00 20.00     0.024 C 
HETATM    7  C8  UNL     1     -34.994  16.103  -6.756  1.00 20.00     0.020 C 
ENDROOT
BRANCH   7   8
HETATM    8  C3  UNL     1     -36.020  15.551  -7.714  1.00 20.00     0.241 C 
HETATM    9  O11 UNL     1     -36.178  14.351  -7.918  1.00 20.00    -0.306 OA
ENDBRANCH   7   8
BRANCH   7  10
HETATM   10  C10 UNL     1     -34.548  17.462  -7.297  1.00 20.00     0.013 C 
HETATM   11  C9  UNL     1     -35.711  18.288  -7.735  1.00 20.00     0.006 C 
ENDBRANCH   7  10
TORSDOF 2
ENDMDL
