MODEL 1
REMARK VINA RESULT:      -3.4      0.000      0.000
REMARK  1 active torsions:
REMARK  status: ('A' for Active; 'I' for Inactive)
REMARK    1  A    between atoms: C2_2  and  C4_4 
ROOT
HETATM    1  C1  UNL     1     -33.098   6.346   3.333  1.00 20.00     0.076 A 
HETATM    2  C2  UNL     1     -33.781   6.237   4.474  1.00 20.00     0.053 A 
HETATM    3  C3  UNL     1     -32.524   8.478   4.708  1.00 20.00     0.255 A 
HETATM    4  O5  UNL     1     -32.073   9.544   5.100  1.00 20.00    -0.272 OA
HETATM    5  S7  UNL     1     -32.121   7.767   3.145  1.00 20.00    -0.051 SA
HETATM    6  S8  UNL     1     -33.643   7.490   5.646  1.00 20.00    -0.037 SA
ENDROOT
BRANCH   2   7
HETATM    7  C4  UNL     1     -34.638   5.090   4.751  1.00 20.00     0.278 C 
HETATM    8  O6  UNL     1     -34.280   3.930   4.565  1.00 20.00    -0.301 OA
ENDBRANCH   2   7
TORSDOF 1
ENDMDL
MODEL 2
REMARK VINA RESULT:      -3.3      1.238      3.768
REMARK  1 active torsions:
REMARK  status: ('A' for Active; 'I' for Inactive)
REMARK    1  A    between atoms: C2_2  and  C4_4 
ROOT
HETATM    1  C1  UNL     1     -32.432   6.798   2.960  1.00 20.00     0.076 A 
HETATM    2  C2  UNL     1     -32.802   7.561   3.990  1.00 20.00     0.053 A 
HETATM    3  C3  UNL     1     -34.113   5.366   4.334  1.00 20.00     0.255 A 
HETATM    4  O5  UNL     1     -34.845   4.480   4.749  1.00 20.00    -0.272 OA
HETATM    5  S7  UNL     1     -33.136   5.215   2.874  1.00 20.00    -0.051 SA
HETATM    6  S8  UNL     1     -33.925   6.927   5.130  1.00 20.00    -0.037 SA
ENDROOT
BRANCH   2   7
HETATM    7  C4  UNL     1     -32.280   8.910   4.175  1.00 20.00     0.278 C 
HETATM    8  O6  UNL     1     -32.186   9.443   5.278  1.00 20.00    -0.301 OA
ENDBRANCH   2   7
TORSDOF 1
ENDMDL
MODEL 3
REMARK VINA RESULT:      -3.3      1.465      4.130
REMARK  1 active torsions:
REMARK  status: ('A' for Active; 'I' for Inactive)
REMARK    1  A    between atoms: C2_2  and  C4_4 
ROOT
HETATM    1  C1  UNL     1     -33.759   7.437   5.906  1.00 20.00     0.076 A 
HETATM    2  C2  UNL     1     -33.182   7.548   4.708  1.00 20.00     0.053 A 
HETATM    3  C3  UNL     1     -34.125   5.147   4.729  1.00 20.00     0.255 A 
HETATM    4  O5  UNL     1     -34.444   4.000   4.451  1.00 20.00    -0.272 OA
HETATM    5  S7  UNL     1     -34.513   5.917   6.268  1.00 20.00    -0.051 SA
HETATM    6  S8  UNL     1     -33.231   6.202   3.637  1.00 20.00    -0.037 SA
ENDROOT
BRANCH   2   7
HETATM    7  C4  UNL     1     -32.517   8.775   4.285  1.00 20.00     0.278 C 
HETATM    8  O6  UNL     1     -32.501   9.156   3.117  1.00 20.00    -0.301 OA
ENDBRANCH   2   7
TORSDOF 1
ENDMDL
MODEL 4
REMARK VINA RESULT:      -3.2     12.293     13.464
REMARK  1 active torsions:
REMARK  status: ('A' for Active; 'I' for Inactive)
REMARK    1  A    between atoms: C2_2  and  C4_4 
ROOT
HETATM    1  C1  UNL     1     -34.799  17.257  -4.783  1.00 20.00     0.076 A 
HETATM    2  C2  UNL     1     -34.106  16.273  -4.206  1.00 20.00     0.053 A 
HETATM    3  C3  UNL     1     -35.465  15.086  -6.050  1.00 20.00     0.255 A 
HETATM    4  O5  UNL     1     -35.963  14.268  -6.809  1.00 20.00    -0.272 OA
HETATM    5  S7  UNL     1     -35.842  16.808  -6.094  1.00 20.00    -0.051 SA
HETATM    6  S8  UNL     1     -34.297  14.669  -4.798  1.00 20.00    -0.037 SA
ENDROOT
BRANCH   2   7
HETATM    7  C4  UNL     1     -33.195  16.522  -3.095  1.00 20.00     0.278 C 
HETATM    8  O6  UNL     1     -33.569  16.580  -1.927  1.00 20.00    -0.301 OA
ENDBRANCH   2   7
TORSDOF 1
ENDMDL
MODEL 5
REMARK VINA RESULT:      -3.2      2.008      2.275
REMARK  1 active torsions:
REMARK  status: ('A' for Active; 'I' for Inactive)
REMARK    1  A    between atoms: C2_2  and  C4_4 
ROOT
HETATM    1  C1  UNL     1     -33.450   7.644   5.381  1.00 20.00     0.076 A 
HETATM    2  C2  UNL     1     -33.904   6.476   4.921  1.00 20.00     0.053 A 
HETATM    3  C3  UNL     1     -32.479   7.403   2.980  1.00 20.00     0.255 A 
HETATM    4  O5  UNL     1     -31.895   7.574   1.921  1.00 20.00    -0.272 OA
HETATM    5  S7  UNL     1     -32.434   8.558   4.313  1.00 20.00    -0.051 SA
HETATM    6  S8  UNL     1     -33.453   5.978   3.337  1.00 20.00    -0.037 SA
ENDROOT
BRANCH   2   7
HETATM    7  C4  UNL     1     -34.765   5.616   5.723  1.00 20.00     0.278 C 
HETATM    8  O6  UNL     1     -34.377   5.047   6.741  1.00 20.00    -0.301 OA
ENDBRANCH   2   7
TORSDOF 1
ENDMDL
MODEL 6
REMARK VINA RESULT:      -3.1      2.246      3.435
REMARK  1 active torsions:
REMARK  status: ('A' for Active; 'I' for Inactive)
REMARK    1  A    between atoms: C2_2  and  C4_4 
ROOT
HETATM    1  C1  UNL     1     -33.336   5.817   3.400  1.00 20.00     0.076 A 
HETATM    2  C2  UNL     1     -32.913   7.036   3.739  1.00 20.00     0.053 A 
HETATM    3  C3  UNL     1     -34.359   6.296   5.743  1.00 20.00     0.255 A 
HETATM    4  O5  UNL     1     -34.965   6.231   6.802  1.00 20.00    -0.272 OA
HETATM    5  S7  UNL     1     -34.355   5.002   4.544  1.00 20.00    -0.051 SA
HETATM    6  S8  UNL     1     -33.399   7.691   5.254  1.00 20.00    -0.037 SA
ENDROOT
BRANCH   2   7
HETATM    7  C4  UNL     1     -32.051   7.821   2.863  1.00 20.00     0.278 C 
HETATM    8  O6  UNL     1     -32.160   7.814   1.640  1.00 20.00    -0.301 OA
ENDBRANCH   2   7
TORSDOF 1
ENDMDL
MODEL 7
REMARK VINA RESULT:      -3.0     12.432     13.351
REMARK  1 active torsions:
REMARK  status: ('A' for Active; 'I' for Inactive)
REMARK    1  A    between atoms: C2_2  and  C4_4 
ROOT
HETATM    1  C1  UNL     1     -34.856  17.189  -5.569  1.00 20.00     0.076 A 
HETATM    2  C2  UNL     1     -34.592  15.883  -5.631  1.00 20.00     0.053 A 
HETATM    3  C3  UNL     1     -33.627  16.609  -3.351  1.00 20.00     0.255 A 
HETATM    4  O5  UNL     1     -33.090  16.648  -2.254  1.00 20.00    -0.272 OA
HETATM    5  S7  UNL     1     -34.336  18.020  -4.138  1.00 20.00    -0.051 SA
HETATM    6  S8  UNL     1     -33.774  15.139  -4.312  1.00 20.00    -0.037 SA
ENDROOT
BRANCH   2   7
HETATM    7  C4  UNL     1     -34.979  15.074  -6.781  1.00 20.00     0.278 C 
HETATM    8  O6  UNL     1     -35.944  14.313  -6.766  1.00 20.00    -0.301 OA
ENDBRANCH   2   7
TORSDOF 1
ENDMDL
MODEL 8
REMARK VINA RESULT:      -2.9     12.827     13.626
REMARK  1 active torsions:
REMARK  status: ('A' for Active; 'I' for Inactive)
REMARK    1  A    between atoms: C2_2  and  C4_4 
ROOT
HETATM    1  C1  UNL     1     -34.363  14.934  -5.125  1.00 20.00     0.076 A 
HETATM    2  C2  UNL     1     -35.026  15.824  -5.866  1.00 20.00     0.053 A 
HETATM    3  C3  UNL     1     -33.790  17.261  -4.116  1.00 20.00     0.255 A 
HETATM    4  O5  UNL     1     -33.349  18.178  -3.439  1.00 20.00    -0.272 OA
HETATM    5  S7  UNL     1     -33.403  15.565  -3.826  1.00 20.00    -0.051 SA
HETATM    6  S8  UNL     1     -34.878  17.495  -5.482  1.00 20.00    -0.037 SA
ENDROOT
BRANCH   2   7
HETATM    7  C4  UNL     1     -35.866  15.419  -6.987  1.00 20.00     0.278 C 
HETATM    8  O6  UNL     1     -36.057  14.242  -7.285  1.00 20.00    -0.301 OA
ENDBRANCH   2   7
TORSDOF 1
ENDMDL
MODEL 9
REMARK VINA RESULT:      -2.9     12.692     13.368
REMARK  1 active torsions:
REMARK  status: ('A' for Active; 'I' for Inactive)
REMARK    1  A    between atoms: C2_2  and  C4_4 
ROOT
HETATM    1  C1  UNL     1     -33.457  15.582  -3.841  1.00 20.00     0.076 A 
HETATM    2  C2  UNL     1     -34.253  15.874  -4.871  1.00 20.00     0.053 A 
HETATM    3  C3  UNL     1     -34.453  17.927  -3.322  1.00 20.00     0.255 A 
HETATM    4  O5  UNL     1     -34.746  18.999  -2.814  1.00 20.00    -0.272 OA
HETATM    5  S7  UNL     1     -33.348  16.770  -2.581  1.00 20.00    -0.051 SA
HETATM    6  S8  UNL     1     -35.091  17.377  -4.870  1.00 20.00    -0.037 SA
ENDROOT
BRANCH   2   7
HETATM    7  C4  UNL     1     -34.427  14.958  -5.992  1.00 20.00     0.278 C 
HETATM    8  O6  UNL     1     -33.741  15.012  -7.010  1.00 20.00    -0.301 OA
ENDBRANCH   2   7
TORSDOF 1
ENDMDL
