MODEL 1
REMARK VINA RESULT:      -5.7      0.000      0.000
REMARK  0 active torsions:
REMARK  status: ('A' for Active; 'I' for Inactive)
ROOT
HETATM    1  C1  UNL     1     -34.546   7.843   5.638  1.00 20.00     0.022 A 
HETATM    2  C2  UNL     1     -34.004   5.232   4.004  1.00 20.00     0.120 C 
HETATM    3  C3  UNL     1     -34.597   5.537   6.195  1.00 20.00     0.101 C 
HETATM    4  C4  UNL     1     -33.888   6.846   6.238  1.00 20.00     0.025 A 
HETATM    5  C5  UNL     1     -33.371   6.420   3.909  1.00 20.00    -0.048 C 
HETATM    6  C6  UNL     1     -32.604   8.282   2.275  1.00 20.00     0.014 A 
HETATM    7  C7  UNL     1     -32.159   8.314   4.878  1.00 20.00     0.021 C 
HETATM    8  C8  UNL     1     -32.468   6.897   2.843  1.00 20.00     0.021 A 
HETATM    9  C9  UNL     1     -31.692   8.059   3.452  1.00 20.00    -0.005 A 
HETATM   10  C10 UNL     1     -33.331   7.397   5.021  1.00 20.00     0.004 A 
HETATM   11  N11 UNL     1     -34.674   4.785   5.133  1.00 20.00    -0.276 NA
ENDROOT
TORSDOF 0
ENDMDL
MODEL 2
REMARK VINA RESULT:      -5.2      1.456      2.762
REMARK  0 active torsions:
REMARK  status: ('A' for Active; 'I' for Inactive)
ROOT
HETATM    1  C1  UNL     1     -35.392   5.625   4.437  1.00 20.00     0.022 A 
HETATM    2  C2  UNL     1     -32.676   6.492   3.153  1.00 20.00     0.120 C 
HETATM    3  C3  UNL     1     -33.701   4.447   3.263  1.00 20.00     0.101 C 
HETATM    4  C4  UNL     1     -34.344   4.803   4.557  1.00 20.00     0.025 A 
HETATM    5  C5  UNL     1     -33.239   6.944   4.293  1.00 20.00    -0.048 C 
HETATM    6  C6  UNL     1     -33.951   9.066   5.603  1.00 20.00     0.014 A 
HETATM    7  C7  UNL     1     -34.248   6.599   6.497  1.00 20.00     0.021 C 
HETATM    8  C8  UNL     1     -32.886   8.142   5.080  1.00 20.00     0.021 A 
HETATM    9  C9  UNL     1     -33.489   7.918   6.462  1.00 20.00    -0.005 A 
HETATM   10  C10 UNL     1     -34.218   6.150   5.071  1.00 20.00     0.004 A 
HETATM   11  N11 UNL     1     -32.932   5.253   2.585  1.00 20.00    -0.276 NA
ENDROOT
TORSDOF 0
ENDMDL
MODEL 3
REMARK VINA RESULT:      -5.2      1.514      3.439
REMARK  0 active torsions:
REMARK  status: ('A' for Active; 'I' for Inactive)
ROOT
HETATM    1  C1  UNL     1     -32.111   8.175   4.837  1.00 20.00     0.022 A 
HETATM    2  C2  UNL     1     -32.921   5.929   2.817  1.00 20.00     0.120 C 
HETATM    3  C3  UNL     1     -32.284   8.102   2.472  1.00 20.00     0.101 C 
HETATM    4  C4  UNL     1     -32.860   8.512   3.782  1.00 20.00     0.025 A 
HETATM    5  C5  UNL     1     -33.434   6.172   4.041  1.00 20.00    -0.048 C 
HETATM    6  C6  UNL     1     -34.026   5.113   6.333  1.00 20.00     0.014 A 
HETATM    7  C7  UNL     1     -34.446   7.645   5.713  1.00 20.00     0.021 C 
HETATM    8  C8  UNL     1     -34.294   5.300   4.865  1.00 20.00     0.021 A 
HETATM    9  C9  UNL     1     -34.947   6.219   5.891  1.00 20.00    -0.005 A 
HETATM   10  C10 UNL     1     -33.369   7.503   4.686  1.00 20.00     0.004 A 
HETATM   11  N11 UNL     1     -32.290   6.877   2.025  1.00 20.00    -0.276 NA
ENDROOT
TORSDOF 0
ENDMDL
MODEL 4
REMARK VINA RESULT:      -5.0      1.717      3.285
REMARK  0 active torsions:
REMARK  status: ('A' for Active; 'I' for Inactive)
ROOT
HETATM    1  C1  UNL     1     -33.211   7.359   6.362  1.00 20.00     0.022 A 
HETATM    2  C2  UNL     1     -32.295   7.401   3.373  1.00 20.00     0.120 C 
HETATM    3  C3  UNL     1     -32.700   9.108   4.844  1.00 20.00     0.101 C 
HETATM    4  C4  UNL     1     -33.723   8.295   5.557  1.00 20.00     0.025 A 
HETATM    5  C5  UNL     1     -33.163   6.554   3.966  1.00 20.00    -0.048 C 
HETATM    6  C6  UNL     1     -33.760   4.059   4.342  1.00 20.00     0.014 A 
HETATM    7  C7  UNL     1     -35.151   6.082   5.313  1.00 20.00     0.021 C 
HETATM    8  C8  UNL     1     -33.688   5.272   3.456  1.00 20.00     0.021 A 
HETATM    9  C9  UNL     1     -34.942   4.989   4.275  1.00 20.00    -0.005 A 
HETATM   10  C10 UNL     1     -33.910   6.906   5.195  1.00 20.00     0.004 A 
HETATM   11  N11 UNL     1     -32.007   8.679   3.827  1.00 20.00    -0.276 NA
ENDROOT
TORSDOF 0
ENDMDL
MODEL 5
REMARK VINA RESULT:      -4.5      1.729      3.723
REMARK  0 active torsions:
REMARK  status: ('A' for Active; 'I' for Inactive)
ROOT
HETATM    1  C1  UNL     1     -33.033   7.565   2.584  1.00 20.00     0.022 A 
HETATM    2  C2  UNL     1     -33.451   8.254   5.605  1.00 20.00     0.120 C 
HETATM    3  C3  UNL     1     -31.725   8.736   4.179  1.00 20.00     0.101 C 
HETATM    4  C4  UNL     1     -31.978   7.492   3.401  1.00 20.00     0.025 A 
HETATM    5  C5  UNL     1     -33.804   7.127   4.952  1.00 20.00    -0.048 C 
HETATM    6  C6  UNL     1     -35.754   5.487   4.469  1.00 20.00     0.014 A 
HETATM    7  C7  UNL     1     -33.308   5.208   3.516  1.00 20.00     0.021 C 
HETATM    8  C8  UNL     1     -34.717   6.056   5.397  1.00 20.00     0.021 A 
HETATM    9  C9  UNL     1     -34.391   4.850   4.523  1.00 20.00    -0.005 A 
HETATM   10  C10 UNL     1     -33.137   6.681   3.708  1.00 20.00     0.004 A 
HETATM   11  N11 UNL     1     -32.436   9.110   5.206  1.00 20.00    -0.276 NA
ENDROOT
TORSDOF 0
ENDMDL
MODEL 6
REMARK VINA RESULT:      -4.3     12.119     13.388
REMARK  0 active torsions:
REMARK  status: ('A' for Active; 'I' for Inactive)
ROOT
HETATM    1  C1  UNL     1     -34.277  18.074  -5.268  1.00 20.00     0.022 A 
HETATM    2  C2  UNL     1     -33.332  15.351  -4.057  1.00 20.00     0.120 C 
HETATM    3  C3  UNL     1     -34.748  15.810  -5.797  1.00 20.00     0.101 C 
HETATM    4  C4  UNL     1     -35.171  17.086  -5.158  1.00 20.00     0.025 A 
HETATM    5  C5  UNL     1     -33.601  16.502  -3.406  1.00 20.00    -0.048 C 
HETATM    6  C6  UNL     1     -32.691  18.229  -1.700  1.00 20.00     0.014 A 
HETATM    7  C7  UNL     1     -35.055  18.394  -2.862  1.00 20.00     0.021 C 
HETATM    8  C8  UNL     1     -33.260  16.874  -2.020  1.00 20.00     0.021 A 
HETATM    9  C9  UNL     1     -34.183  18.035  -1.668  1.00 20.00    -0.005 A 
HETATM   10  C10 UNL     1     -34.503  17.540  -3.957  1.00 20.00     0.004 A 
HETATM   11  N11 UNL     1     -33.861  15.001  -5.290  1.00 20.00    -0.276 NA
ENDROOT
TORSDOF 0
ENDMDL
MODEL 7
REMARK VINA RESULT:      -4.2     12.223     13.376
REMARK  0 active torsions:
REMARK  status: ('A' for Active; 'I' for Inactive)
ROOT
HETATM    1  C1  UNL     1     -33.406  16.371  -2.657  1.00 20.00     0.022 A 
HETATM    2  C2  UNL     1     -35.565  18.633  -2.668  1.00 20.00     0.120 C 
HETATM    3  C3  UNL     1     -34.511  17.554  -4.391  1.00 20.00     0.101 C 
HETATM    4  C4  UNL     1     -33.292  17.350  -3.560  1.00 20.00     0.025 A 
HETATM    5  C5  UNL     1     -34.540  18.466  -1.807  1.00 20.00    -0.048 C 
HETATM    6  C6  UNL     1     -33.885  18.318   0.697  1.00 20.00     0.014 A 
HETATM    7  C7  UNL     1     -32.168  18.138  -1.300  1.00 20.00     0.021 C 
HETATM    8  C8  UNL     1     -34.324  19.115  -0.500  1.00 20.00     0.021 A 
HETATM    9  C9  UNL     1     -32.841  18.937  -0.193  1.00 20.00    -0.005 A 
HETATM   10  C10 UNL     1     -33.314  17.713  -2.159  1.00 20.00     0.004 A 
HETATM   11  N11 UNL     1     -35.595  18.138  -3.963  1.00 20.00    -0.276 NA
ENDROOT
TORSDOF 0
ENDMDL
MODEL 8
REMARK VINA RESULT:      -4.1      0.951      2.341
REMARK  0 active torsions:
REMARK  status: ('A' for Active; 'I' for Inactive)
ROOT
HETATM    1  C1  UNL     1     -32.844   5.414   3.721  1.00 20.00     0.022 A 
HETATM    2  C2  UNL     1     -34.216   6.563   6.285  1.00 20.00     0.120 C 
HETATM    3  C3  UNL     1     -34.829   4.851   4.892  1.00 20.00     0.101 C 
HETATM    4  C4  UNL     1     -34.177   5.519   3.732  1.00 20.00     0.025 A 
HETATM    5  C5  UNL     1     -33.553   7.238   5.323  1.00 20.00    -0.048 C 
HETATM    6  C6  UNL     1     -31.670   8.962   4.865  1.00 20.00     0.014 A 
HETATM    7  C7  UNL     1     -33.143   7.836   2.985  1.00 20.00     0.021 C 
HETATM    8  C8  UNL     1     -33.052   8.626   5.354  1.00 20.00     0.021 A 
HETATM    9  C9  UNL     1     -32.822   9.011   3.897  1.00 20.00    -0.005 A 
HETATM   10  C10 UNL     1     -33.395   6.718   3.945  1.00 20.00     0.004 A 
HETATM   11  N11 UNL     1     -34.827   5.332   6.105  1.00 20.00    -0.276 NA
ENDROOT
TORSDOF 0
ENDMDL
MODEL 9
REMARK VINA RESULT:      -4.1     12.352     13.672
REMARK  0 active torsions:
REMARK  status: ('A' for Active; 'I' for Inactive)
ROOT
HETATM    1  C1  UNL     1     -36.017  14.510  -5.171  1.00 20.00     0.022 A 
HETATM    2  C2  UNL     1     -35.415  17.517  -5.784  1.00 20.00     0.120 C 
HETATM    3  C3  UNL     1     -36.235  15.846  -7.119  1.00 20.00     0.101 C 
HETATM    4  C4  UNL     1     -35.476  14.819  -6.354  1.00 20.00     0.025 A 
HETATM    5  C5  UNL     1     -34.721  16.674  -4.990  1.00 20.00    -0.048 C 
HETATM    6  C6  UNL     1     -33.692  16.359  -2.631  1.00 20.00     0.014 A 
HETATM    7  C7  UNL     1     -33.541  14.572  -4.569  1.00 20.00     0.021 C 
HETATM    8  C8  UNL     1     -33.684  16.999  -3.992  1.00 20.00     0.021 A 
HETATM    9  C9  UNL     1     -32.929  15.697  -3.747  1.00 20.00    -0.005 A 
HETATM   10  C10 UNL     1     -34.762  15.203  -5.156  1.00 20.00     0.004 A 
HETATM   11  N11 UNL     1     -36.227  17.119  -6.835  1.00 20.00    -0.276 NA
ENDROOT
TORSDOF 0
ENDMDL
