MODEL 1
REMARK VINA RESULT:      -4.7      0.000      0.000
REMARK  2 active torsions:
REMARK  status: ('A' for Active; 'I' for Inactive)
REMARK    1  A    between atoms: C1_1  and  C5_5 
REMARK    2  A    between atoms: C1_1  and  C6_6 
ROOT
HETATM    1  C1  UNL     1     -33.416   6.805   4.480  1.00 20.00     0.182 C 
HETATM    2  O7  UNL     1     -32.842   6.796   3.387  1.00 20.00    -0.293 OA
ENDROOT
BRANCH   1   3
HETATM    3  C5  UNL     1     -33.156   7.940   5.444  1.00 20.00     0.335 C 
HETATM    4  F8  UNL     1     -34.311   8.604   5.721  1.00 20.00    -0.225 F 
HETATM    5 CL9  UNL     1     -32.022   9.061   4.674  1.00 20.00    -0.081 Cl
ENDBRANCH   1   3
BRANCH   1   6
HETATM    6  C6  UNL     1     -34.420   5.702   4.874  1.00 20.00     0.014 C 
HETATM    7  C2  UNL     1     -34.514   5.561   6.399  1.00 20.00     0.023 C 
HETATM    8  C3  UNL     1     -33.955   4.355   4.292  1.00 20.00     0.023 C 
HETATM    9  C4  UNL     1     -35.794   6.047   4.285  1.00 20.00     0.023 C 
ENDBRANCH   1   6
TORSDOF 2
ENDMDL
MODEL 2
REMARK VINA RESULT:      -4.6      0.041      1.444
REMARK  2 active torsions:
REMARK  status: ('A' for Active; 'I' for Inactive)
REMARK    1  A    between atoms: C1_1  and  C5_5 
REMARK    2  A    between atoms: C1_1  and  C6_6 
ROOT
HETATM    1  C1  UNL     1     -33.410   6.780   4.464  1.00 20.00     0.182 C 
HETATM    2  O7  UNL     1     -32.824   6.779   3.378  1.00 20.00    -0.293 OA
ENDROOT
BRANCH   1   3
HETATM    3  C5  UNL     1     -33.150   7.899   5.446  1.00 20.00     0.335 C 
HETATM    4  F8  UNL     1     -34.308   8.542   5.756  1.00 20.00    -0.225 F 
HETATM    5 CL9  UNL     1     -32.043   9.051   4.680  1.00 20.00    -0.081 Cl
ENDBRANCH   1   3
BRANCH   1   6
HETATM    6  C6  UNL     1     -34.429   5.682   4.833  1.00 20.00     0.014 C 
HETATM    7  C2  UNL     1     -35.825   6.020   4.293  1.00 20.00     0.023 C 
HETATM    8  C3  UNL     1     -34.520   5.562   6.365  1.00 20.00     0.023 C 
HETATM    9  C4  UNL     1     -33.947   4.343   4.260  1.00 20.00     0.023 C 
ENDBRANCH   1   6
TORSDOF 2
ENDMDL
MODEL 3
REMARK VINA RESULT:      -4.3      1.661      2.231
REMARK  2 active torsions:
REMARK  status: ('A' for Active; 'I' for Inactive)
REMARK    1  A    between atoms: C1_1  and  C5_5 
REMARK    2  A    between atoms: C1_1  and  C6_6 
ROOT
HETATM    1  C1  UNL     1     -33.518   6.915   5.141  1.00 20.00     0.182 C 
HETATM    2  O7  UNL     1     -33.171   7.272   6.271  1.00 20.00    -0.293 OA
ENDROOT
BRANCH   1   3
HETATM    3  C5  UNL     1     -32.996   7.661   3.934  1.00 20.00     0.335 C 
HETATM    4  F8  UNL     1     -32.030   6.937   3.306  1.00 20.00    -0.225 F 
HETATM    5 CL9  UNL     1     -32.292   9.185   4.498  1.00 20.00    -0.081 Cl
ENDBRANCH   1   3
BRANCH   1   6
HETATM    6  C6  UNL     1     -34.447   5.702   4.928  1.00 20.00     0.014 C 
HETATM    7  C2  UNL     1     -33.780   4.646   4.036  1.00 20.00     0.023 C 
HETATM    8  C3  UNL     1     -35.744   6.166   4.241  1.00 20.00     0.023 C 
HETATM    9  C4  UNL     1     -34.800   5.099   6.294  1.00 20.00     0.023 C 
ENDBRANCH   1   6
TORSDOF 2
ENDMDL
MODEL 4
REMARK VINA RESULT:      -4.3      1.765      2.270
REMARK  2 active torsions:
REMARK  status: ('A' for Active; 'I' for Inactive)
REMARK    1  A    between atoms: C1_1  and  C5_5 
REMARK    2  A    between atoms: C1_1  and  C6_6 
ROOT
HETATM    1  C1  UNL     1     -33.576   7.402   4.669  1.00 20.00     0.182 C 
HETATM    2  O7  UNL     1     -33.853   8.313   5.454  1.00 20.00    -0.293 OA
ENDROOT
BRANCH   1   3
HETATM    3  C5  UNL     1     -32.447   7.593   3.681  1.00 20.00     0.335 C 
HETATM    4  F8  UNL     1     -31.304   7.953   4.326  1.00 20.00    -0.225 F 
HETATM    5 CL9  UNL     1     -32.910   8.892   2.569  1.00 20.00    -0.081 Cl
ENDBRANCH   1   3
BRANCH   1   6
HETATM    6  C6  UNL     1     -34.332   6.058   4.690  1.00 20.00     0.014 C 
HETATM    7  C2  UNL     1     -35.778   6.230   4.208  1.00 20.00     0.023 C 
HETATM    8  C3  UNL     1     -34.364   5.512   6.129  1.00 20.00     0.023 C 
HETATM    9  C4  UNL     1     -33.589   5.055   3.798  1.00 20.00     0.023 C 
ENDBRANCH   1   6
TORSDOF 2
ENDMDL
MODEL 5
REMARK VINA RESULT:      -4.3      1.761      1.809
REMARK  2 active torsions:
REMARK  status: ('A' for Active; 'I' for Inactive)
REMARK    1  A    between atoms: C1_1  and  C5_5 
REMARK    2  A    between atoms: C1_1  and  C6_6 
ROOT
HETATM    1  C1  UNL     1     -33.586   7.397   4.684  1.00 20.00     0.182 C 
HETATM    2  O7  UNL     1     -33.868   8.315   5.460  1.00 20.00    -0.293 OA
ENDROOT
BRANCH   1   3
HETATM    3  C5  UNL     1     -32.461   7.583   3.693  1.00 20.00     0.335 C 
HETATM    4  F8  UNL     1     -31.315   7.941   4.333  1.00 20.00    -0.225 F 
HETATM    5 CL9  UNL     1     -32.924   8.881   2.580  1.00 20.00    -0.081 Cl
ENDBRANCH   1   3
BRANCH   1   6
HETATM    6  C6  UNL     1     -34.334   6.049   4.724  1.00 20.00     0.014 C 
HETATM    7  C2  UNL     1     -34.369   5.478   6.148  1.00 20.00     0.023 C 
HETATM    8  C3  UNL     1     -33.614   5.037   3.814  1.00 20.00     0.023 C 
HETATM    9  C4  UNL     1     -35.761   6.256   4.199  1.00 20.00     0.023 C 
ENDBRANCH   1   6
TORSDOF 2
ENDMDL
MODEL 6
REMARK VINA RESULT:      -3.6      2.618      3.628
REMARK  2 active torsions:
REMARK  status: ('A' for Active; 'I' for Inactive)
REMARK    1  A    between atoms: C1_1  and  C5_5 
REMARK    2  A    between atoms: C1_1  and  C6_6 
ROOT
HETATM    1  C1  UNL     1     -33.868   7.169   5.190  1.00 20.00     0.182 C 
HETATM    2  O7  UNL     1     -34.095   7.574   6.334  1.00 20.00    -0.293 OA
ENDROOT
BRANCH   1   3
HETATM    3  C5  UNL     1     -34.474   5.861   4.733  1.00 20.00     0.335 C 
HETATM    4  F8  UNL     1     -35.746   6.053   4.291  1.00 20.00    -0.225 F 
HETATM    5 CL9  UNL     1     -34.511   4.763   6.122  1.00 20.00    -0.081 Cl
ENDBRANCH   1   3
BRANCH   1   6
HETATM    6  C6  UNL     1     -33.007   7.981   4.201  1.00 20.00     0.014 C 
HETATM    7  C2  UNL     1     -31.943   8.802   4.942  1.00 20.00     0.023 C 
HETATM    8  C3  UNL     1     -33.908   8.952   3.416  1.00 20.00     0.023 C 
HETATM    9  C4  UNL     1     -32.341   7.015   3.212  1.00 20.00     0.023 C 
ENDBRANCH   1   6
TORSDOF 2
ENDMDL
MODEL 7
REMARK VINA RESULT:      -3.6      2.614      3.619
REMARK  2 active torsions:
REMARK  status: ('A' for Active; 'I' for Inactive)
REMARK    1  A    between atoms: C1_1  and  C5_5 
REMARK    2  A    between atoms: C1_1  and  C6_6 
ROOT
HETATM    1  C1  UNL     1     -33.873   7.196   5.157  1.00 20.00     0.182 C 
HETATM    2  O7  UNL     1     -34.094   7.608   6.299  1.00 20.00    -0.293 OA
ENDROOT
BRANCH   1   3
HETATM    3  C5  UNL     1     -34.494   5.894   4.704  1.00 20.00     0.335 C 
HETATM    4  F8  UNL     1     -35.776   6.093   4.295  1.00 20.00    -0.225 F 
HETATM    5 CL9  UNL     1     -34.500   4.785   6.085  1.00 20.00    -0.081 Cl
ENDBRANCH   1   3
BRANCH   1   6
HETATM    6  C6  UNL     1     -33.004   7.996   4.164  1.00 20.00     0.014 C 
HETATM    7  C2  UNL     1     -33.859   8.967   3.340  1.00 20.00     0.023 C 
HETATM    8  C3  UNL     1     -32.307   7.023   3.196  1.00 20.00     0.023 C 
HETATM    9  C4  UNL     1     -31.932   8.764   4.949  1.00 20.00     0.023 C 
ENDBRANCH   1   6
TORSDOF 2
ENDMDL
MODEL 8
REMARK VINA RESULT:      -3.5     12.578     13.216
REMARK  2 active torsions:
REMARK  status: ('A' for Active; 'I' for Inactive)
REMARK    1  A    between atoms: C1_1  and  C5_5 
REMARK    2  A    between atoms: C1_1  and  C6_6 
ROOT
HETATM    1  C1  UNL     1     -34.153  14.907  -4.574  1.00 20.00     0.182 C 
HETATM    2  O7  UNL     1     -34.453  13.845  -4.022  1.00 20.00    -0.293 OA
ENDROOT
BRANCH   1   3
HETATM    3  C5  UNL     1     -32.975  15.703  -4.060  1.00 20.00     0.335 C 
HETATM    4  F8  UNL     1     -31.879  14.907  -3.932  1.00 20.00    -0.225 F 
HETATM    5 CL9  UNL     1     -33.406  16.344  -2.466  1.00 20.00    -0.081 Cl
ENDBRANCH   1   3
BRANCH   1   6
HETATM    6  C6  UNL     1     -34.930  15.428  -5.801  1.00 20.00     0.014 C 
HETATM    7  C2  UNL     1     -34.056  15.397  -7.062  1.00 20.00     0.023 C 
HETATM    8  C3  UNL     1     -35.366  16.882  -5.550  1.00 20.00     0.023 C 
HETATM    9  C4  UNL     1     -36.182  14.563  -6.000  1.00 20.00     0.023 C 
ENDBRANCH   1   6
TORSDOF 2
ENDMDL
MODEL 9
REMARK VINA RESULT:      -3.5      2.518      3.171
REMARK  2 active torsions:
REMARK  status: ('A' for Active; 'I' for Inactive)
REMARK    1  A    between atoms: C1_1  and  C5_5 
REMARK    2  A    between atoms: C1_1  and  C6_6 
ROOT
HETATM    1  C1  UNL     1     -33.842   5.049   4.017  1.00 20.00     0.182 C 
HETATM    2  O7  UNL     1     -33.675   3.880   4.377  1.00 20.00    -0.293 OA
ENDROOT
BRANCH   1   3
HETATM    3  C5  UNL     1     -33.274   5.505   2.693  1.00 20.00     0.335 C 
HETATM    4  F8  UNL     1     -32.594   4.492   2.090  1.00 20.00    -0.225 F 
HETATM    5 CL9  UNL     1     -32.151   6.838   3.011  1.00 20.00    -0.081 Cl
ENDBRANCH   1   3
BRANCH   1   6
HETATM    6  C6  UNL     1     -34.646   6.051   4.872  1.00 20.00     0.014 C 
HETATM    7  C2  UNL     1     -36.019   6.332   4.246  1.00 20.00     0.023 C 
HETATM    8  C3  UNL     1     -33.875   7.380   4.963  1.00 20.00     0.023 C 
HETATM    9  C4  UNL     1     -34.813   5.478   6.285  1.00 20.00     0.023 C 
ENDBRANCH   1   6
TORSDOF 2
ENDMDL
