MODEL 1
REMARK VINA RESULT:      -2.8      0.000      0.000
REMARK  2 active torsions:
REMARK  status: ('A' for Active; 'I' for Inactive)
REMARK    1  A    between atoms: C6_6  and  S8_8 
REMARK    2  A    between atoms: C7_7  and  S9_9 
ROOT
HETATM    1  C1  UNL     1     -32.596  17.291  -1.923  1.00 20.00     0.011 C 
HETATM    2  C2  UNL     1     -33.700  18.164  -0.003  1.00 20.00     0.020 C 
HETATM    3  C3  UNL     1     -34.756  18.226  -2.290  1.00 20.00     0.020 C 
HETATM    4  C4  UNL     1     -33.980  17.352  -1.283  1.00 20.00    -0.012 C 
HETATM    5  C5  UNL     1     -32.440  18.818  -1.956  1.00 20.00     0.013 C 
HETATM    6  C6  UNL     1     -32.660  19.203  -0.471  1.00 20.00     0.050 C 
HETATM    7  C7  UNL     1     -33.704  19.263  -2.733  1.00 20.00     0.050 C 
ENDROOT
BRANCH   6   8
HETATM    8  S8  UNL     1     -31.121  19.113   0.501  1.00 20.00    -0.177 SA
HETATM    9  H20 UNL     1     -30.892  20.433   0.513  1.00 20.00     0.102 HD
ENDBRANCH   6   8
BRANCH   7  10
HETATM   10  S9  UNL     1     -33.445  19.247  -4.536  1.00 20.00    -0.177 SA
HETATM   11  H21 UNL     1     -34.183  18.153  -4.769  1.00 20.00     0.102 HD
ENDBRANCH   7  10
TORSDOF 2
ENDMDL
MODEL 2
REMARK VINA RESULT:      -2.8     24.110     25.009
REMARK  2 active torsions:
REMARK  status: ('A' for Active; 'I' for Inactive)
REMARK    1  A    between atoms: C6_6  and  S8_8 
REMARK    2  A    between atoms: C7_7  and  S9_9 
ROOT
HETATM    1  C1  UNL     1     -27.648  -1.231  10.082  1.00 20.00     0.011 C 
HETATM    2  C2  UNL     1     -28.352  -0.893  12.332  1.00 20.00     0.020 C 
HETATM    3  C3  UNL     1     -25.916  -0.991  11.700  1.00 20.00     0.020 C 
HETATM    4  C4  UNL     1     -27.293  -0.411  11.320  1.00 20.00    -0.012 C 
HETATM    5  C5  UNL     1     -27.510  -2.572  10.815  1.00 20.00     0.013 C 
HETATM    6  C6  UNL     1     -28.481  -2.396  12.011  1.00 20.00     0.050 C 
HETATM    7  C7  UNL     1     -26.071  -2.492  11.383  1.00 20.00     0.050 C 
ENDROOT
BRANCH   6   8
HETATM    8  S8  UNL     1     -30.191  -2.859  11.584  1.00 20.00    -0.177 SA
HETATM    9  H20 UNL     1     -30.778  -1.966  12.391  1.00 20.00     0.102 HD
ENDBRANCH   6   8
BRANCH   7  10
HETATM   10  S9  UNL     1     -24.825  -3.072  10.187  1.00 20.00    -0.177 SA
HETATM   11  H21 UNL     1     -25.217  -2.273   9.186  1.00 20.00     0.102 HD
ENDBRANCH   7  10
TORSDOF 2
ENDMDL
MODEL 3
REMARK VINA RESULT:      -2.7     11.797     12.575
REMARK  2 active torsions:
REMARK  status: ('A' for Active; 'I' for Inactive)
REMARK    1  A    between atoms: C6_6  and  S8_8 
REMARK    2  A    between atoms: C7_7  and  S9_9 
ROOT
HETATM    1  C1  UNL     1     -42.079  13.306   7.384  1.00 20.00     0.011 C 
HETATM    2  C2  UNL     1     -41.917  15.595   6.748  1.00 20.00     0.020 C 
HETATM    3  C3  UNL     1     -41.512  13.726   5.109  1.00 20.00     0.020 C 
HETATM    4  C4  UNL     1     -42.437  14.239   6.230  1.00 20.00    -0.012 C 
HETATM    5  C5  UNL     1     -40.588  13.668   7.338  1.00 20.00     0.013 C 
HETATM    6  C6  UNL     1     -40.619  15.211   7.486  1.00 20.00     0.050 C 
HETATM    7  C7  UNL     1     -40.219  13.360   5.866  1.00 20.00     0.050 C 
ENDROOT
BRANCH   6   8
HETATM    8  S8  UNL     1     -40.644  15.736   9.231  1.00 20.00    -0.177 SA
HETATM    9  H20 UNL     1     -39.318  15.687   9.406  1.00 20.00     0.102 HD
ENDBRANCH   6   8
BRANCH   7  10
HETATM   10  S9  UNL     1     -39.753  11.616   5.622  1.00 20.00    -0.177 SA
HETATM   11  H21 UNL     1     -38.445  11.792   5.853  1.00 20.00     0.102 HD
ENDBRANCH   7  10
TORSDOF 2
ENDMDL
MODEL 4
REMARK VINA RESULT:      -2.7      1.361      3.378
REMARK  2 active torsions:
REMARK  status: ('A' for Active; 'I' for Inactive)
REMARK    1  A    between atoms: C6_6  and  S8_8 
REMARK    2  A    between atoms: C7_7  and  S9_9 
ROOT
HETATM    1  C1  UNL     1     -32.589  18.993  -2.539  1.00 20.00     0.011 C 
HETATM    2  C2  UNL     1     -34.738  17.969  -2.537  1.00 20.00     0.020 C 
HETATM    3  C3  UNL     1     -33.879  19.263  -0.554  1.00 20.00     0.020 C 
HETATM    4  C4  UNL     1     -34.023  19.260  -2.089  1.00 20.00    -0.012 C 
HETATM    5  C5  UNL     1     -32.479  17.691  -1.735  1.00 20.00     0.013 C 
HETATM    6  C6  UNL     1     -33.687  16.875  -2.262  1.00 20.00     0.050 C 
HETATM    7  C7  UNL     1     -32.835  18.156  -0.301  1.00 20.00     0.050 C 
ENDROOT
BRANCH   6   8
HETATM    8  S8  UNL     1     -33.277  15.928  -3.763  1.00 20.00    -0.177 SA
HETATM    9  H20 UNL     1     -34.324  15.096  -3.688  1.00 20.00     0.102 HD
ENDBRANCH   6   8
BRANCH   7  10
HETATM   10  S9  UNL     1     -31.381  18.779   0.603  1.00 20.00    -0.177 SA
HETATM   11  H21 UNL     1     -32.077  19.452   1.530  1.00 20.00     0.102 HD
ENDBRANCH   7  10
TORSDOF 2
ENDMDL
MODEL 5
REMARK VINA RESULT:      -2.6      1.550      3.634
REMARK  2 active torsions:
REMARK  status: ('A' for Active; 'I' for Inactive)
REMARK    1  A    between atoms: C6_6  and  S8_8 
REMARK    2  A    between atoms: C7_7  and  S9_9 
ROOT
HETATM    1  C1  UNL     1     -33.686  17.102  -1.583  1.00 20.00     0.011 C 
HETATM    2  C2  UNL     1     -32.880  18.618  -3.234  1.00 20.00     0.020 C 
HETATM    3  C3  UNL     1     -32.422  18.955  -0.780  1.00 20.00     0.020 C 
HETATM    4  C4  UNL     1     -32.446  17.924  -1.927  1.00 20.00    -0.012 C 
HETATM    5  C5  UNL     1     -34.612  18.326  -1.577  1.00 20.00     0.013 C 
HETATM    6  C6  UNL     1     -34.370  18.929  -2.984  1.00 20.00     0.050 C 
HETATM    7  C7  UNL     1     -33.917  19.261  -0.556  1.00 20.00     0.050 C 
ENDROOT
BRANCH   6   8
HETATM    8  S8  UNL     1     -35.446  18.181  -4.250  1.00 20.00    -0.177 SA
HETATM    9  H20 UNL     1     -36.598  18.601  -3.713  1.00 20.00     0.102 HD
ENDBRANCH   6   8
BRANCH   7  10
HETATM   10  S9  UNL     1     -34.436  18.920   1.156  1.00 20.00    -0.177 SA
HETATM   11  H21 UNL     1     -35.206  17.865   0.856  1.00 20.00     0.102 HD
ENDBRANCH   7  10
TORSDOF 2
ENDMDL
MODEL 6
REMARK VINA RESULT:      -2.6      4.538      5.553
REMARK  2 active torsions:
REMARK  status: ('A' for Active; 'I' for Inactive)
REMARK    1  A    between atoms: C6_6  and  S8_8 
REMARK    2  A    between atoms: C7_7  and  S9_9 
ROOT
HETATM    1  C1  UNL     1     -34.514  17.017  -6.491  1.00 20.00     0.011 C 
HETATM    2  C2  UNL     1     -33.781  14.920  -5.635  1.00 20.00     0.020 C 
HETATM    3  C3  UNL     1     -35.841  15.126  -7.070  1.00 20.00     0.020 C 
HETATM    4  C4  UNL     1     -34.369  15.557  -6.910  1.00 20.00    -0.012 C 
HETATM    5  C5  UNL     1     -35.394  16.681  -5.279  1.00 20.00     0.013 C 
HETATM    6  C6  UNL     1     -34.512  15.670  -4.503  1.00 20.00     0.050 C 
HETATM    7  C7  UNL     1     -36.549  15.875  -5.923  1.00 20.00     0.050 C 
ENDROOT
BRANCH   6   8
HETATM    8  S8  UNL     1     -33.349  16.497  -3.370  1.00 20.00    -0.177 SA
HETATM    9  H20 UNL     1     -32.719  15.380  -2.984  1.00 20.00     0.102 HD
ENDBRANCH   6   8
BRANCH   7  10
HETATM   10  S9  UNL     1     -37.886  16.953  -6.532  1.00 20.00    -0.177 SA
HETATM   11  H21 UNL     1     -38.525  17.052  -5.358  1.00 20.00     0.102 HD
ENDBRANCH   7  10
TORSDOF 2
ENDMDL
MODEL 7
REMARK VINA RESULT:      -2.6     11.998     13.041
REMARK  2 active torsions:
REMARK  status: ('A' for Active; 'I' for Inactive)
REMARK    1  A    between atoms: C6_6  and  S8_8 
REMARK    2  A    between atoms: C7_7  and  S9_9 
ROOT
HETATM    1  C1  UNL     1     -41.907  14.567   5.876  1.00 20.00     0.011 C 
HETATM    2  C2  UNL     1     -42.091  12.312   6.617  1.00 20.00     0.020 C 
HETATM    3  C3  UNL     1     -42.532  14.258   8.153  1.00 20.00     0.020 C 
HETATM    4  C4  UNL     1     -42.791  13.679   6.748  1.00 20.00    -0.012 C 
HETATM    5  C5  UNL     1     -40.633  14.235   6.665  1.00 20.00     0.013 C 
HETATM    6  C6  UNL     1     -40.595  12.688   6.594  1.00 20.00     0.050 C 
HETATM    7  C7  UNL     1     -41.032  14.614   8.113  1.00 20.00     0.050 C 
ENDROOT
BRANCH   6   8
HETATM    8  S8  UNL     1     -39.763  12.086   5.088  1.00 20.00    -0.177 SA
HETATM    9  H20 UNL     1     -40.885  11.774   4.429  1.00 20.00     0.102 HD
ENDBRANCH   6   8
BRANCH   7  10
HETATM   10  S9  UNL     1     -40.737  16.376   8.471  1.00 20.00    -0.177 SA
HETATM   11  H21 UNL     1     -41.616  16.845   7.575  1.00 20.00     0.102 HD
ENDBRANCH   7  10
TORSDOF 2
ENDMDL
MODEL 8
REMARK VINA RESULT:      -2.6      1.898      2.667
REMARK  2 active torsions:
REMARK  status: ('A' for Active; 'I' for Inactive)
REMARK    1  A    between atoms: C6_6  and  S8_8 
REMARK    2  A    between atoms: C7_7  and  S9_9 
ROOT
HETATM    1  C1  UNL     1     -34.749  18.050  -2.562  1.00 20.00     0.011 C 
HETATM    2  C2  UNL     1     -32.707  19.263  -2.396  1.00 20.00     0.020 C 
HETATM    3  C3  UNL     1     -33.216  17.776  -4.364  1.00 20.00     0.020 C 
HETATM    4  C4  UNL     1     -33.783  18.858  -3.423  1.00 20.00    -0.012 C 
HETATM    5  C5  UNL     1     -33.664  17.067  -2.101  1.00 20.00     0.013 C 
HETATM    6  C6  UNL     1     -32.596  18.014  -1.498  1.00 20.00     0.050 C 
HETATM    7  C7  UNL     1     -33.100  16.542  -3.445  1.00 20.00     0.050 C 
ENDROOT
BRANCH   6   8
HETATM    8  S8  UNL     1     -32.924  18.399   0.252  1.00 20.00    -0.177 SA
HETATM    9  H20 UNL     1     -32.253  19.558   0.264  1.00 20.00     0.102 HD
ENDBRANCH   6   8
BRANCH   7  10
HETATM   10  S9  UNL     1     -34.048  15.123  -4.083  1.00 20.00    -0.177 SA
HETATM   11  H21 UNL     1     -34.301  15.659  -5.284  1.00 20.00     0.102 HD
ENDBRANCH   7  10
TORSDOF 2
ENDMDL
MODEL 9
REMARK VINA RESULT:      -2.5     11.969     13.240
REMARK  2 active torsions:
REMARK  status: ('A' for Active; 'I' for Inactive)
REMARK    1  A    between atoms: C6_6  and  S8_8 
REMARK    2  A    between atoms: C7_7  and  S9_9 
ROOT
HETATM    1  C1  UNL     1     -40.890  14.752   7.009  1.00 20.00     0.011 C 
HETATM    2  C2  UNL     1     -41.463  13.648   4.978  1.00 20.00     0.020 C 
HETATM    3  C3  UNL     1     -43.212  14.372   6.640  1.00 20.00     0.020 C 
HETATM    4  C4  UNL     1     -41.931  14.797   5.894  1.00 20.00    -0.012 C 
HETATM    5  C5  UNL     1     -41.177  13.283   7.347  1.00 20.00     0.013 C 
HETATM    6  C6  UNL     1     -40.972  12.583   5.980  1.00 20.00     0.050 C 
HETATM    7  C7  UNL     1     -42.701  13.300   7.625  1.00 20.00     0.050 C 
ENDROOT
BRANCH   6   8
HETATM    8  S8  UNL     1     -39.232  12.127   5.693  1.00 20.00    -0.177 SA
HETATM    9  H20 UNL     1     -39.248  11.037   6.471  1.00 20.00     0.102 HD
ENDBRANCH   6   8
BRANCH   7  10
HETATM   10  S9  UNL     1     -43.082  13.724   9.355  1.00 20.00    -0.177 SA
HETATM   11  H21 UNL     1     -42.960  15.049   9.200  1.00 20.00     0.102 HD
ENDBRANCH   7  10
TORSDOF 2
ENDMDL
