MODEL 1
REMARK VINA RESULT:      -3.6      0.000      0.000
REMARK  1 active torsions:
REMARK  status: ('A' for Active; 'I' for Inactive)
REMARK    1  A    between atoms: C6_6  and  C10_10 
ROOT
HETATM    1  C1  UNL     1     -43.382   4.229  -1.293  1.00 20.00     0.059 C 
HETATM    2  C10 UNL     1     -43.414   5.645  -0.971  1.00 20.00     0.133 C 
HETATM    3  N11 UNL     1     -43.394   3.104  -1.577  1.00 20.00    -0.197 NA
ENDROOT
BRANCH   2   4
HETATM    4  C6  UNL     1     -42.207   5.825  -0.021  1.00 20.00    -0.025 C 
HETATM    5  C4  UNL     1     -42.424   4.954   1.234  1.00 20.00     0.011 C 
HETATM    6  C2  UNL     1     -43.241   5.808   2.205  1.00 20.00     0.002 C 
HETATM    7  C3  UNL     1     -43.210   7.240   1.671  1.00 20.00     0.010 C 
HETATM    8  C5  UNL     1     -42.111   7.267   0.586  1.00 20.00    -0.040 C 
HETATM    9  C7  UNL     1     -42.375   8.394  -0.424  1.00 20.00     0.015 C 
HETATM   10  C8  UNL     1     -40.749   7.554   1.259  1.00 20.00     0.015 C 
HETATM   11  C9  UNL     1     -40.950   5.378  -0.781  1.00 20.00     0.017 C 
ENDBRANCH   2   4
TORSDOF 1
ENDMDL
MODEL 2
REMARK VINA RESULT:      -3.4      9.015     10.244
REMARK  1 active torsions:
REMARK  status: ('A' for Active; 'I' for Inactive)
REMARK    1  A    between atoms: C6_6  and  C10_10 
ROOT
HETATM    1  C1  UNL     1     -39.259  12.078   5.661  1.00 20.00     0.059 C 
HETATM    2  C10 UNL     1     -40.544  11.945   6.324  1.00 20.00     0.133 C 
HETATM    3  N11 UNL     1     -38.224  12.140   5.140  1.00 20.00    -0.197 NA
ENDROOT
BRANCH   2   4
HETATM    4  C6  UNL     1     -41.160  13.357   6.202  1.00 20.00    -0.025 C 
HETATM    5  C4  UNL     1     -40.187  14.383   6.819  1.00 20.00     0.011 C 
HETATM    6  C2  UNL     1     -40.517  14.433   8.312  1.00 20.00     0.002 C 
HETATM    7  C3  UNL     1     -41.855  13.715   8.495  1.00 20.00     0.010 C 
HETATM    8  C5  UNL     1     -42.446  13.547   7.078  1.00 20.00    -0.040 C 
HETATM    9  C7  UNL     1     -43.417  12.358   7.035  1.00 20.00     0.015 C 
HETATM   10  C8  UNL     1     -43.247  14.818   6.716  1.00 20.00     0.015 C 
HETATM   11  C9  UNL     1     -41.371  13.641   4.707  1.00 20.00     0.017 C 
ENDBRANCH   2   4
TORSDOF 1
ENDMDL
MODEL 3
REMARK VINA RESULT:      -3.3     13.151     14.267
REMARK  1 active torsions:
REMARK  status: ('A' for Active; 'I' for Inactive)
REMARK    1  A    between atoms: C6_6  and  C10_10 
ROOT
HETATM    1  C1  UNL     1     -35.992  15.136  -6.375  1.00 20.00     0.059 C 
HETATM    2  C10 UNL     1     -36.024  16.032  -5.233  1.00 20.00     0.133 C 
HETATM    3  N11 UNL     1     -36.008  14.405  -7.276  1.00 20.00    -0.197 NA
ENDROOT
BRANCH   2   4
HETATM    4  C6  UNL     1     -34.667  16.769  -5.315  1.00 20.00    -0.025 C 
HETATM    5  C4  UNL     1     -33.531  15.725  -5.327  1.00 20.00     0.011 C 
HETATM    6  C2  UNL     1     -33.214  15.430  -3.860  1.00 20.00     0.002 C 
HETATM    7  C3  UNL     1     -33.907  16.511  -3.029  1.00 20.00     0.010 C 
HETATM    8  C5  UNL     1     -34.341  17.604  -4.029  1.00 20.00    -0.040 C 
HETATM    9  C7  UNL     1     -35.532  18.400  -3.477  1.00 20.00     0.015 C 
HETATM   10  C8  UNL     1     -33.170  18.594  -4.228  1.00 20.00     0.015 C 
HETATM   11  C9  UNL     1     -34.665  17.588  -6.614  1.00 20.00     0.017 C 
ENDBRANCH   2   4
TORSDOF 1
ENDMDL
MODEL 4
REMARK VINA RESULT:      -3.1     10.241     11.805
REMARK  1 active torsions:
REMARK  status: ('A' for Active; 'I' for Inactive)
REMARK    1  A    between atoms: C6_6  and  C10_10 
ROOT
HETATM    1  C1  UNL     1     -40.528  15.074   9.735  1.00 20.00     0.059 C 
HETATM    2  C10 UNL     1     -40.328  14.101   8.675  1.00 20.00     0.133 C 
HETATM    3  N11 UNL     1     -40.657  15.828  10.607  1.00 20.00    -0.197 NA
ENDROOT
BRANCH   2   4
HETATM    4  C6  UNL     1     -41.290  14.578   7.562  1.00 20.00    -0.025 C 
HETATM    5  C4  UNL     1     -42.734  14.552   8.105  1.00 20.00     0.011 C 
HETATM    6  C2  UNL     1     -43.251  13.133   7.862  1.00 20.00     0.002 C 
HETATM    7  C3  UNL     1     -42.264  12.458   6.909  1.00 20.00     0.010 C 
HETATM    8  C5  UNL     1     -41.370  13.587   6.351  1.00 20.00    -0.040 C 
HETATM    9  C7  UNL     1     -40.011  13.029   5.903  1.00 20.00     0.015 C 
HETATM   10  C8  UNL     1     -42.055  14.200   5.108  1.00 20.00     0.015 C 
HETATM   11  C9  UNL     1     -40.880  16.008   7.179  1.00 20.00     0.017 C 
ENDBRANCH   2   4
TORSDOF 1
ENDMDL
MODEL 5
REMARK VINA RESULT:      -3.1     20.727     21.783
REMARK  1 active torsions:
REMARK  status: ('A' for Active; 'I' for Inactive)
REMARK    1  A    between atoms: C6_6  and  C10_10 
ROOT
HETATM    1  C1  UNL     1     -28.085  -1.784  10.455  1.00 20.00     0.059 C 
HETATM    2  C10 UNL     1     -26.763  -2.042   9.912  1.00 20.00     0.133 C 
HETATM    3  N11 UNL     1     -29.151  -1.553  10.851  1.00 20.00    -0.197 NA
ENDROOT
BRANCH   2   4
HETATM    4  C6  UNL     1     -26.103  -2.942  10.982  1.00 20.00    -0.025 C 
HETATM    5  C4  UNL     1     -26.090  -2.190  12.330  1.00 20.00     0.011 C 
HETATM    6  C2  UNL     1     -24.811  -1.351  12.332  1.00 20.00     0.002 C 
HETATM    7  C3  UNL     1     -23.946  -1.857  11.177  1.00 20.00     0.010 C 
HETATM    8  C5  UNL     1     -24.578  -3.191  10.723  1.00 20.00    -0.040 C 
HETATM    9  C7  UNL     1     -24.228  -3.484   9.257  1.00 20.00     0.015 C 
HETATM   10  C8  UNL     1     -23.994  -4.338  11.581  1.00 20.00     0.015 C 
HETATM   11  C9  UNL     1     -26.941  -4.225  11.086  1.00 20.00     0.017 C 
ENDBRANCH   2   4
TORSDOF 1
ENDMDL
MODEL 6
REMARK VINA RESULT:      -3.1     14.473     15.712
REMARK  1 active torsions:
REMARK  status: ('A' for Active; 'I' for Inactive)
REMARK    1  A    between atoms: C6_6  and  C10_10 
ROOT
HETATM    1  C1  UNL     1     -32.050  18.856  -1.215  1.00 20.00     0.059 C 
HETATM    2  C10 UNL     1     -32.541  19.018  -2.572  1.00 20.00     0.133 C 
HETATM    3  N11 UNL     1     -31.621  18.750  -0.143  1.00 20.00    -0.197 NA
ENDROOT
BRANCH   2   4
HETATM    4  C6  UNL     1     -33.900  18.281  -2.555  1.00 20.00    -0.025 C 
HETATM    5  C4  UNL     1     -33.681  16.841  -2.046  1.00 20.00     0.011 C 
HETATM    6  C2  UNL     1     -33.312  16.010  -3.276  1.00 20.00     0.002 C 
HETATM    7  C3  UNL     1     -33.637  16.864  -4.502  1.00 20.00     0.010 C 
HETATM    8  C5  UNL     1     -34.491  18.043  -3.987  1.00 20.00    -0.040 C 
HETATM    9  C7  UNL     1     -34.368  19.251  -4.927  1.00 20.00     0.015 C 
HETATM   10  C8  UNL     1     -35.976  17.615  -3.969  1.00 20.00     0.015 C 
HETATM   11  C9  UNL     1     -34.833  19.053  -1.610  1.00 20.00     0.017 C 
ENDBRANCH   2   4
TORSDOF 1
ENDMDL
MODEL 7
REMARK VINA RESULT:      -3.0     12.349     14.033
REMARK  1 active torsions:
REMARK  status: ('A' for Active; 'I' for Inactive)
REMARK    1  A    between atoms: C6_6  and  C10_10 
ROOT
HETATM    1  C1  UNL     1     -35.937  14.102  -4.950  1.00 20.00     0.059 C 
HETATM    2  C10 UNL     1     -36.436  15.260  -5.670  1.00 20.00     0.133 C 
HETATM    3  N11 UNL     1     -35.582  13.161  -4.372  1.00 20.00    -0.197 NA
ENDROOT
BRANCH   2   4
HETATM    4  C6  UNL     1     -35.161  16.090  -5.946  1.00 20.00    -0.025 C 
HETATM    5  C4  UNL     1     -34.518  16.481  -4.599  1.00 20.00     0.011 C 
HETATM    6  C2  UNL     1     -35.200  17.781  -4.167  1.00 20.00     0.002 C 
HETATM    7  C3  UNL     1     -35.967  18.304  -5.382  1.00 20.00     0.010 C 
HETATM    8  C5  UNL     1     -35.462  17.487  -6.590  1.00 20.00    -0.040 C 
HETATM    9  C7  UNL     1     -36.522  17.452  -7.701  1.00 20.00     0.015 C 
HETATM   10  C8  UNL     1     -34.203  18.174  -7.168  1.00 20.00     0.015 C 
HETATM   11  C9  UNL     1     -34.206  15.211  -6.767  1.00 20.00     0.017 C 
ENDBRANCH   2   4
TORSDOF 1
ENDMDL
MODEL 8
REMARK VINA RESULT:      -2.9     13.527     15.156
REMARK  1 active torsions:
REMARK  status: ('A' for Active; 'I' for Inactive)
REMARK    1  A    between atoms: C6_6  and  C10_10 
ROOT
HETATM    1  C1  UNL     1     -32.879  18.831  -3.354  1.00 20.00     0.059 C 
HETATM    2  C10 UNL     1     -33.313  18.323  -4.643  1.00 20.00     0.133 C 
HETATM    3  N11 UNL     1     -32.501  19.263  -2.345  1.00 20.00    -0.197 NA
ENDROOT
BRANCH   2   4
HETATM    4  C6  UNL     1     -34.465  17.357  -4.280  1.00 20.00    -0.025 C 
HETATM    5  C4  UNL     1     -33.936  16.298  -3.290  1.00 20.00     0.011 C 
HETATM    6  C2  UNL     1     -33.345  15.177  -4.147  1.00 20.00     0.002 C 
HETATM    7  C3  UNL     1     -33.817  15.418  -5.581  1.00 20.00     0.010 C 
HETATM    8  C5  UNL     1     -34.936  16.478  -5.490  1.00 20.00    -0.040 C 
HETATM    9  C7  UNL     1     -35.064  17.246  -6.813  1.00 20.00     0.015 C 
HETATM   10  C8  UNL     1     -36.282  15.762  -5.233  1.00 20.00     0.015 C 
HETATM   11  C9  UNL     1     -35.582  18.191  -3.636  1.00 20.00     0.017 C 
ENDBRANCH   2   4
TORSDOF 1
ENDMDL
MODEL 9
REMARK VINA RESULT:      -2.9     20.353     21.366
REMARK  1 active torsions:
REMARK  status: ('A' for Active; 'I' for Inactive)
REMARK    1  A    between atoms: C6_6  and  C10_10 
ROOT
HETATM    1  C1  UNL     1     -24.166  -3.150  10.562  1.00 20.00     0.059 C 
HETATM    2  C10 UNL     1     -25.373  -2.508  10.071  1.00 20.00     0.133 C 
HETATM    3  N11 UNL     1     -23.186  -3.663  10.912  1.00 20.00    -0.197 NA
ENDROOT
BRANCH   2   4
HETATM    4  C6  UNL     1     -26.221  -2.309  11.349  1.00 20.00    -0.025 C 
HETATM    5  C4  UNL     1     -26.546  -3.691  11.953  1.00 20.00     0.011 C 
HETATM    6  C2  UNL     1     -27.819  -4.169  11.253  1.00 20.00     0.002 C 
HETATM    7  C3  UNL     1     -28.400  -2.963  10.515  1.00 20.00     0.010 C 
HETATM    8  C5  UNL     1     -27.647  -1.728  11.057  1.00 20.00    -0.040 C 
HETATM    9  C7  UNL     1     -27.664  -0.589  10.027  1.00 20.00     0.015 C 
HETATM   10  C8  UNL     1     -28.368  -1.221  12.327  1.00 20.00     0.015 C 
HETATM   11  C9  UNL     1     -25.389  -1.471  12.330  1.00 20.00     0.017 C 
ENDBRANCH   2   4
TORSDOF 1
ENDMDL
