MODEL 1
REMARK VINA RESULT:      -4.3      0.000      0.000
REMARK  2 active torsions:
REMARK  status: ('A' for Active; 'I' for Inactive)
REMARK    1  A    between atoms: C1_1  and  C5_5 
REMARK    2  A    between atoms: C5_5  and  C6_6 
ROOT
HETATM    1  C5  UNL     1     -32.871   6.543   4.116  1.00 20.00     0.190 C 
HETATM    2 CL9  UNL     1     -32.976   5.463   2.694  1.00 20.00    -0.114 Cl
ENDROOT
BRANCH   1   3
HETATM    3  C1  UNL     1     -32.427   7.890   3.562  1.00 20.00     0.144 C 
HETATM    4  C2  UNL     1     -32.243   7.981   2.069  1.00 20.00     0.092 C 
HETATM    5  O7  UNL     1     -32.200   8.857   4.290  1.00 20.00    -0.297 OA
ENDBRANCH   1   3
BRANCH   1   6
HETATM    6  C6  UNL     1     -34.198   6.618   4.892  1.00 20.00     0.119 C 
HETATM    7  C3  UNL     1     -35.027   5.345   4.714  1.00 20.00     0.053 C 
HETATM    8  C4  UNL     1     -33.987   6.877   6.385  1.00 20.00     0.053 C 
HETATM    9  F8  UNL     1     -34.938   7.658   4.402  1.00 20.00    -0.242 F 
ENDBRANCH   1   6
TORSDOF 2
ENDMDL
MODEL 2
REMARK VINA RESULT:      -4.3      2.389      3.535
REMARK  2 active torsions:
REMARK  status: ('A' for Active; 'I' for Inactive)
REMARK    1  A    between atoms: C1_1  and  C5_5 
REMARK    2  A    between atoms: C5_5  and  C6_6 
ROOT
HETATM    1  C5  UNL     1     -33.506   6.649   5.259  1.00 20.00     0.190 C 
HETATM    2 CL9  UNL     1     -34.303   7.225   6.753  1.00 20.00    -0.114 Cl
ENDROOT
BRANCH   1   3
HETATM    3  C1  UNL     1     -34.495   5.679   4.627  1.00 20.00     0.144 C 
HETATM    4  C2  UNL     1     -33.949   4.342   4.195  1.00 20.00     0.092 C 
HETATM    5  O7  UNL     1     -35.678   5.969   4.448  1.00 20.00    -0.297 OA
ENDBRANCH   1   3
BRANCH   1   6
HETATM    6  C6  UNL     1     -33.116   7.806   4.322  1.00 20.00     0.119 C 
HETATM    7  C3  UNL     1     -32.287   8.865   5.051  1.00 20.00     0.053 C 
HETATM    8  C4  UNL     1     -32.346   7.325   3.090  1.00 20.00     0.053 C 
HETATM    9  F8  UNL     1     -34.254   8.416   3.874  1.00 20.00    -0.242 F 
ENDBRANCH   1   6
TORSDOF 2
ENDMDL
MODEL 3
REMARK VINA RESULT:      -4.1      1.623      1.923
REMARK  2 active torsions:
REMARK  status: ('A' for Active; 'I' for Inactive)
REMARK    1  A    between atoms: C1_1  and  C5_5 
REMARK    2  A    between atoms: C5_5  and  C6_6 
ROOT
HETATM    1  C5  UNL     1     -33.160   6.217   4.406  1.00 20.00     0.190 C 
HETATM    2 CL9  UNL     1     -32.769   5.897   2.691  1.00 20.00    -0.114 Cl
ENDROOT
BRANCH   1   3
HETATM    3  C1  UNL     1     -33.258   7.732   4.518  1.00 20.00     0.144 C 
HETATM    4  C2  UNL     1     -32.695   8.533   3.372  1.00 20.00     0.092 C 
HETATM    5  O7  UNL     1     -33.745   8.289   5.502  1.00 20.00    -0.297 OA
ENDBRANCH   1   3
BRANCH   1   6
HETATM    6  C6  UNL     1     -34.443   5.496   4.857  1.00 20.00     0.119 C 
HETATM    7  C3  UNL     1     -34.577   5.487   6.381  1.00 20.00     0.053 C 
HETATM    8  C4  UNL     1     -35.704   6.110   4.244  1.00 20.00     0.053 C 
HETATM    9  F8  UNL     1     -34.386   4.194   4.445  1.00 20.00    -0.242 F 
ENDBRANCH   1   6
TORSDOF 2
ENDMDL
MODEL 4
REMARK VINA RESULT:      -3.9      2.239      3.382
REMARK  2 active torsions:
REMARK  status: ('A' for Active; 'I' for Inactive)
REMARK    1  A    between atoms: C1_1  and  C5_5 
REMARK    2  A    between atoms: C5_5  and  C6_6 
ROOT
HETATM    1  C5  UNL     1     -33.950   6.386   4.071  1.00 20.00     0.190 C 
HETATM    2 CL9  UNL     1     -32.922   5.738   2.760  1.00 20.00    -0.114 Cl
ENDROOT
BRANCH   1   3
HETATM    3  C1  UNL     1     -34.320   5.180   4.923  1.00 20.00     0.144 C 
HETATM    4  C2  UNL     1     -34.951   5.464   6.262  1.00 20.00     0.092 C 
HETATM    5  O7  UNL     1     -34.097   4.025   4.559  1.00 20.00    -0.297 OA
ENDBRANCH   1   3
BRANCH   1   6
HETATM    6  C6  UNL     1     -33.246   7.496   4.872  1.00 20.00     0.119 C 
HETATM    7  C3  UNL     1     -32.042   8.059   4.113  1.00 20.00     0.053 C 
HETATM    8  C4  UNL     1     -34.191   8.642   5.238  1.00 20.00     0.053 C 
HETATM    9  F8  UNL     1     -32.778   6.967   6.043  1.00 20.00    -0.242 F 
ENDBRANCH   1   6
TORSDOF 2
ENDMDL
MODEL 5
REMARK VINA RESULT:      -3.7      2.017      3.242
REMARK  2 active torsions:
REMARK  status: ('A' for Active; 'I' for Inactive)
REMARK    1  A    between atoms: C1_1  and  C5_5 
REMARK    2  A    between atoms: C5_5  and  C6_6 
ROOT
HETATM    1  C5  UNL     1     -34.022   6.190   3.862  1.00 20.00     0.190 C 
HETATM    2 CL9  UNL     1     -32.863   5.515   2.680  1.00 20.00    -0.114 Cl
ENDROOT
BRANCH   1   3
HETATM    3  C1  UNL     1     -34.336   5.044   4.814  1.00 20.00     0.144 C 
HETATM    4  C2  UNL     1     -35.078   5.397   6.077  1.00 20.00     0.092 C 
HETATM    5  O7  UNL     1     -33.982   3.886   4.588  1.00 20.00    -0.297 OA
ENDBRANCH   1   3
BRANCH   1   6
HETATM    6  C6  UNL     1     -33.468   7.435   4.578  1.00 20.00     0.119 C 
HETATM    7  C3  UNL     1     -33.227   7.167   6.065  1.00 20.00     0.053 C 
HETATM    8  C4  UNL     1     -32.173   7.945   3.942  1.00 20.00     0.053 C 
HETATM    9  F8  UNL     1     -34.387   8.442   4.489  1.00 20.00    -0.242 F 
ENDBRANCH   1   6
TORSDOF 2
ENDMDL
MODEL 6
REMARK VINA RESULT:      -3.7      2.117      2.340
REMARK  2 active torsions:
REMARK  status: ('A' for Active; 'I' for Inactive)
REMARK    1  A    between atoms: C1_1  and  C5_5 
REMARK    2  A    between atoms: C5_5  and  C6_6 
ROOT
HETATM    1  C5  UNL     1     -34.206   7.272   4.815  1.00 20.00     0.190 C 
HETATM    2 CL9  UNL     1     -33.985   7.708   6.535  1.00 20.00    -0.114 Cl
ENDROOT
BRANCH   1   3
HETATM    3  C1  UNL     1     -32.884   7.618   4.143  1.00 20.00     0.144 C 
HETATM    4  C2  UNL     1     -32.097   8.754   4.742  1.00 20.00     0.092 C 
HETATM    5  O7  UNL     1     -32.480   7.024   3.142  1.00 20.00    -0.297 OA
ENDBRANCH   1   3
BRANCH   1   6
HETATM    6  C6  UNL     1     -34.607   5.797   4.632  1.00 20.00     0.119 C 
HETATM    7  C3  UNL     1     -33.741   5.105   3.578  1.00 20.00     0.053 C 
HETATM    8  C4  UNL     1     -34.534   5.007   5.941  1.00 20.00     0.053 C 
HETATM    9  F8  UNL     1     -35.901   5.742   4.197  1.00 20.00    -0.242 F 
ENDBRANCH   1   6
TORSDOF 2
ENDMDL
MODEL 7
REMARK VINA RESULT:      -3.6      1.952      2.240
REMARK  2 active torsions:
REMARK  status: ('A' for Active; 'I' for Inactive)
REMARK    1  A    between atoms: C1_1  and  C5_5 
REMARK    2  A    between atoms: C5_5  and  C6_6 
ROOT
HETATM    1  C5  UNL     1     -33.880   7.690   4.417  1.00 20.00     0.190 C 
HETATM    2 CL9  UNL     1     -33.847   8.797   5.822  1.00 20.00    -0.114 Cl
ENDROOT
BRANCH   1   3
HETATM    3  C1  UNL     1     -32.490   7.782   3.804  1.00 20.00     0.144 C 
HETATM    4  C2  UNL     1     -32.358   7.371   2.360  1.00 20.00     0.092 C 
HETATM    5  O7  UNL     1     -31.508   8.146   4.452  1.00 20.00    -0.297 OA
ENDBRANCH   1   3
BRANCH   1   6
HETATM    6  C6  UNL     1     -34.271   6.255   4.813  1.00 20.00     0.119 C 
HETATM    7  C3  UNL     1     -34.164   6.039   6.324  1.00 20.00     0.053 C 
HETATM    8  C4  UNL     1     -35.682   5.886   4.350  1.00 20.00     0.053 C 
HETATM    9  F8  UNL     1     -33.407   5.381   4.215  1.00 20.00    -0.242 F 
ENDBRANCH   1   6
TORSDOF 2
ENDMDL
MODEL 8
REMARK VINA RESULT:      -3.6      1.829      3.291
REMARK  2 active torsions:
REMARK  status: ('A' for Active; 'I' for Inactive)
REMARK    1  A    between atoms: C1_1  and  C5_5 
REMARK    2  A    between atoms: C5_5  and  C6_6 
ROOT
HETATM    1  C5  UNL     1     -34.053   6.856   4.393  1.00 20.00     0.190 C 
HETATM    2 CL9  UNL     1     -33.944   5.211   3.700  1.00 20.00    -0.114 Cl
ENDROOT
BRANCH   1   3
HETATM    3  C1  UNL     1     -34.216   6.648   5.893  1.00 20.00     0.144 C 
HETATM    4  C2  UNL     1     -34.388   5.227   6.364  1.00 20.00     0.092 C 
HETATM    5  O7  UNL     1     -34.234   7.588   6.689  1.00 20.00    -0.297 OA
ENDBRANCH   1   3
BRANCH   1   6
HETATM    6  C6  UNL     1     -32.833   7.723   4.034  1.00 20.00     0.119 C 
HETATM    7  C3  UNL     1     -32.028   7.113   2.885  1.00 20.00     0.053 C 
HETATM    8  C4  UNL     1     -33.223   9.157   3.671  1.00 20.00     0.053 C 
HETATM    9  F8  UNL     1     -32.005   7.792   5.120  1.00 20.00    -0.242 F 
ENDBRANCH   1   6
TORSDOF 2
ENDMDL
MODEL 9
REMARK VINA RESULT:      -3.4     11.922     13.068
REMARK  2 active torsions:
REMARK  status: ('A' for Active; 'I' for Inactive)
REMARK    1  A    between atoms: C1_1  and  C5_5 
REMARK    2  A    between atoms: C5_5  and  C6_6 
ROOT
HETATM    1  C5  UNL     1     -35.050  15.325  -5.065  1.00 20.00     0.190 C 
HETATM    2 CL9  UNL     1     -36.066  13.860  -4.927  1.00 20.00    -0.114 Cl
ENDROOT
BRANCH   1   3
HETATM    3  C1  UNL     1     -33.809  15.030  -4.234  1.00 20.00     0.144 C 
HETATM    4  C2  UNL     1     -33.276  16.159  -3.389  1.00 20.00     0.092 C 
HETATM    5  O7  UNL     1     -33.243  13.937  -4.262  1.00 20.00    -0.297 OA
ENDBRANCH   1   3
BRANCH   1   6
HETATM    6  C6  UNL     1     -34.726  15.675  -6.528  1.00 20.00     0.119 C 
HETATM    7  C3  UNL     1     -35.808  15.164  -7.482  1.00 20.00     0.053 C 
HETATM    8  C4  UNL     1     -34.537  17.179  -6.741  1.00 20.00     0.053 C 
HETATM    9  F8  UNL     1     -33.553  15.067  -6.879  1.00 20.00    -0.242 F 
ENDBRANCH   1   6
TORSDOF 2
ENDMDL
