MODEL 1
REMARK VINA RESULT:      -4.5      0.000      0.000
REMARK  2 active torsions:
REMARK  status: ('A' for Active; 'I' for Inactive)
REMARK    1  A    between atoms: C1_1  and  C5_5 
REMARK    2  A    between atoms: C1_1  and  C6_6 
ROOT
HETATM    1  C1  UNL     1     -33.525   7.525   4.739  1.00 20.00     0.184 C 
HETATM    2  O7  UNL     1     -33.840   8.513   5.407  1.00 20.00    -0.293 OA
ENDROOT
BRANCH   1   3
HETATM    3  C5  UNL     1     -34.173   6.162   4.971  1.00 20.00     0.052 C 
HETATM    4  C2  UNL     1     -34.264   5.890   6.468  1.00 20.00     0.017 C 
HETATM    5  C3  UNL     1     -35.551   6.091   4.321  1.00 20.00     0.017 C 
ENDBRANCH   1   3
BRANCH   1   6
HETATM    6  C6  UNL     1     -32.481   7.620   3.639  1.00 20.00     0.235 C 
HETATM    7  C4  UNL     1     -32.466   6.369   2.779  1.00 20.00     0.079 C 
HETATM    8  F8  UNL     1     -31.228   7.801   4.141  1.00 20.00    -0.217 F 
HETATM    9 CL9  UNL     1     -32.896   9.047   2.658  1.00 20.00    -0.075 Cl
ENDBRANCH   1   6
TORSDOF 2
ENDMDL
MODEL 2
REMARK VINA RESULT:      -4.4      1.666      1.849
REMARK  2 active torsions:
REMARK  status: ('A' for Active; 'I' for Inactive)
REMARK    1  A    between atoms: C1_1  and  C5_5 
REMARK    2  A    between atoms: C1_1  and  C6_6 
ROOT
HETATM    1  C1  UNL     1     -33.837   7.198   5.401  1.00 20.00     0.184 C 
HETATM    2  O7  UNL     1     -33.972   7.638   6.545  1.00 20.00    -0.293 OA
ENDROOT
BRANCH   1   3
HETATM    3  C5  UNL     1     -34.354   5.816   5.009  1.00 20.00     0.052 C 
HETATM    4  C2  UNL     1     -34.481   4.947   6.255  1.00 20.00     0.017 C 
HETATM    5  C3  UNL     1     -35.690   5.917   4.279  1.00 20.00     0.017 C 
ENDBRANCH   1   3
BRANCH   1   6
HETATM    6  C6  UNL     1     -33.159   8.020   4.317  1.00 20.00     0.235 C 
HETATM    7  C4  UNL     1     -32.114   8.954   4.899  1.00 20.00     0.079 C 
HETATM    8  F8  UNL     1     -34.053   8.772   3.616  1.00 20.00    -0.217 F 
HETATM    9 CL9  UNL     1     -32.407   6.863   3.192  1.00 20.00    -0.075 Cl
ENDBRANCH   1   6
TORSDOF 2
ENDMDL
MODEL 3
REMARK VINA RESULT:      -4.4      2.671      3.560
REMARK  2 active torsions:
REMARK  status: ('A' for Active; 'I' for Inactive)
REMARK    1  A    between atoms: C1_1  and  C5_5 
REMARK    2  A    between atoms: C1_1  and  C6_6 
ROOT
HETATM    1  C1  UNL     1     -33.675   6.767   5.451  1.00 20.00     0.184 C 
HETATM    2  O7  UNL     1     -33.151   6.883   6.562  1.00 20.00    -0.293 OA
ENDROOT
BRANCH   1   3
HETATM    3  C5  UNL     1     -33.301   7.685   4.290  1.00 20.00     0.052 C 
HETATM    4  C2  UNL     1     -32.553   8.901   4.824  1.00 20.00     0.017 C 
HETATM    5  C3  UNL     1     -32.463   6.944   3.252  1.00 20.00     0.017 C 
ENDBRANCH   1   3
BRANCH   1   6
HETATM    6  C6  UNL     1     -34.713   5.691   5.179  1.00 20.00     0.235 C 
HETATM    7  C4  UNL     1     -35.791   6.186   4.232  1.00 20.00     0.079 C 
HETATM    8  F8  UNL     1     -35.320   5.269   6.324  1.00 20.00    -0.217 F 
HETATM    9 CL9  UNL     1     -33.846   4.307   4.470  1.00 20.00    -0.075 Cl
ENDBRANCH   1   6
TORSDOF 2
ENDMDL
MODEL 4
REMARK VINA RESULT:      -4.4      2.189      3.317
REMARK  2 active torsions:
REMARK  status: ('A' for Active; 'I' for Inactive)
REMARK    1  A    between atoms: C1_1  and  C5_5 
REMARK    2  A    between atoms: C1_1  and  C6_6 
ROOT
HETATM    1  C1  UNL     1     -33.566   6.948   5.269  1.00 20.00     0.184 C 
HETATM    2  O7  UNL     1     -33.231   7.171   6.435  1.00 20.00    -0.293 OA
ENDROOT
BRANCH   1   3
HETATM    3  C5  UNL     1     -33.162   7.878   4.128  1.00 20.00     0.052 C 
HETATM    4  C2  UNL     1     -32.415   9.081   4.692  1.00 20.00     0.017 C 
HETATM    5  C3  UNL     1     -32.310   7.143   3.097  1.00 20.00     0.017 C 
ENDBRANCH   1   3
BRANCH   1   6
HETATM    6  C6  UNL     1     -34.391   5.723   4.908  1.00 20.00     0.235 C 
HETATM    7  C4  UNL     1     -34.711   4.887   6.135  1.00 20.00     0.079 C 
HETATM    8  F8  UNL     1     -33.749   4.925   4.010  1.00 20.00    -0.217 F 
HETATM    9 CL9  UNL     1     -35.888   6.317   4.150  1.00 20.00    -0.075 Cl
ENDBRANCH   1   6
TORSDOF 2
ENDMDL
MODEL 5
REMARK VINA RESULT:      -4.2      2.717      3.538
REMARK  2 active torsions:
REMARK  status: ('A' for Active; 'I' for Inactive)
REMARK    1  A    between atoms: C1_1  and  C5_5 
REMARK    2  A    between atoms: C1_1  and  C6_6 
ROOT
HETATM    1  C1  UNL     1     -33.356   6.729   3.890  1.00 20.00     0.184 C 
HETATM    2  O7  UNL     1     -32.636   6.058   3.146  1.00 20.00    -0.293 OA
ENDROOT
BRANCH   1   3
HETATM    3  C5  UNL     1     -33.213   8.246   3.987  1.00 20.00     0.052 C 
HETATM    4  C2  UNL     1     -32.159   8.591   5.033  1.00 20.00     0.017 C 
HETATM    5  C3  UNL     1     -32.855   8.852   2.634  1.00 20.00     0.017 C 
ENDBRANCH   1   3
BRANCH   1   6
HETATM    6  C6  UNL     1     -34.434   6.077   4.740  1.00 20.00     0.235 C 
HETATM    7  C4  UNL     1     -34.293   4.565   4.753  1.00 20.00     0.079 C 
HETATM    8  F8  UNL     1     -35.685   6.379   4.293  1.00 20.00    -0.217 F 
HETATM    9 CL9  UNL     1     -34.260   6.735   6.385  1.00 20.00    -0.075 Cl
ENDBRANCH   1   6
TORSDOF 2
ENDMDL
MODEL 6
REMARK VINA RESULT:      -4.2      2.652      3.537
REMARK  2 active torsions:
REMARK  status: ('A' for Active; 'I' for Inactive)
REMARK    1  A    between atoms: C1_1  and  C5_5 
REMARK    2  A    between atoms: C1_1  and  C6_6 
ROOT
HETATM    1  C1  UNL     1     -33.417   6.392   4.207  1.00 20.00     0.184 C 
HETATM    2  O7  UNL     1     -32.955   6.215   3.078  1.00 20.00    -0.293 OA
ENDROOT
BRANCH   1   3
HETATM    3  C5  UNL     1     -33.016   7.594   5.058  1.00 20.00     0.052 C 
HETATM    4  C2  UNL     1     -31.958   8.408   4.323  1.00 20.00     0.017 C 
HETATM    5  C3  UNL     1     -34.228   8.457   5.396  1.00 20.00     0.017 C 
ENDBRANCH   1   3
BRANCH   1   6
HETATM    6  C6  UNL     1     -34.426   5.423   4.804  1.00 20.00     0.235 C 
HETATM    7  C4  UNL     1     -34.391   5.451   6.322  1.00 20.00     0.079 C 
HETATM    8  F8  UNL     1     -34.200   4.141   4.402  1.00 20.00    -0.217 F 
HETATM    9 CL9  UNL     1     -36.029   5.917   4.207  1.00 20.00    -0.075 Cl
ENDBRANCH   1   6
TORSDOF 2
ENDMDL
MODEL 7
REMARK VINA RESULT:      -4.1      1.655      2.105
REMARK  2 active torsions:
REMARK  status: ('A' for Active; 'I' for Inactive)
REMARK    1  A    between atoms: C1_1  and  C5_5 
REMARK    2  A    between atoms: C1_1  and  C6_6 
ROOT
HETATM    1  C1  UNL     1     -33.239   6.696   3.930  1.00 20.00     0.184 C 
HETATM    2  O7  UNL     1     -33.028   5.720   3.207  1.00 20.00    -0.293 OA
ENDROOT
BRANCH   1   3
HETATM    3  C5  UNL     1     -34.346   6.688   4.982  1.00 20.00     0.052 C 
HETATM    4  C2  UNL     1     -35.522   5.861   4.477  1.00 20.00     0.017 C 
HETATM    5  C3  UNL     1     -33.834   6.149   6.314  1.00 20.00     0.017 C 
ENDBRANCH   1   3
BRANCH   1   6
HETATM    6  C6  UNL     1     -32.395   7.955   3.820  1.00 20.00     0.235 C 
HETATM    7  C4  UNL     1     -32.668   8.695   2.523  1.00 20.00     0.079 C 
HETATM    8  F8  UNL     1     -31.061   7.680   3.875  1.00 20.00    -0.217 F 
HETATM    9 CL9  UNL     1     -32.807   8.975   5.220  1.00 20.00    -0.075 Cl
ENDBRANCH   1   6
TORSDOF 2
ENDMDL
MODEL 8
REMARK VINA RESULT:      -3.7      8.545      9.043
REMARK  2 active torsions:
REMARK  status: ('A' for Active; 'I' for Inactive)
REMARK    1  A    between atoms: C1_1  and  C5_5 
REMARK    2  A    between atoms: C1_1  and  C6_6 
ROOT
HETATM    1  C1  UNL     1     -40.527  12.823   5.206  1.00 20.00     0.184 C 
HETATM    2  O7  UNL     1     -41.032  13.446   4.269  1.00 20.00    -0.293 OA
ENDROOT
BRANCH   1   3
HETATM    3  C5  UNL     1     -40.965  13.053   6.650  1.00 20.00     0.052 C 
HETATM    4  C2  UNL     1     -40.778  14.522   7.010  1.00 20.00     0.017 C 
HETATM    5  C3  UNL     1     -42.414  12.623   6.859  1.00 20.00     0.017 C 
ENDBRANCH   1   3
BRANCH   1   6
HETATM    6  C6  UNL     1     -39.447  11.780   4.966  1.00 20.00     0.235 C 
HETATM    7  C4  UNL     1     -39.027  11.740   3.508  1.00 20.00     0.079 C 
HETATM    8  F8  UNL     1     -39.859  10.531   5.320  1.00 20.00    -0.217 F 
HETATM    9 CL9  UNL     1     -38.067  12.222   6.001  1.00 20.00    -0.075 Cl
ENDBRANCH   1   6
TORSDOF 2
ENDMDL
MODEL 9
REMARK VINA RESULT:      -3.6      2.068      2.820
REMARK  2 active torsions:
REMARK  status: ('A' for Active; 'I' for Inactive)
REMARK    1  A    between atoms: C1_1  and  C5_5 
REMARK    2  A    between atoms: C1_1  and  C6_6 
ROOT
HETATM    1  C1  UNL     1     -32.928   6.953   3.833  1.00 20.00     0.184 C 
HETATM    2  O7  UNL     1     -31.827   7.177   3.325  1.00 20.00    -0.293 OA
ENDROOT
BRANCH   1   3
HETATM    3  C5  UNL     1     -33.786   5.768   3.395  1.00 20.00     0.052 C 
HETATM    4  C2  UNL     1     -32.975   4.867   2.471  1.00 20.00     0.017 C 
HETATM    5  C3  UNL     1     -34.301   4.988   4.601  1.00 20.00     0.017 C 
ENDBRANCH   1   3
BRANCH   1   6
HETATM    6  C6  UNL     1     -33.482   7.841   4.936  1.00 20.00     0.235 C 
HETATM    7  C4  UNL     1     -33.606   7.086   6.247  1.00 20.00     0.079 C 
HETATM    8  F8  UNL     1     -34.710   8.339   4.618  1.00 20.00    -0.217 F 
HETATM    9 CL9  UNL     1     -32.358   9.210   5.106  1.00 20.00    -0.075 Cl
ENDBRANCH   1   6
TORSDOF 2
ENDMDL
