MODEL 1
REMARK VINA RESULT:      -4.6      0.000      0.000
REMARK  0 active torsions:
REMARK  status: ('A' for Active; 'I' for Inactive)
ROOT
HETATM    1  C1  UNL     1     -34.686   4.997   4.841  1.00 20.00     0.096 A 
HETATM    2  C2  UNL     1     -34.447   6.610   6.402  1.00 20.00     0.096 A 
HETATM    3  C3  UNL     1     -33.836   5.948   4.337  1.00 20.00    -0.025 A 
HETATM    4  C4  UNL     1     -33.686   6.958   5.314  1.00 20.00    -0.025 A 
HETATM    5  C5  UNL     1     -33.102   6.112   3.070  1.00 20.00     0.114 A 
HETATM    6  C6  UNL     1     -32.808   8.096   4.991  1.00 20.00     0.114 A 
HETATM    7  N7  UNL     1     -35.054   5.410   6.101  1.00 20.00    -0.374 N 
HETATM    8  S8  UNL     1     -32.193   7.719   3.279  1.00 20.00    -0.160 SA
HETATM    9  H15 UNL     1     -35.677   4.907   6.716  1.00 20.00     0.164 HD
ENDROOT
TORSDOF 0
ENDMDL
MODEL 2
REMARK VINA RESULT:      -4.6      0.055      1.924
REMARK  0 active torsions:
REMARK  status: ('A' for Active; 'I' for Inactive)
ROOT
HETATM    1  C1  UNL     1     -34.455   6.556   6.408  1.00 20.00     0.096 A 
HETATM    2  C2  UNL     1     -34.631   4.939   4.844  1.00 20.00     0.096 A 
HETATM    3  C3  UNL     1     -33.700   6.933   5.326  1.00 20.00    -0.025 A 
HETATM    4  C4  UNL     1     -33.810   5.920   4.347  1.00 20.00    -0.025 A 
HETATM    5  C5  UNL     1     -32.859   8.100   5.008  1.00 20.00     0.114 A 
HETATM    6  C6  UNL     1     -33.076   6.109   3.084  1.00 20.00     0.114 A 
HETATM    7  N7  UNL     1     -35.018   5.338   6.104  1.00 20.00    -0.374 N 
HETATM    8  S8  UNL     1     -32.223   7.746   3.299  1.00 20.00    -0.160 SA
HETATM    9  H15 UNL     1     -35.627   4.814   6.715  1.00 20.00     0.164 HD
ENDROOT
TORSDOF 0
ENDMDL
MODEL 3
REMARK VINA RESULT:      -4.3      2.416      3.578
REMARK  0 active torsions:
REMARK  status: ('A' for Active; 'I' for Inactive)
ROOT
HETATM    1  C1  UNL     1     -32.583   8.599   4.988  1.00 20.00     0.096 A 
HETATM    2  C2  UNL     1     -32.504   7.310   3.137  1.00 20.00     0.096 A 
HETATM    3  C3  UNL     1     -33.333   7.475   5.225  1.00 20.00    -0.025 A 
HETATM    4  C4  UNL     1     -33.284   6.668   4.066  1.00 20.00    -0.025 A 
HETATM    5  C5  UNL     1     -34.121   6.981   6.367  1.00 20.00     0.114 A 
HETATM    6  C6  UNL     1     -34.024   5.394   4.090  1.00 20.00     0.114 A 
HETATM    7  N7  UNL     1     -32.083   8.488   3.711  1.00 20.00    -0.374 N 
HETATM    8  S8  UNL     1     -34.796   5.352   5.779  1.00 20.00    -0.160 SA
HETATM    9  H15 UNL     1     -31.491   9.172   3.260  1.00 20.00     0.164 HD
ENDROOT
TORSDOF 0
ENDMDL
MODEL 4
REMARK VINA RESULT:      -4.3      2.419      3.037
REMARK  0 active torsions:
REMARK  status: ('A' for Active; 'I' for Inactive)
ROOT
HETATM    1  C1  UNL     1     -32.489   7.325   3.144  1.00 20.00     0.096 A 
HETATM    2  C2  UNL     1     -32.591   8.620   4.990  1.00 20.00     0.096 A 
HETATM    3  C3  UNL     1     -33.271   6.680   4.069  1.00 20.00    -0.025 A 
HETATM    4  C4  UNL     1     -33.335   7.491   5.225  1.00 20.00    -0.025 A 
HETATM    5  C5  UNL     1     -34.003   5.402   4.092  1.00 20.00     0.114 A 
HETATM    6  C6  UNL     1     -34.129   6.996   6.362  1.00 20.00     0.114 A 
HETATM    7  N7  UNL     1     -32.079   8.507   3.717  1.00 20.00    -0.374 N 
HETATM    8  S8  UNL     1     -34.787   5.360   5.776  1.00 20.00    -0.160 SA
HETATM    9  H15 UNL     1     -31.489   9.194   3.268  1.00 20.00     0.164 HD
ENDROOT
TORSDOF 0
ENDMDL
MODEL 5
REMARK VINA RESULT:      -4.1      2.399      3.539
REMARK  0 active torsions:
REMARK  status: ('A' for Active; 'I' for Inactive)
ROOT
HETATM    1  C1  UNL     1     -32.356   7.741   3.643  1.00 20.00     0.096 A 
HETATM    2  C2  UNL     1     -33.004   5.810   2.670  1.00 20.00     0.096 A 
HETATM    3  C3  UNL     1     -33.160   7.070   4.530  1.00 20.00    -0.025 A 
HETATM    4  C4  UNL     1     -33.565   5.862   3.921  1.00 20.00    -0.025 A 
HETATM    5  C5  UNL     1     -33.647   7.344   5.894  1.00 20.00     0.114 A 
HETATM    6  C6  UNL     1     -34.444   4.969   4.696  1.00 20.00     0.114 A 
HETATM    7  N7  UNL     1     -32.268   6.963   2.511  1.00 20.00    -0.374 N 
HETATM    8  S8  UNL     1     -34.691   5.864   6.306  1.00 20.00    -0.160 SA
HETATM    9  H15 UNL     1     -31.740   7.203   1.684  1.00 20.00     0.164 HD
ENDROOT
TORSDOF 0
ENDMDL
MODEL 6
REMARK VINA RESULT:      -3.7      1.413      1.813
REMARK  0 active torsions:
REMARK  status: ('A' for Active; 'I' for Inactive)
ROOT
HETATM    1  C1  UNL     1     -34.648   5.984   6.209  1.00 20.00     0.096 A 
HETATM    2  C2  UNL     1     -33.552   7.868   5.624  1.00 20.00     0.096 A 
HETATM    3  C3  UNL     1     -34.070   5.772   4.983  1.00 20.00    -0.025 A 
HETATM    4  C4  UNL     1     -33.385   6.951   4.616  1.00 20.00    -0.025 A 
HETATM    5  C5  UNL     1     -34.028   4.638   4.043  1.00 20.00     0.114 A 
HETATM    6  C6  UNL     1     -32.680   6.957   3.323  1.00 20.00     0.114 A 
HETATM    7  N7  UNL     1     -34.326   7.266   6.591  1.00 20.00    -0.374 N 
HETATM    8  S8  UNL     1     -33.002   5.264   2.626  1.00 20.00    -0.160 SA
HETATM    9  H15 UNL     1     -34.615   7.702   7.455  1.00 20.00     0.164 HD
ENDROOT
TORSDOF 0
ENDMDL
MODEL 7
REMARK VINA RESULT:      -3.6     12.724     13.555
REMARK  0 active torsions:
REMARK  status: ('A' for Active; 'I' for Inactive)
ROOT
HETATM    1  C1  UNL     1     -33.074  14.716  -4.277  1.00 20.00     0.096 A 
HETATM    2  C2  UNL     1     -34.436  15.622  -5.833  1.00 20.00     0.096 A 
HETATM    3  C3  UNL     1     -33.549  15.905  -3.782  1.00 20.00    -0.025 A 
HETATM    4  C4  UNL     1     -34.401  16.472  -4.756  1.00 20.00    -0.025 A 
HETATM    5  C5  UNL     1     -33.357  16.651  -2.526  1.00 20.00     0.114 A 
HETATM    6  C6  UNL     1     -35.032  17.765  -4.441  1.00 20.00     0.114 A 
HETATM    7  N7  UNL     1     -33.622  14.553  -5.529  1.00 20.00    -0.374 N 
HETATM    8  S8  UNL     1     -34.402  18.172  -2.741  1.00 20.00    -0.160 SA
HETATM    9  H15 UNL     1     -33.452  13.764  -6.137  1.00 20.00     0.164 HD
ENDROOT
TORSDOF 0
ENDMDL
MODEL 8
REMARK VINA RESULT:      -3.5     16.480     17.295
REMARK  0 active torsions:
REMARK  status: ('A' for Active; 'I' for Inactive)
ROOT
HETATM    1  C1  UNL     1     -23.182  18.147  12.279  1.00 20.00     0.096 A 
HETATM    2  C2  UNL     1     -21.407  18.411  10.910  1.00 20.00     0.096 A 
HETATM    3  C3  UNL     1     -23.652  18.530  11.048  1.00 20.00    -0.025 A 
HETATM    4  C4  UNL     1     -22.540  18.695  10.191  1.00 20.00    -0.025 A 
HETATM    5  C5  UNL     1     -24.990  18.783  10.486  1.00 20.00     0.114 A 
HETATM    6  C6  UNL     1     -22.805  19.108   8.802  1.00 20.00     0.114 A 
HETATM    7  N7  UNL     1     -21.811  18.078  12.184  1.00 20.00    -0.374 N 
HETATM    8  S8  UNL     1     -24.655  19.262   8.722  1.00 20.00    -0.160 SA
HETATM    9  H15 UNL     1     -21.191  17.820  12.938  1.00 20.00     0.164 HD
ENDROOT
TORSDOF 0
ENDMDL
MODEL 9
REMARK VINA RESULT:      -3.5     12.650     13.442
REMARK  0 active torsions:
REMARK  status: ('A' for Active; 'I' for Inactive)
ROOT
HETATM    1  C1  UNL     1     -34.483  15.434  -5.746  1.00 20.00     0.096 A 
HETATM    2  C2  UNL     1     -33.074  14.643  -4.170  1.00 20.00     0.096 A 
HETATM    3  C3  UNL     1     -34.410  16.365  -4.740  1.00 20.00    -0.025 A 
HETATM    4  C4  UNL     1     -33.528  15.869  -3.753  1.00 20.00    -0.025 A 
HETATM    5  C5  UNL     1     -35.026  17.682  -4.504  1.00 20.00     0.114 A 
HETATM    6  C6  UNL     1     -33.293  16.708  -2.565  1.00 20.00     0.114 A 
HETATM    7  N7  UNL     1     -33.664  14.388  -5.388  1.00 20.00    -0.374 N 
HETATM    8  S8  UNL     1     -34.340  18.214  -2.861  1.00 20.00    -0.160 SA
HETATM    9  H15 UNL     1     -33.517  13.554  -5.938  1.00 20.00     0.164 HD
ENDROOT
TORSDOF 0
ENDMDL
