MODEL 1
REMARK VINA RESULT:      -3.9      0.000      0.000
REMARK  1 active torsions:
REMARK  status: ('A' for Active; 'I' for Inactive)
REMARK    1  A    between atoms: C1_1  and  C5_5 
ROOT
HETATM    1  C1  UNL     1     -40.699  12.629   6.404  1.00 20.00     0.141 A 
HETATM    2  C2  UNL     1     -41.277  14.614   7.086  1.00 20.00     0.187 A 
HETATM    3  N6  UNL     1     -40.277  13.938   6.563  1.00 20.00    -0.211 NA
HETATM    4  N7  UNL     1     -41.930  12.260   6.759  1.00 20.00    -0.193 NA
HETATM    5  S8  UNL     1     -42.665  13.640   7.355  1.00 20.00     0.046 SA
HETATM    6 CL9  UNL     1     -41.247  16.274   7.468  1.00 20.00    -0.053 Cl
ENDROOT
BRANCH   1   7
HETATM    7  C5  UNL     1     -39.732  11.591   5.810  1.00 20.00     0.058 A 
HETATM    8  C3  UNL     1     -38.339  12.035   5.429  1.00 20.00     0.013 A 
HETATM    9  C4  UNL     1     -39.335  11.719   4.358  1.00 20.00     0.013 A 
ENDBRANCH   1   7
TORSDOF 1
ENDMDL
MODEL 2
REMARK VINA RESULT:      -3.9      9.807     10.252
REMARK  1 active torsions:
REMARK  status: ('A' for Active; 'I' for Inactive)
REMARK    1  A    between atoms: C1_1  and  C5_5 
ROOT
HETATM    1  C1  UNL     1     -33.776   7.042   4.674  1.00 20.00     0.141 A 
HETATM    2  C2  UNL     1     -32.549   7.850   3.068  1.00 20.00     0.187 A 
HETATM    3  N6  UNL     1     -33.433   6.914   3.339  1.00 20.00    -0.211 NA
HETATM    4  N7  UNL     1     -33.229   7.993   5.432  1.00 20.00    -0.193 NA
HETATM    5  S8  UNL     1     -32.183   8.830   4.429  1.00 20.00     0.046 SA
HETATM    6 CL9  UNL     1     -31.824   8.104   1.547  1.00 20.00    -0.053 Cl
ENDROOT
BRANCH   1   7
HETATM    7  C5  UNL     1     -34.799   6.071   5.287  1.00 20.00     0.058 A 
HETATM    8  C3  UNL     1     -34.440   5.355   6.567  1.00 20.00     0.013 A 
HETATM    9  C4  UNL     1     -34.488   4.593   5.281  1.00 20.00     0.013 A 
ENDBRANCH   1   7
TORSDOF 1
ENDMDL
MODEL 3
REMARK VINA RESULT:      -3.7      1.166      1.166
REMARK  1 active torsions:
REMARK  status: ('A' for Active; 'I' for Inactive)
REMARK    1  A    between atoms: C1_1  and  C5_5 
ROOT
HETATM    1  C1  UNL     1     -40.484  12.916   6.257  1.00 20.00     0.141 A 
HETATM    2  C2  UNL     1     -40.835  14.350   7.856  1.00 20.00     0.187 A 
HETATM    3  N6  UNL     1     -40.057  13.351   7.500  1.00 20.00    -0.211 NA
HETATM    4  N7  UNL     1     -41.514  13.501   5.646  1.00 20.00    -0.193 NA
HETATM    5  S8  UNL     1     -42.032  14.710   6.680  1.00 20.00     0.046 SA
HETATM    6 CL9  UNL     1     -40.705  15.224   9.313  1.00 20.00    -0.053 Cl
ENDROOT
BRANCH   1   7
HETATM    7  C5  UNL     1     -39.759  11.743   5.577  1.00 20.00     0.058 A 
HETATM    8  C3  UNL     1     -38.282  11.875   5.290  1.00 20.00     0.013 A 
HETATM    9  C4  UNL     1     -39.263  11.921   4.161  1.00 20.00     0.013 A 
ENDBRANCH   1   7
TORSDOF 1
ENDMDL
MODEL 4
REMARK VINA RESULT:      -3.6      1.400      1.470
REMARK  1 active torsions:
REMARK  status: ('A' for Active; 'I' for Inactive)
REMARK    1  A    between atoms: C1_1  and  C5_5 
ROOT
HETATM    1  C1  UNL     1     -40.485  12.973   6.228  1.00 20.00     0.141 A 
HETATM    2  C2  UNL     1     -41.892  14.626   6.059  1.00 20.00     0.187 A 
HETATM    3  N6  UNL     1     -41.360  13.633   5.380  1.00 20.00    -0.211 NA
HETATM    4  N7  UNL     1     -40.313  13.383   7.484  1.00 20.00    -0.193 NA
HETATM    5  S8  UNL     1     -41.313  14.711   7.673  1.00 20.00     0.046 SA
HETATM    6 CL9  UNL     1     -43.036  15.730   5.447  1.00 20.00    -0.053 Cl
ENDROOT
BRANCH   1   7
HETATM    7  C5  UNL     1     -39.704  11.755   5.707  1.00 20.00     0.058 A 
HETATM    8  C3  UNL     1     -38.233  11.916   5.403  1.00 20.00     0.013 A 
HETATM    9  C4  UNL     1     -39.210  11.769   4.279  1.00 20.00     0.013 A 
ENDBRANCH   1   7
TORSDOF 1
ENDMDL
MODEL 5
REMARK VINA RESULT:      -3.6     11.636     12.337
REMARK  1 active torsions:
REMARK  status: ('A' for Active; 'I' for Inactive)
REMARK    1  A    between atoms: C1_1  and  C5_5 
ROOT
HETATM    1  C1  UNL     1     -33.401  16.618  -3.273  1.00 20.00     0.141 A 
HETATM    2  C2  UNL     1     -33.711  17.789  -1.464  1.00 20.00     0.187 A 
HETATM    3  N6  UNL     1     -33.510  16.562  -1.893  1.00 20.00    -0.211 NA
HETATM    4  N7  UNL     1     -33.501  17.780  -3.918  1.00 20.00    -0.193 NA
HETATM    5  S8  UNL     1     -33.756  18.938  -2.737  1.00 20.00     0.046 SA
HETATM    6 CL9  UNL     1     -33.906  18.237   0.169  1.00 20.00    -0.053 Cl
ENDROOT
BRANCH   1   7
HETATM    7  C5  UNL     1     -33.163  15.322  -4.065  1.00 20.00     0.058 A 
HETATM    8  C3  UNL     1     -33.875  15.140  -5.384  1.00 20.00     0.013 A 
HETATM    9  C4  UNL     1     -34.300  14.335  -4.197  1.00 20.00     0.013 A 
ENDBRANCH   1   7
TORSDOF 1
ENDMDL
MODEL 6
REMARK VINA RESULT:      -3.5     11.502     12.042
REMARK  1 active torsions:
REMARK  status: ('A' for Active; 'I' for Inactive)
REMARK    1  A    between atoms: C1_1  and  C5_5 
ROOT
HETATM    1  C1  UNL     1     -32.083  18.508  -0.607  1.00 20.00     0.141 A 
HETATM    2  C2  UNL     1     -32.227  18.944   1.521  1.00 20.00     0.187 A 
HETATM    3  N6  UNL     1     -32.954  18.730   0.446  1.00 20.00    -0.211 NA
HETATM    4  N7  UNL     1     -30.763  18.535  -0.418  1.00 20.00    -0.193 NA
HETATM    5  S8  UNL     1     -30.541  18.865   1.207  1.00 20.00     0.046 SA
HETATM    6 CL9  UNL     1     -32.845  19.263   3.076  1.00 20.00    -0.053 Cl
ENDROOT
BRANCH   1   7
HETATM    7  C5  UNL     1     -32.649  18.230  -2.010  1.00 20.00     0.058 A 
HETATM    8  C3  UNL     1     -34.145  18.115  -2.176  1.00 20.00     0.013 A 
HETATM    9  C4  UNL     1     -33.293  16.889  -2.277  1.00 20.00     0.013 A 
ENDBRANCH   1   7
TORSDOF 1
ENDMDL
MODEL 7
REMARK VINA RESULT:      -3.5      9.654     10.030
REMARK  1 active torsions:
REMARK  status: ('A' for Active; 'I' for Inactive)
REMARK    1  A    between atoms: C1_1  and  C5_5 
ROOT
HETATM    1  C1  UNL     1     -33.720   6.757   4.498  1.00 20.00     0.141 A 
HETATM    2  C2  UNL     1     -32.472   8.541   4.538  1.00 20.00     0.187 A 
HETATM    3  N6  UNL     1     -33.397   7.896   5.216  1.00 20.00    -0.211 NA
HETATM    4  N7  UNL     1     -33.118   6.487   3.340  1.00 20.00    -0.193 NA
HETATM    5  S8  UNL     1     -32.043   7.743   3.080  1.00 20.00     0.046 SA
HETATM    6 CL9  UNL     1     -31.748  10.007   5.015  1.00 20.00    -0.053 Cl
ENDROOT
BRANCH   1   7
HETATM    7  C5  UNL     1     -34.787   5.796   5.048  1.00 20.00     0.058 A 
HETATM    8  C3  UNL     1     -35.027   5.758   6.538  1.00 20.00     0.013 A 
HETATM    9  C4  UNL     1     -34.338   4.610   5.870  1.00 20.00     0.013 A 
ENDBRANCH   1   7
TORSDOF 1
ENDMDL
MODEL 8
REMARK VINA RESULT:      -3.4     12.364     12.818
REMARK  1 active torsions:
REMARK  status: ('A' for Active; 'I' for Inactive)
REMARK    1  A    between atoms: C1_1  and  C5_5 
ROOT
HETATM    1  C1  UNL     1     -33.613  17.402  -2.373  1.00 20.00     0.141 A 
HETATM    2  C2  UNL     1     -33.801  16.099  -4.107  1.00 20.00     0.187 A 
HETATM    3  N6  UNL     1     -33.292  16.160  -2.895  1.00 20.00    -0.211 NA
HETATM    4  N7  UNL     1     -34.320  18.280  -3.085  1.00 20.00    -0.193 NA
HETATM    5  S8  UNL     1     -34.635  17.532  -4.549  1.00 20.00     0.046 SA
HETATM    6 CL9  UNL     1     -33.675  14.763  -5.157  1.00 20.00    -0.053 Cl
ENDROOT
BRANCH   1   7
HETATM    7  C5  UNL     1     -33.146  17.769  -0.955  1.00 20.00     0.058 A 
HETATM    8  C3  UNL     1     -33.133  19.224  -0.551  1.00 20.00     0.013 A 
HETATM    9  C4  UNL     1     -31.840  18.512  -0.793  1.00 20.00     0.013 A 
ENDBRANCH   1   7
TORSDOF 1
ENDMDL
MODEL 9
REMARK VINA RESULT:      -3.3     12.619     13.141
REMARK  1 active torsions:
REMARK  status: ('A' for Active; 'I' for Inactive)
REMARK    1  A    between atoms: C1_1  and  C5_5 
ROOT
HETATM    1  C1  UNL     1     -33.816  16.362  -3.560  1.00 20.00     0.141 A 
HETATM    2  C2  UNL     1     -34.860  16.638  -5.450  1.00 20.00     0.187 A 
HETATM    3  N6  UNL     1     -34.657  17.197  -4.277  1.00 20.00    -0.211 NA
HETATM    4  N7  UNL     1     -33.368  15.225  -4.092  1.00 20.00    -0.193 NA
HETATM    5  S8  UNL     1     -34.031  15.146  -5.627  1.00 20.00     0.046 SA
HETATM    6 CL9  UNL     1     -35.829  17.289  -6.692  1.00 20.00    -0.053 Cl
ENDROOT
BRANCH   1   7
HETATM    7  C5  UNL     1     -33.398  16.755  -2.134  1.00 20.00     0.058 A 
HETATM    8  C3  UNL     1     -34.068  17.943  -1.485  1.00 20.00     0.013 A 
HETATM    9  C4  UNL     1     -32.644  18.049  -1.931  1.00 20.00     0.013 A 
ENDBRANCH   1   7
TORSDOF 1
ENDMDL
