MODEL 1
REMARK VINA RESULT:      -3.6      0.000      0.000
REMARK  3 active torsions:
REMARK  status: ('A' for Active; 'I' for Inactive)
REMARK    1  A    between atoms: C4_4  and  N8_8 
REMARK    2  A    between atoms: C6_6  and  C7_7 
REMARK    3  A    between atoms: C6_6  and  N8_8 
ROOT
HETATM    1  C1  UNL     1     -33.491   6.964   6.129  1.00 20.00     0.047 C 
HETATM    2  C2  UNL     1     -34.730   6.130   6.410  1.00 20.00     0.076 C 
HETATM    3  C3  UNL     1     -33.655   5.867   3.959  1.00 20.00     0.109 C 
HETATM    4  C4  UNL     1     -33.486   7.228   4.625  1.00 20.00     0.232 C 
HETATM    5  S9  UNL     1     -34.863   4.994   4.999  1.00 20.00    -0.167 SA
ENDROOT
BRANCH   4   6
HETATM    6  N8  UNL     1     -32.260   7.882   4.187  1.00 20.00     0.090 N 
HETATM    7  C5  UNL     1     -32.155   9.225   4.761  1.00 20.00     0.310 C 
BRANCH   6   8
HETATM    8  C6  UNL     1     -32.205   7.952   2.725  1.00 20.00     0.287 C 
BRANCH   8   9
HETATM    9  C7  UNL     1     -32.858   9.211   2.176  1.00 20.00     0.144 C 
HETATM   10 CL10 UNL     1     -32.649   9.332   0.412  1.00 20.00    -0.129 Cl
ENDBRANCH   8   9
ENDBRANCH   6   8
ENDBRANCH   4   6
TORSDOF 3
ENDMDL
MODEL 2
REMARK VINA RESULT:      -3.3     11.484     11.955
REMARK  3 active torsions:
REMARK  status: ('A' for Active; 'I' for Inactive)
REMARK    1  A    between atoms: C4_4  and  N8_8 
REMARK    2  A    between atoms: C6_6  and  C7_7 
REMARK    3  A    between atoms: C6_6  and  N8_8 
ROOT
HETATM    1  C1  UNL     1     -30.769  18.227   1.213  1.00 20.00     0.047 C 
HETATM    2  C2  UNL     1     -30.001  18.633   2.461  1.00 20.00     0.076 C 
HETATM    3  C3  UNL     1     -32.616  19.262   2.422  1.00 20.00     0.109 C 
HETATM    4  C4  UNL     1     -31.911  19.231   1.070  1.00 20.00     0.232 C 
HETATM    5  S9  UNL     1     -31.272  19.170   3.642  1.00 20.00    -0.167 SA
ENDROOT
BRANCH   4   6
HETATM    6  N8  UNL     1     -32.833  18.865   0.003  1.00 20.00     0.090 N 
HETATM    7  C5  UNL     1     -33.873  17.963   0.503  1.00 20.00     0.310 C 
BRANCH   6   8
HETATM    8  C6  UNL     1     -32.114  18.240  -1.110  1.00 20.00     0.287 C 
BRANCH   8   9
HETATM    9  C7  UNL     1     -32.954  18.158  -2.374  1.00 20.00     0.144 C 
HETATM   10 CL10 UNL     1     -33.370  16.472  -2.767  1.00 20.00    -0.129 Cl
ENDBRANCH   8   9
ENDBRANCH   6   8
ENDBRANCH   4   6
TORSDOF 3
ENDMDL
MODEL 3
REMARK VINA RESULT:      -3.3     11.949     12.774
REMARK  3 active torsions:
REMARK  status: ('A' for Active; 'I' for Inactive)
REMARK    1  A    between atoms: C4_4  and  N8_8 
REMARK    2  A    between atoms: C6_6  and  C7_7 
REMARK    3  A    between atoms: C6_6  and  N8_8 
ROOT
HETATM    1  C1  UNL     1     -33.315  15.765  -3.696  1.00 20.00     0.047 C 
HETATM    2  C2  UNL     1     -33.761  14.615  -4.586  1.00 20.00     0.076 C 
HETATM    3  C3  UNL     1     -34.473  17.080  -5.390  1.00 20.00     0.109 C 
HETATM    4  C4  UNL     1     -34.347  16.874  -3.884  1.00 20.00     0.232 C 
HETATM    5  S9  UNL     1     -34.402  15.404  -6.090  1.00 20.00    -0.167 SA
ENDROOT
BRANCH   4   6
HETATM    6  N8  UNL     1     -33.956  18.107  -3.214  1.00 20.00     0.090 N 
HETATM    7  C5  UNL     1     -33.147  18.945  -4.101  1.00 20.00     0.310 C 
BRANCH   6   8
HETATM    8  C6  UNL     1     -33.217  17.814  -1.983  1.00 20.00     0.287 C 
BRANCH   8   9
HETATM    9  C7  UNL     1     -32.358  18.982  -1.527  1.00 20.00     0.144 C 
HETATM   10 CL10 UNL     1     -31.146  18.465  -0.329  1.00 20.00    -0.129 Cl
ENDBRANCH   8   9
ENDBRANCH   6   8
ENDBRANCH   4   6
TORSDOF 3
ENDMDL
MODEL 4
REMARK VINA RESULT:      -3.3     11.889     12.789
REMARK  3 active torsions:
REMARK  status: ('A' for Active; 'I' for Inactive)
REMARK    1  A    between atoms: C4_4  and  N8_8 
REMARK    2  A    between atoms: C6_6  and  C7_7 
REMARK    3  A    between atoms: C6_6  and  N8_8 
ROOT
HETATM    1  C1  UNL     1     -33.526  16.373  -3.248  1.00 20.00     0.047 C 
HETATM    2  C2  UNL     1     -33.151  17.081  -1.956  1.00 20.00     0.076 C 
HETATM    3  C3  UNL     1     -35.022  18.286  -3.467  1.00 20.00     0.109 C 
HETATM    4  C4  UNL     1     -33.978  17.464  -4.216  1.00 20.00     0.232 C 
HETATM    5  S9  UNL     1     -34.379  18.406  -1.771  1.00 20.00    -0.167 SA
ENDROOT
BRANCH   4   6
HETATM    6  N8  UNL     1     -34.527  16.911  -5.448  1.00 20.00     0.090 N 
HETATM    7  C5  UNL     1     -35.967  17.162  -5.532  1.00 20.00     0.310 C 
BRANCH   6   8
HETATM    8  C6  UNL     1     -34.258  15.474  -5.535  1.00 20.00     0.287 C 
BRANCH   8   9
HETATM    9  C7  UNL     1     -35.503  14.666  -5.863  1.00 20.00     0.144 C 
HETATM   10 CL10 UNL     1     -35.921  13.554  -4.538  1.00 20.00    -0.129 Cl
ENDBRANCH   8   9
ENDBRANCH   6   8
ENDBRANCH   4   6
TORSDOF 3
ENDMDL
MODEL 5
REMARK VINA RESULT:      -3.2     11.679     12.234
REMARK  3 active torsions:
REMARK  status: ('A' for Active; 'I' for Inactive)
REMARK    1  A    between atoms: C4_4  and  N8_8 
REMARK    2  A    between atoms: C6_6  and  C7_7 
REMARK    3  A    between atoms: C6_6  and  N8_8 
ROOT
HETATM    1  C1  UNL     1     -31.610  18.405  -0.788  1.00 20.00     0.047 C 
HETATM    2  C2  UNL     1     -31.132  19.031   0.513  1.00 20.00     0.076 C 
HETATM    3  C3  UNL     1     -33.794  18.761   0.235  1.00 20.00     0.109 C 
HETATM    4  C4  UNL     1     -33.001  18.976  -1.050  1.00 20.00     0.232 C 
HETATM    5  S9  UNL     1     -32.608  19.108   1.568  1.00 20.00    -0.167 SA
ENDROOT
BRANCH   4   6
HETATM    6  N8  UNL     1     -33.652  18.336  -2.186  1.00 20.00     0.090 N 
HETATM    7  C5  UNL     1     -35.088  18.626  -2.191  1.00 20.00     0.310 C 
BRANCH   6   8
HETATM    8  C6  UNL     1     -33.429  16.888  -2.161  1.00 20.00     0.287 C 
BRANCH   8   9
HETATM    9  C7  UNL     1     -33.165  16.315  -3.543  1.00 20.00     0.144 C 
HETATM   10 CL10 UNL     1     -33.939  14.723  -3.743  1.00 20.00    -0.129 Cl
ENDBRANCH   8   9
ENDBRANCH   6   8
ENDBRANCH   4   6
TORSDOF 3
ENDMDL
MODEL 6
REMARK VINA RESULT:      -3.2      1.382      1.940
REMARK  3 active torsions:
REMARK  status: ('A' for Active; 'I' for Inactive)
REMARK    1  A    between atoms: C4_4  and  N8_8 
REMARK    2  A    between atoms: C6_6  and  C7_7 
REMARK    3  A    between atoms: C6_6  and  N8_8 
ROOT
HETATM    1  C1  UNL     1     -33.281   7.328   5.198  1.00 20.00     0.047 C 
HETATM    2  C2  UNL     1     -34.076   7.168   6.485  1.00 20.00     0.076 C 
HETATM    3  C3  UNL     1     -34.277   5.156   4.711  1.00 20.00     0.109 C 
HETATM    4  C4  UNL     1     -34.041   6.546   4.129  1.00 20.00     0.232 C 
HETATM    5  S9  UNL     1     -34.674   5.453   6.459  1.00 20.00    -0.167 SA
ENDROOT
BRANCH   4   6
HETATM    6  N8  UNL     1     -33.303   6.474   2.874  1.00 20.00     0.090 N 
HETATM    7  C5  UNL     1     -32.777   5.124   2.659  1.00 20.00     0.310 C 
BRANCH   6   8
HETATM    8  C6  UNL     1     -32.211   7.450   2.860  1.00 20.00     0.287 C 
BRANCH   8   9
HETATM    9  C7  UNL     1     -32.055   8.131   1.510  1.00 20.00     0.144 C 
HETATM   10 CL10 UNL     1     -32.932   9.679   1.460  1.00 20.00    -0.129 Cl
ENDBRANCH   8   9
ENDBRANCH   6   8
ENDBRANCH   4   6
TORSDOF 3
ENDMDL
MODEL 7
REMARK VINA RESULT:      -3.2     10.122     10.540
REMARK  3 active torsions:
REMARK  status: ('A' for Active; 'I' for Inactive)
REMARK    1  A    between atoms: C4_4  and  N8_8 
REMARK    2  A    between atoms: C6_6  and  C7_7 
REMARK    3  A    between atoms: C6_6  and  N8_8 
ROOT
HETATM    1  C1  UNL     1     -40.434  14.315   8.391  1.00 20.00     0.047 C 
HETATM    2  C2  UNL     1     -41.206  14.657   9.656  1.00 20.00     0.076 C 
HETATM    3  C3  UNL     1     -42.569  13.321   7.761  1.00 20.00     0.109 C 
HETATM    4  C4  UNL     1     -41.466  14.250   7.267  1.00 20.00     0.232 C 
HETATM    5  S9  UNL     1     -42.765  13.737   9.520  1.00 20.00    -0.167 SA
ENDROOT
BRANCH   4   6
HETATM    6  N8  UNL     1     -40.888  13.767   6.020  1.00 20.00     0.090 N 
HETATM    7  C5  UNL     1     -41.757  14.091   4.886  1.00 20.00     0.310 C 
BRANCH   6   8
HETATM    8  C6  UNL     1     -40.656  12.322   6.082  1.00 20.00     0.287 C 
BRANCH   8   9
HETATM    9  C7  UNL     1     -39.219  11.947   5.757  1.00 20.00     0.144 C 
HETATM   10 CL10 UNL     1     -39.016  11.605   4.022  1.00 20.00    -0.129 Cl
ENDBRANCH   8   9
ENDBRANCH   6   8
ENDBRANCH   4   6
TORSDOF 3
ENDMDL
MODEL 8
REMARK VINA RESULT:      -3.1     11.882     12.809
REMARK  3 active torsions:
REMARK  status: ('A' for Active; 'I' for Inactive)
REMARK    1  A    between atoms: C4_4  and  N8_8 
REMARK    2  A    between atoms: C6_6  and  C7_7 
REMARK    3  A    between atoms: C6_6  and  N8_8 
ROOT
HETATM    1  C1  UNL     1     -33.356  16.522  -2.551  1.00 20.00     0.047 C 
HETATM    2  C2  UNL     1     -32.940  17.805  -1.848  1.00 20.00     0.076 C 
HETATM    3  C3  UNL     1     -34.874  18.043  -3.701  1.00 20.00     0.109 C 
HETATM    4  C4  UNL     1     -33.852  16.936  -3.934  1.00 20.00     0.232 C 
HETATM    5  S9  UNL     1     -34.172  19.039  -2.354  1.00 20.00    -0.167 SA
ENDROOT
BRANCH   4   6
HETATM    6  N8  UNL     1     -34.440  15.819  -4.663  1.00 20.00     0.090 N 
HETATM    7  C5  UNL     1     -33.682  14.588  -4.425  1.00 20.00     0.310 C 
BRANCH   6   8
HETATM    8  C6  UNL     1     -34.495  16.109  -6.097  1.00 20.00     0.287 C 
BRANCH   8   9
HETATM    9  C7  UNL     1     -35.849  15.784  -6.707  1.00 20.00     0.144 C 
HETATM   10 CL10 UNL     1     -37.131  15.776  -5.470  1.00 20.00    -0.129 Cl
ENDBRANCH   8   9
ENDBRANCH   6   8
ENDBRANCH   4   6
TORSDOF 3
ENDMDL
MODEL 9
REMARK VINA RESULT:      -3.0     10.650     11.146
REMARK  3 active torsions:
REMARK  status: ('A' for Active; 'I' for Inactive)
REMARK    1  A    between atoms: C4_4  and  N8_8 
REMARK    2  A    between atoms: C6_6  and  C7_7 
REMARK    3  A    between atoms: C6_6  and  N8_8 
ROOT
HETATM    1  C1  UNL     1     -40.381  15.294   7.608  1.00 20.00     0.047 C 
HETATM    2  C2  UNL     1     -40.791  16.585   8.300  1.00 20.00     0.076 C 
HETATM    3  C3  UNL     1     -42.783  14.884   7.687  1.00 20.00     0.109 C 
HETATM    4  C4  UNL     1     -41.575  14.869   6.756  1.00 20.00     0.232 C 
HETATM    5  S9  UNL     1     -42.541  16.353   8.729  1.00 20.00    -0.167 SA
ENDROOT
BRANCH   4   6
HETATM    6  N8  UNL     1     -41.383  13.553   6.161  1.00 20.00     0.090 N 
HETATM    7  C5  UNL     1     -42.268  12.568   6.787  1.00 20.00     0.310 C 
BRANCH   6   8
HETATM    8  C6  UNL     1     -39.987  13.128   6.283  1.00 20.00     0.287 C 
BRANCH   8   9
HETATM    9  C7  UNL     1     -39.768  11.699   5.814  1.00 20.00     0.144 C 
HETATM   10 CL10 UNL     1     -39.080  11.655   4.172  1.00 20.00    -0.129 Cl
ENDBRANCH   8   9
ENDBRANCH   6   8
ENDBRANCH   4   6
TORSDOF 3
ENDMDL
