MODEL 1
REMARK VINA RESULT:      -4.1      0.000      0.000
REMARK  3 active torsions:
REMARK  status: ('A' for Active; 'I' for Inactive)
REMARK    1  A    between atoms: C10_10  and  C12_12 
REMARK    2  A    between atoms: C11_11  and  C12_12 
REMARK    3  A    between atoms: C12_12  and  N13_13 
ROOT
HETATM    1  C1  UNL     1     -41.569  15.015  10.249  1.00 20.00     0.130 C 
HETATM    2  C2  UNL     1     -42.310  13.803   9.735  1.00 20.00     0.106 C 
HETATM    3  C3  UNL     1     -40.230  15.298   9.609  1.00 20.00     0.106 C 
HETATM    4  C8  UNL     1     -42.367  13.810   8.218  1.00 20.00     0.242 C 
HETATM    5  C9  UNL     1     -40.339  15.269   8.096  1.00 20.00     0.242 C 
HETATM    6  N13 UNL     1     -40.970  13.965   7.660  1.00 20.00    -0.065 N 
HETATM    7  O14 UNL     1     -41.982  15.670  11.203  1.00 20.00    -0.298 OA
HETATM    8  H34 UNL     1     -40.396  13.200   8.039  1.00 20.00     0.280 HD
ENDROOT
BRANCH   6   9
HETATM    9  C12 UNL     1     -40.950  13.813   6.164  1.00 20.00     0.196 C 
BRANCH   9  10
HETATM   10  C10 UNL     1     -42.318  14.195   5.622  1.00 20.00     0.017 A 
HETATM   11  C4  UNL     1     -42.580  15.596   5.147  1.00 20.00     0.007 A 
HETATM   12  C5  UNL     1     -42.502  14.469   4.155  1.00 20.00     0.007 A 
ENDBRANCH   9  10
BRANCH   9  13
HETATM   13  C11 UNL     1     -40.578  12.377   5.831  1.00 20.00     0.017 A 
HETATM   14  C6  UNL     1     -39.564  12.086   4.759  1.00 20.00     0.007 A 
HETATM   15  C7  UNL     1     -39.224  11.840   6.203  1.00 20.00     0.007 A 
ENDBRANCH   9  13
ENDBRANCH   6   9
TORSDOF 3
ENDMDL
MODEL 2
REMARK VINA RESULT:      -3.8     12.839     14.160
REMARK  3 active torsions:
REMARK  status: ('A' for Active; 'I' for Inactive)
REMARK    1  A    between atoms: C10_10  and  C12_12 
REMARK    2  A    between atoms: C11_11  and  C12_12 
REMARK    3  A    between atoms: C12_12  and  N13_13 
ROOT
HETATM    1  C1  UNL     1     -32.847  18.419  -2.193  1.00 20.00     0.130 C 
HETATM    2  C2  UNL     1     -33.794  19.263  -3.013  1.00 20.00     0.106 C 
HETATM    3  C3  UNL     1     -33.285  17.000  -1.920  1.00 20.00     0.106 C 
HETATM    4  C8  UNL     1     -34.225  18.524  -4.267  1.00 20.00     0.242 C 
HETATM    5  C9  UNL     1     -33.728  16.317  -3.202  1.00 20.00     0.242 C 
HETATM    6  N13 UNL     1     -34.773  17.165  -3.891  1.00 20.00    -0.065 N 
HETATM    7  O14 UNL     1     -31.829  18.891  -1.690  1.00 20.00    -0.298 OA
HETATM    8  H34 UNL     1     -35.543  17.313  -3.224  1.00 20.00     0.280 HD
ENDROOT
BRANCH   6   9
HETATM    9  C12 UNL     1     -35.367  16.458  -5.077  1.00 20.00     0.196 C 
BRANCH   9  10
HETATM   10  C10 UNL     1     -34.329  16.426  -6.188  1.00 20.00     0.017 A 
HETATM   11  C4  UNL     1     -34.038  15.143  -6.916  1.00 20.00     0.007 A 
HETATM   12  C5  UNL     1     -34.757  16.260  -7.620  1.00 20.00     0.007 A 
ENDBRANCH   9  10
BRANCH   9  13
HETATM   13  C11 UNL     1     -36.632  17.191  -5.492  1.00 20.00     0.017 A 
HETATM   14  C6  UNL     1     -37.939  16.453  -5.585  1.00 20.00     0.007 A 
HETATM   15  C7  UNL     1     -37.718  17.455  -4.486  1.00 20.00     0.007 A 
ENDBRANCH   9  13
ENDBRANCH   6   9
TORSDOF 3
ENDMDL
MODEL 3
REMARK VINA RESULT:      -3.7      0.874      3.085
REMARK  3 active torsions:
REMARK  status: ('A' for Active; 'I' for Inactive)
REMARK    1  A    between atoms: C10_10  and  C12_12 
REMARK    2  A    between atoms: C11_11  and  C12_12 
REMARK    3  A    between atoms: C12_12  and  N13_13 
ROOT
HETATM    1  C1  UNL     1     -41.713  14.221  10.121  1.00 20.00     0.130 C 
HETATM    2  C2  UNL     1     -40.659  14.895   9.276  1.00 20.00     0.106 C 
HETATM    3  C3  UNL     1     -43.002  13.862   9.419  1.00 20.00     0.106 C 
HETATM    4  C8  UNL     1     -40.437  14.131   7.982  1.00 20.00     0.242 C 
HETATM    5  C9  UNL     1     -42.721  13.124   8.123  1.00 20.00     0.242 C 
HETATM    6  N13 UNL     1     -41.761  13.932   7.279  1.00 20.00    -0.065 N 
HETATM    7  O14 UNL     1     -41.571  14.068  11.333  1.00 20.00    -0.298 OA
HETATM    8  H34 UNL     1     -42.180  14.861   7.134  1.00 20.00     0.280 HD
ENDROOT
BRANCH   6   9
HETATM    9  C12 UNL     1     -41.579  13.328   5.915  1.00 20.00     0.196 C 
BRANCH   9  10
HETATM   10  C10 UNL     1     -40.132  12.883   5.773  1.00 20.00     0.017 A 
HETATM   11  C4  UNL     1     -39.783  11.421   5.798  1.00 20.00     0.007 A 
HETATM   12  C5  UNL     1     -39.669  12.199   4.517  1.00 20.00     0.007 A 
ENDBRANCH   9  10
BRANCH   9  13
HETATM   13  C11 UNL     1     -41.968  14.364   4.873  1.00 20.00     0.017 A 
HETATM   14  C6  UNL     1     -43.397  14.485   4.422  1.00 20.00     0.007 A 
HETATM   15  C7  UNL     1     -42.781  15.565   5.267  1.00 20.00     0.007 A 
ENDBRANCH   9  13
ENDBRANCH   6   9
TORSDOF 3
ENDMDL
MODEL 4
REMARK VINA RESULT:      -3.6     12.445     13.817
REMARK  3 active torsions:
REMARK  status: ('A' for Active; 'I' for Inactive)
REMARK    1  A    between atoms: C10_10  and  C12_12 
REMARK    2  A    between atoms: C11_11  and  C12_12 
REMARK    3  A    between atoms: C12_12  and  N13_13 
ROOT
HETATM    1  C1  UNL     1     -33.853  18.049  -1.535  1.00 20.00     0.130 C 
HETATM    2  C2  UNL     1     -35.147  18.621  -2.068  1.00 20.00     0.106 C 
HETATM    3  C3  UNL     1     -33.438  16.708  -2.093  1.00 20.00     0.106 C 
HETATM    4  C8  UNL     1     -35.170  18.576  -3.585  1.00 20.00     0.242 C 
HETATM    5  C9  UNL     1     -33.504  16.712  -3.609  1.00 20.00     0.242 C 
HETATM    6  N13 UNL     1     -34.875  17.169  -4.054  1.00 20.00    -0.065 N 
HETATM    7  O14 UNL     1     -33.231  18.594  -0.626  1.00 20.00    -0.298 OA
HETATM    8  H34 UNL     1     -35.567  16.544  -3.620  1.00 20.00     0.280 HD
ENDROOT
BRANCH   6   9
HETATM    9  C12 UNL     1     -35.049  17.032  -5.541  1.00 20.00     0.196 C 
BRANCH   9  10
HETATM   10  C10 UNL     1     -35.488  18.376  -6.101  1.00 20.00     0.017 A 
HETATM   11  C4  UNL     1     -35.346  18.668  -7.569  1.00 20.00     0.007 A 
HETATM   12  C5  UNL     1     -36.711  18.471  -6.971  1.00 20.00     0.007 A 
ENDBRANCH   9  10
BRANCH   9  13
HETATM   13  C11 UNL     1     -36.067  15.936  -5.809  1.00 20.00     0.017 A 
HETATM   14  C6  UNL     1     -35.769  14.852  -6.807  1.00 20.00     0.007 A 
HETATM   15  C7  UNL     1     -35.808  14.532  -5.339  1.00 20.00     0.007 A 
ENDBRANCH   9  13
ENDBRANCH   6   9
TORSDOF 3
ENDMDL
MODEL 5
REMARK VINA RESULT:      -3.6     12.173     13.767
REMARK  3 active torsions:
REMARK  status: ('A' for Active; 'I' for Inactive)
REMARK    1  A    between atoms: C10_10  and  C12_12 
REMARK    2  A    between atoms: C11_11  and  C12_12 
REMARK    3  A    between atoms: C12_12  and  N13_13 
ROOT
HETATM    1  C1  UNL     1     -33.818  18.273  -0.854  1.00 20.00     0.130 C 
HETATM    2  C2  UNL     1     -32.893  17.398  -1.666  1.00 20.00     0.106 C 
HETATM    3  C3  UNL     1     -34.683  19.234  -1.635  1.00 20.00     0.106 C 
HETATM    4  C8  UNL     1     -33.645  16.728  -2.802  1.00 20.00     0.242 C 
HETATM    5  C9  UNL     1     -35.391  18.518  -2.771  1.00 20.00     0.242 C 
HETATM    6  N13 UNL     1     -34.376  17.776  -3.611  1.00 20.00    -0.065 N 
HETATM    7  O14 UNL     1     -33.793  18.278   0.376  1.00 20.00    -0.298 OA
HETATM    8  H34 UNL     1     -33.679  18.462  -3.935  1.00 20.00     0.280 HD
ENDROOT
BRANCH   6   9
HETATM    9  C12 UNL     1     -35.001  17.188  -4.845  1.00 20.00     0.196 C 
BRANCH   9  10
HETATM   10  C10 UNL     1     -34.784  15.683  -4.825  1.00 20.00     0.017 A 
HETATM   11  C4  UNL     1     -35.587  14.789  -5.729  1.00 20.00     0.007 A 
HETATM   12  C5  UNL     1     -34.120  14.997  -5.987  1.00 20.00     0.007 A 
ENDBRANCH   9  10
BRANCH   9  13
HETATM   13  C11 UNL     1     -34.373  17.844  -6.064  1.00 20.00     0.017 A 
HETATM   14  C6  UNL     1     -35.104  18.931  -6.801  1.00 20.00     0.007 A 
HETATM   15  C7  UNL     1     -33.882  19.262  -5.991  1.00 20.00     0.007 A 
ENDBRANCH   9  13
ENDBRANCH   6   9
TORSDOF 3
ENDMDL
MODEL 6
REMARK VINA RESULT:      -3.5     12.522     13.739
REMARK  3 active torsions:
REMARK  status: ('A' for Active; 'I' for Inactive)
REMARK    1  A    between atoms: C10_10  and  C12_12 
REMARK    2  A    between atoms: C11_11  and  C12_12 
REMARK    3  A    between atoms: C12_12  and  N13_13 
ROOT
HETATM    1  C1  UNL     1     -37.928  18.490  -4.955  1.00 20.00     0.130 C 
HETATM    2  C2  UNL     1     -37.645  17.012  -5.081  1.00 20.00     0.106 C 
HETATM    3  C3  UNL     1     -37.173  19.223  -3.872  1.00 20.00     0.106 C 
HETATM    4  C8  UNL     1     -36.150  16.752  -5.121  1.00 20.00     0.242 C 
HETATM    5  C9  UNL     1     -35.690  18.909  -3.943  1.00 20.00     0.242 C 
HETATM    6  N13 UNL     1     -35.490  17.410  -3.930  1.00 20.00    -0.065 N 
HETATM    7  O14 UNL     1     -38.799  19.042  -5.625  1.00 20.00    -0.298 OA
HETATM    8  H34 UNL     1     -35.942  17.043  -3.081  1.00 20.00     0.280 HD
ENDROOT
BRANCH   6   9
HETATM    9  C12 UNL     1     -34.035  17.045  -3.829  1.00 20.00     0.196 C 
BRANCH   9  10
HETATM   10  C10 UNL     1     -33.799  15.778  -4.636  1.00 20.00     0.017 A 
HETATM   11  C4  UNL     1     -32.648  14.871  -4.302  1.00 20.00     0.007 A 
HETATM   12  C5  UNL     1     -34.058  14.431  -4.022  1.00 20.00     0.007 A 
ENDBRANCH   9  10
BRANCH   9  13
HETATM   13  C11 UNL     1     -33.682  16.868  -2.361  1.00 20.00     0.017 A 
HETATM   14  C6  UNL     1     -32.635  17.738  -1.724  1.00 20.00     0.007 A 
HETATM   15  C7  UNL     1     -34.082  17.912  -1.356  1.00 20.00     0.007 A 
ENDBRANCH   9  13
ENDBRANCH   6   9
TORSDOF 3
ENDMDL
MODEL 7
REMARK VINA RESULT:      -3.4     21.690     24.019
REMARK  3 active torsions:
REMARK  status: ('A' for Active; 'I' for Inactive)
REMARK    1  A    between atoms: C10_10  and  C12_12 
REMARK    2  A    between atoms: C11_11  and  C12_12 
REMARK    3  A    between atoms: C12_12  and  N13_13 
ROOT
HETATM    1  C1  UNL     1     -27.392  -1.332  11.439  1.00 20.00     0.130 C 
HETATM    2  C2  UNL     1     -27.416  -2.718  10.838  1.00 20.00     0.106 C 
HETATM    3  C3  UNL     1     -26.150  -0.965  12.216  1.00 20.00     0.106 C 
HETATM    4  C8  UNL     1     -26.134  -2.994  10.072  1.00 20.00     0.242 C 
HETATM    5  C9  UNL     1     -24.900  -1.284  11.415  1.00 20.00     0.242 C 
HETATM    6  N13 UNL     1     -24.944  -2.727  10.965  1.00 20.00    -0.065 N 
HETATM    7  O14 UNL     1     -28.369  -0.587  11.389  1.00 20.00    -0.298 OA
HETATM    8  H34 UNL     1     -25.047  -3.312  11.806  1.00 20.00     0.280 HD
ENDROOT
BRANCH   6   9
HETATM    9  C12 UNL     1     -23.655  -3.143  10.312  1.00 20.00     0.196 C 
BRANCH   9  10
HETATM   10  C10 UNL     1     -23.891  -3.263   8.815  1.00 20.00     0.017 A 
HETATM   11  C4  UNL     1     -22.790  -2.931   7.846  1.00 20.00     0.007 A 
HETATM   12  C5  UNL     1     -23.225  -4.358   8.029  1.00 20.00     0.007 A 
ENDBRANCH   9  10
BRANCH   9  13
HETATM   13  C11 UNL     1     -23.203  -4.456  10.931  1.00 20.00     0.017 A 
HETATM   14  C6  UNL     1     -21.741  -4.722  11.160  1.00 20.00     0.007 A 
HETATM   15  C7  UNL     1     -22.654  -4.484  12.330  1.00 20.00     0.007 A 
ENDBRANCH   9  13
ENDBRANCH   6   9
TORSDOF 3
ENDMDL
MODEL 8
REMARK VINA RESULT:      -3.3     13.389     14.287
REMARK  3 active torsions:
REMARK  status: ('A' for Active; 'I' for Inactive)
REMARK    1  A    between atoms: C10_10  and  C12_12 
REMARK    2  A    between atoms: C11_11  and  C12_12 
REMARK    3  A    between atoms: C12_12  and  N13_13 
ROOT
HETATM    1  C1  UNL     1     -32.909  17.967  -2.284  1.00 20.00     0.130 C 
HETATM    2  C2  UNL     1     -32.958  16.562  -2.837  1.00 20.00     0.106 C 
HETATM    3  C3  UNL     1     -32.992  19.084  -3.296  1.00 20.00     0.106 C 
HETATM    4  C8  UNL     1     -34.120  16.403  -3.802  1.00 20.00     0.242 C 
HETATM    5  C9  UNL     1     -34.154  18.863  -4.249  1.00 20.00     0.242 C 
HETATM    6  N13 UNL     1     -34.051  17.483  -4.858  1.00 20.00    -0.065 N 
HETATM    7  O14 UNL     1     -32.708  18.186  -1.091  1.00 20.00    -0.298 OA
HETATM    8  H34 UNL     1     -33.132  17.413  -5.317  1.00 20.00     0.280 HD
ENDROOT
BRANCH   6   9
HETATM    9  C12 UNL     1     -35.081  17.274  -5.933  1.00 20.00     0.196 C 
BRANCH   9  10
HETATM   10  C10 UNL     1     -36.455  17.560  -5.347  1.00 20.00     0.017 A 
HETATM   11  C4  UNL     1     -37.651  17.689  -6.248  1.00 20.00     0.007 A 
HETATM   12  C5  UNL     1     -37.515  16.494  -5.346  1.00 20.00     0.007 A 
ENDBRANCH   9  10
BRANCH   9  13
HETATM   13  C11 UNL     1     -34.960  15.849  -6.448  1.00 20.00     0.017 A 
HETATM   14  C6  UNL     1     -35.086  15.561  -7.918  1.00 20.00     0.007 A 
HETATM   15  C7  UNL     1     -33.751  15.430  -7.237  1.00 20.00     0.007 A 
ENDBRANCH   9  13
ENDBRANCH   6   9
TORSDOF 3
ENDMDL
MODEL 9
REMARK VINA RESULT:      -3.3     21.177     23.612
REMARK  3 active torsions:
REMARK  status: ('A' for Active; 'I' for Inactive)
REMARK    1  A    between atoms: C10_10  and  C12_12 
REMARK    2  A    between atoms: C11_11  and  C12_12 
REMARK    3  A    between atoms: C12_12  and  N13_13 
ROOT
HETATM    1  C1  UNL     1     -27.791  -0.803  11.234  1.00 20.00     0.130 C 
HETATM    2  C2  UNL     1     -26.391  -0.338  11.558  1.00 20.00     0.106 C 
HETATM    3  C3  UNL     1     -27.921  -1.778  10.089  1.00 20.00     0.106 C 
HETATM    4  C8  UNL     1     -25.445  -1.521  11.676  1.00 20.00     0.242 C 
HETATM    5  C9  UNL     1     -26.939  -2.925  10.244  1.00 20.00     0.242 C 
HETATM    6  N13 UNL     1     -25.543  -2.372  10.431  1.00 20.00    -0.065 N 
HETATM    7  O14 UNL     1     -28.776  -0.333  11.801  1.00 20.00    -0.298 OA
HETATM    8  H34 UNL     1     -25.338  -1.768   9.623  1.00 20.00     0.280 HD
ENDROOT
BRANCH   6   9
HETATM    9  C12 UNL     1     -24.509  -3.464  10.422  1.00 20.00     0.196 C 
BRANCH   9  10
HETATM   10  C10 UNL     1     -24.074  -3.727  11.855  1.00 20.00     0.017 A 
HETATM   11  C4  UNL     1     -23.000  -4.737  12.147  1.00 20.00     0.007 A 
HETATM   12  C5  UNL     1     -22.723  -3.271  12.332  1.00 20.00     0.007 A 
ENDBRANCH   9  10
BRANCH   9  13
HETATM   13  C11 UNL     1     -23.352  -3.025   9.540  1.00 20.00     0.017 A 
HETATM   14  C6  UNL     1     -22.682  -4.010   8.623  1.00 20.00     0.007 A 
HETATM   15  C7  UNL     1     -23.535  -2.912   8.052  1.00 20.00     0.007 A 
ENDBRANCH   9  13
ENDBRANCH   6   9
TORSDOF 3
ENDMDL
