MODEL 1
REMARK VINA RESULT:      -4.1      0.000      0.000
REMARK  1 active torsions:
REMARK  status: ('A' for Active; 'I' for Inactive)
REMARK    1  A    between atoms: C2_2  and  C4_4 
ROOT
HETATM    1  C1  UNL     1     -33.818   6.864   6.528  1.00 20.00     0.095 A 
HETATM    2  C3  UNL     1     -34.586   5.587   6.334  1.00 20.00     0.122 A 
HETATM    3  C4  UNL     1     -33.969   7.019   4.290  1.00 20.00     0.255 A 
HETATM    4  N5  UNL     1     -33.473   7.621   5.533  1.00 20.00    -0.280 NA
HETATM    5  S7  UNL     1     -34.825   5.460   4.562  1.00 20.00    -0.128 SA
ENDROOT
BRANCH   3   6
HETATM    6  C2  UNL     1     -32.779   6.763   3.430  1.00 20.00     0.253 C 
HETATM    7  O6  UNL     1     -31.868   7.579   3.330  1.00 20.00    -0.277 OA
HETATM    8 CL8  UNL     1     -32.869   5.223   2.631  1.00 20.00    -0.041 Cl
ENDBRANCH   3   6
TORSDOF 1
ENDMDL
MODEL 2
REMARK VINA RESULT:      -3.9      2.791      3.397
REMARK  1 active torsions:
REMARK  status: ('A' for Active; 'I' for Inactive)
REMARK    1  A    between atoms: C2_2  and  C4_4 
ROOT
HETATM    1  C1  UNL     1     -32.209   6.927   3.062  1.00 20.00     0.095 A 
HETATM    2  C3  UNL     1     -32.200   8.039   4.074  1.00 20.00     0.122 A 
HETATM    3  C4  UNL     1     -34.160   6.376   4.035  1.00 20.00     0.255 A 
HETATM    4  N5  UNL     1     -33.167   6.056   3.002  1.00 20.00    -0.280 NA
HETATM    5  S7  UNL     1     -33.699   7.803   5.030  1.00 20.00    -0.128 SA
ENDROOT
BRANCH   3   6
HETATM    6  C2  UNL     1     -34.253   5.186   4.927  1.00 20.00     0.253 C 
HETATM    7  O6  UNL     1     -34.143   4.044   4.492  1.00 20.00    -0.277 OA
HETATM    8 CL8  UNL     1     -34.527   5.630   6.584  1.00 20.00    -0.041 Cl
ENDBRANCH   3   6
TORSDOF 1
ENDMDL
MODEL 3
REMARK VINA RESULT:      -3.8      2.080      2.189
REMARK  1 active torsions:
REMARK  status: ('A' for Active; 'I' for Inactive)
REMARK    1  A    between atoms: C2_2  and  C4_4 
ROOT
HETATM    1  C1  UNL     1     -33.135   7.815   5.205  1.00 20.00     0.095 A 
HETATM    2  C3  UNL     1     -33.606   7.351   6.556  1.00 20.00     0.122 A 
HETATM    3  C4  UNL     1     -34.437   6.149   4.440  1.00 20.00     0.255 A 
HETATM    4  N5  UNL     1     -33.515   7.241   4.106  1.00 20.00    -0.280 NA
HETATM    5  S7  UNL     1     -34.683   5.960   6.213  1.00 20.00    -0.128 SA
ENDROOT
BRANCH   3   6
HETATM    6  C2  UNL     1     -33.831   4.896   3.910  1.00 20.00     0.253 C 
HETATM    7  O6  UNL     1     -34.014   3.810   4.452  1.00 20.00    -0.277 OA
HETATM    8 CL8  UNL     1     -32.875   5.183   2.487  1.00 20.00    -0.041 Cl
ENDBRANCH   3   6
TORSDOF 1
ENDMDL
MODEL 4
REMARK VINA RESULT:      -3.5      2.560      3.403
REMARK  1 active torsions:
REMARK  status: ('A' for Active; 'I' for Inactive)
REMARK    1  A    between atoms: C2_2  and  C4_4 
ROOT
HETATM    1  C1  UNL     1     -32.925   5.772   2.910  1.00 20.00     0.095 A 
HETATM    2  C3  UNL     1     -32.083   7.016   2.841  1.00 20.00     0.122 A 
HETATM    3  C4  UNL     1     -34.064   6.913   4.477  1.00 20.00     0.255 A 
HETATM    4  N5  UNL     1     -33.930   5.662   3.721  1.00 20.00    -0.280 NA
HETATM    5  S7  UNL     1     -32.798   8.121   4.060  1.00 20.00    -0.128 SA
ENDROOT
BRANCH   3   6
HETATM    6  C2  UNL     1     -33.929   6.563   5.919  1.00 20.00     0.253 C 
HETATM    7  O6  UNL     1     -33.285   7.262   6.695  1.00 20.00    -0.277 OA
HETATM    8 CL8  UNL     1     -34.770   5.096   6.317  1.00 20.00    -0.041 Cl
ENDBRANCH   3   6
TORSDOF 1
ENDMDL
MODEL 5
REMARK VINA RESULT:      -3.5     13.074     13.851
REMARK  1 active torsions:
REMARK  status: ('A' for Active; 'I' for Inactive)
REMARK    1  A    between atoms: C2_2  and  C4_4 
ROOT
HETATM    1  C1  UNL     1     -35.338  15.371  -7.632  1.00 20.00     0.095 A 
HETATM    2  C3  UNL     1     -34.902  16.685  -7.045  1.00 20.00     0.122 A 
HETATM    3  C4  UNL     1     -36.081  14.956  -5.551  1.00 20.00     0.255 A 
HETATM    4  N5  UNL     1     -35.930  14.460  -6.924  1.00 20.00    -0.280 NA
HETATM    5  S7  UNL     1     -35.378  16.596  -5.318  1.00 20.00    -0.128 SA
ENDROOT
BRANCH   3   6
HETATM    6  C2  UNL     1     -35.360  14.000  -4.665  1.00 20.00     0.253 C 
HETATM    7  O6  UNL     1     -35.864  12.936  -4.319  1.00 20.00    -0.277 OA
HETATM    8 CL8  UNL     1     -33.787  14.584  -4.216  1.00 20.00    -0.041 Cl
ENDBRANCH   3   6
TORSDOF 1
ENDMDL
MODEL 6
REMARK VINA RESULT:      -3.2      9.566      9.766
REMARK  1 active torsions:
REMARK  status: ('A' for Active; 'I' for Inactive)
REMARK    1  A    between atoms: C2_2  and  C4_4 
ROOT
HETATM    1  C1  UNL     1     -43.209   5.585   1.844  1.00 20.00     0.095 A 
HETATM    2  C3  UNL     1     -43.417   4.416   0.921  1.00 20.00     0.122 A 
HETATM    3  C4  UNL     1     -42.553   6.645  -0.026  1.00 20.00     0.255 A 
HETATM    4  N5  UNL     1     -42.768   6.729   1.423  1.00 20.00    -0.280 NA
HETATM    5  S7  UNL     1     -42.925   5.017  -0.696  1.00 20.00    -0.128 SA
ENDROOT
BRANCH   3   6
HETATM    6  C2  UNL     1     -41.112   6.939  -0.266  1.00 20.00     0.253 C 
HETATM    7  O6  UNL     1     -40.330   6.070  -0.638  1.00 20.00    -0.277 OA
HETATM    8 CL8  UNL     1     -40.724   8.604   0.043  1.00 20.00    -0.041 Cl
ENDBRANCH   3   6
TORSDOF 1
ENDMDL
MODEL 7
REMARK VINA RESULT:      -3.2     12.980     13.348
REMARK  1 active torsions:
REMARK  status: ('A' for Active; 'I' for Inactive)
REMARK    1  A    between atoms: C2_2  and  C4_4 
ROOT
HETATM    1  C1  UNL     1     -30.954  18.583   0.459  1.00 20.00     0.095 A 
HETATM    2  C3  UNL     1     -32.144  18.509   1.375  1.00 20.00     0.122 A 
HETATM    3  C4  UNL     1     -32.463  19.263  -1.063  1.00 20.00     0.255 A 
HETATM    4  N5  UNL     1     -31.057  18.949  -0.781  1.00 20.00    -0.280 NA
HETATM    5  S7  UNL     1     -33.537  18.999   0.358  1.00 20.00    -0.128 SA
ENDROOT
BRANCH   3   6
HETATM    6  C2  UNL     1     -32.897  18.353  -2.160  1.00 20.00     0.253 C 
HETATM    7  O6  UNL     1     -32.710  18.631  -3.340  1.00 20.00    -0.277 OA
HETATM    8 CL8  UNL     1     -33.666  16.918  -1.554  1.00 20.00    -0.041 Cl
ENDBRANCH   3   6
TORSDOF 1
ENDMDL
MODEL 8
REMARK VINA RESULT:      -3.2     13.165     13.955
REMARK  1 active torsions:
REMARK  status: ('A' for Active; 'I' for Inactive)
REMARK    1  A    between atoms: C2_2  and  C4_4 
ROOT
HETATM    1  C1  UNL     1     -34.374  15.844  -7.313  1.00 20.00     0.095 A 
HETATM    2  C3  UNL     1     -34.540  17.285  -6.918  1.00 20.00     0.122 A 
HETATM    3  C4  UNL     1     -34.839  15.441  -5.151  1.00 20.00     0.255 A 
HETATM    4  N5  UNL     1     -34.505  14.874  -6.463  1.00 20.00    -0.280 NA
HETATM    5  S7  UNL     1     -34.908  17.240  -5.163  1.00 20.00    -0.128 SA
ENDROOT
BRANCH   3   6
HETATM    6  C2  UNL     1     -33.765  15.014  -4.211  1.00 20.00     0.253 C 
HETATM    7  O6  UNL     1     -33.212  13.924  -4.315  1.00 20.00    -0.277 OA
HETATM    8 CL8  UNL     1     -33.431  16.223  -3.008  1.00 20.00    -0.041 Cl
ENDBRANCH   3   6
TORSDOF 1
ENDMDL
MODEL 9
REMARK VINA RESULT:      -3.2     13.012     13.421
REMARK  1 active torsions:
REMARK  status: ('A' for Active; 'I' for Inactive)
REMARK    1  A    between atoms: C2_2  and  C4_4 
ROOT
HETATM    1  C1  UNL     1     -33.395  15.640  -3.789  1.00 20.00     0.095 A 
HETATM    2  C3  UNL     1     -34.015  17.006  -3.892  1.00 20.00     0.122 A 
HETATM    3  C4  UNL     1     -34.293  15.336  -5.828  1.00 20.00     0.255 A 
HETATM    4  N5  UNL     1     -33.510  14.755  -4.730  1.00 20.00    -0.280 NA
HETATM    5  S7  UNL     1     -34.845  17.013  -5.482  1.00 20.00    -0.128 SA
ENDROOT
BRANCH   3   6
HETATM    6  C2  UNL     1     -35.492  14.469  -6.007  1.00 20.00     0.253 C 
HETATM    7  O6  UNL     1     -36.074  14.388  -7.084  1.00 20.00    -0.277 OA
HETATM    8 CL8  UNL     1     -35.923  13.638  -4.543  1.00 20.00    -0.041 Cl
ENDBRANCH   3   6
TORSDOF 1
ENDMDL
