MODEL 1
REMARK VINA RESULT:      -4.1      0.000      0.000
REMARK  2 active torsions:
REMARK  status: ('A' for Active; 'I' for Inactive)
REMARK    1  A    between atoms: C4_4  and  C5_5 
REMARK    2  A    between atoms: C5_5  and  C6_6 
ROOT
HETATM    1  C1  UNL     1     -34.006   5.905   4.217  1.00 20.00     0.033 C 
HETATM    2  C2  UNL     1     -34.869   5.144   5.201  1.00 20.00     0.168 C 
HETATM    3  C3  UNL     1     -33.919   6.958   6.311  1.00 20.00     0.172 C 
HETATM    4  C4  UNL     1     -33.989   7.288   4.830  1.00 20.00     0.012 C 
HETATM    5  O7  UNL     1     -34.652   5.736   6.490  1.00 20.00    -0.391 OA
ENDROOT
BRANCH   4   6
HETATM    6  C5  UNL     1     -32.853   8.169   4.345  1.00 20.00     0.017 C 
BRANCH   6   7
HETATM    7  C6  UNL     1     -32.087   7.507   3.212  1.00 20.00     0.085 C 
HETATM    8 BR8  UNL     1     -32.374   8.489   1.555  1.00 20.00    -0.096 Br
ENDBRANCH   6   7
ENDBRANCH   4   6
TORSDOF 2
ENDMDL
MODEL 2
REMARK VINA RESULT:      -4.1      1.050      1.582
REMARK  2 active torsions:
REMARK  status: ('A' for Active; 'I' for Inactive)
REMARK    1  A    between atoms: C4_4  and  C5_5 
REMARK    2  A    between atoms: C5_5  and  C6_6 
ROOT
HETATM    1  C1  UNL     1     -34.327   6.584   6.472  1.00 20.00     0.033 C 
HETATM    2  C2  UNL     1     -34.601   5.095   6.469  1.00 20.00     0.168 C 
HETATM    3  C3  UNL     1     -34.428   5.813   4.260  1.00 20.00     0.172 C 
HETATM    4  C4  UNL     1     -33.643   6.773   5.136  1.00 20.00     0.012 C 
HETATM    5  O7  UNL     1     -34.810   4.714   5.102  1.00 20.00    -0.391 OA
ENDROOT
BRANCH   4   6
HETATM    6  C5  UNL     1     -33.646   8.203   4.632  1.00 20.00     0.017 C 
BRANCH   6   7
HETATM    7  C6  UNL     1     -32.303   8.581   4.030  1.00 20.00     0.085 C 
HETATM    8 BR8  UNL     1     -32.165   7.876   2.221  1.00 20.00    -0.096 Br
ENDBRANCH   6   7
ENDBRANCH   4   6
TORSDOF 2
ENDMDL
MODEL 3
REMARK VINA RESULT:      -3.4     12.333     13.037
REMARK  2 active torsions:
REMARK  status: ('A' for Active; 'I' for Inactive)
REMARK    1  A    between atoms: C4_4  and  C5_5 
REMARK    2  A    between atoms: C5_5  and  C6_6 
ROOT
HETATM    1  C1  UNL     1     -33.646  14.997  -3.847  1.00 20.00     0.033 C 
HETATM    2  C2  UNL     1     -33.973  14.992  -5.325  1.00 20.00     0.168 C 
HETATM    3  C3  UNL     1     -34.328  17.143  -4.504  1.00 20.00     0.172 C 
HETATM    4  C4  UNL     1     -33.310  16.454  -3.612  1.00 20.00     0.012 C 
HETATM    5  O7  UNL     1     -34.532  16.277  -5.631  1.00 20.00    -0.391 OA
ENDROOT
BRANCH   4   6
HETATM    6  C5  UNL     1     -33.380  16.882  -2.159  1.00 20.00     0.017 C 
BRANCH   6   7
HETATM    7  C6  UNL     1     -32.968  18.335  -1.990  1.00 20.00     0.085 C 
HETATM    8 BR8  UNL     1     -31.696  18.499  -0.526  1.00 20.00    -0.096 Br
ENDBRANCH   6   7
ENDBRANCH   4   6
TORSDOF 2
ENDMDL
MODEL 4
REMARK VINA RESULT:      -3.3      2.898      3.984
REMARK  2 active torsions:
REMARK  status: ('A' for Active; 'I' for Inactive)
REMARK    1  A    between atoms: C4_4  and  C5_5 
REMARK    2  A    between atoms: C5_5  and  C6_6 
ROOT
HETATM    1  C1  UNL     1     -32.630   9.044   4.157  1.00 20.00     0.033 C 
HETATM    2  C2  UNL     1     -32.457   8.991   2.654  1.00 20.00     0.168 C 
HETATM    3  C3  UNL     1     -32.545   6.807   3.458  1.00 20.00     0.172 C 
HETATM    4  C4  UNL     1     -33.278   7.705   4.439  1.00 20.00     0.012 C 
HETATM    5  O7  UNL     1     -32.252   7.614   2.307  1.00 20.00    -0.391 OA
ENDROOT
BRANCH   4   6
HETATM    6  C5  UNL     1     -33.169   7.254   5.882  1.00 20.00     0.017 C 
BRANCH   6   7
HETATM    7  C6  UNL     1     -34.445   6.570   6.345  1.00 20.00     0.085 C 
HETATM    8 BR8  UNL     1     -34.858   5.073   5.171  1.00 20.00    -0.096 Br
ENDBRANCH   6   7
ENDBRANCH   4   6
TORSDOF 2
ENDMDL
MODEL 5
REMARK VINA RESULT:      -3.3      3.177      4.072
REMARK  2 active torsions:
REMARK  status: ('A' for Active; 'I' for Inactive)
REMARK    1  A    between atoms: C4_4  and  C5_5 
REMARK    2  A    between atoms: C5_5  and  C6_6 
ROOT
HETATM    1  C1  UNL     1     -32.467   6.965   3.039  1.00 20.00     0.033 C 
HETATM    2  C2  UNL     1     -32.079   7.740   1.798  1.00 20.00     0.168 C 
HETATM    3  C3  UNL     1     -32.897   9.245   3.377  1.00 20.00     0.172 C 
HETATM    4  C4  UNL     1     -32.362   8.029   4.111  1.00 20.00     0.012 C 
HETATM    5  O7  UNL     1     -32.510   9.094   2.002  1.00 20.00    -0.391 OA
ENDROOT
BRANCH   4   6
HETATM    6  C5  UNL     1     -33.116   7.702   5.386  1.00 20.00     0.017 C 
BRANCH   6   7
HETATM    7  C6  UNL     1     -34.387   6.923   5.092  1.00 20.00     0.085 C 
HETATM    8 BR8  UNL     1     -34.517   5.389   6.284  1.00 20.00    -0.096 Br
ENDBRANCH   6   7
ENDBRANCH   4   6
TORSDOF 2
ENDMDL
MODEL 6
REMARK VINA RESULT:      -3.3     12.365     12.886
REMARK  2 active torsions:
REMARK  status: ('A' for Active; 'I' for Inactive)
REMARK    1  A    between atoms: C4_4  and  C5_5 
REMARK    2  A    between atoms: C5_5  and  C6_6 
ROOT
HETATM    1  C1  UNL     1     -32.505  18.553   1.184  1.00 20.00     0.033 C 
HETATM    2  C2  UNL     1     -31.173  19.263   1.295  1.00 20.00     0.168 C 
HETATM    3  C3  UNL     1     -31.415  18.497  -0.892  1.00 20.00     0.172 C 
HETATM    4  C4  UNL     1     -32.799  18.681  -0.295  1.00 20.00     0.012 C 
HETATM    5  O7  UNL     1     -30.488  19.059   0.050  1.00 20.00    -0.391 OA
ENDROOT
BRANCH   4   6
HETATM    6  C5  UNL     1     -33.825  17.691  -0.813  1.00 20.00     0.017 C 
BRANCH   6   7
HETATM    7  C6  UNL     1     -34.034  17.845  -2.310  1.00 20.00     0.085 C 
HETATM    8 BR8  UNL     1     -33.412  16.248  -3.234  1.00 20.00    -0.096 Br
ENDBRANCH   6   7
ENDBRANCH   4   6
TORSDOF 2
ENDMDL
MODEL 7
REMARK VINA RESULT:      -3.2     12.260     13.266
REMARK  2 active torsions:
REMARK  status: ('A' for Active; 'I' for Inactive)
REMARK    1  A    between atoms: C4_4  and  C5_5 
REMARK    2  A    between atoms: C5_5  and  C6_6 
ROOT
HETATM    1  C1  UNL     1     -34.193  15.433  -6.466  1.00 20.00     0.033 C 
HETATM    2  C2  UNL     1     -35.369  15.360  -7.416  1.00 20.00     0.168 C 
HETATM    3  C3  UNL     1     -35.968  14.304  -5.428  1.00 20.00     0.172 C 
HETATM    4  C4  UNL     1     -34.878  15.316  -5.121  1.00 20.00     0.012 C 
HETATM    5  O7  UNL     1     -36.357  14.527  -6.792  1.00 20.00    -0.391 OA
ENDROOT
BRANCH   4   6
HETATM    6  C5  UNL     1     -33.958  14.900  -3.989  1.00 20.00     0.017 C 
BRANCH   6   7
HETATM    7  C6  UNL     1     -32.945  15.988  -3.672  1.00 20.00     0.085 C 
HETATM    8 BR8  UNL     1     -33.494  16.962  -2.079  1.00 20.00    -0.096 Br
ENDBRANCH   6   7
ENDBRANCH   4   6
TORSDOF 2
ENDMDL
MODEL 8
REMARK VINA RESULT:      -3.2     12.466     13.148
REMARK  2 active torsions:
REMARK  status: ('A' for Active; 'I' for Inactive)
REMARK    1  A    between atoms: C4_4  and  C5_5 
REMARK    2  A    between atoms: C5_5  and  C6_6 
ROOT
HETATM    1  C1  UNL     1     -33.541  17.135  -1.563  1.00 20.00     0.033 C 
HETATM    2  C2  UNL     1     -33.421  16.650  -2.992  1.00 20.00     0.168 C 
HETATM    3  C3  UNL     1     -32.776  18.887  -2.921  1.00 20.00     0.172 C 
HETATM    4  C4  UNL     1     -32.555  18.284  -1.545  1.00 20.00     0.012 C 
HETATM    5  O7  UNL     1     -33.107  17.797  -3.795  1.00 20.00    -0.391 OA
ENDROOT
BRANCH   4   6
HETATM    6  C5  UNL     1     -32.763  19.263  -0.406  1.00 20.00     0.017 C 
BRANCH   6   7
HETATM    7  C6  UNL     1     -32.688  18.566   0.942  1.00 20.00     0.085 C 
HETATM    8 BR8  UNL     1     -30.837  18.473   1.538  1.00 20.00    -0.096 Br
ENDBRANCH   6   7
ENDBRANCH   4   6
TORSDOF 2
ENDMDL
MODEL 9
REMARK VINA RESULT:      -3.0      2.920      3.871
REMARK  2 active torsions:
REMARK  status: ('A' for Active; 'I' for Inactive)
REMARK    1  A    between atoms: C4_4  and  C5_5 
REMARK    2  A    between atoms: C5_5  and  C6_6 
ROOT
HETATM    1  C1  UNL     1     -33.619   8.172   5.255  1.00 20.00     0.033 C 
HETATM    2  C2  UNL     1     -32.291   8.779   4.856  1.00 20.00     0.168 C 
HETATM    3  C3  UNL     1     -32.701   6.942   3.483  1.00 20.00     0.172 C 
HETATM    4  C4  UNL     1     -34.034   7.472   3.979  1.00 20.00     0.012 C 
HETATM    5  O7  UNL     1     -31.707   7.898   3.885  1.00 20.00    -0.391 OA
ENDROOT
BRANCH   4   6
HETATM    6  C5  UNL     1     -35.087   6.398   4.173  1.00 20.00     0.017 C 
BRANCH   6   7
HETATM    7  C6  UNL     1     -34.468   5.101   4.667  1.00 20.00     0.085 C 
HETATM    8 BR8  UNL     1     -34.430   5.084   6.614  1.00 20.00    -0.096 Br
ENDBRANCH   6   7
ENDBRANCH   4   6
TORSDOF 2
ENDMDL
