MODEL 1
REMARK VINA RESULT:      -4.3      0.000      0.000
REMARK  2 active torsions:
REMARK  status: ('A' for Active; 'I' for Inactive)
REMARK    1  A    between atoms: C2_2  and  C6_6 
REMARK       I    between atoms: C2_2  and  N7_7 
REMARK    2  A    between atoms: C5_5  and  C6_6 
ROOT
HETATM    1  C1  UNL     1     -32.291   7.828   2.353  1.00 20.00     0.166 C 
HETATM    2  C2  UNL     1     -32.656   8.182   4.487  1.00 20.00     0.244 C 
HETATM    3  N7  UNL     1     -32.450   7.342   3.409  1.00 20.00    -0.199 NA
HETATM    4  O8  UNL     1     -32.214   9.323   4.619  1.00 20.00    -0.271 OA
HETATM    5  S9  UNL     1     -32.071   8.453   0.903  1.00 20.00    -0.055 SA
ENDROOT
BRANCH   2   6
HETATM    6  C6  UNL     1     -33.526   7.536   5.552  1.00 20.00     0.109 C 
BRANCH   6   7
HETATM    7  C5  UNL     1     -33.873   6.114   5.274  1.00 20.00    -0.006 A 
HETATM    8  C3  UNL     1     -34.766   5.354   6.215  1.00 20.00     0.005 A 
HETATM    9  C4  UNL     1     -35.268   5.744   4.853  1.00 20.00     0.005 A 
ENDBRANCH   6   7
ENDBRANCH   2   6
TORSDOF 2
ENDMDL
MODEL 2
REMARK VINA RESULT:      -4.0     11.943     12.346
REMARK  2 active torsions:
REMARK  status: ('A' for Active; 'I' for Inactive)
REMARK    1  A    between atoms: C2_2  and  C6_6 
REMARK       I    between atoms: C2_2  and  N7_7 
REMARK    2  A    between atoms: C5_5  and  C6_6 
ROOT
HETATM    1  C1  UNL     1     -30.778  18.896   2.184  1.00 20.00     0.166 C 
HETATM    2  C2  UNL     1     -31.607  18.624   0.171  1.00 20.00     0.244 C 
HETATM    3  N7  UNL     1     -31.725  18.993   1.498  1.00 20.00    -0.199 NA
HETATM    4  O8  UNL     1     -30.589  18.688  -0.517  1.00 20.00    -0.271 OA
HETATM    5  S9  UNL     1     -29.513  18.778   3.147  1.00 20.00    -0.055 SA
ENDROOT
BRANCH   2   6
HETATM    6  C6  UNL     1     -32.919  18.101  -0.392  1.00 20.00     0.109 C 
BRANCH   6   7
HETATM    7  C5  UNL     1     -32.896  17.859  -1.861  1.00 20.00    -0.006 A 
HETATM    8  C3  UNL     1     -33.424  16.569  -2.424  1.00 20.00     0.005 A 
HETATM    9  C4  UNL     1     -34.178  17.850  -2.646  1.00 20.00     0.005 A 
ENDBRANCH   6   7
ENDBRANCH   2   6
TORSDOF 2
ENDMDL
MODEL 3
REMARK VINA RESULT:      -3.9      9.950     10.425
REMARK  2 active torsions:
REMARK  status: ('A' for Active; 'I' for Inactive)
REMARK    1  A    between atoms: C2_2  and  C6_6 
REMARK       I    between atoms: C2_2  and  N7_7 
REMARK    2  A    between atoms: C5_5  and  C6_6 
ROOT
HETATM    1  C1  UNL     1     -40.398  14.429   8.978  1.00 20.00     0.166 C 
HETATM    2  C2  UNL     1     -41.137  13.218   7.304  1.00 20.00     0.244 C 
HETATM    3  N7  UNL     1     -40.112  13.767   8.052  1.00 20.00    -0.199 NA
HETATM    4  O8  UNL     1     -42.249  12.892   7.719  1.00 20.00    -0.271 OA
HETATM    5  S9  UNL     1     -40.747  15.332  10.243  1.00 20.00    -0.055 SA
ENDROOT
BRANCH   2   6
HETATM    6  C6  UNL     1     -40.747  13.044   5.846  1.00 20.00     0.109 C 
BRANCH   6   7
HETATM    7  C5  UNL     1     -39.884  11.859   5.584  1.00 20.00    -0.006 A 
HETATM    8  C3  UNL     1     -39.247  11.668   4.236  1.00 20.00     0.005 A 
HETATM    9  C4  UNL     1     -38.398  12.025   5.424  1.00 20.00     0.005 A 
ENDBRANCH   6   7
ENDBRANCH   2   6
TORSDOF 2
ENDMDL
MODEL 4
REMARK VINA RESULT:      -3.8     10.116     10.541
REMARK  2 active torsions:
REMARK  status: ('A' for Active; 'I' for Inactive)
REMARK    1  A    between atoms: C2_2  and  C6_6 
REMARK       I    between atoms: C2_2  and  N7_7 
REMARK    2  A    between atoms: C5_5  and  C6_6 
ROOT
HETATM    1  C1  UNL     1     -40.649  15.654   7.966  1.00 20.00     0.166 C 
HETATM    2  C2  UNL     1     -40.937  13.666   7.084  1.00 20.00     0.244 C 
HETATM    3  N7  UNL     1     -40.273  14.875   7.174  1.00 20.00    -0.199 NA
HETATM    4  O8  UNL     1     -41.513  13.079   8.000  1.00 20.00    -0.271 OA
HETATM    5  S9  UNL     1     -41.132  16.737   9.032  1.00 20.00    -0.055 SA
ENDROOT
BRANCH   2   6
HETATM    6  C6  UNL     1     -40.892  13.097   5.675  1.00 20.00     0.109 C 
BRANCH   6   7
HETATM    7  C5  UNL     1     -40.019  11.898   5.532  1.00 20.00    -0.006 A 
HETATM    8  C3  UNL     1     -39.232  11.680   4.269  1.00 20.00     0.005 A 
HETATM    9  C4  UNL     1     -38.523  12.045   5.544  1.00 20.00     0.005 A 
ENDBRANCH   6   7
ENDBRANCH   2   6
TORSDOF 2
ENDMDL
MODEL 5
REMARK VINA RESULT:      -3.8     12.223     12.582
REMARK  2 active torsions:
REMARK  status: ('A' for Active; 'I' for Inactive)
REMARK    1  A    between atoms: C2_2  and  C6_6 
REMARK       I    between atoms: C2_2  and  N7_7 
REMARK    2  A    between atoms: C5_5  and  C6_6 
ROOT
HETATM    1  C1  UNL     1     -27.922  18.730   4.738  1.00 20.00     0.166 C 
HETATM    2  C2  UNL     1     -29.685  18.890   3.443  1.00 20.00     0.244 C 
HETATM    3  N7  UNL     1     -28.372  18.524   3.675  1.00 20.00    -0.199 NA
HETATM    4  O8  UNL     1     -30.590  18.928   4.276  1.00 20.00    -0.271 OA
HETATM    5  S9  UNL     1     -27.275  18.993   6.172  1.00 20.00    -0.055 SA
ENDROOT
BRANCH   2   6
HETATM    6  C6  UNL     1     -29.922  19.262   1.988  1.00 20.00     0.109 C 
BRANCH   6   7
HETATM    7  C5  UNL     1     -30.816  18.321   1.258  1.00 20.00    -0.006 A 
HETATM    8  C3  UNL     1     -32.225  18.723   0.921  1.00 20.00     0.005 A 
HETATM    9  C4  UNL     1     -31.198  18.596  -0.170  1.00 20.00     0.005 A 
ENDBRANCH   6   7
ENDBRANCH   2   6
TORSDOF 2
ENDMDL
MODEL 6
REMARK VINA RESULT:      -3.8     11.886     12.276
REMARK  2 active torsions:
REMARK  status: ('A' for Active; 'I' for Inactive)
REMARK    1  A    between atoms: C2_2  and  C6_6 
REMARK       I    between atoms: C2_2  and  N7_7 
REMARK    2  A    between atoms: C5_5  and  C6_6 
ROOT
HETATM    1  C1  UNL     1     -32.061  18.548   1.221  1.00 20.00     0.166 C 
HETATM    2  C2  UNL     1     -32.649  18.241  -0.870  1.00 20.00     0.244 C 
HETATM    3  N7  UNL     1     -32.938  18.303   0.480  1.00 20.00    -0.199 NA
HETATM    4  O8  UNL     1     -31.773  18.874  -1.459  1.00 20.00    -0.271 OA
HETATM    5  S9  UNL     1     -30.897  18.878   2.258  1.00 20.00    -0.055 SA
ENDROOT
BRANCH   2   6
HETATM    6  C6  UNL     1     -33.559  17.268  -1.602  1.00 20.00     0.109 C 
BRANCH   6   7
HETATM    7  C5  UNL     1     -33.091  16.910  -2.970  1.00 20.00    -0.006 A 
HETATM    8  C3  UNL     1     -33.516  15.613  -3.600  1.00 20.00     0.005 A 
HETATM    9  C4  UNL     1     -34.054  16.915  -4.124  1.00 20.00     0.005 A 
ENDBRANCH   6   7
ENDBRANCH   2   6
TORSDOF 2
ENDMDL
MODEL 7
REMARK VINA RESULT:      -3.7     11.900     12.288
REMARK  2 active torsions:
REMARK  status: ('A' for Active; 'I' for Inactive)
REMARK    1  A    between atoms: C2_2  and  C6_6 
REMARK       I    between atoms: C2_2  and  N7_7 
REMARK    2  A    between atoms: C5_5  and  C6_6 
ROOT
HETATM    1  C1  UNL     1     -33.904  15.491  -4.580  1.00 20.00     0.166 C 
HETATM    2  C2  UNL     1     -33.324  16.988  -3.085  1.00 20.00     0.244 C 
HETATM    3  N7  UNL     1     -33.507  15.680  -3.492  1.00 20.00    -0.199 NA
HETATM    4  O8  UNL     1     -33.032  17.943  -3.805  1.00 20.00    -0.271 OA
HETATM    5  S9  UNL     1     -34.442  15.195  -6.051  1.00 20.00    -0.055 SA
ENDROOT
BRANCH   2   6
HETATM    6  C6  UNL     1     -33.530  17.151  -1.588  1.00 20.00     0.109 C 
BRANCH   6   7
HETATM    7  C5  UNL     1     -32.964  18.411  -1.030  1.00 20.00    -0.006 A 
HETATM    8  C3  UNL     1     -32.686  18.529   0.443  1.00 20.00     0.005 A 
HETATM    9  C4  UNL     1     -31.546  18.447  -0.533  1.00 20.00     0.005 A 
ENDBRANCH   6   7
ENDBRANCH   2   6
TORSDOF 2
ENDMDL
MODEL 8
REMARK VINA RESULT:      -3.6     11.977     12.511
REMARK  2 active torsions:
REMARK  status: ('A' for Active; 'I' for Inactive)
REMARK    1  A    between atoms: C2_2  and  C6_6 
REMARK       I    between atoms: C2_2  and  N7_7 
REMARK    2  A    between atoms: C5_5  and  C6_6 
ROOT
HETATM    1  C1  UNL     1     -34.848  15.988  -6.085  1.00 20.00     0.166 C 
HETATM    2  C2  UNL     1     -33.912  15.379  -4.196  1.00 20.00     0.244 C 
HETATM    3  N7  UNL     1     -34.575  16.299  -4.986  1.00 20.00    -0.199 NA
HETATM    4  O8  UNL     1     -34.002  14.153  -4.269  1.00 20.00    -0.271 OA
HETATM    5  S9  UNL     1     -35.235  15.601  -7.582  1.00 20.00    -0.055 SA
ENDROOT
BRANCH   2   6
HETATM    6  C6  UNL     1     -33.011  16.053  -3.174  1.00 20.00     0.109 C 
BRANCH   6   7
HETATM    7  C5  UNL     1     -33.596  17.278  -2.562  1.00 20.00    -0.006 A 
HETATM    8  C3  UNL     1     -33.705  17.402  -1.068  1.00 20.00     0.005 A 
HETATM    9  C4  UNL     1     -32.718  18.249  -1.823  1.00 20.00     0.005 A 
ENDBRANCH   6   7
ENDBRANCH   2   6
TORSDOF 2
ENDMDL
MODEL 9
REMARK VINA RESULT:      -3.5     11.942     12.376
REMARK  2 active torsions:
REMARK  status: ('A' for Active; 'I' for Inactive)
REMARK    1  A    between atoms: C2_2  and  C6_6 
REMARK       I    between atoms: C2_2  and  N7_7 
REMARK    2  A    between atoms: C5_5  and  C6_6 
ROOT
HETATM    1  C1  UNL     1     -32.198  18.604  -1.459  1.00 20.00     0.166 C 
HETATM    2  C2  UNL     1     -31.712  18.699   0.678  1.00 20.00     0.244 C 
HETATM    3  N7  UNL     1     -31.350  18.715  -0.656  1.00 20.00    -0.199 NA
HETATM    4  O8  UNL     1     -32.782  19.085   1.149  1.00 20.00    -0.271 OA
HETATM    5  S9  UNL     1     -33.323  18.457  -2.579  1.00 20.00    -0.055 SA
ENDROOT
BRANCH   2   6
HETATM    6  C6  UNL     1     -30.612  18.130   1.558  1.00 20.00     0.109 C 
BRANCH   6   7
HETATM    7  C5  UNL     1     -29.984  19.127   2.469  1.00 20.00    -0.006 A 
HETATM    8  C3  UNL     1     -30.304  19.119   3.938  1.00 20.00     0.005 A 
HETATM    9  C4  UNL     1     -28.942  18.695   3.463  1.00 20.00     0.005 A 
ENDBRANCH   6   7
ENDBRANCH   2   6
TORSDOF 2
ENDMDL
