MODEL 1
REMARK VINA RESULT:      -4.3      0.000      0.000
REMARK  2 active torsions:
REMARK  status: ('A' for Active; 'I' for Inactive)
REMARK    1  A    between atoms: C4_4  and  C8_8 
REMARK    2  A    between atoms: C8_8  and  C9_9 
ROOT
HETATM    1  C1  UNL     1     -34.120   5.311   6.693  1.00 20.00     0.002 C 
HETATM    2  C2  UNL     1     -33.670   6.722   6.296  1.00 20.00     0.006 C 
HETATM    3  C3  UNL     1     -35.185   4.898   5.677  1.00 20.00     0.020 C 
HETATM    4  C4  UNL     1     -34.583   7.130   5.136  1.00 20.00     0.004 C 
HETATM    5  C5  UNL     1     -34.952   5.799   4.468  1.00 20.00     0.086 C 
HETATM    6 CL10 UNL     1     -33.642   5.133   3.451  1.00 20.00    -0.125 Cl
ENDROOT
BRANCH   4   7
HETATM    7  C8  UNL     1     -33.975   8.192   4.233  1.00 20.00     0.010 C 
BRANCH   7   8
HETATM    8  C9  UNL     1     -32.436   8.158   4.192  1.00 20.00    -0.022 C 
HETATM    9  C6  UNL     1     -31.895   8.032   2.767  1.00 20.00     0.009 C 
HETATM   10  C7  UNL     1     -31.870   9.418   4.850  1.00 20.00     0.009 C 
ENDBRANCH   7   8
ENDBRANCH   4   7
TORSDOF 2
ENDMDL
MODEL 2
REMARK VINA RESULT:      -4.2      1.082      1.681
REMARK  2 active torsions:
REMARK  status: ('A' for Active; 'I' for Inactive)
REMARK    1  A    between atoms: C4_4  and  C8_8 
REMARK    2  A    between atoms: C8_8  and  C9_9 
ROOT
HETATM    1  C1  UNL     1     -34.359   5.930   6.398  1.00 20.00     0.002 C 
HETATM    2  C2  UNL     1     -33.380   7.061   6.064  1.00 20.00     0.006 C 
HETATM    3  C3  UNL     1     -35.195   5.701   5.139  1.00 20.00     0.020 C 
HETATM    4  C4  UNL     1     -33.768   7.537   4.661  1.00 20.00     0.004 C 
HETATM    5  C5  UNL     1     -34.368   6.289   4.000  1.00 20.00     0.086 C 
HETATM    6 CL10 UNL     1     -33.135   5.111   3.465  1.00 20.00    -0.125 Cl
ENDROOT
BRANCH   4   7
HETATM    7  C8  UNL     1     -32.627   8.212   3.915  1.00 20.00     0.010 C 
BRANCH   7   8
HETATM    8  C9  UNL     1     -32.955   8.532   2.445  1.00 20.00    -0.022 C 
HETATM    9  C6  UNL     1     -32.969  10.037   2.167  1.00 20.00     0.009 C 
HETATM   10  C7  UNL     1     -31.945   7.845   1.525  1.00 20.00     0.009 C 
ENDBRANCH   7   8
ENDBRANCH   4   7
TORSDOF 2
ENDMDL
MODEL 3
REMARK VINA RESULT:      -3.8      9.626     10.401
REMARK  2 active torsions:
REMARK  status: ('A' for Active; 'I' for Inactive)
REMARK    1  A    between atoms: C4_4  and  C8_8 
REMARK    2  A    between atoms: C8_8  and  C9_9 
ROOT
HETATM    1  C1  UNL     1     -43.213  13.390   8.071  1.00 20.00     0.002 C 
HETATM    2  C2  UNL     1     -42.538  12.520   7.004  1.00 20.00     0.006 C 
HETATM    3  C3  UNL     1     -42.393  14.678   8.155  1.00 20.00     0.020 C 
HETATM    4  C4  UNL     1     -41.273  13.281   6.596  1.00 20.00     0.004 C 
HETATM    5  C5  UNL     1     -41.634  14.753   6.834  1.00 20.00     0.086 C 
HETATM    6 CL10 UNL     1     -42.685  15.438   5.561  1.00 20.00    -0.125 Cl
ENDROOT
BRANCH   4   7
HETATM    7  C8  UNL     1     -40.778  12.925   5.203  1.00 20.00     0.010 C 
BRANCH   7   8
HETATM    8  C9  UNL     1     -39.713  11.814   5.192  1.00 20.00    -0.022 C 
HETATM    9  C6  UNL     1     -38.956  11.747   3.864  1.00 20.00     0.009 C 
HETATM   10  C7  UNL     1     -38.725  12.027   6.340  1.00 20.00     0.009 C 
ENDBRANCH   7   8
ENDBRANCH   4   7
TORSDOF 2
ENDMDL
MODEL 4
REMARK VINA RESULT:      -3.7      1.863      4.246
REMARK  2 active torsions:
REMARK  status: ('A' for Active; 'I' for Inactive)
REMARK    1  A    between atoms: C4_4  and  C8_8 
REMARK    2  A    between atoms: C8_8  and  C9_9 
ROOT
HETATM    1  C1  UNL     1     -32.037   7.693   2.312  1.00 20.00     0.002 C 
HETATM    2  C2  UNL     1     -32.509   6.787   3.455  1.00 20.00     0.006 C 
HETATM    3  C3  UNL     1     -32.720   9.044   2.526  1.00 20.00     0.020 C 
HETATM    4  C4  UNL     1     -33.552   7.606   4.222  1.00 20.00     0.004 C 
HETATM    5  C5  UNL     1     -33.117   9.061   3.998  1.00 20.00     0.086 C 
HETATM    6 CL10 UNL     1     -31.721   9.543   5.004  1.00 20.00    -0.125 Cl
ENDROOT
BRANCH   4   7
HETATM    7  C8  UNL     1     -33.719   7.168   5.669  1.00 20.00     0.010 C 
BRANCH   7   8
HETATM    8  C9  UNL     1     -34.816   6.106   5.868  1.00 20.00    -0.022 C 
HETATM    9  C6  UNL     1     -35.515   5.739   4.558  1.00 20.00     0.009 C 
HETATM   10  C7  UNL     1     -34.215   4.851   6.503  1.00 20.00     0.009 C 
ENDBRANCH   7   8
ENDBRANCH   4   7
TORSDOF 2
ENDMDL
MODEL 5
REMARK VINA RESULT:      -3.7     12.015     13.244
REMARK  2 active torsions:
REMARK  status: ('A' for Active; 'I' for Inactive)
REMARK    1  A    between atoms: C4_4  and  C8_8 
REMARK    2  A    between atoms: C8_8  and  C9_9 
ROOT
HETATM    1  C1  UNL     1     -35.344  16.594  -5.911  1.00 20.00     0.002 C 
HETATM    2  C2  UNL     1     -34.989  17.168  -4.535  1.00 20.00     0.006 C 
HETATM    3  C3  UNL     1     -34.286  15.534  -6.219  1.00 20.00     0.020 C 
HETATM    4  C4  UNL     1     -33.661  16.511  -4.148  1.00 20.00     0.004 C 
HETATM    5  C5  UNL     1     -33.697  15.154  -4.865  1.00 20.00     0.086 C 
HETATM    6 CL10 UNL     1     -34.745  13.954  -4.055  1.00 20.00    -0.125 Cl
ENDROOT
BRANCH   4   7
HETATM    7  C8  UNL     1     -33.421  16.473  -2.647  1.00 20.00     0.010 C 
BRANCH   7   8
HETATM    8  C9  UNL     1     -33.694  17.816  -1.945  1.00 20.00    -0.022 C 
HETATM    9  C6  UNL     1     -33.744  17.676  -0.422  1.00 20.00     0.009 C 
HETATM   10  C7  UNL     1     -32.622  18.835  -2.335  1.00 20.00     0.009 C 
ENDBRANCH   7   8
ENDBRANCH   4   7
TORSDOF 2
ENDMDL
MODEL 6
REMARK VINA RESULT:      -3.7     12.589     13.465
REMARK  2 active torsions:
REMARK  status: ('A' for Active; 'I' for Inactive)
REMARK    1  A    between atoms: C4_4  and  C8_8 
REMARK    2  A    between atoms: C8_8  and  C9_9 
ROOT
HETATM    1  C1  UNL     1     -34.286  16.262  -4.567  1.00 20.00     0.002 C 
HETATM    2  C2  UNL     1     -33.291  16.116  -3.410  1.00 20.00     0.006 C 
HETATM    3  C3  UNL     1     -35.065  17.551  -4.302  1.00 20.00     0.020 C 
HETATM    4  C4  UNL     1     -33.615  17.260  -2.445  1.00 20.00     0.004 C 
HETATM    5  C5  UNL     1     -34.187  18.358  -3.351  1.00 20.00     0.086 C 
HETATM    6 CL10 UNL     1     -32.933  19.238  -4.272  1.00 20.00    -0.125 Cl
ENDROOT
BRANCH   4   7
HETATM    7  C8  UNL     1     -32.442  17.657  -1.563  1.00 20.00     0.010 C 
BRANCH   7   8
HETATM    8  C9  UNL     1     -32.805  18.690  -0.480  1.00 20.00    -0.022 C 
HETATM    9  C6  UNL     1     -33.892  18.181   0.468  1.00 20.00     0.009 C 
HETATM   10  C7  UNL     1     -31.557  19.067   0.319  1.00 20.00     0.009 C 
ENDBRANCH   7   8
ENDBRANCH   4   7
TORSDOF 2
ENDMDL
MODEL 7
REMARK VINA RESULT:      -3.6     15.024     16.389
REMARK  2 active torsions:
REMARK  status: ('A' for Active; 'I' for Inactive)
REMARK    1  A    between atoms: C4_4  and  C8_8 
REMARK    2  A    between atoms: C8_8  and  C9_9 
ROOT
HETATM    1  C1  UNL     1     -24.023  19.263   7.627  1.00 20.00     0.002 C 
HETATM    2  C2  UNL     1     -24.547  19.136   9.062  1.00 20.00     0.006 C 
HETATM    3  C3  UNL     1     -22.497  19.220   7.723  1.00 20.00     0.020 C 
HETATM    4  C4  UNL     1     -23.303  19.152   9.955  1.00 20.00     0.004 C 
HETATM    5  C5  UNL     1     -22.201  18.560   9.066  1.00 20.00     0.086 C 
HETATM    6 CL10 UNL     1     -22.298  16.783   8.910  1.00 20.00    -0.125 Cl
ENDROOT
BRANCH   4   7
HETATM    7  C8  UNL     1     -23.517  18.478  11.301  1.00 20.00     0.010 C 
BRANCH   7   8
HETATM    8  C9  UNL     1     -24.788  17.612  11.363  1.00 20.00    -0.022 C 
HETATM    9  C6  UNL     1     -24.491  16.171  11.782  1.00 20.00     0.009 C 
HETATM   10  C7  UNL     1     -25.796  18.235  12.331  1.00 20.00     0.009 C 
ENDBRANCH   7   8
ENDBRANCH   4   7
TORSDOF 2
ENDMDL
MODEL 8
REMARK VINA RESULT:      -3.6      1.703      2.263
REMARK  2 active torsions:
REMARK  status: ('A' for Active; 'I' for Inactive)
REMARK    1  A    between atoms: C4_4  and  C8_8 
REMARK    2  A    between atoms: C8_8  and  C9_9 
ROOT
HETATM    1  C1  UNL     1     -35.233   5.207   5.338  1.00 20.00     0.002 C 
HETATM    2  C2  UNL     1     -34.930   6.326   4.335  1.00 20.00     0.006 C 
HETATM    3  C3  UNL     1     -34.084   5.214   6.348  1.00 20.00     0.020 C 
HETATM    4  C4  UNL     1     -33.549   6.861   4.725  1.00 20.00     0.004 C 
HETATM    5  C5  UNL     1     -33.463   6.603   6.235  1.00 20.00     0.086 C 
HETATM    6 CL10 UNL     1     -34.400   7.774   7.206  1.00 20.00    -0.125 Cl
ENDROOT
BRANCH   4   7
HETATM    7  C8  UNL     1     -33.306   8.292   4.271  1.00 20.00     0.010 C 
BRANCH   7   8
HETATM    8  C9  UNL     1     -32.332   8.407   3.084  1.00 20.00    -0.022 C 
HETATM    9  C6  UNL     1     -32.038   7.051   2.441  1.00 20.00     0.009 C 
HETATM   10  C7  UNL     1     -32.901   9.364   2.035  1.00 20.00     0.009 C 
ENDBRANCH   7   8
ENDBRANCH   4   7
TORSDOF 2
ENDMDL
MODEL 9
REMARK VINA RESULT:      -3.6      9.241     10.196
REMARK  2 active torsions:
REMARK  status: ('A' for Active; 'I' for Inactive)
REMARK    1  A    between atoms: C4_4  and  C8_8 
REMARK    2  A    between atoms: C8_8  and  C9_9 
ROOT
HETATM    1  C1  UNL     1     -42.346  15.159   5.668  1.00 20.00     0.002 C 
HETATM    2  C2  UNL     1     -41.561  13.978   5.084  1.00 20.00     0.006 C 
HETATM    3  C3  UNL     1     -42.779  14.733   7.071  1.00 20.00     0.020 C 
HETATM    4  C4  UNL     1     -41.675  12.858   6.122  1.00 20.00     0.004 C 
HETATM    5  C5  UNL     1     -41.830  13.602   7.455  1.00 20.00     0.086 C 
HETATM    6 CL10 UNL     1     -40.293  14.273   8.072  1.00 20.00    -0.125 Cl
ENDROOT
BRANCH   4   7
HETATM    7  C8  UNL     1     -40.545  11.844   6.044  1.00 20.00     0.010 C 
BRANCH   7   8
HETATM    8  C9  UNL     1     -39.326  12.340   5.245  1.00 20.00    -0.022 C 
HETATM    9  C6  UNL     1     -38.024  12.231   6.042  1.00 20.00     0.009 C 
HETATM   10  C7  UNL     1     -39.201  11.550   3.941  1.00 20.00     0.009 C 
ENDBRANCH   7   8
ENDBRANCH   4   7
TORSDOF 2
ENDMDL
