MODEL 1
REMARK VINA RESULT:      -4.9      0.000      0.000
REMARK  2 active torsions:
REMARK  status: ('A' for Active; 'I' for Inactive)
REMARK    1  A    between atoms: C2_2  and  C8_8 
REMARK    2  A    between atoms: C6_6  and  C8_8 
ROOT
HETATM    1  C3  UNL     1     -34.649   5.529   6.341  1.00 20.00     0.002 C 
HETATM    2  C4  UNL     1     -33.576   6.621   6.299  1.00 20.00     0.006 C 
HETATM    3  C5  UNL     1     -35.351   5.564   4.982  1.00 20.00     0.020 C 
HETATM    4  C6  UNL     1     -33.776   7.340   4.960  1.00 20.00     0.007 C 
HETATM    5  C7  UNL     1     -34.368   6.260   4.045  1.00 20.00     0.086 C 
HETATM    6 CL9  UNL     1     -33.153   5.091   3.453  1.00 20.00    -0.125 Cl
ENDROOT
BRANCH   4   7
HETATM    7  C8  UNL     1     -32.521   8.036   4.455  1.00 20.00     0.032 C 
BRANCH   7   8
HETATM    8  C2  UNL     1     -32.720   8.588   3.076  1.00 20.00    -0.036 C 
HETATM    9  C1  UNL     1     -32.104   8.116   1.985  1.00 20.00     0.007 C 
ENDBRANCH   7   8
ENDBRANCH   4   7
TORSDOF 2
ENDMDL
MODEL 2
REMARK VINA RESULT:      -3.9      1.680      2.179
REMARK  2 active torsions:
REMARK  status: ('A' for Active; 'I' for Inactive)
REMARK    1  A    between atoms: C2_2  and  C8_8 
REMARK    2  A    between atoms: C6_6  and  C8_8 
ROOT
HETATM    1  C3  UNL     1     -35.137   5.761   5.001  1.00 20.00     0.002 C 
HETATM    2  C4  UNL     1     -34.284   6.283   3.842  1.00 20.00     0.006 C 
HETATM    3  C5  UNL     1     -34.357   6.068   6.282  1.00 20.00     0.020 C 
HETATM    4  C6  UNL     1     -32.976   6.763   4.480  1.00 20.00     0.007 C 
HETATM    5  C7  UNL     1     -33.388   7.182   5.897  1.00 20.00     0.086 C 
HETATM    6 CL9  UNL     1     -34.218   8.763   5.954  1.00 20.00    -0.125 Cl
ENDROOT
BRANCH   4   7
HETATM    7  C8  UNL     1     -32.250   7.812   3.652  1.00 20.00     0.032 C 
BRANCH   7   8
HETATM    8  C2  UNL     1     -32.234   7.446   2.199  1.00 20.00    -0.036 C 
HETATM    9  C1  UNL     1     -32.243   8.340   1.202  1.00 20.00     0.007 C 
ENDBRANCH   7   8
ENDBRANCH   4   7
TORSDOF 2
ENDMDL
MODEL 3
REMARK VINA RESULT:      -3.8      1.796      3.929
REMARK  2 active torsions:
REMARK  status: ('A' for Active; 'I' for Inactive)
REMARK    1  A    between atoms: C2_2  and  C8_8 
REMARK    2  A    between atoms: C6_6  and  C8_8 
ROOT
HETATM    1  C3  UNL     1     -32.194   7.453   2.531  1.00 20.00     0.002 C 
HETATM    2  C4  UNL     1     -32.645   6.597   3.718  1.00 20.00     0.006 C 
HETATM    3  C5  UNL     1     -32.847   8.824   2.717  1.00 20.00     0.020 C 
HETATM    4  C6  UNL     1     -33.650   7.461   4.487  1.00 20.00     0.007 C 
HETATM    5  C7  UNL     1     -33.198   8.898   4.200  1.00 20.00     0.086 C 
HETATM    6 CL9  UNL     1     -31.763   9.390   5.145  1.00 20.00    -0.125 Cl
ENDROOT
BRANCH   4   7
HETATM    7  C8  UNL     1     -33.780   7.075   5.952  1.00 20.00     0.032 C 
BRANCH   7   8
HETATM    8  C2  UNL     1     -34.545   5.796   6.115  1.00 20.00    -0.036 C 
HETATM    9  C1  UNL     1     -35.225   5.201   5.128  1.00 20.00     0.007 C 
ENDBRANCH   7   8
ENDBRANCH   4   7
TORSDOF 2
ENDMDL
MODEL 4
REMARK VINA RESULT:      -3.7      1.612      3.921
REMARK  2 active torsions:
REMARK  status: ('A' for Active; 'I' for Inactive)
REMARK    1  A    between atoms: C2_2  and  C8_8 
REMARK    2  A    between atoms: C6_6  and  C8_8 
ROOT
HETATM    1  C3  UNL     1     -32.022   7.198   3.064  1.00 20.00     0.002 C 
HETATM    2  C4  UNL     1     -33.110   6.142   3.277  1.00 20.00     0.006 C 
HETATM    3  C5  UNL     1     -32.605   8.522   3.561  1.00 20.00     0.020 C 
HETATM    4  C6  UNL     1     -34.337   6.913   3.775  1.00 20.00     0.007 C 
HETATM    5  C7  UNL     1     -33.742   8.127   4.499  1.00 20.00     0.086 C 
HETATM    6 CL9  UNL     1     -33.094   7.737   6.118  1.00 20.00    -0.125 Cl
ENDROOT
BRANCH   4   7
HETATM    7  C8  UNL     1     -35.303   6.057   4.578  1.00 20.00     0.032 C 
BRANCH   7   8
HETATM    8  C2  UNL     1     -34.592   4.930   5.266  1.00 20.00    -0.036 C 
HETATM    9  C1  UNL     1     -34.353   4.889   6.583  1.00 20.00     0.007 C 
ENDBRANCH   7   8
ENDBRANCH   4   7
TORSDOF 2
ENDMDL
MODEL 5
REMARK VINA RESULT:      -3.7      9.763     10.145
REMARK  2 active torsions:
REMARK  status: ('A' for Active; 'I' for Inactive)
REMARK    1  A    between atoms: C2_2  and  C8_8 
REMARK    2  A    between atoms: C6_6  and  C8_8 
ROOT
HETATM    1  C3  UNL     1     -41.669  15.188   7.492  1.00 20.00     0.002 C 
HETATM    2  C4  UNL     1     -40.411  14.315   7.527  1.00 20.00     0.006 C 
HETATM    3  C5  UNL     1     -42.470  14.739   6.269  1.00 20.00     0.020 C 
HETATM    4  C6  UNL     1     -40.463  13.472   6.248  1.00 20.00     0.007 C 
HETATM    5  C7  UNL     1     -41.962  13.334   5.956  1.00 20.00     0.086 C 
HETATM    6 CL9  UNL     1     -42.780  12.139   7.003  1.00 20.00    -0.125 Cl
ENDROOT
BRANCH   4   7
HETATM    7  C8  UNL     1     -39.674  12.176   6.348  1.00 20.00     0.032 C 
BRANCH   7   8
HETATM    8  C2  UNL     1     -38.676  12.056   5.236  1.00 20.00    -0.036 C 
HETATM    9  C1  UNL     1     -38.986  11.672   3.991  1.00 20.00     0.007 C 
ENDBRANCH   7   8
ENDBRANCH   4   7
TORSDOF 2
ENDMDL
MODEL 6
REMARK VINA RESULT:      -3.6      1.534      3.756
REMARK  2 active torsions:
REMARK  status: ('A' for Active; 'I' for Inactive)
REMARK    1  A    between atoms: C2_2  and  C8_8 
REMARK    2  A    between atoms: C6_6  and  C8_8 
ROOT
HETATM    1  C3  UNL     1     -32.557   9.141   4.774  1.00 20.00     0.002 C 
HETATM    2  C4  UNL     1     -33.775   8.218   4.865  1.00 20.00     0.006 C 
HETATM    3  C5  UNL     1     -31.432   8.310   4.154  1.00 20.00     0.020 C 
HETATM    4  C6  UNL     1     -33.278   6.840   4.412  1.00 20.00     0.007 C 
HETATM    5  C7  UNL     1     -32.137   7.160   3.440  1.00 20.00     0.086 C 
HETATM    6 CL9  UNL     1     -32.705   7.694   1.832  1.00 20.00    -0.125 Cl
ENDROOT
BRANCH   4   7
HETATM    7  C8  UNL     1     -34.387   5.945   3.879  1.00 20.00     0.032 C 
BRANCH   7   8
HETATM    8  C2  UNL     1     -34.933   5.054   4.953  1.00 20.00    -0.036 C 
HETATM    9  C1  UNL     1     -34.599   5.149   6.246  1.00 20.00     0.007 C 
ENDBRANCH   7   8
ENDBRANCH   4   7
TORSDOF 2
ENDMDL
MODEL 7
REMARK VINA RESULT:      -3.5     11.833     13.139
REMARK  2 active torsions:
REMARK  status: ('A' for Active; 'I' for Inactive)
REMARK    1  A    between atoms: C2_2  and  C8_8 
REMARK    2  A    between atoms: C6_6  and  C8_8 
ROOT
HETATM    1  C3  UNL     1     -35.002  16.742  -6.360  1.00 20.00     0.002 C 
HETATM    2  C4  UNL     1     -34.635  17.112  -4.920  1.00 20.00     0.006 C 
HETATM    3  C5  UNL     1     -34.301  15.414  -6.656  1.00 20.00     0.020 C 
HETATM    4  C6  UNL     1     -33.628  16.048  -4.469  1.00 20.00     0.007 C 
HETATM    5  C7  UNL     1     -34.009  14.807  -5.286  1.00 20.00     0.086 C 
HETATM    6 CL9  UNL     1     -35.460  13.970  -4.665  1.00 20.00    -0.125 Cl
ENDROOT
BRANCH   4   7
HETATM    7  C8  UNL     1     -33.574  15.870  -2.960  1.00 20.00     0.032 C 
BRANCH   7   8
HETATM    8  C2  UNL     1     -33.206  17.150  -2.271  1.00 20.00    -0.036 C 
HETATM    9  C1  UNL     1     -33.738  17.554  -1.111  1.00 20.00     0.007 C 
ENDBRANCH   7   8
ENDBRANCH   4   7
TORSDOF 2
ENDMDL
MODEL 8
REMARK VINA RESULT:      -3.5     12.532     13.398
REMARK  2 active torsions:
REMARK  status: ('A' for Active; 'I' for Inactive)
REMARK    1  A    between atoms: C2_2  and  C8_8 
REMARK    2  A    between atoms: C6_6  and  C8_8 
ROOT
HETATM    1  C3  UNL     1     -33.695  16.140  -3.723  1.00 20.00     0.002 C 
HETATM    2  C4  UNL     1     -33.227  16.628  -2.349  1.00 20.00     0.006 C 
HETATM    3  C5  UNL     1     -34.619  17.228  -4.274  1.00 20.00     0.020 C 
HETATM    4  C6  UNL     1     -33.997  17.928  -2.092  1.00 20.00     0.007 C 
HETATM    5  C7  UNL     1     -34.253  18.490  -3.496  1.00 20.00     0.086 C 
HETATM    6 CL9  UNL     1     -32.815  19.262  -4.223  1.00 20.00    -0.125 Cl
ENDROOT
BRANCH   4   7
HETATM    7  C8  UNL     1     -33.300  18.858  -1.112  1.00 20.00     0.032 C 
BRANCH   7   8
HETATM    8  C2  UNL     1     -31.878  18.443  -0.881  1.00 20.00    -0.036 C 
HETATM    9  C1  UNL     1     -31.239  18.581   0.287  1.00 20.00     0.007 C 
ENDBRANCH   7   8
ENDBRANCH   4   7
TORSDOF 2
ENDMDL
MODEL 9
REMARK VINA RESULT:      -3.5     10.145     10.565
REMARK  2 active torsions:
REMARK  status: ('A' for Active; 'I' for Inactive)
REMARK    1  A    between atoms: C2_2  and  C8_8 
REMARK    2  A    between atoms: C6_6  and  C8_8 
ROOT
HETATM    1  C3  UNL     1     -42.837  14.867   5.831  1.00 20.00     0.002 C 
HETATM    2  C4  UNL     1     -41.875  13.860   5.194  1.00 20.00     0.006 C 
HETATM    3  C5  UNL     1     -42.935  14.493   7.311  1.00 20.00     0.020 C 
HETATM    4  C6  UNL     1     -41.544  12.854   6.302  1.00 20.00     0.007 C 
HETATM    5  C7  UNL     1     -41.682  13.669   7.595  1.00 20.00     0.086 C 
HETATM    6 CL9  UNL     1     -40.293  14.750   7.901  1.00 20.00    -0.125 Cl
ENDROOT
BRANCH   4   7
HETATM    7  C8  UNL     1     -40.217  12.142   6.094  1.00 20.00     0.032 C 
BRANCH   7   8
HETATM    8  C2  UNL     1     -39.636  12.451   4.746  1.00 20.00    -0.036 C 
HETATM    9  C1  UNL     1     -38.960  11.567   4.003  1.00 20.00     0.007 C 
ENDBRANCH   7   8
ENDBRANCH   4   7
TORSDOF 2
ENDMDL
