MODEL 1
REMARK VINA RESULT:      -4.7      0.000      0.000
REMARK  2 active torsions:
REMARK  status: ('A' for Active; 'I' for Inactive)
REMARK    1  A    between atoms: C4_4  and  C7_7 
REMARK    2  A    between atoms: C7_7  and  C8_8 
ROOT
HETATM    1  C1  UNL     1     -32.526   9.126   3.361  1.00 20.00     0.002 C 
HETATM    2  C2  UNL     1     -32.605   8.536   4.772  1.00 20.00     0.006 C 
HETATM    3  C3  UNL     1     -32.502   7.939   2.396  1.00 20.00     0.020 C 
HETATM    4  C4  UNL     1     -33.061   7.085   4.586  1.00 20.00     0.004 C 
HETATM    5  C5  UNL     1     -32.337   6.713   3.287  1.00 20.00     0.086 C 
HETATM    6 CL9  UNL     1     -32.910   5.230   2.510  1.00 20.00    -0.125 Cl
ENDROOT
BRANCH   4   7
HETATM    7  C7  UNL     1     -34.588   6.994   4.537  1.00 20.00     0.005 C 
BRANCH   7   8
HETATM    8  C8  UNL     1     -35.091   5.693   5.156  1.00 20.00    -0.004 C 
HETATM    9  C6  UNL     1     -34.347   5.364   6.441  1.00 20.00     0.005 C 
ENDBRANCH   7   8
ENDBRANCH   4   7
TORSDOF 2
ENDMDL
MODEL 2
REMARK VINA RESULT:      -4.5      0.939      3.575
REMARK  2 active torsions:
REMARK  status: ('A' for Active; 'I' for Inactive)
REMARK    1  A    between atoms: C4_4  and  C7_7 
REMARK    2  A    between atoms: C7_7  and  C8_8 
ROOT
HETATM    1  C1  UNL     1     -34.486   5.048   6.311  1.00 20.00     0.002 C 
HETATM    2  C2  UNL     1     -34.879   6.493   5.993  1.00 20.00     0.006 C 
HETATM    3  C3  UNL     1     -33.879   4.471   5.030  1.00 20.00     0.020 C 
HETATM    4  C4  UNL     1     -34.112   6.856   4.717  1.00 20.00     0.004 C 
HETATM    5  C5  UNL     1     -34.151   5.523   3.960  1.00 20.00     0.086 C 
HETATM    6 CL9  UNL     1     -33.032   5.405   2.595  1.00 20.00    -0.125 Cl
ENDROOT
BRANCH   4   7
HETATM    7  C7  UNL     1     -32.713   7.382   5.050  1.00 20.00     0.005 C 
BRANCH   7   8
HETATM    8  C8  UNL     1     -32.512   8.803   4.532  1.00 20.00    -0.004 C 
HETATM    9  C6  UNL     1     -32.562   8.854   3.013  1.00 20.00     0.005 C 
ENDBRANCH   7   8
ENDBRANCH   4   7
TORSDOF 2
ENDMDL
MODEL 3
REMARK VINA RESULT:      -4.0      1.230      3.602
REMARK  2 active torsions:
REMARK  status: ('A' for Active; 'I' for Inactive)
REMARK    1  A    between atoms: C4_4  and  C7_7 
REMARK    2  A    between atoms: C7_7  and  C8_8 
ROOT
HETATM    1  C1  UNL     1     -34.058   7.292   6.704  1.00 20.00     0.002 C 
HETATM    2  C2  UNL     1     -34.340   8.035   5.395  1.00 20.00     0.006 C 
HETATM    3  C3  UNL     1     -34.076   5.799   6.367  1.00 20.00     0.020 C 
HETATM    4  C4  UNL     1     -34.081   7.017   4.280  1.00 20.00     0.004 C 
HETATM    5  C5  UNL     1     -34.592   5.728   4.933  1.00 20.00     0.086 C 
HETATM    6 CL9  UNL     1     -34.112   4.234   4.116  1.00 20.00    -0.125 Cl
ENDROOT
BRANCH   4   7
HETATM    7  C7  UNL     1     -32.604   7.010   3.878  1.00 20.00     0.005 C 
BRANCH   7   8
HETATM    8  C8  UNL     1     -32.219   8.291   3.143  1.00 20.00    -0.004 C 
HETATM    9  C6  UNL     1     -32.205   8.086   1.636  1.00 20.00     0.005 C 
ENDBRANCH   7   8
ENDBRANCH   4   7
TORSDOF 2
ENDMDL
MODEL 4
REMARK VINA RESULT:      -3.7      1.952      2.472
REMARK  2 active torsions:
REMARK  status: ('A' for Active; 'I' for Inactive)
REMARK    1  A    between atoms: C4_4  and  C7_7 
REMARK    2  A    between atoms: C7_7  and  C8_8 
ROOT
HETATM    1  C1  UNL     1     -32.867   6.180   3.033  1.00 20.00     0.002 C 
HETATM    2  C2  UNL     1     -34.219   6.549   3.649  1.00 20.00     0.006 C 
HETATM    3  C3  UNL     1     -31.923   7.348   3.328  1.00 20.00     0.020 C 
HETATM    4  C4  UNL     1     -33.925   7.680   4.640  1.00 20.00     0.004 C 
HETATM    5  C5  UNL     1     -32.820   8.442   3.898  1.00 20.00     0.086 C 
HETATM    6 CL9  UNL     1     -31.923   9.606   4.883  1.00 20.00    -0.125 Cl
ENDROOT
BRANCH   4   7
HETATM    7  C7  UNL     1     -33.532   7.120   6.009  1.00 20.00     0.005 C 
BRANCH   7   8
HETATM    8  C8  UNL     1     -34.631   6.233   6.587  1.00 20.00    -0.004 C 
HETATM    9  C6  UNL     1     -34.440   4.779   6.187  1.00 20.00     0.005 C 
ENDBRANCH   7   8
ENDBRANCH   4   7
TORSDOF 2
ENDMDL
MODEL 5
REMARK VINA RESULT:      -3.6     11.947     12.712
REMARK  2 active torsions:
REMARK  status: ('A' for Active; 'I' for Inactive)
REMARK    1  A    between atoms: C4_4  and  C7_7 
REMARK    2  A    between atoms: C7_7  and  C8_8 
ROOT
HETATM    1  C1  UNL     1     -32.512  18.437   0.617  1.00 20.00     0.002 C 
HETATM    2  C2  UNL     1     -31.796  18.424  -0.736  1.00 20.00     0.006 C 
HETATM    3  C3  UNL     1     -33.970  18.806   0.332  1.00 20.00     0.020 C 
HETATM    4  C4  UNL     1     -32.906  18.349  -1.789  1.00 20.00     0.004 C 
HETATM    5  C5  UNL     1     -33.989  19.217  -1.137  1.00 20.00     0.086 C 
HETATM    6 CL9  UNL     1     -35.599  19.071  -1.858  1.00 20.00    -0.125 Cl
ENDROOT
BRANCH   4   7
HETATM    7  C7  UNL     1     -33.304  16.897  -2.064  1.00 20.00     0.005 C 
BRANCH   7   8
HETATM    8  C8  UNL     1     -33.321  16.595  -3.560  1.00 20.00    -0.004 C 
HETATM    9  C6  UNL     1     -33.665  15.139  -3.830  1.00 20.00     0.005 C 
ENDBRANCH   7   8
ENDBRANCH   4   7
TORSDOF 2
ENDMDL
MODEL 6
REMARK VINA RESULT:      -3.5      9.716     10.642
REMARK  2 active torsions:
REMARK  status: ('A' for Active; 'I' for Inactive)
REMARK    1  A    between atoms: C4_4  and  C7_7 
REMARK    2  A    between atoms: C7_7  and  C8_8 
ROOT
HETATM    1  C1  UNL     1     -42.194  13.850   8.187  1.00 20.00     0.002 C 
HETATM    2  C2  UNL     1     -40.682  13.999   7.998  1.00 20.00     0.006 C 
HETATM    3  C3  UNL     1     -42.825  14.042   6.807  1.00 20.00     0.020 C 
HETATM    4  C4  UNL     1     -40.438  13.836   6.494  1.00 20.00     0.004 C 
HETATM    5  C5  UNL     1     -41.682  14.521   5.917  1.00 20.00     0.086 C 
HETATM    6 CL9  UNL     1     -41.983  14.206   4.202  1.00 20.00    -0.125 Cl
ENDROOT
BRANCH   4   7
HETATM    7  C7  UNL     1     -40.269  12.360   6.124  1.00 20.00     0.005 C 
BRANCH   7   8
HETATM    8  C8  UNL     1     -38.905  12.094   5.493  1.00 20.00    -0.004 C 
HETATM    9  C6  UNL     1     -39.037  11.668   4.040  1.00 20.00     0.005 C 
ENDBRANCH   7   8
ENDBRANCH   4   7
TORSDOF 2
ENDMDL
MODEL 7
REMARK VINA RESULT:      -3.5      2.089      4.280
REMARK  2 active torsions:
REMARK  status: ('A' for Active; 'I' for Inactive)
REMARK    1  A    between atoms: C4_4  and  C7_7 
REMARK    2  A    between atoms: C7_7  and  C8_8 
ROOT
HETATM    1  C1  UNL     1     -34.032   5.894   3.702  1.00 20.00     0.002 C 
HETATM    2  C2  UNL     1     -32.709   6.027   2.942  1.00 20.00     0.006 C 
HETATM    3  C3  UNL     1     -34.028   6.987   4.773  1.00 20.00     0.020 C 
HETATM    4  C4  UNL     1     -32.181   7.426   3.279  1.00 20.00     0.004 C 
HETATM    5  C5  UNL     1     -32.615   7.560   4.743  1.00 20.00     0.086 C 
HETATM    6 CL9  UNL     1     -32.538   9.201   5.399  1.00 20.00    -0.125 Cl
ENDROOT
BRANCH   4   7
HETATM    7  C7  UNL     1     -32.757   8.474   2.324  1.00 20.00     0.005 C 
BRANCH   7   8
HETATM    8  C8  UNL     1     -32.135   8.365   0.934  1.00 20.00    -0.004 C 
HETATM    9  C6  UNL     1     -32.876   9.226  -0.076  1.00 20.00     0.005 C 
ENDBRANCH   7   8
ENDBRANCH   4   7
TORSDOF 2
ENDMDL
MODEL 8
REMARK VINA RESULT:      -3.4     11.622     12.640
REMARK  2 active torsions:
REMARK  status: ('A' for Active; 'I' for Inactive)
REMARK    1  A    between atoms: C4_4  and  C7_7 
REMARK    2  A    between atoms: C7_7  and  C8_8 
ROOT
HETATM    1  C1  UNL     1     -34.953  18.252  -4.515  1.00 20.00     0.002 C 
HETATM    2  C2  UNL     1     -33.493  18.297  -4.055  1.00 20.00     0.006 C 
HETATM    3  C3  UNL     1     -35.306  16.774  -4.695  1.00 20.00     0.020 C 
HETATM    4  C4  UNL     1     -33.174  16.881  -3.563  1.00 20.00     0.004 C 
HETATM    5  C5  UNL     1     -33.979  16.035  -4.556  1.00 20.00     0.086 C 
HETATM    6 CL9  UNL     1     -34.194  14.341  -4.094  1.00 20.00    -0.125 Cl
ENDROOT
BRANCH   4   7
HETATM    7  C7  UNL     1     -33.561  16.713  -2.091  1.00 20.00     0.005 C 
BRANCH   7   8
HETATM    8  C8  UNL     1     -32.970  17.824  -1.227  1.00 20.00    -0.004 C 
HETATM    9  C6  UNL     1     -33.808  18.066   0.018  1.00 20.00     0.005 C 
ENDBRANCH   7   8
ENDBRANCH   4   7
TORSDOF 2
ENDMDL
MODEL 9
REMARK VINA RESULT:      -3.4     10.062     10.991
REMARK  2 active torsions:
REMARK  status: ('A' for Active; 'I' for Inactive)
REMARK    1  A    between atoms: C4_4  and  C7_7 
REMARK    2  A    between atoms: C7_7  and  C8_8 
ROOT
HETATM    1  C1  UNL     1     -43.086  13.722   5.846  1.00 20.00     0.002 C 
HETATM    2  C2  UNL     1     -42.369  12.653   6.674  1.00 20.00     0.006 C 
HETATM    3  C3  UNL     1     -42.461  15.064   6.234  1.00 20.00     0.020 C 
HETATM    4  C4  UNL     1     -41.083  13.317   7.178  1.00 20.00     0.004 C 
HETATM    5  C5  UNL     1     -41.570  14.748   7.432  1.00 20.00     0.086 C 
HETATM    6 CL9  UNL     1     -40.288  15.946   7.655  1.00 20.00    -0.125 Cl
ENDROOT
BRANCH   4   7
HETATM    7  C7  UNL     1     -39.957  13.179   6.150  1.00 20.00     0.005 C 
BRANCH   7   8
HETATM    8  C8  UNL     1     -39.772  11.727   5.715  1.00 20.00    -0.004 C 
HETATM    9  C6  UNL     1     -39.153  11.636   4.329  1.00 20.00     0.005 C 
ENDBRANCH   7   8
ENDBRANCH   4   7
TORSDOF 2
ENDMDL
