MODEL 1
REMARK VINA RESULT:      -4.4      0.000      0.000
REMARK  2 active torsions:
REMARK  status: ('A' for Active; 'I' for Inactive)
REMARK    1  A    between atoms: C4_4  and  C8_8 
REMARK    2  A    between atoms: C8_8  and  C9_9 
ROOT
HETATM    1  C1  UNL     1     -32.194   9.202   4.847  1.00 20.00     0.002 C 
HETATM    2  C2  UNL     1     -33.420   8.483   5.416  1.00 20.00     0.006 C 
HETATM    3  C3  UNL     1     -31.698   8.348   3.681  1.00 20.00     0.020 C 
HETATM    4  C4  UNL     1     -33.479   7.134   4.694  1.00 20.00     0.004 C 
HETATM    5  C5  UNL     1     -32.889   7.469   3.325  1.00 20.00     0.086 C 
HETATM    6 CL10 UNL     1     -32.400   6.031   2.412  1.00 20.00    -0.125 Cl
ENDROOT
BRANCH   4   7
HETATM    7  C8  UNL     1     -34.886   6.558   4.640  1.00 20.00     0.010 C 
BRANCH   7   8
HETATM    8  C9  UNL     1     -34.996   5.142   5.231  1.00 20.00    -0.022 C 
HETATM    9  C6  UNL     1     -34.089   4.139   4.515  1.00 20.00     0.009 C 
HETATM   10  C7  UNL     1     -34.655   5.173   6.723  1.00 20.00     0.009 C 
ENDBRANCH   7   8
ENDBRANCH   4   7
TORSDOF 2
ENDMDL
MODEL 2
REMARK VINA RESULT:      -4.1     12.321     12.993
REMARK  2 active torsions:
REMARK  status: ('A' for Active; 'I' for Inactive)
REMARK    1  A    between atoms: C4_4  and  C8_8 
REMARK    2  A    between atoms: C8_8  and  C9_9 
ROOT
HETATM    1  C1  UNL     1     -30.947  18.886   0.728  1.00 20.00     0.002 C 
HETATM    2  C2  UNL     1     -31.470  18.307  -0.590  1.00 20.00     0.006 C 
HETATM    3  C3  UNL     1     -32.179  19.216   1.571  1.00 20.00     0.020 C 
HETATM    4  C4  UNL     1     -32.988  18.504  -0.554  1.00 20.00     0.004 C 
HETATM    5  C5  UNL     1     -33.297  18.398   0.939  1.00 20.00     0.086 C 
HETATM    6 CL10 UNL     1     -34.898  19.030   1.361  1.00 20.00    -0.125 Cl
ENDROOT
BRANCH   4   7
HETATM    7  C8  UNL     1     -33.732  17.495  -1.416  1.00 20.00     0.010 C 
BRANCH   7   8
HETATM    8  C9  UNL     1     -33.077  17.254  -2.787  1.00 20.00    -0.022 C 
HETATM    9  C6  UNL     1     -33.433  15.885  -3.370  1.00 20.00     0.009 C 
HETATM   10  C7  UNL     1     -33.494  18.355  -3.764  1.00 20.00     0.009 C 
ENDBRANCH   7   8
ENDBRANCH   4   7
TORSDOF 2
ENDMDL
MODEL 3
REMARK VINA RESULT:      -4.1      1.704      2.515
REMARK  2 active torsions:
REMARK  status: ('A' for Active; 'I' for Inactive)
REMARK    1  A    between atoms: C4_4  and  C8_8 
REMARK    2  A    between atoms: C8_8  and  C9_9 
ROOT
HETATM    1  C1  UNL     1     -32.071   7.995   1.896  1.00 20.00     0.002 C 
HETATM    2  C2  UNL     1     -32.546   6.568   2.185  1.00 20.00     0.006 C 
HETATM    3  C3  UNL     1     -32.419   8.822   3.133  1.00 20.00     0.020 C 
HETATM    4  C4  UNL     1     -33.335   6.654   3.495  1.00 20.00     0.004 C 
HETATM    5  C5  UNL     1     -32.626   7.789   4.232  1.00 20.00     0.086 C 
HETATM    6 CL10 UNL     1     -33.574   8.437   5.581  1.00 20.00    -0.125 Cl
ENDROOT
BRANCH   4   7
HETATM    7  C8  UNL     1     -33.356   5.336   4.255  1.00 20.00     0.010 C 
BRANCH   7   8
HETATM    8  C9  UNL     1     -34.690   5.056   4.968  1.00 20.00    -0.022 C 
HETATM    9  C6  UNL     1     -34.621   5.345   6.469  1.00 20.00     0.009 C 
HETATM   10  C7  UNL     1     -35.805   5.891   4.333  1.00 20.00     0.009 C 
ENDBRANCH   7   8
ENDBRANCH   4   7
TORSDOF 2
ENDMDL
MODEL 4
REMARK VINA RESULT:      -4.1      1.039      3.685
REMARK  2 active torsions:
REMARK  status: ('A' for Active; 'I' for Inactive)
REMARK    1  A    between atoms: C4_4  and  C8_8 
REMARK    2  A    between atoms: C8_8  and  C9_9 
ROOT
HETATM    1  C1  UNL     1     -34.425   5.004   6.433  1.00 20.00     0.002 C 
HETATM    2  C2  UNL     1     -34.614   6.497   6.156  1.00 20.00     0.006 C 
HETATM    3  C3  UNL     1     -33.987   4.373   5.111  1.00 20.00     0.020 C 
HETATM    4  C4  UNL     1     -34.477   6.656   4.639  1.00 20.00     0.004 C 
HETATM    5  C5  UNL     1     -33.486   5.548   4.282  1.00 20.00     0.086 C 
HETATM    6 CL10 UNL     1     -33.463   5.173   2.550  1.00 20.00    -0.125 Cl
ENDROOT
BRANCH   4   7
HETATM    7  C8  UNL     1     -34.022   8.050   4.233  1.00 20.00     0.010 C 
BRANCH   7   8
HETATM    8  C9  UNL     1     -32.503   8.167   4.022  1.00 20.00    -0.022 C 
HETATM    9  C6  UNL     1     -32.139   8.493   2.572  1.00 20.00     0.009 C 
HETATM   10  C7  UNL     1     -31.929   9.238   4.952  1.00 20.00     0.009 C 
ENDBRANCH   7   8
ENDBRANCH   4   7
TORSDOF 2
ENDMDL
MODEL 5
REMARK VINA RESULT:      -3.9      9.629     10.640
REMARK  2 active torsions:
REMARK  status: ('A' for Active; 'I' for Inactive)
REMARK    1  A    between atoms: C4_4  and  C8_8 
REMARK    2  A    between atoms: C8_8  and  C9_9 
ROOT
HETATM    1  C1  UNL     1     -43.417  13.006   8.128  1.00 20.00     0.002 C 
HETATM    2  C2  UNL     1     -42.715  12.245   7.000  1.00 20.00     0.006 C 
HETATM    3  C3  UNL     1     -42.567  14.245   8.406  1.00 20.00     0.020 C 
HETATM    4  C4  UNL     1     -41.375  12.958   6.795  1.00 20.00     0.004 C 
HETATM    5  C5  UNL     1     -41.714  14.404   7.155  1.00 20.00     0.086 C 
HETATM    6 CL10 UNL     1     -40.277  15.397   7.455  1.00 20.00    -0.125 Cl
ENDROOT
BRANCH   4   7
HETATM    7  C8  UNL     1     -40.825  12.780   5.387  1.00 20.00     0.010 C 
BRANCH   7   8
HETATM    8  C9  UNL     1     -39.678  11.759   5.297  1.00 20.00    -0.022 C 
HETATM    9  C6  UNL     1     -39.039  11.720   3.908  1.00 20.00     0.009 C 
HETATM   10  C7  UNL     1     -38.612  12.081   6.347  1.00 20.00     0.009 C 
ENDBRANCH   7   8
ENDBRANCH   4   7
TORSDOF 2
ENDMDL
MODEL 6
REMARK VINA RESULT:      -3.9      1.493      4.072
REMARK  2 active torsions:
REMARK  status: ('A' for Active; 'I' for Inactive)
REMARK    1  A    between atoms: C4_4  and  C8_8 
REMARK    2  A    between atoms: C8_8  and  C9_9 
ROOT
HETATM    1  C1  UNL     1     -34.479   6.019   6.351  1.00 20.00     0.002 C 
HETATM    2  C2  UNL     1     -33.911   7.350   5.850  1.00 20.00     0.006 C 
HETATM    3  C3  UNL     1     -34.397   5.047   5.174  1.00 20.00     0.020 C 
HETATM    4  C4  UNL     1     -33.704   7.169   4.344  1.00 20.00     0.004 C 
HETATM    5  C5  UNL     1     -33.381   5.680   4.233  1.00 20.00     0.086 C 
HETATM    6 CL10 UNL     1     -33.533   5.059   2.581  1.00 20.00    -0.125 Cl
ENDROOT
BRANCH   4   7
HETATM    7  C8  UNL     1     -32.622   8.083   3.786  1.00 20.00     0.010 C 
BRANCH   7   8
HETATM    8  C9  UNL     1     -32.928   8.609   2.373  1.00 20.00    -0.022 C 
HETATM    9  C6  UNL     1     -32.966  10.137   2.316  1.00 20.00     0.009 C 
HETATM   10  C7  UNL     1     -31.885   8.081   1.385  1.00 20.00     0.009 C 
ENDBRANCH   7   8
ENDBRANCH   4   7
TORSDOF 2
ENDMDL
MODEL 7
REMARK VINA RESULT:      -3.8     12.076     13.314
REMARK  2 active torsions:
REMARK  status: ('A' for Active; 'I' for Inactive)
REMARK    1  A    between atoms: C4_4  and  C8_8 
REMARK    2  A    between atoms: C8_8  and  C9_9 
ROOT
HETATM    1  C1  UNL     1     -34.776  18.267  -5.138  1.00 20.00     0.002 C 
HETATM    2  C2  UNL     1     -34.252  18.458  -3.712  1.00 20.00     0.006 C 
HETATM    3  C3  UNL     1     -34.456  16.824  -5.524  1.00 20.00     0.020 C 
HETATM    4  C4  UNL     1     -33.466  17.184  -3.388  1.00 20.00     0.004 C 
HETATM    5  C5  UNL     1     -34.214  16.123  -4.194  1.00 20.00     0.086 C 
HETATM    6 CL10 UNL     1     -33.288  14.625  -4.394  1.00 20.00    -0.125 Cl
ENDROOT
BRANCH   4   7
HETATM    7  C8  UNL     1     -33.401  16.899  -1.894  1.00 20.00     0.010 C 
BRANCH   7   8
HETATM    8  C9  UNL     1     -33.214  18.159  -1.033  1.00 20.00    -0.022 C 
HETATM    9  C6  UNL     1     -33.931  18.057   0.314  1.00 20.00     0.009 C 
HETATM   10  C7  UNL     1     -31.722  18.418  -0.806  1.00 20.00     0.009 C 
ENDBRANCH   7   8
ENDBRANCH   4   7
TORSDOF 2
ENDMDL
MODEL 8
REMARK VINA RESULT:      -3.8     12.583     13.359
REMARK  2 active torsions:
REMARK  status: ('A' for Active; 'I' for Inactive)
REMARK    1  A    between atoms: C4_4  and  C8_8 
REMARK    2  A    between atoms: C8_8  and  C9_9 
ROOT
HETATM    1  C1  UNL     1     -33.740  14.825  -4.890  1.00 20.00     0.002 C 
HETATM    2  C2  UNL     1     -32.937  15.532  -3.794  1.00 20.00     0.006 C 
HETATM    3  C3  UNL     1     -34.946  15.718  -5.183  1.00 20.00     0.020 C 
HETATM    4  C4  UNL     1     -33.805  16.710  -3.342  1.00 20.00     0.004 C 
HETATM    5  C5  UNL     1     -34.552  17.078  -4.624  1.00 20.00     0.086 C 
HETATM    6 CL10 UNL     1     -35.964  18.107  -4.331  1.00 20.00    -0.125 Cl
ENDROOT
BRANCH   4   7
HETATM    7  C8  UNL     1     -32.987  17.849  -2.751  1.00 20.00     0.010 C 
BRANCH   7   8
HETATM    8  C9  UNL     1     -32.853  17.781  -1.220  1.00 20.00    -0.022 C 
HETATM    9  C6  UNL     1     -31.637  18.555  -0.706  1.00 20.00     0.009 C 
HETATM   10  C7  UNL     1     -34.125  18.322  -0.562  1.00 20.00     0.009 C 
ENDBRANCH   7   8
ENDBRANCH   4   7
TORSDOF 2
ENDMDL
MODEL 9
REMARK VINA RESULT:      -3.7      9.327     10.247
REMARK  2 active torsions:
REMARK  status: ('A' for Active; 'I' for Inactive)
REMARK    1  A    between atoms: C4_4  and  C8_8 
REMARK    2  A    between atoms: C8_8  and  C9_9 
ROOT
HETATM    1  C1  UNL     1     -41.169  15.378   7.822  1.00 20.00     0.002 C 
HETATM    2  C2  UNL     1     -40.524  13.994   7.705  1.00 20.00     0.006 C 
HETATM    3  C3  UNL     1     -41.798  15.675   6.461  1.00 20.00     0.020 C 
HETATM    4  C4  UNL     1     -40.623  13.616   6.224  1.00 20.00     0.004 C 
HETATM    5  C5  UNL     1     -41.914  14.311   5.794  1.00 20.00     0.086 C 
HETATM    6 CL10 UNL     1     -42.074  14.446   4.034  1.00 20.00    -0.125 Cl
ENDROOT
BRANCH   4   7
HETATM    7  C8  UNL     1     -40.622  12.111   6.001  1.00 20.00     0.010 C 
BRANCH   7   8
HETATM    8  C9  UNL     1     -39.351  11.592   5.307  1.00 20.00    -0.022 C 
HETATM    9  C6  UNL     1     -39.324  11.924   3.814  1.00 20.00     0.009 C 
HETATM   10  C7  UNL     1     -38.111  12.175   5.989  1.00 20.00     0.009 C 
ENDBRANCH   7   8
ENDBRANCH   4   7
TORSDOF 2
ENDMDL
