MODEL 1
REMARK VINA RESULT:      -4.8      0.000      0.000
REMARK  3 active torsions:
REMARK  status: ('A' for Active; 'I' for Inactive)
REMARK    1  A    between atoms: C4_4  and  C7_7 
REMARK    2  A    between atoms: C7_7  and  C9_9 
REMARK    3  A    between atoms: C8_8  and  C9_9 
ROOT
HETATM    1  C1  UNL     1     -34.471   5.379   6.661  1.00 20.00     0.002 C 
HETATM    2  C2  UNL     1     -34.024   6.827   6.435  1.00 20.00     0.006 C 
HETATM    3  C3  UNL     1     -34.358   4.680   5.305  1.00 20.00     0.020 C 
HETATM    4  C4  UNL     1     -33.582   6.895   4.970  1.00 20.00     0.004 C 
HETATM    5  C5  UNL     1     -34.409   5.807   4.277  1.00 20.00     0.086 C 
HETATM    6 CL10 UNL     1     -36.110   6.282   3.983  1.00 20.00    -0.125 Cl
ENDROOT
BRANCH   4   7
HETATM    7  C7  UNL     1     -33.677   8.266   4.375  1.00 20.00     0.006 C 
BRANCH   7   8
HETATM    8  C9  UNL     1     -32.403   8.637   3.616  1.00 20.00     0.000 C 
BRANCH   8   9
HETATM    9  C8  UNL     1     -32.163   7.691   2.440  1.00 20.00    -0.005 C 
HETATM   10  C6  UNL     1     -32.193   8.434   1.114  1.00 20.00     0.005 C 
ENDBRANCH   8   9
ENDBRANCH   7   8
ENDBRANCH   4   7
TORSDOF 3
ENDMDL
MODEL 2
REMARK VINA RESULT:      -4.5      1.654      2.084
REMARK  3 active torsions:
REMARK  status: ('A' for Active; 'I' for Inactive)
REMARK    1  A    between atoms: C4_4  and  C7_7 
REMARK    2  A    between atoms: C7_7  and  C9_9 
REMARK    3  A    between atoms: C8_8  and  C9_9 
ROOT
HETATM    1  C1  UNL     1     -34.183   4.643   4.147  1.00 20.00     0.002 C 
HETATM    2  C2  UNL     1     -33.074   5.510   3.540  1.00 20.00     0.006 C 
HETATM    3  C3  UNL     1     -35.173   5.610   4.797  1.00 20.00     0.020 C 
HETATM    4  C4  UNL     1     -33.507   6.958   3.784  1.00 20.00     0.004 C 
HETATM    5  C5  UNL     1     -34.371   6.885   5.046  1.00 20.00     0.086 C 
HETATM    6 CL10 UNL     1     -33.420   6.717   6.554  1.00 20.00    -0.125 Cl
ENDROOT
BRANCH   4   7
HETATM    7  C7  UNL     1     -32.367   7.928   3.828  1.00 20.00     0.006 C 
BRANCH   7   8
HETATM    8  C9  UNL     1     -32.486   8.983   2.728  1.00 20.00     0.000 C 
BRANCH   8   9
HETATM    9  C8  UNL     1     -32.222   8.379   1.349  1.00 20.00    -0.005 C 
HETATM   10  C6  UNL     1     -32.716   9.290   0.238  1.00 20.00     0.005 C 
ENDBRANCH   8   9
ENDBRANCH   7   8
ENDBRANCH   4   7
TORSDOF 3
ENDMDL
MODEL 3
REMARK VINA RESULT:      -3.8      9.779     10.654
REMARK  3 active torsions:
REMARK  status: ('A' for Active; 'I' for Inactive)
REMARK    1  A    between atoms: C4_4  and  C7_7 
REMARK    2  A    between atoms: C7_7  and  C9_9 
REMARK    3  A    between atoms: C8_8  and  C9_9 
ROOT
HETATM    1  C1  UNL     1     -43.163  13.747   8.415  1.00 20.00     0.002 C 
HETATM    2  C2  UNL     1     -42.541  12.869   7.323  1.00 20.00     0.006 C 
HETATM    3  C3  UNL     1     -43.042  15.190   7.923  1.00 20.00     0.020 C 
HETATM    4  C4  UNL     1     -42.159  13.829   6.194  1.00 20.00     0.004 C 
HETATM    5  C5  UNL     1     -41.906  15.164   6.903  1.00 20.00     0.086 C 
HETATM    6 CL10 UNL     1     -40.331  15.234   7.751  1.00 20.00    -0.125 Cl
ENDROOT
BRANCH   4   7
HETATM    7  C7  UNL     1     -41.045  13.328   5.328  1.00 20.00     0.006 C 
BRANCH   7   8
HETATM    8  C9  UNL     1     -40.330  12.139   5.967  1.00 20.00     0.000 C 
BRANCH   8   9
HETATM    9  C8  UNL     1     -38.910  11.986   5.421  1.00 20.00    -0.005 C 
HETATM   10  C6  UNL     1     -38.917  11.674   3.933  1.00 20.00     0.005 C 
ENDBRANCH   8   9
ENDBRANCH   7   8
ENDBRANCH   4   7
TORSDOF 3
ENDMDL
MODEL 4
REMARK VINA RESULT:      -3.8     12.094     13.138
REMARK  3 active torsions:
REMARK  status: ('A' for Active; 'I' for Inactive)
REMARK    1  A    between atoms: C4_4  and  C7_7 
REMARK    2  A    between atoms: C7_7  and  C9_9 
REMARK    3  A    between atoms: C8_8  and  C9_9 
ROOT
HETATM    1  C1  UNL     1     -33.491  16.937  -3.694  1.00 20.00     0.002 C 
HETATM    2  C2  UNL     1     -33.458  16.574  -2.206  1.00 20.00     0.006 C 
HETATM    3  C3  UNL     1     -33.391  18.462  -3.764  1.00 20.00     0.020 C 
HETATM    4  C4  UNL     1     -33.252  17.898  -1.465  1.00 20.00     0.004 C 
HETATM    5  C5  UNL     1     -33.865  18.950  -2.397  1.00 20.00     0.086 C 
HETATM    6 CL10 UNL     1     -35.654  18.986  -2.354  1.00 20.00    -0.125 Cl
ENDROOT
BRANCH   4   7
HETATM    7  C7  UNL     1     -33.770  17.890  -0.060  1.00 20.00     0.006 C 
BRANCH   7   8
HETATM    8  C9  UNL     1     -32.847  18.661   0.882  1.00 20.00     0.000 C 
BRANCH   8   9
HETATM    9  C8  UNL     1     -31.389  18.561   0.434  1.00 20.00    -0.005 C 
HETATM   10  C6  UNL     1     -30.439  19.052   1.515  1.00 20.00     0.005 C 
ENDBRANCH   8   9
ENDBRANCH   7   8
ENDBRANCH   4   7
TORSDOF 3
ENDMDL
MODEL 5
REMARK VINA RESULT:      -3.8     12.030     13.028
REMARK  3 active torsions:
REMARK  status: ('A' for Active; 'I' for Inactive)
REMARK    1  A    between atoms: C4_4  and  C7_7 
REMARK    2  A    between atoms: C7_7  and  C9_9 
REMARK    3  A    between atoms: C8_8  and  C9_9 
ROOT
HETATM    1  C1  UNL     1     -34.231  14.748  -4.653  1.00 20.00     0.002 C 
HETATM    2  C2  UNL     1     -33.686  15.491  -3.429  1.00 20.00     0.006 C 
HETATM    3  C3  UNL     1     -34.315  15.781  -5.778  1.00 20.00     0.020 C 
HETATM    4  C4  UNL     1     -33.389  16.913  -3.912  1.00 20.00     0.004 C 
HETATM    5  C5  UNL     1     -34.371  17.131  -5.067  1.00 20.00     0.086 C 
HETATM    6 CL10 UNL     1     -36.046  17.461  -4.527  1.00 20.00    -0.125 Cl
ENDROOT
BRANCH   4   7
HETATM    7  C7  UNL     1     -33.424  17.939  -2.822  1.00 20.00     0.006 C 
BRANCH   7   8
HETATM    8  C9  UNL     1     -33.617  17.293  -1.450  1.00 20.00     0.000 C 
BRANCH   8   9
HETATM    9  C8  UNL     1     -33.065  18.182  -0.336  1.00 20.00    -0.005 C 
HETATM   10  C6  UNL     1     -31.597  18.506  -0.556  1.00 20.00     0.005 C 
ENDBRANCH   8   9
ENDBRANCH   7   8
ENDBRANCH   4   7
TORSDOF 3
ENDMDL
MODEL 6
REMARK VINA RESULT:      -3.8      9.397     10.390
REMARK  3 active torsions:
REMARK  status: ('A' for Active; 'I' for Inactive)
REMARK    1  A    between atoms: C4_4  and  C7_7 
REMARK    2  A    between atoms: C7_7  and  C9_9 
REMARK    3  A    between atoms: C8_8  and  C9_9 
ROOT
HETATM    1  C1  UNL     1     -41.766  15.773   7.001  1.00 20.00     0.002 C 
HETATM    2  C2  UNL     1     -40.808  14.577   7.059  1.00 20.00     0.006 C 
HETATM    3  C3  UNL     1     -43.090  15.234   6.456  1.00 20.00     0.020 C 
HETATM    4  C4  UNL     1     -41.639  13.366   6.627  1.00 20.00     0.004 C 
HETATM    5  C5  UNL     1     -42.715  13.956   5.710  1.00 20.00     0.086 C 
HETATM    6 CL10 UNL     1     -42.113  14.365   4.074  1.00 20.00    -0.125 Cl
ENDROOT
BRANCH   4   7
HETATM    7  C7  UNL     1     -40.824  12.253   6.046  1.00 20.00     0.006 C 
BRANCH   7   8
HETATM    8  C9  UNL     1     -39.358  12.353   6.466  1.00 20.00     0.000 C 
BRANCH   8   9
HETATM    9  C8  UNL     1     -38.424  11.967   5.319  1.00 20.00    -0.005 C 
HETATM   10  C6  UNL     1     -39.183  11.807   4.012  1.00 20.00     0.005 C 
ENDBRANCH   8   9
ENDBRANCH   7   8
ENDBRANCH   4   7
TORSDOF 3
ENDMDL
MODEL 7
REMARK VINA RESULT:      -3.8      9.637     10.695
REMARK  3 active torsions:
REMARK  status: ('A' for Active; 'I' for Inactive)
REMARK    1  A    between atoms: C4_4  and  C7_7 
REMARK    2  A    between atoms: C7_7  and  C9_9 
REMARK    3  A    between atoms: C8_8  and  C9_9 
ROOT
HETATM    1  C1  UNL     1     -40.727  16.566   8.488  1.00 20.00     0.002 C 
HETATM    2  C2  UNL     1     -40.949  16.031   7.069  1.00 20.00     0.006 C 
HETATM    3  C3  UNL     1     -40.186  15.393   9.307  1.00 20.00     0.020 C 
HETATM    4  C4  UNL     1     -40.446  14.585   7.093  1.00 20.00     0.004 C 
HETATM    5  C5  UNL     1     -40.633  14.146   8.549  1.00 20.00     0.086 C 
HETATM    6 CL10 UNL     1     -42.331  13.761   8.965  1.00 20.00    -0.125 Cl
ENDROOT
BRANCH   4   7
HETATM    7  C7  UNL     1     -41.081  13.709   6.059  1.00 20.00     0.006 C 
BRANCH   7   8
HETATM    8  C9  UNL     1     -40.607  12.261   6.183  1.00 20.00     0.000 C 
BRANCH   8   9
HETATM    9  C8  UNL     1     -39.164  12.108   5.702  1.00 20.00    -0.005 C 
HETATM   10  C6  UNL     1     -39.104  11.687   4.242  1.00 20.00     0.005 C 
ENDBRANCH   8   9
ENDBRANCH   7   8
ENDBRANCH   4   7
TORSDOF 3
ENDMDL
MODEL 8
REMARK VINA RESULT:      -3.7     12.203     13.096
REMARK  3 active torsions:
REMARK  status: ('A' for Active; 'I' for Inactive)
REMARK    1  A    between atoms: C4_4  and  C7_7 
REMARK    2  A    between atoms: C7_7  and  C9_9 
REMARK    3  A    between atoms: C8_8  and  C9_9 
ROOT
HETATM    1  C1  UNL     1     -33.736  18.673  -1.279  1.00 20.00     0.002 C 
HETATM    2  C2  UNL     1     -32.946  17.420  -1.674  1.00 20.00     0.006 C 
HETATM    3  C3  UNL     1     -34.977  18.695  -2.174  1.00 20.00     0.020 C 
HETATM    4  C4  UNL     1     -33.802  16.710  -2.726  1.00 20.00     0.004 C 
HETATM    5  C5  UNL     1     -34.605  17.839  -3.382  1.00 20.00     0.086 C 
HETATM    6 CL10 UNL     1     -33.650  18.812  -4.542  1.00 20.00    -0.125 Cl
ENDROOT
BRANCH   4   7
HETATM    7  C7  UNL     1     -33.016  15.841  -3.658  1.00 20.00     0.006 C 
BRANCH   7   8
HETATM    8  C9  UNL     1     -33.870  14.707  -4.222  1.00 20.00     0.000 C 
BRANCH   8   9
HETATM    9  C8  UNL     1     -34.234  14.961  -5.685  1.00 20.00    -0.005 C 
HETATM   10  C6  UNL     1     -35.722  14.770  -5.929  1.00 20.00     0.005 C 
ENDBRANCH   8   9
ENDBRANCH   7   8
ENDBRANCH   4   7
TORSDOF 3
ENDMDL
MODEL 9
REMARK VINA RESULT:      -3.7      1.712      4.008
REMARK  3 active torsions:
REMARK  status: ('A' for Active; 'I' for Inactive)
REMARK    1  A    between atoms: C4_4  and  C7_7 
REMARK    2  A    between atoms: C7_7  and  C9_9 
REMARK    3  A    between atoms: C8_8  and  C9_9 
ROOT
HETATM    1  C1  UNL     1     -31.954   9.080   4.932  1.00 20.00     0.002 C 
HETATM    2  C2  UNL     1     -33.031   8.227   5.611  1.00 20.00     0.006 C 
HETATM    3  C3  UNL     1     -32.381   9.223   3.470  1.00 20.00     0.020 C 
HETATM    4  C4  UNL     1     -34.094   7.978   4.538  1.00 20.00     0.004 C 
HETATM    5  C5  UNL     1     -33.318   8.045   3.218  1.00 20.00     0.086 C 
HETATM    6 CL10 UNL     1     -32.359   6.571   2.879  1.00 20.00    -0.125 Cl
ENDROOT
BRANCH   4   7
HETATM    7  C7  UNL     1     -34.896   6.734   4.761  1.00 20.00     0.006 C 
BRANCH   7   8
HETATM    8  C9  UNL     1     -34.652   6.152   6.153  1.00 20.00     0.000 C 
BRANCH   8   9
HETATM    9  C8  UNL     1     -34.247   4.680   6.075  1.00 20.00    -0.005 C 
HETATM   10  C6  UNL     1     -34.040   4.234   4.637  1.00 20.00     0.005 C 
ENDBRANCH   8   9
ENDBRANCH   7   8
ENDBRANCH   4   7
TORSDOF 3
ENDMDL
