MODEL 1
REMARK VINA RESULT:      -4.6      0.000      0.000
REMARK  3 active torsions:
REMARK  status: ('A' for Active; 'I' for Inactive)
REMARK    1  A    between atoms: C4_4  and  C5_5 
REMARK    2  A    between atoms: C5_5  and  C6_6 
REMARK    3  A    between atoms: C6_6  and  C7_7 
ROOT
HETATM    1  C2  UNL     1     -32.266   9.169   4.619  1.00 20.00     0.011 C 
HETATM    2  C6  UNL     1     -32.584   7.670   4.536  1.00 20.00    -0.001 C 
ENDROOT
BRANCH   2   3
HETATM    3  C5  UNL     1     -34.052   7.375   4.923  1.00 20.00     0.005 C 
BRANCH   3   4
HETATM    4  C4  UNL     1     -34.259   6.687   6.279  1.00 20.00    -0.004 C 
HETATM    5  C1  UNL     1     -34.597   5.209   6.168  1.00 20.00     0.005 C 
ENDBRANCH   3   4
ENDBRANCH   2   3
BRANCH   2   6
HETATM    6  C7  UNL     1     -32.194   7.101   3.145  1.00 20.00     0.082 C 
HETATM    7  C3  UNL     1     -32.937   5.817   2.785  1.00 20.00     0.027 C 
HETATM    8 CL8  UNL     1     -32.429   8.296   1.830  1.00 20.00    -0.125 Cl
ENDBRANCH   2   6
TORSDOF 3
ENDMDL
MODEL 2
REMARK VINA RESULT:      -4.3      1.241      1.417
REMARK  3 active torsions:
REMARK  status: ('A' for Active; 'I' for Inactive)
REMARK    1  A    between atoms: C4_4  and  C5_5 
REMARK    2  A    between atoms: C5_5  and  C6_6 
REMARK    3  A    between atoms: C6_6  and  C7_7 
ROOT
HETATM    1  C2  UNL     1     -32.143   9.004   4.620  1.00 20.00     0.011 C 
HETATM    2  C6  UNL     1     -32.797   7.619   4.517  1.00 20.00    -0.001 C 
ENDROOT
BRANCH   2   3
HETATM    3  C5  UNL     1     -34.107   7.545   5.335  1.00 20.00     0.005 C 
BRANCH   3   4
HETATM    4  C4  UNL     1     -34.136   6.495   6.454  1.00 20.00    -0.004 C 
HETATM    5  C1  UNL     1     -34.658   5.139   6.006  1.00 20.00     0.005 C 
ENDBRANCH   3   4
ENDBRANCH   2   3
BRANCH   2   6
HETATM    6  C7  UNL     1     -32.982   7.207   3.031  1.00 20.00     0.082 C 
HETATM    7  C3  UNL     1     -32.019   7.914   2.081  1.00 20.00     0.027 C 
HETATM    8 CL8  UNL     1     -32.835   5.436   2.792  1.00 20.00    -0.125 Cl
ENDBRANCH   2   6
TORSDOF 3
ENDMDL
MODEL 3
REMARK VINA RESULT:      -4.1      2.254      4.133
REMARK  3 active torsions:
REMARK  status: ('A' for Active; 'I' for Inactive)
REMARK    1  A    between atoms: C4_4  and  C5_5 
REMARK    2  A    between atoms: C5_5  and  C6_6 
REMARK    3  A    between atoms: C6_6  and  C7_7 
ROOT
HETATM    1  C2  UNL     1     -32.942   5.521   2.683  1.00 20.00     0.011 C 
HETATM    2  C6  UNL     1     -32.866   6.603   3.770  1.00 20.00    -0.001 C 
ENDROOT
BRANCH   2   3
HETATM    3  C5  UNL     1     -32.559   7.995   3.171  1.00 20.00     0.005 C 
BRANCH   3   4
HETATM    4  C4  UNL     1     -32.176   8.011   1.685  1.00 20.00    -0.004 C 
HETATM    5  C1  UNL     1     -32.679   9.236   0.939  1.00 20.00     0.005 C 
ENDBRANCH   3   4
ENDBRANCH   2   3
BRANCH   2   6
HETATM    6  C7  UNL     1     -34.146   6.588   4.651  1.00 20.00     0.082 C 
HETATM    7  C3  UNL     1     -34.791   5.209   4.759  1.00 20.00     0.027 C 
HETATM    8 CL8  UNL     1     -33.843   7.218   6.301  1.00 20.00    -0.125 Cl
ENDBRANCH   2   6
TORSDOF 3
ENDMDL
MODEL 4
REMARK VINA RESULT:      -4.1      2.338      3.672
REMARK  3 active torsions:
REMARK  status: ('A' for Active; 'I' for Inactive)
REMARK    1  A    between atoms: C4_4  and  C5_5 
REMARK    2  A    between atoms: C5_5  and  C6_6 
REMARK    3  A    between atoms: C6_6  and  C7_7 
ROOT
HETATM    1  C2  UNL     1     -33.689   7.523   6.289  1.00 20.00     0.011 C 
HETATM    2  C6  UNL     1     -33.820   7.359   4.768  1.00 20.00    -0.001 C 
ENDROOT
BRANCH   2   3
HETATM    3  C5  UNL     1     -32.498   7.700   4.042  1.00 20.00     0.005 C 
BRANCH   3   4
HETATM    4  C4  UNL     1     -32.603   8.738   2.917  1.00 20.00    -0.004 C 
HETATM    5  C1  UNL     1     -32.181   8.208   1.556  1.00 20.00     0.005 C 
ENDBRANCH   3   4
ENDBRANCH   2   3
BRANCH   2   6
HETATM    6  C7  UNL     1     -34.365   5.949   4.412  1.00 20.00     0.082 C 
HETATM    7  C3  UNL     1     -33.509   5.208   3.389  1.00 20.00     0.027 C 
HETATM    8 CL8  UNL     1     -34.569   4.912   5.860  1.00 20.00    -0.125 Cl
ENDBRANCH   2   6
TORSDOF 3
ENDMDL
MODEL 5
REMARK VINA RESULT:      -4.0      1.671      2.549
REMARK  3 active torsions:
REMARK  status: ('A' for Active; 'I' for Inactive)
REMARK    1  A    between atoms: C4_4  and  C5_5 
REMARK    2  A    between atoms: C5_5  and  C6_6 
REMARK    3  A    between atoms: C6_6  and  C7_7 
ROOT
HETATM    1  C2  UNL     1     -32.863   4.991   2.835  1.00 20.00     0.011 C 
HETATM    2  C6  UNL     1     -33.587   6.299   3.182  1.00 20.00    -0.001 C 
ENDROOT
BRANCH   2   3
HETATM    3  C5  UNL     1     -34.751   6.063   4.172  1.00 20.00     0.005 C 
BRANCH   3   4
HETATM    4  C4  UNL     1     -34.563   4.902   5.157  1.00 20.00    -0.004 C 
HETATM    5  C1  UNL     1     -34.449   5.345   6.608  1.00 20.00     0.005 C 
ENDBRANCH   3   4
ENDBRANCH   2   3
BRANCH   2   6
HETATM    6  C7  UNL     1     -32.577   7.373   3.673  1.00 20.00     0.082 C 
HETATM    7  C3  UNL     1     -32.157   8.354   2.582  1.00 20.00     0.027 C 
HETATM    8 CL8  UNL     1     -33.197   8.298   5.078  1.00 20.00    -0.125 Cl
ENDBRANCH   2   6
TORSDOF 3
ENDMDL
MODEL 6
REMARK VINA RESULT:      -3.9      1.890      3.600
REMARK  3 active torsions:
REMARK  status: ('A' for Active; 'I' for Inactive)
REMARK    1  A    between atoms: C4_4  and  C5_5 
REMARK    2  A    between atoms: C5_5  and  C6_6 
REMARK    3  A    between atoms: C6_6  and  C7_7 
ROOT
HETATM    1  C2  UNL     1     -33.751   7.630   6.624  1.00 20.00     0.011 C 
HETATM    2  C6  UNL     1     -33.930   7.481   5.107  1.00 20.00    -0.001 C 
ENDROOT
BRANCH   2   3
HETATM    3  C5  UNL     1     -32.649   7.881   4.338  1.00 20.00     0.005 C 
BRANCH   3   4
HETATM    4  C4  UNL     1     -32.350   7.068   3.072  1.00 20.00    -0.004 C 
HETATM    5  C1  UNL     1     -32.192   7.920   1.823  1.00 20.00     0.005 C 
ENDBRANCH   3   4
ENDBRANCH   2   3
BRANCH   2   6
HETATM    6  C7  UNL     1     -34.436   6.056   4.750  1.00 20.00     0.082 C 
HETATM    7  C3  UNL     1     -34.467   5.107   5.945  1.00 20.00     0.027 C 
HETATM    8 CL8  UNL     1     -36.057   6.080   3.985  1.00 20.00    -0.125 Cl
ENDBRANCH   2   6
TORSDOF 3
ENDMDL
MODEL 7
REMARK VINA RESULT:      -3.9      1.342      2.375
REMARK  3 active torsions:
REMARK  status: ('A' for Active; 'I' for Inactive)
REMARK    1  A    between atoms: C4_4  and  C5_5 
REMARK    2  A    between atoms: C5_5  and  C6_6 
REMARK    3  A    between atoms: C6_6  and  C7_7 
ROOT
HETATM    1  C2  UNL     1     -33.820   7.737   6.625  1.00 20.00     0.011 C 
HETATM    2  C6  UNL     1     -33.626   7.070   5.256  1.00 20.00    -0.001 C 
ENDROOT
BRANCH   2   3
HETATM    3  C5  UNL     1     -34.912   6.354   4.782  1.00 20.00     0.005 C 
BRANCH   3   4
HETATM    4  C4  UNL     1     -34.891   4.822   4.863  1.00 20.00    -0.004 C 
HETATM    5  C1  UNL     1     -33.734   4.187   4.108  1.00 20.00     0.005 C 
ENDBRANCH   3   4
ENDBRANCH   2   3
BRANCH   2   6
HETATM    6  C7  UNL     1     -33.079   8.090   4.220  1.00 20.00     0.082 C 
HETATM    7  C3  UNL     1     -32.164   9.146   4.834  1.00 20.00     0.027 C 
HETATM    8 CL8  UNL     1     -32.217   7.290   2.867  1.00 20.00    -0.125 Cl
ENDBRANCH   2   6
TORSDOF 3
ENDMDL
MODEL 8
REMARK VINA RESULT:      -3.9      2.226      3.415
REMARK  3 active torsions:
REMARK  status: ('A' for Active; 'I' for Inactive)
REMARK    1  A    between atoms: C4_4  and  C5_5 
REMARK    2  A    between atoms: C5_5  and  C6_6 
REMARK    3  A    between atoms: C6_6  and  C7_7 
ROOT
HETATM    1  C2  UNL     1     -34.511   5.712   6.329  1.00 20.00     0.011 C 
HETATM    2  C6  UNL     1     -34.788   6.077   4.864  1.00 20.00    -0.001 C 
ENDROOT
BRANCH   2   3
HETATM    3  C5  UNL     1     -34.330   7.517   4.538  1.00 20.00     0.005 C 
BRANCH   3   4
HETATM    4  C4  UNL     1     -33.271   8.109   5.477  1.00 20.00    -0.004 C 
HETATM    5  C1  UNL     1     -32.169   8.868   4.755  1.00 20.00     0.005 C 
ENDBRANCH   3   4
ENDBRANCH   2   3
BRANCH   2   6
HETATM    6  C7  UNL     1     -34.184   5.013   3.907  1.00 20.00     0.082 C 
HETATM    7  C3  UNL     1     -33.134   5.580   2.956  1.00 20.00     0.027 C 
HETATM    8 CL8  UNL     1     -33.476   3.625   4.793  1.00 20.00    -0.125 Cl
ENDBRANCH   2   6
TORSDOF 3
ENDMDL
MODEL 9
REMARK VINA RESULT:      -3.9      1.862      3.493
REMARK  3 active torsions:
REMARK  status: ('A' for Active; 'I' for Inactive)
REMARK    1  A    between atoms: C4_4  and  C5_5 
REMARK    2  A    between atoms: C5_5  and  C6_6 
REMARK    3  A    between atoms: C6_6  and  C7_7 
ROOT
HETATM    1  C2  UNL     1     -33.678   7.960   5.912  1.00 20.00     0.011 C 
HETATM    2  C6  UNL     1     -33.592   7.479   4.457  1.00 20.00    -0.001 C 
ENDROOT
BRANCH   2   3
HETATM    3  C5  UNL     1     -32.332   8.026   3.748  1.00 20.00     0.005 C 
BRANCH   3   4
HETATM    4  C4  UNL     1     -32.588   8.983   2.576  1.00 20.00    -0.004 C 
HETATM    5  C1  UNL     1     -32.175   8.419   1.226  1.00 20.00     0.005 C 
ENDBRANCH   3   4
ENDBRANCH   2   3
BRANCH   2   6
HETATM    6  C7  UNL     1     -33.712   5.932   4.380  1.00 20.00     0.082 C 
HETATM    7  C3  UNL     1     -35.119   5.418   4.675  1.00 20.00     0.027 C 
HETATM    8 CL8  UNL     1     -33.178   5.285   2.796  1.00 20.00    -0.125 Cl
ENDBRANCH   2   6
TORSDOF 3
ENDMDL
