MODEL 1
REMARK VINA RESULT:      -5.5      0.000      0.000
REMARK  1 active torsions:
REMARK  status: ('A' for Active; 'I' for Inactive)
REMARK    1  A    between atoms: C6_6  and  C8_8 
ROOT
HETATM    1  C1  UNL     1     -32.496   8.921   2.369  1.00 20.00     0.012 C 
HETATM    2  C2  UNL     1     -32.723   8.718   3.530  1.00 20.00    -0.117 C 
HETATM    3  C8  UNL     1     -33.001   8.476   4.951  1.00 20.00     0.098 C 
ENDROOT
BRANCH   3   4
HETATM    4  C6  UNL     1     -33.271   7.002   5.216  1.00 20.00     0.011 C 
HETATM    5  C4  UNL     1     -34.077   6.777   6.496  1.00 20.00     0.007 C 
HETATM    6  C3  UNL     1     -34.671   5.395   6.284  1.00 20.00     0.002 C 
HETATM    7  C5  UNL     1     -35.117   5.425   4.826  1.00 20.00     0.016 C 
HETATM    8  C7  UNL     1     -34.117   6.341   4.118  1.00 20.00     0.062 C 
HETATM    9 BR9  UNL     1     -32.974   5.303   2.923  1.00 20.00    -0.091 Br
ENDBRANCH   3   4
TORSDOF 1
ENDMDL
MODEL 2
REMARK VINA RESULT:      -4.5      1.747      2.396
REMARK  1 active torsions:
REMARK  status: ('A' for Active; 'I' for Inactive)
REMARK    1  A    between atoms: C6_6  and  C8_8 
ROOT
HETATM    1  C1  UNL     1     -32.121   8.020   1.628  1.00 20.00     0.012 C 
HETATM    2  C2  UNL     1     -32.441   7.037   2.237  1.00 20.00    -0.117 C 
HETATM    3  C8  UNL     1     -32.828   5.830   2.978  1.00 20.00     0.098 C 
ENDROOT
BRANCH   3   4
HETATM    4  C6  UNL     1     -33.862   6.149   4.047  1.00 20.00     0.011 C 
HETATM    5  C4  UNL     1     -34.466   4.888   4.670  1.00 20.00     0.007 C 
HETATM    6  C3  UNL     1     -35.009   5.393   5.996  1.00 20.00     0.002 C 
HETATM    7  C5  UNL     1     -33.904   6.314   6.501  1.00 20.00     0.016 C 
HETATM    8  C7  UNL     1     -33.273   6.913   5.242  1.00 20.00     0.062 C 
HETATM    9 BR9  UNL     1     -33.705   8.811   5.105  1.00 20.00    -0.091 Br
ENDBRANCH   3   4
TORSDOF 1
ENDMDL
MODEL 3
REMARK VINA RESULT:      -4.3      0.971      3.703
REMARK  1 active torsions:
REMARK  status: ('A' for Active; 'I' for Inactive)
REMARK    1  A    between atoms: C6_6  and  C8_8 
ROOT
HETATM    1  C1  UNL     1     -34.734   5.369   6.582  1.00 20.00     0.012 C 
HETATM    2  C2  UNL     1     -34.170   6.366   6.226  1.00 20.00    -0.117 C 
HETATM    3  C8  UNL     1     -33.478   7.588   5.798  1.00 20.00     0.098 C 
ENDROOT
BRANCH   3   4
HETATM    4  C6  UNL     1     -33.493   7.727   4.283  1.00 20.00     0.011 C 
HETATM    5  C4  UNL     1     -33.128   9.139   3.822  1.00 20.00     0.007 C 
HETATM    6  C3  UNL     1     -32.686   8.922   2.385  1.00 20.00     0.002 C 
HETATM    7  C5  UNL     1     -31.837   7.659   2.466  1.00 20.00     0.016 C 
HETATM    8  C7  UNL     1     -32.459   6.827   3.589  1.00 20.00     0.062 C 
HETATM    9 BR9  UNL     1     -33.333   5.243   2.855  1.00 20.00    -0.091 Br
ENDBRANCH   3   4
TORSDOF 1
ENDMDL
MODEL 4
REMARK VINA RESULT:      -4.1     12.376     13.225
REMARK  1 active torsions:
REMARK  status: ('A' for Active; 'I' for Inactive)
REMARK    1  A    between atoms: C6_6  and  C8_8 
ROOT
HETATM    1  C1  UNL     1     -31.788  18.569  -0.880  1.00 20.00     0.012 C 
HETATM    2  C2  UNL     1     -32.607  17.812  -1.325  1.00 20.00    -0.117 C 
HETATM    3  C8  UNL     1     -33.610  16.885  -1.862  1.00 20.00     0.098 C 
ENDROOT
BRANCH   3   4
HETATM    4  C6  UNL     1     -33.436  16.694  -3.362  1.00 20.00     0.011 C 
HETATM    5  C4  UNL     1     -33.567  15.229  -3.783  1.00 20.00     0.007 C 
HETATM    6  C3  UNL     1     -33.898  15.330  -5.262  1.00 20.00     0.002 C 
HETATM    7  C5  UNL     1     -34.910  16.470  -5.317  1.00 20.00     0.016 C 
HETATM    8  C7  UNL     1     -34.510  17.419  -4.186  1.00 20.00     0.062 C 
HETATM    9 BR9  UNL     1     -33.788  19.079  -4.917  1.00 20.00    -0.091 Br
ENDBRANCH   3   4
TORSDOF 1
ENDMDL
MODEL 5
REMARK VINA RESULT:      -4.1      9.948     10.345
REMARK  1 active torsions:
REMARK  status: ('A' for Active; 'I' for Inactive)
REMARK    1  A    between atoms: C6_6  and  C8_8 
ROOT
HETATM    1  C1  UNL     1     -38.919  11.643   3.773  1.00 20.00     0.012 C 
HETATM    2  C2  UNL     1     -39.314  11.906   4.876  1.00 20.00    -0.117 C 
HETATM    3  C8  UNL     1     -39.795  12.221   6.226  1.00 20.00     0.098 C 
ENDROOT
BRANCH   3   4
HETATM    4  C6  UNL     1     -40.508  13.565   6.257  1.00 20.00     0.011 C 
HETATM    5  C4  UNL     1     -41.518  13.716   5.118  1.00 20.00     0.007 C 
HETATM    6  C3  UNL     1     -42.443  14.807   5.630  1.00 20.00     0.002 C 
HETATM    7  C5  UNL     1     -42.651  14.433   7.093  1.00 20.00     0.016 C 
HETATM    8  C7  UNL     1     -41.342  13.772   7.530  1.00 20.00     0.062 C 
HETATM    9 BR9  UNL     1     -40.384  14.924   8.781  1.00 20.00    -0.091 Br
ENDBRANCH   3   4
TORSDOF 1
ENDMDL
MODEL 6
REMARK VINA RESULT:      -4.0      1.480      3.709
REMARK  1 active torsions:
REMARK  status: ('A' for Active; 'I' for Inactive)
REMARK    1  A    between atoms: C6_6  and  C8_8 
ROOT
HETATM    1  C1  UNL     1     -34.803   5.002   6.533  1.00 20.00     0.012 C 
HETATM    2  C2  UNL     1     -34.515   5.336   5.416  1.00 20.00    -0.117 C 
HETATM    3  C8  UNL     1     -34.165   5.738   4.049  1.00 20.00     0.098 C 
ENDROOT
BRANCH   3   4
HETATM    4  C6  UNL     1     -33.728   7.194   3.997  1.00 20.00     0.011 C 
HETATM    5  C4  UNL     1     -33.657   7.832   5.386  1.00 20.00     0.007 C 
HETATM    6  C3  UNL     1     -32.732   9.016   5.168  1.00 20.00     0.002 C 
HETATM    7  C5  UNL     1     -31.629   8.443   4.285  1.00 20.00     0.016 C 
HETATM    8  C7  UNL     1     -32.314   7.376   3.427  1.00 20.00     0.062 C 
HETATM    9 BR9  UNL     1     -32.410   7.961   1.567  1.00 20.00    -0.091 Br
ENDBRANCH   3   4
TORSDOF 1
ENDMDL
MODEL 7
REMARK VINA RESULT:      -4.0     12.004     12.866
REMARK  1 active torsions:
REMARK  status: ('A' for Active; 'I' for Inactive)
REMARK    1  A    between atoms: C6_6  and  C8_8 
ROOT
HETATM    1  C1  UNL     1     -33.647  16.917  -2.289  1.00 20.00     0.012 C 
HETATM    2  C2  UNL     1     -33.237  16.183  -3.146  1.00 20.00    -0.117 C 
HETATM    3  C8  UNL     1     -32.730  15.286  -4.192  1.00 20.00     0.098 C 
ENDROOT
BRANCH   3   4
HETATM    4  C6  UNL     1     -33.863  14.748  -5.052  1.00 20.00     0.011 C 
HETATM    5  C4  UNL     1     -34.949  14.059  -4.224  1.00 20.00     0.007 C 
HETATM    6  C3  UNL     1     -36.154  14.097  -5.148  1.00 20.00     0.002 C 
HETATM    7  C5  UNL     1     -36.101  15.502  -5.737  1.00 20.00     0.016 C 
HETATM    8  C7  UNL     1     -34.613  15.851  -5.813  1.00 20.00     0.062 C 
HETATM    9 BR9  UNL     1     -34.024  15.904  -7.674  1.00 20.00    -0.091 Br
ENDBRANCH   3   4
TORSDOF 1
ENDMDL
MODEL 8
REMARK VINA RESULT:      -3.9      1.660      2.494
REMARK  1 active torsions:
REMARK  status: ('A' for Active; 'I' for Inactive)
REMARK    1  A    between atoms: C6_6  and  C8_8 
ROOT
HETATM    1  C1  UNL     1     -32.824   9.518   1.053  1.00 20.00     0.012 C 
HETATM    2  C2  UNL     1     -32.539   8.465   1.555  1.00 20.00    -0.117 C 
HETATM    3  C8  UNL     1     -32.189   7.175   2.161  1.00 20.00     0.098 C 
ENDROOT
BRANCH   3   4
HETATM    4  C6  UNL     1     -32.472   7.175   3.656  1.00 20.00     0.011 C 
HETATM    5  C4  UNL     1     -32.109   8.504   4.320  1.00 20.00     0.007 C 
HETATM    6  C3  UNL     1     -32.933   8.482   5.595  1.00 20.00     0.002 C 
HETATM    7  C5  UNL     1     -34.282   7.944   5.132  1.00 20.00     0.016 C 
HETATM    8  C7  UNL     1     -33.961   6.986   3.983  1.00 20.00     0.062 C 
HETATM    9 BR9  UNL     1     -34.302   5.142   4.523  1.00 20.00    -0.091 Br
ENDBRANCH   3   4
TORSDOF 1
ENDMDL
MODEL 9
REMARK VINA RESULT:      -3.8     12.425     13.724
REMARK  1 active torsions:
REMARK  status: ('A' for Active; 'I' for Inactive)
REMARK    1  A    between atoms: C6_6  and  C8_8 
ROOT
HETATM    1  C1  UNL     1     -33.311  17.005  -2.065  1.00 20.00     0.012 C 
HETATM    2  C2  UNL     1     -33.491  16.218  -2.953  1.00 20.00    -0.117 C 
HETATM    3  C8  UNL     1     -33.708  15.249  -4.034  1.00 20.00     0.098 C 
ENDROOT
BRANCH   3   4
HETATM    4  C6  UNL     1     -34.242  15.931  -5.285  1.00 20.00     0.011 C 
HETATM    5  C4  UNL     1     -33.934  15.141  -6.558  1.00 20.00     0.007 C 
HETATM    6  C3  UNL     1     -34.963  15.669  -7.542  1.00 20.00     0.002 C 
HETATM    7  C5  UNL     1     -36.238  15.745  -6.709  1.00 20.00     0.016 C 
HETATM    8  C7  UNL     1     -35.772  16.066  -5.287  1.00 20.00     0.062 C 
HETATM    9 BR9  UNL     1     -36.287  17.884  -4.799  1.00 20.00    -0.091 Br
ENDBRANCH   3   4
TORSDOF 1
ENDMDL
