MODEL 1
REMARK VINA RESULT:      -5.3      0.000      0.000
REMARK  1 active torsions:
REMARK  status: ('A' for Active; 'I' for Inactive)
REMARK    1  A    between atoms: C6_6  and  C8_8 
ROOT
HETATM    1  C1  UNL     1     -32.660   9.151   2.039  1.00 20.00     0.012 C 
HETATM    2  C2  UNL     1     -32.622   8.670   3.139  1.00 20.00    -0.117 C 
HETATM    3  C8  UNL     1     -32.570   8.086   4.484  1.00 20.00     0.099 C 
ENDROOT
BRANCH   3   4
HETATM    4  C6  UNL     1     -33.719   7.116   4.709  1.00 20.00     0.015 C 
HETATM    5  C4  UNL     1     -34.129   7.015   6.181  1.00 20.00     0.007 C 
HETATM    6  C3  UNL     1     -34.763   5.631   6.339  1.00 20.00     0.002 C 
HETATM    7  C5  UNL     1     -34.524   4.894   5.021  1.00 20.00     0.020 C 
HETATM    8  C7  UNL     1     -33.388   5.665   4.361  1.00 20.00     0.087 C 
HETATM    9 CL9  UNL     1     -33.316   5.370   2.615  1.00 20.00    -0.125 Cl
ENDBRANCH   3   4
TORSDOF 1
ENDMDL
MODEL 2
REMARK VINA RESULT:      -4.6      1.770      2.399
REMARK  1 active torsions:
REMARK  status: ('A' for Active; 'I' for Inactive)
REMARK    1  A    between atoms: C6_6  and  C8_8 
ROOT
HETATM    1  C1  UNL     1     -32.891   9.498   1.434  1.00 20.00     0.012 C 
HETATM    2  C2  UNL     1     -32.718   9.139   2.566  1.00 20.00    -0.117 C 
HETATM    3  C8  UNL     1     -32.504   8.706   3.952  1.00 20.00     0.099 C 
ENDROOT
BRANCH   3   4
HETATM    4  C6  UNL     1     -32.660   7.200   4.089  1.00 20.00     0.015 C 
HETATM    5  C4  UNL     1     -32.576   6.472   2.744  1.00 20.00     0.007 C 
HETATM    6  C3  UNL     1     -33.361   5.171   2.929  1.00 20.00     0.002 C 
HETATM    7  C5  UNL     1     -34.044   5.270   4.293  1.00 20.00     0.020 C 
HETATM    8  C7  UNL     1     -34.026   6.759   4.615  1.00 20.00     0.087 C 
HETATM    9 CL9  UNL     1     -34.231   7.063   6.348  1.00 20.00    -0.125 Cl
ENDBRANCH   3   4
TORSDOF 1
ENDMDL
MODEL 3
REMARK VINA RESULT:      -4.5      1.860      3.931
REMARK  1 active torsions:
REMARK  status: ('A' for Active; 'I' for Inactive)
REMARK    1  A    between atoms: C6_6  and  C8_8 
ROOT
HETATM    1  C1  UNL     1     -34.789   4.995   6.797  1.00 20.00     0.012 C 
HETATM    2  C2  UNL     1     -34.424   6.058   6.375  1.00 20.00    -0.117 C 
HETATM    3  C8  UNL     1     -33.979   7.360   5.864  1.00 20.00     0.099 C 
ENDROOT
BRANCH   3   4
HETATM    4  C6  UNL     1     -33.696   7.299   4.371  1.00 20.00     0.015 C 
HETATM    5  C4  UNL     1     -33.680   5.867   3.830  1.00 20.00     0.007 C 
HETATM    6  C3  UNL     1     -32.788   5.905   2.586  1.00 20.00     0.002 C 
HETATM    7  C5  UNL     1     -32.154   7.295   2.554  1.00 20.00     0.020 C 
HETATM    8  C7  UNL     1     -32.312   7.814   3.978  1.00 20.00     0.087 C 
HETATM    9 CL9  UNL     1     -32.180   9.578   4.057  1.00 20.00    -0.125 Cl
ENDBRANCH   3   4
TORSDOF 1
ENDMDL
MODEL 4
REMARK VINA RESULT:      -4.3      1.051      1.440
REMARK  1 active torsions:
REMARK  status: ('A' for Active; 'I' for Inactive)
REMARK    1  A    between atoms: C6_6  and  C8_8 
ROOT
HETATM    1  C1  UNL     1     -32.608   9.028   1.123  1.00 20.00     0.012 C 
HETATM    2  C2  UNL     1     -32.408   8.257   2.020  1.00 20.00    -0.117 C 
HETATM    3  C8  UNL     1     -32.158   7.312   3.115  1.00 20.00     0.099 C 
ENDROOT
BRANCH   3   4
HETATM    4  C6  UNL     1     -33.348   7.234   4.058  1.00 20.00     0.015 C 
HETATM    5  C4  UNL     1     -33.263   8.248   5.203  1.00 20.00     0.007 C 
HETATM    6  C3  UNL     1     -34.089   7.652   6.345  1.00 20.00     0.002 C 
HETATM    7  C5  UNL     1     -34.459   6.233   5.914  1.00 20.00     0.020 C 
HETATM    8  C7  UNL     1     -33.466   5.906   4.806  1.00 20.00     0.087 C 
HETATM    9 CL9  UNL     1     -34.036   4.581   3.778  1.00 20.00    -0.125 Cl
ENDBRANCH   3   4
TORSDOF 1
ENDMDL
MODEL 5
REMARK VINA RESULT:      -4.2      1.607      2.247
REMARK  1 active torsions:
REMARK  status: ('A' for Active; 'I' for Inactive)
REMARK    1  A    between atoms: C6_6  and  C8_8 
ROOT
HETATM    1  C1  UNL     1     -31.936   7.974   1.873  1.00 20.00     0.012 C 
HETATM    2  C2  UNL     1     -32.534   7.024   2.297  1.00 20.00    -0.117 C 
HETATM    3  C8  UNL     1     -33.267   5.860   2.810  1.00 20.00     0.099 C 
ENDROOT
BRANCH   3   4
HETATM    4  C6  UNL     1     -33.346   5.884   4.328  1.00 20.00     0.015 C 
HETATM    5  C4  UNL     1     -34.344   4.864   4.885  1.00 20.00     0.007 C 
HETATM    6  C3  UNL     1     -34.788   5.418   6.241  1.00 20.00     0.002 C 
HETATM    7  C5  UNL     1     -34.202   6.826   6.344  1.00 20.00     0.020 C 
HETATM    8  C7  UNL     1     -33.868   7.200   4.905  1.00 20.00     0.087 C 
HETATM    9 CL9  UNL     1     -32.681   8.512   4.821  1.00 20.00    -0.125 Cl
ENDBRANCH   3   4
TORSDOF 1
ENDMDL
MODEL 6
REMARK VINA RESULT:      -4.1      2.054      3.017
REMARK  1 active torsions:
REMARK  status: ('A' for Active; 'I' for Inactive)
REMARK    1  A    between atoms: C6_6  and  C8_8 
ROOT
HETATM    1  C1  UNL     1     -32.699   4.069   1.863  1.00 20.00     0.012 C 
HETATM    2  C2  UNL     1     -32.899   5.149   2.346  1.00 20.00    -0.117 C 
HETATM    3  C8  UNL     1     -33.142   6.473   2.931  1.00 20.00     0.099 C 
ENDROOT
BRANCH   3   4
HETATM    4  C6  UNL     1     -33.279   6.391   4.443  1.00 20.00     0.015 C 
HETATM    5  C4  UNL     1     -34.378   5.422   4.886  1.00 20.00     0.007 C 
HETATM    6  C3  UNL     1     -34.828   5.910   6.266  1.00 20.00     0.002 C 
HETATM    7  C5  UNL     1     -34.131   7.251   6.496  1.00 20.00     0.020 C 
HETATM    8  C7  UNL     1     -33.711   7.700   5.102  1.00 20.00     0.087 C 
HETATM    9 CL9  UNL     1     -32.415   8.908   5.160  1.00 20.00    -0.125 Cl
ENDBRANCH   3   4
TORSDOF 1
ENDMDL
MODEL 7
REMARK VINA RESULT:      -4.0      1.076      3.740
REMARK  1 active torsions:
REMARK  status: ('A' for Active; 'I' for Inactive)
REMARK    1  A    between atoms: C6_6  and  C8_8 
ROOT
HETATM    1  C1  UNL     1     -34.735   5.015   6.713  1.00 20.00     0.012 C 
HETATM    2  C2  UNL     1     -34.443   6.120   6.348  1.00 20.00    -0.117 C 
HETATM    3  C8  UNL     1     -34.091   7.475   5.905  1.00 20.00     0.099 C 
ENDROOT
BRANCH   3   4
HETATM    4  C6  UNL     1     -32.973   7.444   4.875  1.00 20.00     0.015 C 
HETATM    5  C4  UNL     1     -32.476   8.843   4.500  1.00 20.00     0.007 C 
HETATM    6  C3  UNL     1     -31.893   8.711   3.090  1.00 20.00     0.002 C 
HETATM    7  C5  UNL     1     -32.247   7.304   2.609  1.00 20.00     0.020 C 
HETATM    8  C7  UNL     1     -33.389   6.871   3.520  1.00 20.00     0.087 C 
HETATM    9 CL9  UNL     1     -33.584   5.110   3.544  1.00 20.00    -0.125 Cl
ENDBRANCH   3   4
TORSDOF 1
ENDMDL
MODEL 8
REMARK VINA RESULT:      -3.9      9.885     10.524
REMARK  1 active torsions:
REMARK  status: ('A' for Active; 'I' for Inactive)
REMARK    1  A    between atoms: C6_6  and  C8_8 
ROOT
HETATM    1  C1  UNL     1     -38.926  11.643   3.913  1.00 20.00     0.012 C 
HETATM    2  C2  UNL     1     -39.603  11.883   4.874  1.00 20.00    -0.117 C 
HETATM    3  C8  UNL     1     -40.433  12.171   6.050  1.00 20.00     0.099 C 
ENDROOT
BRANCH   3   4
HETATM    4  C6  UNL     1     -40.559  13.668   6.283  1.00 20.00     0.015 C 
HETATM    5  C4  UNL     1     -40.462  14.047   7.763  1.00 20.00     0.007 C 
HETATM    6  C3  UNL     1     -41.221  15.369   7.903  1.00 20.00     0.002 C 
HETATM    7  C5  UNL     1     -41.904  15.617   6.558  1.00 20.00     0.020 C 
HETATM    8  C7  UNL     1     -41.915  14.250   5.885  1.00 20.00     0.087 C 
HETATM    9 CL9  UNL     1     -42.125  14.379   4.130  1.00 20.00    -0.125 Cl
ENDBRANCH   3   4
TORSDOF 1
ENDMDL
MODEL 9
REMARK VINA RESULT:      -3.9      9.678     10.312
REMARK  1 active torsions:
REMARK  status: ('A' for Active; 'I' for Inactive)
REMARK    1  A    between atoms: C6_6  and  C8_8 
ROOT
HETATM    1  C1  UNL     1     -38.958  11.668   3.779  1.00 20.00     0.012 C 
HETATM    2  C2  UNL     1     -39.213  11.897   4.930  1.00 20.00    -0.117 C 
HETATM    3  C8  UNL     1     -39.519  12.171   6.339  1.00 20.00     0.099 C 
ENDROOT
BRANCH   3   4
HETATM    4  C6  UNL     1     -40.761  13.039   6.473  1.00 20.00     0.015 C 
HETATM    5  C4  UNL     1     -41.376  13.406   5.119  1.00 20.00     0.007 C 
HETATM    6  C3  UNL     1     -42.132  14.717   5.350  1.00 20.00     0.002 C 
HETATM    7  C5  UNL     1     -41.772  15.178   6.762  1.00 20.00     0.020 C 
HETATM    8  C7  UNL     1     -40.499  14.410   7.095  1.00 20.00     0.087 C 
HETATM    9 CL9  UNL     1     -40.210  14.334   8.842  1.00 20.00    -0.125 Cl
ENDBRANCH   3   4
TORSDOF 1
ENDMDL
