MODEL 1
REMARK VINA RESULT:      -4.5      0.000      0.000
REMARK  4 active torsions:
REMARK  status: ('A' for Active; 'I' for Inactive)
REMARK    1  A    between atoms: C2_2  and  C6_6 
REMARK    2  A    between atoms: C6_6  and  C7_7 
REMARK    3  A    between atoms: C7_7  and  C8_8 
REMARK    4  A    between atoms: C8_8  and  O9_9 
ROOT
HETATM    1  C4  UNL     1     -34.469   6.538   6.697  1.00 20.00     0.012 C 
HETATM    2  C7  UNL     1     -33.889   6.523   5.275  1.00 20.00     0.014 C 
ENDROOT
BRANCH   2   3
HETATM    3  C6  UNL     1     -33.925   7.969   4.719  1.00 20.00     0.039 C 
BRANCH   3   4
HETATM    4  C2  UNL     1     -32.599   8.489   4.208  1.00 20.00    -0.093 C 
HETATM    5  C1  UNL     1     -31.877   9.376   4.910  1.00 20.00     0.014 C 
HETATM    6  C3  UNL     1     -32.108   7.942   2.899  1.00 20.00     0.042 C 
ENDBRANCH   3   4
ENDBRANCH   2   3
BRANCH   2   7
HETATM    7  C8  UNL     1     -34.624   5.521   4.352  1.00 20.00     0.118 C 
HETATM    8  C5  UNL     1     -33.685   4.736   3.442  1.00 20.00     0.040 C 
BRANCH   7   9
HETATM    9  O9  UNL     1     -35.379   4.601   5.138  1.00 20.00    -0.396 OA
HETATM   10  H25 UNL     1     -35.890   4.061   4.515  1.00 20.00     0.210 HD
ENDBRANCH   7   9
ENDBRANCH   2   7
TORSDOF 4
ENDMDL
MODEL 2
REMARK VINA RESULT:      -4.2      2.150      3.925
REMARK  4 active torsions:
REMARK  status: ('A' for Active; 'I' for Inactive)
REMARK    1  A    between atoms: C2_2  and  C6_6 
REMARK    2  A    between atoms: C6_6  and  C7_7 
REMARK    3  A    between atoms: C7_7  and  C8_8 
REMARK    4  A    between atoms: C8_8  and  O9_9 
ROOT
HETATM    1  C4  UNL     1     -32.935   5.285   2.487  1.00 20.00     0.012 C 
HETATM    2  C7  UNL     1     -32.793   6.317   3.616  1.00 20.00     0.014 C 
ENDROOT
BRANCH   2   3
HETATM    3  C6  UNL     1     -34.199   6.593   4.204  1.00 20.00     0.039 C 
BRANCH   3   4
HETATM    4  C2  UNL     1     -34.357   6.251   5.669  1.00 20.00    -0.093 C 
HETATM    5  C1  UNL     1     -34.672   5.008   6.069  1.00 20.00     0.014 C 
HETATM    6  C3  UNL     1     -34.108   7.351   6.659  1.00 20.00     0.042 C 
ENDBRANCH   3   4
ENDBRANCH   2   3
BRANCH   2   7
HETATM    7  C8  UNL     1     -32.091   7.613   3.142  1.00 20.00     0.118 C 
HETATM    8  C5  UNL     1     -32.253   7.879   1.650  1.00 20.00     0.040 C 
BRANCH   7   9
HETATM    9  O9  UNL     1     -32.598   8.731   3.867  1.00 20.00    -0.396 OA
HETATM   10  H25 UNL     1     -32.362   8.587   4.797  1.00 20.00     0.210 HD
ENDBRANCH   7   9
ENDBRANCH   2   7
TORSDOF 4
ENDMDL
MODEL 3
REMARK VINA RESULT:      -4.1      2.031      3.555
REMARK  4 active torsions:
REMARK  status: ('A' for Active; 'I' for Inactive)
REMARK    1  A    between atoms: C2_2  and  C6_6 
REMARK    2  A    between atoms: C6_6  and  C7_7 
REMARK    3  A    between atoms: C7_7  and  C8_8 
REMARK    4  A    between atoms: C8_8  and  O9_9 
ROOT
HETATM    1  C4  UNL     1     -33.903   7.106   6.418  1.00 20.00     0.012 C 
HETATM    2  C7  UNL     1     -33.974   7.606   4.967  1.00 20.00     0.014 C 
ENDROOT
BRANCH   2   3
HETATM    3  C6  UNL     1     -34.684   6.525   4.114  1.00 20.00     0.039 C 
BRANCH   3   4
HETATM    4  C2  UNL     1     -33.882   5.264   3.885  1.00 20.00    -0.093 C 
HETATM    5  C1  UNL     1     -33.972   4.214   4.718  1.00 20.00     0.014 C 
HETATM    6  C3  UNL     1     -33.008   5.220   2.666  1.00 20.00     0.042 C 
ENDBRANCH   3   4
ENDBRANCH   2   3
BRANCH   2   7
HETATM    7  C8  UNL     1     -32.581   7.977   4.404  1.00 20.00     0.118 C 
HETATM    8  C5  UNL     1     -32.645   8.770   3.104  1.00 20.00     0.040 C 
BRANCH   7   9
HETATM    9  O9  UNL     1     -31.854   8.734   5.370  1.00 20.00    -0.396 OA
HETATM   10  H25 UNL     1     -31.224   8.122   5.782  1.00 20.00     0.210 HD
ENDBRANCH   7   9
ENDBRANCH   2   7
TORSDOF 4
ENDMDL
MODEL 4
REMARK VINA RESULT:      -4.1      2.104      3.646
REMARK  4 active torsions:
REMARK  status: ('A' for Active; 'I' for Inactive)
REMARK    1  A    between atoms: C2_2  and  C6_6 
REMARK    2  A    between atoms: C6_6  and  C7_7 
REMARK    3  A    between atoms: C7_7  and  C8_8 
REMARK    4  A    between atoms: C8_8  and  O9_9 
ROOT
HETATM    1  C4  UNL     1     -32.604   9.081   4.422  1.00 20.00     0.012 C 
HETATM    2  C7  UNL     1     -33.128   7.675   4.093  1.00 20.00     0.014 C 
ENDROOT
BRANCH   2   3
HETATM    3  C6  UNL     1     -33.234   6.872   5.415  1.00 20.00     0.039 C 
BRANCH   3   4
HETATM    4  C2  UNL     1     -34.490   6.041   5.558  1.00 20.00    -0.093 C 
HETATM    5  C1  UNL     1     -34.689   5.251   6.626  1.00 20.00     0.014 C 
HETATM    6  C3  UNL     1     -35.520   6.165   4.474  1.00 20.00     0.042 C 
ENDBRANCH   3   4
ENDBRANCH   2   3
BRANCH   2   7
HETATM    7  C8  UNL     1     -32.255   6.954   3.037  1.00 20.00     0.118 C 
HETATM    8  C5  UNL     1     -32.777   5.572   2.662  1.00 20.00     0.040 C 
BRANCH   7   9
HETATM    9  O9  UNL     1     -32.166   7.750   1.858  1.00 20.00    -0.396 OA
HETATM   10  H25 UNL     1     -31.350   7.484   1.406  1.00 20.00     0.210 HD
ENDBRANCH   7   9
ENDBRANCH   2   7
TORSDOF 4
ENDMDL
MODEL 5
REMARK VINA RESULT:      -3.9      1.344      2.348
REMARK  4 active torsions:
REMARK  status: ('A' for Active; 'I' for Inactive)
REMARK    1  A    between atoms: C2_2  and  C6_6 
REMARK    2  A    between atoms: C6_6  and  C7_7 
REMARK    3  A    between atoms: C7_7  and  C8_8 
REMARK    4  A    between atoms: C8_8  and  O9_9 
ROOT
HETATM    1  C4  UNL     1     -32.913   4.782   2.219  1.00 20.00     0.012 C 
HETATM    2  C7  UNL     1     -33.386   5.950   3.097  1.00 20.00     0.014 C 
ENDROOT
BRANCH   2   3
HETATM    3  C6  UNL     1     -32.186   6.903   3.328  1.00 20.00     0.039 C 
BRANCH   3   4
HETATM    4  C2  UNL     1     -32.559   8.332   3.655  1.00 20.00    -0.093 C 
HETATM    5  C1  UNL     1     -32.604   8.772   4.923  1.00 20.00     0.014 C 
HETATM    6  C3  UNL     1     -32.842   9.247   2.499  1.00 20.00     0.042 C 
ENDBRANCH   3   4
ENDBRANCH   2   3
BRANCH   2   7
HETATM    7  C8  UNL     1     -34.019   5.469   4.425  1.00 20.00     0.118 C 
HETATM    8  C5  UNL     1     -35.421   6.017   4.661  1.00 20.00     0.040 C 
BRANCH   7   9
HETATM    9  O9  UNL     1     -34.070   4.044   4.449  1.00 20.00    -0.396 OA
HETATM   10  H25 UNL     1     -34.762   3.804   5.085  1.00 20.00     0.210 HD
ENDBRANCH   7   9
ENDBRANCH   2   7
TORSDOF 4
ENDMDL
MODEL 6
REMARK VINA RESULT:      -3.8      1.608      2.216
REMARK  4 active torsions:
REMARK  status: ('A' for Active; 'I' for Inactive)
REMARK    1  A    between atoms: C2_2  and  C6_6 
REMARK    2  A    between atoms: C6_6  and  C7_7 
REMARK    3  A    between atoms: C7_7  and  C8_8 
REMARK    4  A    between atoms: C8_8  and  O9_9 
ROOT
HETATM    1  C4  UNL     1     -35.597   6.019   4.171  1.00 20.00     0.012 C 
HETATM    2  C7  UNL     1     -34.469   6.852   4.798  1.00 20.00     0.014 C 
ENDROOT
BRANCH   2   3
HETATM    3  C6  UNL     1     -33.173   6.609   3.984  1.00 20.00     0.039 C 
BRANCH   3   4
HETATM    4  C2  UNL     1     -32.534   7.856   3.414  1.00 20.00    -0.093 C 
HETATM    5  C1  UNL     1     -32.293   8.933   4.180  1.00 20.00     0.014 C 
HETATM    6  C3  UNL     1     -32.145   7.824   1.965  1.00 20.00     0.042 C 
ENDBRANCH   3   4
ENDBRANCH   2   3
BRANCH   2   7
HETATM    7  C8  UNL     1     -34.281   6.547   6.304  1.00 20.00     0.118 C 
HETATM    8  C5  UNL     1     -34.437   5.070   6.647  1.00 20.00     0.040 C 
BRANCH   7   9
HETATM    9  O9  UNL     1     -32.993   6.986   6.730  1.00 20.00    -0.396 OA
HETATM   10  H25 UNL     1     -33.136   7.784   7.263  1.00 20.00     0.210 HD
ENDBRANCH   7   9
ENDBRANCH   2   7
TORSDOF 4
ENDMDL
MODEL 7
REMARK VINA RESULT:      -3.7      2.194      4.323
REMARK  4 active torsions:
REMARK  status: ('A' for Active; 'I' for Inactive)
REMARK    1  A    between atoms: C2_2  and  C6_6 
REMARK    2  A    between atoms: C6_6  and  C7_7 
REMARK    3  A    between atoms: C7_7  and  C8_8 
REMARK    4  A    between atoms: C8_8  and  O9_9 
ROOT
HETATM    1  C4  UNL     1     -32.320   7.292   2.670  1.00 20.00     0.012 C 
HETATM    2  C7  UNL     1     -32.810   7.284   4.126  1.00 20.00     0.014 C 
ENDROOT
BRANCH   2   3
HETATM    3  C6  UNL     1     -34.222   6.649   4.162  1.00 20.00     0.039 C 
BRANCH   3   4
HETATM    4  C2  UNL     1     -34.314   5.338   4.911  1.00 20.00    -0.093 C 
HETATM    5  C1  UNL     1     -34.021   4.170   4.318  1.00 20.00     0.014 C 
HETATM    6  C3  UNL     1     -34.711   5.403   6.357  1.00 20.00     0.042 C 
ENDBRANCH   3   4
ENDBRANCH   2   3
BRANCH   2   7
HETATM    7  C8  UNL     1     -32.784   8.696   4.762  1.00 20.00     0.118 C 
HETATM    8  C5  UNL     1     -33.807   8.874   5.878  1.00 20.00     0.040 C 
BRANCH   7   9
HETATM    9  O9  UNL     1     -31.485   8.970   5.280  1.00 20.00    -0.396 OA
HETATM   10  H25 UNL     1     -30.966   8.157   5.169  1.00 20.00     0.210 HD
ENDBRANCH   7   9
ENDBRANCH   2   7
TORSDOF 4
ENDMDL
MODEL 8
REMARK VINA RESULT:      -3.6     12.350     13.239
REMARK  4 active torsions:
REMARK  status: ('A' for Active; 'I' for Inactive)
REMARK    1  A    between atoms: C2_2  and  C6_6 
REMARK    2  A    between atoms: C6_6  and  C7_7 
REMARK    3  A    between atoms: C7_7  and  C8_8 
REMARK    4  A    between atoms: C8_8  and  O9_9 
ROOT
HETATM    1  C4  UNL     1     -34.332  19.263  -0.048  1.00 20.00     0.012 C 
HETATM    2  C7  UNL     1     -33.076  18.872  -0.841  1.00 20.00     0.014 C 
ENDROOT
BRANCH   2   3
HETATM    3  C6  UNL     1     -33.243  17.411  -1.330  1.00 20.00     0.039 C 
BRANCH   3   4
HETATM    4  C2  UNL     1     -33.244  17.238  -2.833  1.00 20.00    -0.093 C 
HETATM    5  C1  UNL     1     -33.301  16.020  -3.398  1.00 20.00     0.014 C 
HETATM    6  C3  UNL     1     -33.216  18.485  -3.666  1.00 20.00     0.042 C 
ENDBRANCH   3   4
ENDBRANCH   2   3
BRANCH   2   7
HETATM    7  C8  UNL     1     -31.777  19.071  -0.022  1.00 20.00     0.118 C 
HETATM    8  C5  UNL     1     -31.869  18.526   1.399  1.00 20.00     0.040 C 
BRANCH   7   9
HETATM    9  O9  UNL     1     -30.684  18.442  -0.687  1.00 20.00    -0.396 OA
HETATM   10  H25 UNL     1     -29.916  19.021  -0.563  1.00 20.00     0.210 HD
ENDBRANCH   7   9
ENDBRANCH   2   7
TORSDOF 4
ENDMDL
MODEL 9
REMARK VINA RESULT:      -3.6      8.784      9.846
REMARK  4 active torsions:
REMARK  status: ('A' for Active; 'I' for Inactive)
REMARK    1  A    between atoms: C2_2  and  C6_6 
REMARK    2  A    between atoms: C6_6  and  C7_7 
REMARK    3  A    between atoms: C7_7  and  C8_8 
REMARK    4  A    between atoms: C8_8  and  O9_9 
ROOT
HETATM    1  C4  UNL     1     -42.055  14.113   5.195  1.00 20.00     0.012 C 
HETATM    2  C7  UNL     1     -40.837  13.760   6.062  1.00 20.00     0.014 C 
ENDROOT
BRANCH   2   3
HETATM    3  C6  UNL     1     -40.519  12.256   5.867  1.00 20.00     0.039 C 
BRANCH   3   4
HETATM    4  C2  UNL     1     -39.212  11.966   5.162  1.00 20.00    -0.093 C 
HETATM    5  C1  UNL     1     -39.179  11.603   3.869  1.00 20.00     0.014 C 
HETATM    6  C3  UNL     1     -37.952  12.136   5.959  1.00 20.00     0.042 C 
ENDBRANCH   3   4
ENDBRANCH   2   3
BRANCH   2   7
HETATM    7  C8  UNL     1     -41.049  14.127   7.551  1.00 20.00     0.118 C 
HETATM    8  C5  UNL     1     -42.347  13.577   8.130  1.00 20.00     0.040 C 
BRANCH   7   9
HETATM    9  O9  UNL     1     -39.956  13.644   8.329  1.00 20.00    -0.396 OA
HETATM   10  H25 UNL     1     -40.116  12.698   8.472  1.00 20.00     0.210 HD
ENDBRANCH   7   9
ENDBRANCH   2   7
TORSDOF 4
ENDMDL
