MODEL 1
REMARK VINA RESULT:      -3.8      0.000      0.000
REMARK  2 active torsions:
REMARK  status: ('A' for Active; 'I' for Inactive)
REMARK    1  A    between atoms: C8_8  and  C9_9 
REMARK    2  A    between atoms: C9_9  and  N11_11 
ROOT
HETATM    1  C1  UNL     1     -35.572  14.145  -4.953  1.00 20.00     0.071 C 
HETATM    2  C4  UNL     1     -34.258  15.300  -6.769  1.00 20.00     0.028 A 
HETATM    3  C5  UNL     1     -35.708  15.611  -7.000  1.00 20.00     0.028 A 
HETATM    4  C8  UNL     1     -35.204  15.382  -5.592  1.00 20.00     0.075 A 
HETATM    5  N10 UNL     1     -35.869  13.148  -4.439  1.00 20.00    -0.196 NA
ENDROOT
BRANCH   4   6
HETATM    6  C9  UNL     1     -35.095  16.561  -4.685  1.00 20.00     0.296 C 
BRANCH   6   7
HETATM    7  N11 UNL     1     -33.685  16.906  -4.429  1.00 20.00     0.090 N 
HETATM    8  C6  UNL     1     -33.173  16.135  -3.288  1.00 20.00     0.272 C 
HETATM    9  C2  UNL     1     -33.574  16.904  -2.038  1.00 20.00     0.032 C 
HETATM   10  C3  UNL     1     -33.836  18.327  -2.508  1.00 20.00     0.032 C 
HETATM   11  C7  UNL     1     -33.574  18.309  -4.008  1.00 20.00     0.272 C 
ENDBRANCH   6   7
ENDBRANCH   4   6
TORSDOF 2
ENDMDL
MODEL 2
REMARK VINA RESULT:      -3.8      2.394      3.319
REMARK  2 active torsions:
REMARK  status: ('A' for Active; 'I' for Inactive)
REMARK    1  A    between atoms: C8_8  and  C9_9 
REMARK    2  A    between atoms: C9_9  and  N11_11 
ROOT
HETATM    1  C1  UNL     1     -34.108  17.224  -4.538  1.00 20.00     0.071 C 
HETATM    2  C4  UNL     1     -34.107  14.782  -3.913  1.00 20.00     0.028 A 
HETATM    3  C5  UNL     1     -32.686  15.170  -4.199  1.00 20.00     0.028 A 
HETATM    4  C8  UNL     1     -33.647  16.195  -3.641  1.00 20.00     0.075 A 
HETATM    5  N10 UNL     1     -34.480  18.053  -5.260  1.00 20.00    -0.196 NA
ENDROOT
BRANCH   4   6
HETATM    6  C9  UNL     1     -33.476  16.617  -2.221  1.00 20.00     0.296 C 
BRANCH   6   7
HETATM    7  N11 UNL     1     -33.485  18.086  -2.098  1.00 20.00     0.090 N 
HETATM    8  C6  UNL     1     -32.207  18.557  -1.546  1.00 20.00     0.272 C 
HETATM    9  C2  UNL     1     -32.327  18.443  -0.033  1.00 20.00     0.032 C 
HETATM   10  C3  UNL     1     -33.821  18.412   0.251  1.00 20.00     0.032 C 
HETATM   11  C7  UNL     1     -34.491  18.507  -1.113  1.00 20.00     0.272 C 
ENDBRANCH   6   7
ENDBRANCH   4   6
TORSDOF 2
ENDMDL
MODEL 3
REMARK VINA RESULT:      -3.6      2.811      5.649
REMARK  2 active torsions:
REMARK  status: ('A' for Active; 'I' for Inactive)
REMARK    1  A    between atoms: C8_8  and  C9_9 
REMARK    2  A    between atoms: C9_9  and  N11_11 
ROOT
HETATM    1  C1  UNL     1     -31.771  18.698  -0.477  1.00 20.00     0.071 C 
HETATM    2  C4  UNL     1     -33.973  17.788   0.346  1.00 20.00     0.028 A 
HETATM    3  C5  UNL     1     -33.968  19.263   0.623  1.00 20.00     0.028 A 
HETATM    4  C8  UNL     1     -33.208  18.720  -0.566  1.00 20.00     0.075 A 
HETATM    5  N10 UNL     1     -30.612  18.681  -0.404  1.00 20.00    -0.196 NA
ENDROOT
BRANCH   4   6
HETATM    6  C9  UNL     1     -33.758  18.978  -1.928  1.00 20.00     0.296 C 
BRANCH   6   7
HETATM    7  N11 UNL     1     -32.890  18.400  -2.970  1.00 20.00     0.090 N 
HETATM    8  C6  UNL     1     -32.988  19.189  -4.206  1.00 20.00     0.272 C 
HETATM    9  C2  UNL     1     -34.207  18.666  -4.952  1.00 20.00     0.032 C 
HETATM   10  C3  UNL     1     -34.455  17.274  -4.390  1.00 20.00     0.032 C 
HETATM   11  C7  UNL     1     -33.367  17.063  -3.346  1.00 20.00     0.272 C 
ENDBRANCH   6   7
ENDBRANCH   4   6
TORSDOF 2
ENDMDL
MODEL 4
REMARK VINA RESULT:      -3.6     12.029     13.315
REMARK  2 active torsions:
REMARK  status: ('A' for Active; 'I' for Inactive)
REMARK    1  A    between atoms: C8_8  and  C9_9 
REMARK    2  A    between atoms: C9_9  and  N11_11 
ROOT
HETATM    1  C1  UNL     1     -41.009  13.439   4.844  1.00 20.00     0.071 C 
HETATM    2  C4  UNL     1     -39.961  11.278   5.610  1.00 20.00     0.028 A 
HETATM    3  C5  UNL     1     -38.849  12.178   5.158  1.00 20.00     0.028 A 
HETATM    4  C8  UNL     1     -40.105  12.777   5.749  1.00 20.00     0.075 A 
HETATM    5  N10 UNL     1     -41.737  13.973   4.114  1.00 20.00    -0.196 NA
ENDROOT
BRANCH   4   6
HETATM    6  C9  UNL     1     -40.027  13.366   7.116  1.00 20.00     0.296 C 
BRANCH   6   7
HETATM    7  N11 UNL     1     -41.059  14.401   7.309  1.00 20.00     0.090 N 
HETATM    8  C6  UNL     1     -40.443  15.653   7.768  1.00 20.00     0.272 C 
HETATM    9  C2  UNL     1     -40.301  15.532   9.278  1.00 20.00     0.032 C 
HETATM   10  C3  UNL     1     -41.299  14.461   9.691  1.00 20.00     0.032 C 
HETATM   11  C7  UNL     1     -41.968  14.015   8.398  1.00 20.00     0.272 C 
ENDBRANCH   6   7
ENDBRANCH   4   6
TORSDOF 2
ENDMDL
MODEL 5
REMARK VINA RESULT:      -3.6      1.415      1.910
REMARK  2 active torsions:
REMARK  status: ('A' for Active; 'I' for Inactive)
REMARK    1  A    between atoms: C8_8  and  C9_9 
REMARK    2  A    between atoms: C9_9  and  N11_11 
ROOT
HETATM    1  C1  UNL     1     -34.223  15.233  -6.582  1.00 20.00     0.071 C 
HETATM    2  C4  UNL     1     -36.350  14.575  -5.398  1.00 20.00     0.028 A 
HETATM    3  C5  UNL     1     -35.204  14.051  -4.583  1.00 20.00     0.028 A 
HETATM    4  C8  UNL     1     -35.032  15.316  -5.393  1.00 20.00     0.075 A 
HETATM    5  N10 UNL     1     -33.572  15.165  -7.540  1.00 20.00    -0.196 NA
ENDROOT
BRANCH   4   6
HETATM    6  C9  UNL     1     -34.959  16.614  -4.662  1.00 20.00     0.296 C 
BRANCH   6   7
HETATM    7  N11 UNL     1     -33.563  16.970  -4.349  1.00 20.00     0.090 N 
HETATM    8  C6  UNL     1     -33.107  16.236  -3.161  1.00 20.00     0.272 C 
HETATM    9  C2  UNL     1     -33.568  17.042  -1.957  1.00 20.00     0.032 C 
HETATM   10  C3  UNL     1     -33.808  18.450  -2.483  1.00 20.00     0.032 C 
HETATM   11  C7  UNL     1     -33.474  18.386  -3.967  1.00 20.00     0.272 C 
ENDBRANCH   6   7
ENDBRANCH   4   6
TORSDOF 2
ENDMDL
MODEL 6
REMARK VINA RESULT:      -3.5      2.439      3.640
REMARK  2 active torsions:
REMARK  status: ('A' for Active; 'I' for Inactive)
REMARK    1  A    between atoms: C8_8  and  C9_9 
REMARK    2  A    between atoms: C9_9  and  N11_11 
ROOT
HETATM    1  C1  UNL     1     -33.238  15.876  -3.743  1.00 20.00     0.071 C 
HETATM    2  C4  UNL     1     -33.531  18.362  -4.047  1.00 20.00     0.028 A 
HETATM    3  C5  UNL     1     -34.884  17.785  -3.748  1.00 20.00     0.028 A 
HETATM    4  C8  UNL     1     -33.647  17.134  -3.173  1.00 20.00     0.075 A 
HETATM    5  N10 UNL     1     -32.908  14.863  -4.204  1.00 20.00    -0.196 NA
ENDROOT
BRANCH   4   6
HETATM    6  C9  UNL     1     -33.388  17.286  -1.712  1.00 20.00     0.296 C 
BRANCH   6   7
HETATM    7  N11 UNL     1     -32.947  18.655  -1.390  1.00 20.00     0.090 N 
HETATM    8  C6  UNL     1     -31.641  18.623  -0.717  1.00 20.00     0.272 C 
HETATM    9  C2  UNL     1     -31.925  18.382   0.758  1.00 20.00     0.032 C 
HETATM   10  C3  UNL     1     -33.374  18.801   0.962  1.00 20.00     0.032 C 
HETATM   11  C7  UNL     1     -33.855  19.263  -0.407  1.00 20.00     0.272 C 
ENDBRANCH   6   7
ENDBRANCH   4   6
TORSDOF 2
ENDMDL
MODEL 7
REMARK VINA RESULT:      -3.5      1.859      4.749
REMARK  2 active torsions:
REMARK  status: ('A' for Active; 'I' for Inactive)
REMARK    1  A    between atoms: C8_8  and  C9_9 
REMARK    2  A    between atoms: C9_9  and  N11_11 
ROOT
HETATM    1  C1  UNL     1     -34.879  18.656  -1.830  1.00 20.00     0.071 C 
HETATM    2  C4  UNL     1     -32.359  18.722  -1.826  1.00 20.00     0.028 A 
HETATM    3  C5  UNL     1     -32.793  18.161  -0.503  1.00 20.00     0.028 A 
HETATM    4  C8  UNL     1     -33.641  17.926  -1.733  1.00 20.00     0.075 A 
HETATM    5  N10 UNL     1     -35.876  19.245  -1.908  1.00 20.00    -0.196 NA
ENDROOT
BRANCH   4   6
HETATM    6  C9  UNL     1     -33.661  16.556  -2.320  1.00 20.00     0.296 C 
BRANCH   6   7
HETATM    7  N11 UNL     1     -33.150  16.562  -3.703  1.00 20.00     0.090 N 
HETATM    8  C6  UNL     1     -34.210  16.976  -4.634  1.00 20.00     0.272 C 
HETATM    9  C2  UNL     1     -35.013  15.724  -4.951  1.00 20.00     0.032 C 
HETATM   10  C3  UNL     1     -34.091  14.560  -4.618  1.00 20.00     0.032 C 
HETATM   11  C7  UNL     1     -32.801  15.198  -4.123  1.00 20.00     0.272 C 
ENDBRANCH   6   7
ENDBRANCH   4   6
TORSDOF 2
ENDMDL
MODEL 8
REMARK VINA RESULT:      -3.4      1.717      3.506
REMARK  2 active torsions:
REMARK  status: ('A' for Active; 'I' for Inactive)
REMARK    1  A    between atoms: C8_8  and  C9_9 
REMARK    2  A    between atoms: C9_9  and  N11_11 
ROOT
HETATM    1  C1  UNL     1     -35.103  14.026  -4.498  1.00 20.00     0.071 C 
HETATM    2  C4  UNL     1     -33.653  15.767  -3.392  1.00 20.00     0.028 A 
HETATM    3  C5  UNL     1     -32.772  14.964  -4.303  1.00 20.00     0.028 A 
HETATM    4  C8  UNL     1     -34.230  15.161  -4.651  1.00 20.00     0.075 A 
HETATM    5  N10 UNL     1     -35.807  13.111  -4.373  1.00 20.00    -0.196 NA
ENDROOT
BRANCH   4   6
HETATM    6  C9  UNL     1     -34.565  16.075  -5.781  1.00 20.00     0.296 C 
BRANCH   6   7
HETATM    7  N11 UNL     1     -36.021  16.278  -5.887  1.00 20.00     0.090 N 
HETATM    8  C6  UNL     1     -36.404  16.479  -7.291  1.00 20.00     0.272 C 
HETATM    9  C2  UNL     1     -36.191  17.957  -7.585  1.00 20.00     0.032 C 
HETATM   10  C3  UNL     1     -36.196  18.641  -6.226  1.00 20.00     0.032 C 
HETATM   11  C7  UNL     1     -36.411  17.524  -5.214  1.00 20.00     0.272 C 
ENDBRANCH   6   7
ENDBRANCH   4   6
TORSDOF 2
ENDMDL
MODEL 9
REMARK VINA RESULT:      -3.4     12.432     13.649
REMARK  2 active torsions:
REMARK  status: ('A' for Active; 'I' for Inactive)
REMARK    1  A    between atoms: C8_8  and  C9_9 
REMARK    2  A    between atoms: C9_9  and  N11_11 
ROOT
HETATM    1  C1  UNL     1     -42.151  12.391   6.794  1.00 20.00     0.071 C 
HETATM    2  C4  UNL     1     -39.762  11.992   6.093  1.00 20.00     0.028 A 
HETATM    3  C5  UNL     1     -40.429  12.761   4.990  1.00 20.00     0.028 A 
HETATM    4  C8  UNL     1     -40.880  12.956   6.420  1.00 20.00     0.075 A 
HETATM    5  N10 UNL     1     -43.175  11.935   7.095  1.00 20.00    -0.196 NA
ENDROOT
BRANCH   4   6
HETATM    6  C9  UNL     1     -40.527  14.236   7.099  1.00 20.00     0.296 C 
BRANCH   6   7
HETATM    7  N11 UNL     1     -41.736  15.002   7.451  1.00 20.00     0.090 N 
HETATM    8  C6  UNL     1     -41.834  16.207   6.615  1.00 20.00     0.272 C 
HETATM    9  C2  UNL     1     -40.980  17.269   7.294  1.00 20.00     0.032 C 
HETATM   10  C3  UNL     1     -40.850  16.815   8.740  1.00 20.00     0.032 C 
HETATM   11  C7  UNL     1     -41.633  15.512   8.825  1.00 20.00     0.272 C 
ENDBRANCH   6   7
ENDBRANCH   4   6
TORSDOF 2
ENDMDL
