MODEL 1
REMARK VINA RESULT:      -4.5      0.000      0.000
REMARK  0 active torsions:
REMARK  status: ('A' for Active; 'I' for Inactive)
ROOT
HETATM    1  C1  UNL     1     -30.308  18.562   1.321  1.00 20.00     0.019 A 
HETATM    2  C2  UNL     1     -31.556  18.731   0.714  1.00 20.00    -0.033 A 
HETATM    3  C3  UNL     1     -30.172  18.720   2.695  1.00 20.00    -0.021 A 
HETATM    4  C4  UNL     1     -32.644  19.035   1.537  1.00 20.00     0.042 A 
HETATM    5  C5  UNL     1     -31.304  19.037   3.423  1.00 20.00     0.132 A 
HETATM    6  C6  UNL     1     -31.706  18.516  -0.768  1.00 20.00     0.040 C 
HETATM    7  C7  UNL     1     -34.017  19.263   0.960  1.00 20.00     0.060 C 
HETATM    8  C8  UNL     1     -33.016  19.071  -1.326  1.00 20.00     0.005 C 
HETATM    9  C9  UNL     1     -34.188  18.672  -0.437  1.00 20.00     0.006 C 
HETATM   10  C10 UNL     1     -28.835  18.541   3.327  1.00 20.00     0.051 C 
HETATM   11  N11 UNL     1     -32.530  19.200   2.880  1.00 20.00    -0.240 NA
HETATM   12 CL12 UNL     1     -31.268  19.260   5.128  1.00 20.00    -0.062 Cl
ENDROOT
TORSDOF 0
ENDMDL
MODEL 2
REMARK VINA RESULT:      -4.4      1.519      2.375
REMARK  0 active torsions:
REMARK  status: ('A' for Active; 'I' for Inactive)
ROOT
HETATM    1  C1  UNL     1     -32.643  18.900   2.456  1.00 20.00     0.019 A 
HETATM    2  C2  UNL     1     -32.705  18.716   1.072  1.00 20.00    -0.033 A 
HETATM    3  C3  UNL     1     -31.415  19.072   3.084  1.00 20.00    -0.021 A 
HETATM    4  C4  UNL     1     -31.503  18.736   0.358  1.00 20.00     0.042 A 
HETATM    5  C5  UNL     1     -30.280  19.062   2.294  1.00 20.00     0.132 A 
HETATM    6  C6  UNL     1     -34.040  18.572   0.391  1.00 20.00     0.040 C 
HETATM    7  C7  UNL     1     -31.479  18.515  -1.132  1.00 20.00     0.060 C 
HETATM    8  C8  UNL     1     -33.934  18.034  -1.035  1.00 20.00     0.005 C 
HETATM    9  C9  UNL     1     -32.831  18.758  -1.799  1.00 20.00     0.006 C 
HETATM   10  C10 UNL     1     -31.365  19.263   4.561  1.00 20.00     0.051 C 
HETATM   11  N11 UNL     1     -30.294  18.896   0.953  1.00 20.00    -0.240 NA
HETATM   12 CL12 UNL     1     -28.703  19.263   2.949  1.00 20.00    -0.062 Cl
ENDROOT
TORSDOF 0
ENDMDL
MODEL 3
REMARK VINA RESULT:      -4.0      5.648      7.563
REMARK  0 active torsions:
REMARK  status: ('A' for Active; 'I' for Inactive)
ROOT
HETATM    1  C1  UNL     1     -33.668  16.127  -4.154  1.00 20.00     0.019 A 
HETATM    2  C2  UNL     1     -33.955  17.051  -3.145  1.00 20.00    -0.033 A 
HETATM    3  C3  UNL     1     -34.402  16.129  -5.333  1.00 20.00    -0.021 A 
HETATM    4  C4  UNL     1     -34.977  17.976  -3.381  1.00 20.00     0.042 A 
HETATM    5  C5  UNL     1     -35.404  17.072  -5.467  1.00 20.00     0.132 A 
HETATM    6  C6  UNL     1     -33.128  17.073  -1.887  1.00 20.00     0.040 C 
HETATM    7  C7  UNL     1     -35.370  18.986  -2.335  1.00 20.00     0.060 C 
HETATM    8  C8  UNL     1     -33.771  17.878  -0.759  1.00 20.00     0.005 C 
HETATM    9  C9  UNL     1     -34.288  19.214  -1.282  1.00 20.00     0.006 C 
HETATM   10  C10 UNL     1     -34.088  15.134  -6.397  1.00 20.00     0.051 C 
HETATM   11  N11 UNL     1     -35.710  17.989  -4.523  1.00 20.00    -0.240 NA
HETATM   12 CL12 UNL     1     -36.385  17.177  -6.876  1.00 20.00    -0.062 Cl
ENDROOT
TORSDOF 0
ENDMDL
MODEL 4
REMARK VINA RESULT:      -4.0     12.418     12.800
REMARK  0 active torsions:
REMARK  status: ('A' for Active; 'I' for Inactive)
ROOT
HETATM    1  C1  UNL     1     -33.202   8.479   4.647  1.00 20.00     0.019 A 
HETATM    2  C2  UNL     1     -33.593   7.167   4.930  1.00 20.00    -0.033 A 
HETATM    3  C3  UNL     1     -32.656   8.793   3.409  1.00 20.00    -0.021 A 
HETATM    4  C4  UNL     1     -33.436   6.209   3.925  1.00 20.00     0.042 A 
HETATM    5  C5  UNL     1     -32.526   7.774   2.484  1.00 20.00     0.132 A 
HETATM    6  C6  UNL     1     -34.224   6.840   6.258  1.00 20.00     0.040 C 
HETATM    7  C7  UNL     1     -33.804   4.767   4.158  1.00 20.00     0.060 C 
HETATM    8  C8  UNL     1     -34.268   5.341   6.550  1.00 20.00     0.005 C 
HETATM    9  C9  UNL     1     -34.763   4.572   5.330  1.00 20.00     0.006 C 
HETATM   10  C10 UNL     1     -32.240  10.195   3.123  1.00 20.00     0.051 C 
HETATM   11  N11 UNL     1     -32.898   6.495   2.711  1.00 20.00    -0.240 NA
HETATM   12 CL12 UNL     1     -31.863   8.032   0.918  1.00 20.00    -0.062 Cl
ENDROOT
TORSDOF 0
ENDMDL
MODEL 5
REMARK VINA RESULT:      -4.0      5.422      6.899
REMARK  0 active torsions:
REMARK  status: ('A' for Active; 'I' for Inactive)
ROOT
HETATM    1  C1  UNL     1     -33.305  16.265  -3.339  1.00 20.00     0.019 A 
HETATM    2  C2  UNL     1     -34.042  16.081  -4.513  1.00 20.00    -0.033 A 
HETATM    3  C3  UNL     1     -33.674  17.247  -2.429  1.00 20.00    -0.021 A 
HETATM    4  C4  UNL     1     -35.159  16.897  -4.715  1.00 20.00     0.042 A 
HETATM    5  C5  UNL     1     -34.786  18.015  -2.724  1.00 20.00     0.132 A 
HETATM    6  C6  UNL     1     -33.663  14.987  -5.475  1.00 20.00     0.040 C 
HETATM    7  C7  UNL     1     -35.989  16.785  -5.967  1.00 20.00     0.060 C 
HETATM    8  C8  UNL     1     -34.323  15.136  -6.845  1.00 20.00     0.005 C 
HETATM    9  C9  UNL     1     -35.806  15.455  -6.693  1.00 20.00     0.006 C 
HETATM   10  C10 UNL     1     -32.876  17.434  -1.185  1.00 20.00     0.051 C 
HETATM   11  N11 UNL     1     -35.532  17.866  -3.841  1.00 20.00    -0.240 NA
HETATM   12 CL12 UNL     1     -35.344  19.263  -1.681  1.00 20.00    -0.062 Cl
ENDROOT
TORSDOF 0
ENDMDL
MODEL 6
REMARK VINA RESULT:      -4.0     12.306     12.645
REMARK  0 active torsions:
REMARK  status: ('A' for Active; 'I' for Inactive)
ROOT
HETATM    1  C1  UNL     1     -32.912   6.467   2.677  1.00 20.00     0.019 A 
HETATM    2  C2  UNL     1     -33.486   6.160   3.915  1.00 20.00    -0.033 A 
HETATM    3  C3  UNL     1     -32.502   7.764   2.399  1.00 20.00    -0.021 A 
HETATM    4  C4  UNL     1     -33.604   7.192   4.850  1.00 20.00     0.042 A 
HETATM    5  C5  UNL     1     -32.674   8.720   3.383  1.00 20.00     0.132 A 
HETATM    6  C6  UNL     1     -33.889   4.744   4.227  1.00 20.00     0.040 C 
HETATM    7  C7  UNL     1     -34.238   6.954   6.196  1.00 20.00     0.060 C 
HETATM    8  C8  UNL     1     -34.804   4.634   5.446  1.00 20.00     0.005 C 
HETATM    9  C9  UNL     1     -34.269   5.481   6.595  1.00 20.00     0.006 C 
HETATM   10  C10 UNL     1     -31.896   8.076   1.074  1.00 20.00     0.051 C 
HETATM   11  N11 UNL     1     -33.215   8.467   4.595  1.00 20.00    -0.240 NA
HETATM   12 CL12 UNL     1     -32.210  10.361   3.162  1.00 20.00    -0.062 Cl
ENDROOT
TORSDOF 0
ENDMDL
MODEL 7
REMARK VINA RESULT:      -3.9      5.964      8.180
REMARK  0 active torsions:
REMARK  status: ('A' for Active; 'I' for Inactive)
ROOT
HETATM    1  C1  UNL     1     -34.389  18.662  -5.488  1.00 20.00     0.019 A 
HETATM    2  C2  UNL     1     -33.898  18.244  -4.248  1.00 20.00    -0.033 A 
HETATM    3  C3  UNL     1     -34.852  17.729  -6.407  1.00 20.00    -0.021 A 
HETATM    4  C4  UNL     1     -33.915  16.875  -3.969  1.00 20.00     0.042 A 
HETATM    5  C5  UNL     1     -34.814  16.395  -6.046  1.00 20.00     0.132 A 
HETATM    6  C6  UNL     1     -33.438  19.263  -3.239  1.00 20.00     0.040 C 
HETATM    7  C7  UNL     1     -33.376  16.338  -2.669  1.00 20.00     0.060 C 
HETATM    8  C8  UNL     1     -32.617  18.655  -2.103  1.00 20.00     0.005 C 
HETATM    9  C9  UNL     1     -33.290  17.394  -1.571  1.00 20.00     0.006 C 
HETATM   10  C10 UNL     1     -35.369  18.190  -7.726  1.00 20.00     0.051 C 
HETATM   11  N11 UNL     1     -34.357  15.947  -4.856  1.00 20.00    -0.240 NA
HETATM   12 CL12 UNL     1     -35.356  15.143  -7.094  1.00 20.00    -0.062 Cl
ENDROOT
TORSDOF 0
ENDMDL
MODEL 8
REMARK VINA RESULT:      -3.9     10.813     12.040
REMARK  0 active torsions:
REMARK  status: ('A' for Active; 'I' for Inactive)
ROOT
HETATM    1  C1  UNL     1     -41.914  14.294   5.962  1.00 20.00     0.019 A 
HETATM    2  C2  UNL     1     -40.829  13.431   5.784  1.00 20.00    -0.033 A 
HETATM    3  C3  UNL     1     -42.227  14.772   7.228  1.00 20.00    -0.021 A 
HETATM    4  C4  UNL     1     -40.074  13.094   6.911  1.00 20.00     0.042 A 
HETATM    5  C5  UNL     1     -41.430  14.369   8.284  1.00 20.00     0.132 A 
HETATM    6  C6  UNL     1     -40.468  12.951   4.404  1.00 20.00     0.040 C 
HETATM    7  C7  UNL     1     -38.908  12.145   6.812  1.00 20.00     0.060 C 
HETATM    8  C8  UNL     1     -39.508  11.762   4.412  1.00 20.00     0.005 C 
HETATM    9  C9  UNL     1     -38.366  12.004   5.393  1.00 20.00     0.006 C 
HETATM   10  C10 UNL     1     -43.389  15.688   7.402  1.00 20.00     0.051 C 
HETATM   11  N11 UNL     1     -40.368  13.544   8.158  1.00 20.00    -0.240 NA
HETATM   12 CL12 UNL     1     -41.714  14.887   9.900  1.00 20.00    -0.062 Cl
ENDROOT
TORSDOF 0
ENDMDL
MODEL 9
REMARK VINA RESULT:      -3.7     11.650     12.715
REMARK  0 active torsions:
REMARK  status: ('A' for Active; 'I' for Inactive)
ROOT
HETATM    1  C1  UNL     1     -41.905  15.266   6.696  1.00 20.00     0.019 A 
HETATM    2  C2  UNL     1     -41.551  15.456   8.035  1.00 20.00    -0.033 A 
HETATM    3  C3  UNL     1     -41.423  14.169   5.993  1.00 20.00    -0.021 A 
HETATM    4  C4  UNL     1     -40.725  14.498   8.631  1.00 20.00     0.042 A 
HETATM    5  C5  UNL     1     -40.599  13.285   6.665  1.00 20.00     0.132 A 
HETATM    6  C6  UNL     1     -42.112  16.622   8.803  1.00 20.00     0.040 C 
HETATM    7  C7  UNL     1     -40.272  14.643  10.060  1.00 20.00     0.060 C 
HETATM    8  C8  UNL     1     -41.372  16.891  10.113  1.00 20.00     0.005 C 
HETATM    9  C9  UNL     1     -41.147  15.590  10.877  1.00 20.00     0.006 C 
HETATM   10  C10 UNL     1     -41.806  13.984   4.565  1.00 20.00     0.051 C 
HETATM   11  N11 UNL     1     -40.238  13.424   7.960  1.00 20.00    -0.240 NA
HETATM   12 CL12 UNL     1     -39.935  11.891   5.908  1.00 20.00    -0.062 Cl
ENDROOT
TORSDOF 0
ENDMDL
