MODEL 1
REMARK VINA RESULT:      -4.9      0.000      0.000
REMARK  1 active torsions:
REMARK  status: ('A' for Active; 'I' for Inactive)
REMARK    1  A    between atoms: C4_4  and  C9_9 
ROOT
HETATM    1  C1  UNL     1     -32.936   8.711   3.624  1.00 20.00     0.006 C 
HETATM    2  C2  UNL     1     -33.261   8.469   5.101  1.00 20.00     0.021 C 
HETATM    3  C3  UNL     1     -33.185   6.266   3.040  1.00 20.00     0.010 C 
HETATM    4  C4  UNL     1     -32.266   7.498   2.981  1.00 20.00    -0.014 C 
HETATM    5  C5  UNL     1     -34.093   6.209   4.290  1.00 20.00     0.000 C 
HETATM    6  C6  UNL     1     -33.460   6.988   5.455  1.00 20.00     0.086 C 
HETATM    7  C7  UNL     1     -34.406   4.746   4.621  1.00 20.00     0.011 C 
HETATM    8 CL10 UNL     1     -34.427   6.883   6.959  1.00 20.00    -0.125 Cl
ENDROOT
BRANCH   4   9
HETATM    9  C9  UNL     1     -31.846   7.794   1.543  1.00 20.00     0.000 C 
HETATM   10  C8  UNL     1     -32.583   8.968   0.986  1.00 20.00     0.005 C 
ENDBRANCH   4   9
TORSDOF 1
ENDMDL
MODEL 2
REMARK VINA RESULT:      -4.9      2.314      3.989
REMARK  1 active torsions:
REMARK  status: ('A' for Active; 'I' for Inactive)
REMARK    1  A    between atoms: C4_4  and  C9_9 
ROOT
HETATM    1  C1  UNL     1     -32.753   8.242   5.043  1.00 20.00     0.006 C 
HETATM    2  C2  UNL     1     -32.425   8.723   3.626  1.00 20.00     0.021 C 
HETATM    3  C3  UNL     1     -33.567   5.994   4.226  1.00 20.00     0.010 C 
HETATM    4  C4  UNL     1     -33.910   7.245   5.053  1.00 20.00    -0.014 C 
HETATM    5  C5  UNL     1     -32.652   6.267   3.010  1.00 20.00     0.000 C 
HETATM    6  C6  UNL     1     -32.811   7.720   2.529  1.00 20.00     0.086 C 
HETATM    7  C7  UNL     1     -32.930   5.222   1.924  1.00 20.00     0.011 C 
HETATM    8 CL10 UNL     1     -31.840   8.069   1.065  1.00 20.00    -0.125 Cl
ENDROOT
BRANCH   4   9
HETATM    9  C9  UNL     1     -34.299   6.863   6.479  1.00 20.00     0.000 C 
HETATM   10  C8  UNL     1     -34.626   5.410   6.590  1.00 20.00     0.005 C 
ENDBRANCH   4   9
TORSDOF 1
ENDMDL
MODEL 3
REMARK VINA RESULT:      -4.7      0.923      2.227
REMARK  1 active torsions:
REMARK  status: ('A' for Active; 'I' for Inactive)
REMARK    1  A    between atoms: C4_4  and  C9_9 
ROOT
HETATM    1  C1  UNL     1     -32.592   6.037   2.656  1.00 20.00     0.006 C 
HETATM    2  C2  UNL     1     -33.588   5.392   3.624  1.00 20.00     0.021 C 
HETATM    3  C3  UNL     1     -32.752   8.287   3.793  1.00 20.00     0.010 C 
HETATM    4  C4  UNL     1     -32.869   7.526   2.461  1.00 20.00    -0.014 C 
HETATM    5  C5  UNL     1     -33.179   7.467   5.033  1.00 20.00     0.000 C 
HETATM    6  C6  UNL     1     -34.189   6.376   4.638  1.00 20.00     0.086 C 
HETATM    7  C7  UNL     1     -33.691   8.421   6.117  1.00 20.00     0.011 C 
HETATM    8 CL10 UNL     1     -34.788   5.450   6.049  1.00 20.00    -0.125 Cl
ENDROOT
BRANCH   4   9
HETATM    9  C9  UNL     1     -31.941   8.130   1.409  1.00 20.00     0.000 C 
HETATM   10  C8  UNL     1     -32.635   9.173   0.596  1.00 20.00     0.005 C 
ENDBRANCH   4   9
TORSDOF 1
ENDMDL
MODEL 4
REMARK VINA RESULT:      -4.2      0.936      1.183
REMARK  1 active torsions:
REMARK  status: ('A' for Active; 'I' for Inactive)
REMARK    1  A    between atoms: C4_4  and  C9_9 
ROOT
HETATM    1  C1  UNL     1     -33.662   8.522   4.802  1.00 20.00     0.006 C 
HETATM    2  C2  UNL     1     -34.023   7.636   5.997  1.00 20.00     0.021 C 
HETATM    3  C3  UNL     1     -33.125   6.538   3.334  1.00 20.00     0.010 C 
HETATM    4  C4  UNL     1     -32.610   7.870   3.906  1.00 20.00    -0.014 C 
HETATM    5  C5  UNL     1     -34.079   5.767   4.276  1.00 20.00     0.000 C 
HETATM    6  C6  UNL     1     -33.805   6.137   5.743  1.00 20.00     0.086 C 
HETATM    7  C7  UNL     1     -33.971   4.267   3.986  1.00 20.00     0.011 C 
HETATM    8 CL10 UNL     1     -34.821   5.208   6.888  1.00 20.00    -0.125 Cl
ENDROOT
BRANCH   4   9
HETATM    9  C9  UNL     1     -32.178   8.811   2.784  1.00 20.00     0.000 C 
HETATM   10  C8  UNL     1     -32.172   8.122   1.459  1.00 20.00     0.005 C 
ENDBRANCH   4   9
TORSDOF 1
ENDMDL
MODEL 5
REMARK VINA RESULT:      -4.2     11.599     12.836
REMARK  1 active torsions:
REMARK  status: ('A' for Active; 'I' for Inactive)
REMARK    1  A    between atoms: C4_4  and  C9_9 
ROOT
HETATM    1  C1  UNL     1     -33.021  18.917  -2.904  1.00 20.00     0.006 C 
HETATM    2  C2  UNL     1     -33.701  18.753  -4.265  1.00 20.00     0.021 C 
HETATM    3  C3  UNL     1     -33.402  16.500  -2.280  1.00 20.00     0.010 C 
HETATM    4  C4  UNL     1     -33.599  17.966  -1.858  1.00 20.00    -0.014 C 
HETATM    5  C5  UNL     1     -33.454  16.265  -3.808  1.00 20.00     0.000 C 
HETATM    6  C6  UNL     1     -34.295  17.355  -4.494  1.00 20.00     0.086 C 
HETATM    7  C7  UNL     1     -33.944  14.840  -4.084  1.00 20.00     0.011 C 
HETATM    8 CL10 UNL     1     -34.465  17.085  -6.256  1.00 20.00    -0.125 Cl
ENDROOT
BRANCH   4   9
HETATM    9  C9  UNL     1     -32.991  18.220  -0.481  1.00 20.00     0.000 C 
HETATM   10  C8  UNL     1     -31.527  18.501  -0.569  1.00 20.00     0.005 C 
ENDBRANCH   4   9
TORSDOF 1
ENDMDL
MODEL 6
REMARK VINA RESULT:      -3.8      2.315      4.483
REMARK  1 active torsions:
REMARK  status: ('A' for Active; 'I' for Inactive)
REMARK    1  A    between atoms: C4_4  and  C9_9 
ROOT
HETATM    1  C1  UNL     1     -34.036   5.297   3.662  1.00 20.00     0.006 C 
HETATM    2  C2  UNL     1     -33.112   5.838   2.567  1.00 20.00     0.021 C 
HETATM    3  C3  UNL     1     -33.475   7.183   5.244  1.00 20.00     0.010 C 
HETATM    4  C4  UNL     1     -33.538   5.657   5.060  1.00 20.00    -0.014 C 
HETATM    5  C5  UNL     1     -33.126   7.966   3.957  1.00 20.00     0.000 C 
HETATM    6  C6  UNL     1     -32.319   7.084   2.990  1.00 20.00     0.086 C 
HETATM    7  C7  UNL     1     -32.423   9.274   4.336  1.00 20.00     0.011 C 
HETATM    8 CL10 UNL     1     -31.811   7.967   1.517  1.00 20.00    -0.125 Cl
ENDROOT
BRANCH   4   9
HETATM    9  C9  UNL     1     -34.405   5.016   6.140  1.00 20.00     0.000 C 
HETATM   10  C8  UNL     1     -35.137   6.042   6.941  1.00 20.00     0.005 C 
ENDBRANCH   4   9
TORSDOF 1
ENDMDL
MODEL 7
REMARK VINA RESULT:      -3.7     12.084     12.591
REMARK  1 active torsions:
REMARK  status: ('A' for Active; 'I' for Inactive)
REMARK    1  A    between atoms: C4_4  and  C9_9 
ROOT
HETATM    1  C1  UNL     1     -31.109  18.244  -0.264  1.00 20.00     0.006 C 
HETATM    2  C2  UNL     1     -32.214  18.413  -1.309  1.00 20.00     0.021 C 
HETATM    3  C3  UNL     1     -32.576  19.093   1.609  1.00 20.00     0.010 C 
HETATM    4  C4  UNL     1     -31.236  19.258   0.871  1.00 20.00    -0.014 C 
HETATM    5  C5  UNL     1     -33.745  18.628   0.709  1.00 20.00     0.000 C 
HETATM    6  C6  UNL     1     -33.500  19.043  -0.752  1.00 20.00     0.086 C 
HETATM    7  C7  UNL     1     -35.065  19.147   1.288  1.00 20.00     0.011 C 
HETATM    8 CL10 UNL     1     -34.864  18.608  -1.827  1.00 20.00    -0.125 Cl
ENDROOT
BRANCH   4   9
HETATM    9  C9  UNL     1     -30.064  19.152   1.844  1.00 20.00     0.000 C 
HETATM   10  C8  UNL     1     -30.528  18.865   3.235  1.00 20.00     0.005 C 
ENDBRANCH   4   9
TORSDOF 1
ENDMDL
MODEL 8
REMARK VINA RESULT:      -3.7     11.590     13.037
REMARK  1 active torsions:
REMARK  status: ('A' for Active; 'I' for Inactive)
REMARK    1  A    between atoms: C4_4  and  C9_9 
ROOT
HETATM    1  C1  UNL     1     -33.530  15.903  -3.052  1.00 20.00     0.006 C 
HETATM    2  C2  UNL     1     -33.845  15.116  -4.328  1.00 20.00     0.021 C 
HETATM    3  C3  UNL     1     -34.526  18.034  -3.970  1.00 20.00     0.010 C 
HETATM    4  C4  UNL     1     -33.284  17.382  -3.340  1.00 20.00    -0.014 C 
HETATM    5  C5  UNL     1     -35.353  17.089  -4.872  1.00 20.00     0.000 C 
HETATM    6  C6  UNL     1     -34.463  15.972  -5.444  1.00 20.00     0.086 C 
HETATM    7  C7  UNL     1     -36.075  17.914  -5.942  1.00 20.00     0.011 C 
HETATM    8 CL10 UNL     1     -35.348  14.895  -6.568  1.00 20.00    -0.125 Cl
ENDROOT
BRANCH   4   9
HETATM    9  C9  UNL     1     -32.861  18.129  -2.077  1.00 20.00     0.000 C 
HETATM   10  C8  UNL     1     -33.634  17.674  -0.883  1.00 20.00     0.005 C 
ENDBRANCH   4   9
TORSDOF 1
ENDMDL
MODEL 9
REMARK VINA RESULT:      -3.6      9.865     10.878
REMARK  1 active torsions:
REMARK  status: ('A' for Active; 'I' for Inactive)
REMARK    1  A    between atoms: C4_4  and  C9_9 
ROOT
HETATM    1  C1  UNL     1     -40.048  13.651   7.362  1.00 20.00     0.006 C 
HETATM    2  C2  UNL     1     -41.235  14.449   7.910  1.00 20.00     0.021 C 
HETATM    3  C3  UNL     1     -41.155  13.305   5.118  1.00 20.00     0.010 C 
HETATM    4  C4  UNL     1     -40.484  12.621   6.322  1.00 20.00    -0.014 C 
HETATM    5  C5  UNL     1     -41.946  14.586   5.473  1.00 20.00     0.000 C 
HETATM    6  C6  UNL     1     -42.419  14.541   6.936  1.00 20.00     0.086 C 
HETATM    7  C7  UNL     1     -43.080  14.776   4.461  1.00 20.00     0.011 C 
HETATM    8 CL10 UNL     1     -43.417  15.960   7.379  1.00 20.00    -0.125 Cl
ENDROOT
BRANCH   4   9
HETATM    9  C9  UNL     1     -39.308  11.758   5.869  1.00 20.00     0.000 C 
HETATM   10  C8  UNL     1     -39.167  11.756   4.383  1.00 20.00     0.005 C 
ENDBRANCH   4   9
TORSDOF 1
ENDMDL
