MODEL 1
REMARK VINA RESULT:      -3.8      0.000      0.000
REMARK  4 active torsions:
REMARK  status: ('A' for Active; 'I' for Inactive)
REMARK    1  A    between atoms: C5_5  and  C6_6 
REMARK    2  A    between atoms: C5_5  and  C7_7 
REMARK    3  A    between atoms: C6_6  and  C8_8 
REMARK    4  A    between atoms: C7_7  and  C9_9 
ROOT
HETATM    1  C5  UNL     1     -33.622   8.050   4.837  1.00 20.00     0.002 C 
ENDROOT
BRANCH   1   2
HETATM    2  C6  UNL     1     -32.248   8.439   4.272  1.00 20.00     0.020 C 
BRANCH   2   3
HETATM    3  C8  UNL     1     -32.035   8.128   2.784  1.00 20.00     0.078 C 
HETATM    4  C1  UNL     1     -32.774   9.075   1.847  1.00 20.00     0.026 C 
HETATM    5 CL10 UNL     1     -32.500   6.439   2.417  1.00 20.00    -0.125 Cl
ENDBRANCH   2   3
ENDBRANCH   1   2
BRANCH   1   6
HETATM    6  C7  UNL     1     -33.506   6.822   5.752  1.00 20.00     0.008 C 
BRANCH   6   7
HETATM    7  C9  UNL     1     -34.477   5.653   5.438  1.00 20.00    -0.051 C 
HETATM    8  C2  UNL     1     -35.577   6.091   4.457  1.00 20.00     0.014 C 
HETATM    9  C3  UNL     1     -33.726   4.447   4.851  1.00 20.00     0.014 C 
HETATM   10  C4  UNL     1     -35.146   5.217   6.757  1.00 20.00     0.014 C 
ENDBRANCH   6   7
ENDBRANCH   1   6
TORSDOF 4
ENDMDL
MODEL 2
REMARK VINA RESULT:      -3.8      1.257      1.354
REMARK  4 active torsions:
REMARK  status: ('A' for Active; 'I' for Inactive)
REMARK    1  A    between atoms: C5_5  and  C6_6 
REMARK    2  A    between atoms: C5_5  and  C7_7 
REMARK    3  A    between atoms: C6_6  and  C8_8 
REMARK    4  A    between atoms: C7_7  and  C9_9 
ROOT
HETATM    1  C5  UNL     1     -33.656   8.295   5.221  1.00 20.00     0.002 C 
ENDROOT
BRANCH   1   2
HETATM    2  C6  UNL     1     -32.620   8.772   4.191  1.00 20.00     0.020 C 
BRANCH   2   3
HETATM    3  C8  UNL     1     -32.923   8.404   2.732  1.00 20.00     0.078 C 
HETATM    4  C1  UNL     1     -32.012   7.319   2.172  1.00 20.00     0.026 C 
HETATM    5 CL10 UNL     1     -32.844   9.852   1.684  1.00 20.00    -0.125 Cl
ENDBRANCH   2   3
ENDBRANCH   1   2
BRANCH   1   6
HETATM    6  C7  UNL     1     -33.361   6.855   5.663  1.00 20.00     0.008 C 
BRANCH   6   7
HETATM    7  C9  UNL     1     -34.373   5.781   5.181  1.00 20.00    -0.051 C 
HETATM    8  C2  UNL     1     -35.566   6.426   4.457  1.00 20.00     0.014 C 
HETATM    9  C3  UNL     1     -33.702   4.765   4.243  1.00 20.00     0.014 C 
HETATM   10  C4  UNL     1     -34.901   5.029   6.419  1.00 20.00     0.014 C 
ENDBRANCH   6   7
ENDBRANCH   1   6
TORSDOF 4
ENDMDL
MODEL 3
REMARK VINA RESULT:      -3.7      1.473      1.923
REMARK  4 active torsions:
REMARK  status: ('A' for Active; 'I' for Inactive)
REMARK    1  A    between atoms: C5_5  and  C6_6 
REMARK    2  A    between atoms: C5_5  and  C7_7 
REMARK    3  A    between atoms: C6_6  and  C8_8 
REMARK    4  A    between atoms: C7_7  and  C9_9 
ROOT
HETATM    1  C5  UNL     1     -32.822   7.930   5.194  1.00 20.00     0.002 C 
ENDROOT
BRANCH   1   2
HETATM    2  C6  UNL     1     -32.198   8.776   4.074  1.00 20.00     0.020 C 
BRANCH   2   3
HETATM    3  C8  UNL     1     -32.800   8.571   2.678  1.00 20.00     0.078 C 
HETATM    4  C1  UNL     1     -32.011   7.602   1.806  1.00 20.00     0.026 C 
HETATM    5 CL10 UNL     1     -32.974  10.135   1.826  1.00 20.00    -0.125 Cl
ENDBRANCH   2   3
ENDBRANCH   1   2
BRANCH   1   6
HETATM    6  C7  UNL     1     -34.270   7.554   4.849  1.00 20.00     0.008 C 
BRANCH   6   7
HETATM    7  C9  UNL     1     -34.589   6.035   4.840  1.00 20.00    -0.051 C 
HETATM    8  C2  UNL     1     -33.604   5.265   3.945  1.00 20.00     0.014 C 
HETATM    9  C3  UNL     1     -34.547   5.447   6.260  1.00 20.00     0.014 C 
HETATM   10  C4  UNL     1     -36.011   5.846   4.275  1.00 20.00     0.014 C 
ENDBRANCH   6   7
ENDBRANCH   1   6
TORSDOF 4
ENDMDL
MODEL 4
REMARK VINA RESULT:      -3.7     12.023     13.010
REMARK  4 active torsions:
REMARK  status: ('A' for Active; 'I' for Inactive)
REMARK    1  A    between atoms: C5_5  and  C6_6 
REMARK    2  A    between atoms: C5_5  and  C7_7 
REMARK    3  A    between atoms: C6_6  and  C8_8 
REMARK    4  A    between atoms: C7_7  and  C9_9 
ROOT
HETATM    1  C5  UNL     1     -33.055  16.149  -3.530  1.00 20.00     0.002 C 
ENDROOT
BRANCH   1   2
HETATM    2  C6  UNL     1     -33.457  16.685  -2.148  1.00 20.00     0.020 C 
BRANCH   2   3
HETATM    3  C8  UNL     1     -33.150  18.168  -1.901  1.00 20.00     0.078 C 
HETATM    4  C1  UNL     1     -32.925  18.969  -3.177  1.00 20.00     0.026 C 
HETATM    5 CL10 UNL     1     -31.734  18.351  -0.823  1.00 20.00    -0.125 Cl
ENDBRANCH   2   3
ENDBRANCH   1   2
BRANCH   1   6
HETATM    6  C7  UNL     1     -33.992  15.014  -3.969  1.00 20.00     0.008 C 
BRANCH   6   7
HETATM    7  C9  UNL     1     -34.842  15.295  -5.236  1.00 20.00    -0.051 C 
HETATM    8  C2  UNL     1     -35.463  16.700  -5.191  1.00 20.00     0.014 C 
HETATM    9  C3  UNL     1     -34.001  15.155  -6.515  1.00 20.00     0.014 C 
HETATM   10  C4  UNL     1     -35.984  14.259  -5.286  1.00 20.00     0.014 C 
ENDBRANCH   6   7
ENDBRANCH   1   6
TORSDOF 4
ENDMDL
MODEL 5
REMARK VINA RESULT:      -3.6     11.883     12.865
REMARK  4 active torsions:
REMARK  status: ('A' for Active; 'I' for Inactive)
REMARK    1  A    between atoms: C5_5  and  C6_6 
REMARK    2  A    between atoms: C5_5  and  C7_7 
REMARK    3  A    between atoms: C6_6  and  C8_8 
REMARK    4  A    between atoms: C7_7  and  C9_9 
ROOT
HETATM    1  C5  UNL     1     -33.189  16.509  -3.462  1.00 20.00     0.002 C 
ENDROOT
BRANCH   1   2
HETATM    2  C6  UNL     1     -33.601  15.140  -4.024  1.00 20.00     0.020 C 
BRANCH   2   3
HETATM    3  C8  UNL     1     -34.549  15.180  -5.230  1.00 20.00     0.078 C 
HETATM    4  C1  UNL     1     -35.099  16.569  -5.531  1.00 20.00     0.026 C 
HETATM    5 CL10 UNL     1     -35.905  14.034  -5.008  1.00 20.00    -0.125 Cl
ENDBRANCH   2   3
ENDBRANCH   1   2
BRANCH   1   6
HETATM    6  C7  UNL     1     -33.566  16.626  -1.979  1.00 20.00     0.008 C 
BRANCH   6   7
HETATM    7  C9  UNL     1     -33.662  18.070  -1.418  1.00 20.00    -0.051 C 
HETATM    8  C2  UNL     1     -33.798  18.065   0.113  1.00 20.00     0.014 C 
HETATM    9  C3  UNL     1     -32.433  18.904  -1.814  1.00 20.00     0.014 C 
HETATM   10  C4  UNL     1     -34.918  18.735  -2.018  1.00 20.00     0.014 C 
ENDBRANCH   6   7
ENDBRANCH   1   6
TORSDOF 4
ENDMDL
MODEL 6
REMARK VINA RESULT:      -3.6     11.965     12.840
REMARK  4 active torsions:
REMARK  status: ('A' for Active; 'I' for Inactive)
REMARK    1  A    between atoms: C5_5  and  C6_6 
REMARK    2  A    between atoms: C5_5  and  C7_7 
REMARK    3  A    between atoms: C6_6  and  C8_8 
REMARK    4  A    between atoms: C7_7  and  C9_9 
ROOT
HETATM    1  C5  UNL     1     -33.282  16.677  -3.379  1.00 20.00     0.002 C 
ENDROOT
BRANCH   1   2
HETATM    2  C6  UNL     1     -33.609  16.710  -1.878  1.00 20.00     0.020 C 
BRANCH   2   3
HETATM    3  C8  UNL     1     -33.314  18.038  -1.168  1.00 20.00     0.078 C 
HETATM    4  C1  UNL     1     -31.832  18.387  -1.111  1.00 20.00     0.026 C 
HETATM    5 CL10 UNL     1     -33.993  18.036   0.487  1.00 20.00    -0.125 Cl
ENDBRANCH   2   3
ENDBRANCH   1   2
BRANCH   1   6
HETATM    6  C7  UNL     1     -33.626  15.307  -3.981  1.00 20.00     0.008 C 
BRANCH   6   7
HETATM    7  C9  UNL     1     -34.647  15.321  -5.150  1.00 20.00    -0.051 C 
HETATM    8  C2  UNL     1     -33.942  15.165  -6.507  1.00 20.00     0.014 C 
HETATM    9  C3  UNL     1     -35.692  14.205  -4.991  1.00 20.00     0.014 C 
HETATM   10  C4  UNL     1     -35.376  16.680  -5.132  1.00 20.00     0.014 C 
ENDBRANCH   6   7
ENDBRANCH   1   6
TORSDOF 4
ENDMDL
MODEL 7
REMARK VINA RESULT:      -3.5      1.487      4.220
REMARK  4 active torsions:
REMARK  status: ('A' for Active; 'I' for Inactive)
REMARK    1  A    between atoms: C5_5  and  C6_6 
REMARK    2  A    between atoms: C5_5  and  C7_7 
REMARK    3  A    between atoms: C6_6  and  C8_8 
REMARK    4  A    between atoms: C7_7  and  C9_9 
ROOT
HETATM    1  C5  UNL     1     -33.533   7.074   6.034  1.00 20.00     0.002 C 
ENDROOT
BRANCH   1   2
HETATM    2  C6  UNL     1     -34.665   6.093   6.373  1.00 20.00     0.020 C 
BRANCH   2   3
HETATM    3  C8  UNL     1     -35.088   5.154   5.235  1.00 20.00     0.078 C 
HETATM    4  C1  UNL     1     -33.919   4.466   4.542  1.00 20.00     0.026 C 
HETATM    5 CL10 UNL     1     -36.070   6.031   4.023  1.00 20.00    -0.125 Cl
ENDBRANCH   2   3
ENDBRANCH   1   2
BRANCH   1   6
HETATM    6  C7  UNL     1     -33.917   7.956   4.837  1.00 20.00     0.008 C 
BRANCH   6   7
HETATM    7  C9  UNL     1     -32.739   8.438   3.949  1.00 20.00    -0.051 C 
HETATM    8  C2  UNL     1     -32.046   7.254   3.253  1.00 20.00     0.014 C 
HETATM    9  C3  UNL     1     -33.215   9.440   2.885  1.00 20.00     0.014 C 
HETATM   10  C4  UNL     1     -31.710   9.140   4.857  1.00 20.00     0.014 C 
ENDBRANCH   6   7
ENDBRANCH   1   6
TORSDOF 4
ENDMDL
MODEL 8
REMARK VINA RESULT:      -3.3     12.087     13.262
REMARK  4 active torsions:
REMARK  status: ('A' for Active; 'I' for Inactive)
REMARK    1  A    between atoms: C5_5  and  C6_6 
REMARK    2  A    between atoms: C5_5  and  C7_7 
REMARK    3  A    between atoms: C6_6  and  C8_8 
REMARK    4  A    between atoms: C7_7  and  C9_9 
ROOT
HETATM    1  C5  UNL     1     -33.734  17.439  -0.795  1.00 20.00     0.002 C 
ENDROOT
BRANCH   1   2
HETATM    2  C6  UNL     1     -33.586  18.335   0.444  1.00 20.00     0.020 C 
BRANCH   2   3
HETATM    3  C8  UNL     1     -32.196  18.954   0.648  1.00 20.00     0.078 C 
HETATM    4  C1  UNL     1     -31.168  18.504  -0.381  1.00 20.00     0.026 C 
HETATM    5 CL10 UNL     1     -31.586  18.610   2.294  1.00 20.00    -0.125 Cl
ENDBRANCH   2   3
ENDBRANCH   1   2
BRANCH   1   6
HETATM    6  C7  UNL     1     -34.450  18.189  -1.928  1.00 20.00     0.008 C 
BRANCH   6   7
HETATM    7  C9  UNL     1     -34.011  17.814  -3.368  1.00 20.00    -0.051 C 
HETATM    8  C2  UNL     1     -33.291  16.455  -3.394  1.00 20.00     0.014 C 
HETATM    9  C3  UNL     1     -35.214  17.767  -4.324  1.00 20.00     0.014 C 
HETATM   10  C4  UNL     1     -33.031  18.894  -3.868  1.00 20.00     0.014 C 
ENDBRANCH   6   7
ENDBRANCH   1   6
TORSDOF 4
ENDMDL
MODEL 9
REMARK VINA RESULT:      -3.3      1.507      2.035
REMARK  4 active torsions:
REMARK  status: ('A' for Active; 'I' for Inactive)
REMARK    1  A    between atoms: C5_5  and  C6_6 
REMARK    2  A    between atoms: C5_5  and  C7_7 
REMARK    3  A    between atoms: C6_6  and  C8_8 
REMARK    4  A    between atoms: C7_7  and  C9_9 
ROOT
HETATM    1  C5  UNL     1     -32.468   7.330   3.419  1.00 20.00     0.002 C 
ENDROOT
BRANCH   1   2
HETATM    2  C6  UNL     1     -32.152   7.368   1.916  1.00 20.00     0.020 C 
BRANCH   2   3
HETATM    3  C8  UNL     1     -32.265   8.748   1.253  1.00 20.00     0.078 C 
HETATM    4  C1  UNL     1     -33.034   9.767   2.085  1.00 20.00     0.026 C 
HETATM    5 CL10 UNL     1     -33.011   8.613  -0.368  1.00 20.00    -0.125 Cl
ENDBRANCH   2   3
ENDBRANCH   1   2
BRANCH   1   6
HETATM    6  C7  UNL     1     -33.230   6.048   3.783  1.00 20.00     0.008 C 
BRANCH   6   7
HETATM    7  C9  UNL     1     -34.292   6.191   4.905  1.00 20.00    -0.051 C 
HETATM    8  C2  UNL     1     -35.716   6.221   4.325  1.00 20.00     0.014 C 
HETATM    9  C3  UNL     1     -34.186   5.045   5.924  1.00 20.00     0.014 C 
HETATM   10  C4  UNL     1     -34.037   7.523   5.640  1.00 20.00     0.014 C 
ENDBRANCH   6   7
ENDBRANCH   1   6
TORSDOF 4
ENDMDL
