MODEL 1
REMARK VINA RESULT:      -3.8      0.000      0.000
REMARK  4 active torsions:
REMARK  status: ('A' for Active; 'I' for Inactive)
REMARK    1  A    between atoms: C6_6  and  C7_7 
REMARK    2  A    between atoms: C7_7  and  C9_9 
REMARK    3  A    between atoms: C8_8  and  C9_9 
REMARK    4  A    between atoms: C8_8  and  N11_11 
ROOT
HETATM    1  C1  UNL     1     -31.921  18.415  -0.655  1.00 20.00     0.095 C 
HETATM    2  C8  UNL     1     -33.349  18.146  -0.907  1.00 20.00     0.331 C 
HETATM    3  N10 UNL     1     -30.798  18.623  -0.453  1.00 20.00    -0.195 NA
ENDROOT
BRANCH   2   4
HETATM    4  C9  UNL     1     -33.648  17.880  -2.410  1.00 20.00     0.029 C 
HETATM    5  C3  UNL     1     -32.923  18.857  -3.348  1.00 20.00     0.013 C 
BRANCH   4   6
HETATM    6  C7  UNL     1     -33.343  16.407  -2.776  1.00 20.00     0.007 C 
BRANCH   6   7
HETATM    7  C6  UNL     1     -33.862  16.002  -4.158  1.00 20.00    -0.004 C 
HETATM    8  C2  UNL     1     -33.875  14.488  -4.324  1.00 20.00     0.005 C 
ENDBRANCH   6   7
ENDBRANCH   4   6
ENDBRANCH   2   4
BRANCH   2   9
HETATM    9  N11 UNL     1     -34.155  19.262  -0.406  1.00 20.00     0.098 N 
HETATM   10  C4  UNL     1     -34.252  19.204   1.052  1.00 20.00     0.311 C 
HETATM   11  C5  UNL     1     -35.485  19.241  -1.011  1.00 20.00     0.311 C 
ENDBRANCH   2   9
TORSDOF 4
ENDMDL
MODEL 2
REMARK VINA RESULT:      -3.8      3.533      5.544
REMARK  4 active torsions:
REMARK  status: ('A' for Active; 'I' for Inactive)
REMARK    1  A    between atoms: C6_6  and  C7_7 
REMARK    2  A    between atoms: C7_7  and  C9_9 
REMARK    3  A    between atoms: C8_8  and  C9_9 
REMARK    4  A    between atoms: C8_8  and  N11_11 
ROOT
HETATM    1  C1  UNL     1     -35.331  15.237  -6.364  1.00 20.00     0.095 C 
HETATM    2  C8  UNL     1     -34.547  16.268  -5.660  1.00 20.00     0.331 C 
HETATM    3  N10 UNL     1     -35.945  14.425  -6.922  1.00 20.00    -0.195 NA
ENDROOT
BRANCH   2   4
HETATM    4  C9  UNL     1     -34.077  15.802  -4.252  1.00 20.00     0.029 C 
HETATM    5  C3  UNL     1     -33.276  14.491  -4.292  1.00 20.00     0.013 C 
BRANCH   4   6
HETATM    6  C7  UNL     1     -33.294  16.928  -3.536  1.00 20.00     0.007 C 
BRANCH   6   7
HETATM    7  C6  UNL     1     -33.559  16.992  -2.029  1.00 20.00    -0.004 C 
HETATM    8  C2  UNL     1     -32.610  17.963  -1.341  1.00 20.00     0.005 C 
ENDBRANCH   6   7
ENDBRANCH   4   6
ENDBRANCH   2   4
BRANCH   2   9
HETATM    9  N11 UNL     1     -35.331  17.502  -5.566  1.00 20.00     0.098 N 
HETATM   10  C4  UNL     1     -36.656  17.221  -5.016  1.00 20.00     0.311 C 
HETATM   11  C5  UNL     1     -35.443  18.136  -6.878  1.00 20.00     0.311 C 
ENDBRANCH   2   9
TORSDOF 4
ENDMDL
MODEL 3
REMARK VINA RESULT:      -3.6     10.906     12.244
REMARK  4 active torsions:
REMARK  status: ('A' for Active; 'I' for Inactive)
REMARK    1  A    between atoms: C6_6  and  C7_7 
REMARK    2  A    between atoms: C7_7  and  C9_9 
REMARK    3  A    between atoms: C8_8  and  C9_9 
REMARK    4  A    between atoms: C8_8  and  N11_11 
ROOT
HETATM    1  C1  UNL     1     -41.371  15.951   6.982  1.00 20.00     0.095 C 
HETATM    2  C8  UNL     1     -40.854  14.580   7.143  1.00 20.00     0.331 C 
HETATM    3  N10 UNL     1     -41.773  17.032   6.855  1.00 20.00    -0.195 NA
ENDROOT
BRANCH   2   4
HETATM    4  C9  UNL     1     -41.620  13.549   6.265  1.00 20.00     0.029 C 
HETATM    5  C3  UNL     1     -41.999  14.103   4.883  1.00 20.00     0.013 C 
BRANCH   4   6
HETATM    6  C7  UNL     1     -40.822  12.228   6.151  1.00 20.00     0.007 C 
BRANCH   6   7
HETATM    7  C6  UNL     1     -39.388  12.423   5.650  1.00 20.00    -0.004 C 
HETATM    8  C2  UNL     1     -39.153  11.683   4.340  1.00 20.00     0.005 C 
ENDBRANCH   6   7
ENDBRANCH   4   6
ENDBRANCH   2   4
BRANCH   2   9
HETATM    9  N11 UNL     1     -40.902  14.199   8.557  1.00 20.00     0.098 N 
HETATM   10  C4  UNL     1     -42.289  14.123   9.015  1.00 20.00     0.311 C 
HETATM   11  C5  UNL     1     -40.145  15.151   9.366  1.00 20.00     0.311 C 
ENDBRANCH   2   9
TORSDOF 4
ENDMDL
MODEL 4
REMARK VINA RESULT:      -3.5     11.075     12.555
REMARK  4 active torsions:
REMARK  status: ('A' for Active; 'I' for Inactive)
REMARK    1  A    between atoms: C6_6  and  C7_7 
REMARK    2  A    between atoms: C7_7  and  C9_9 
REMARK    3  A    between atoms: C8_8  and  C9_9 
REMARK    4  A    between atoms: C8_8  and  N11_11 
ROOT
HETATM    1  C1  UNL     1     -42.459  13.353   8.412  1.00 20.00     0.095 C 
HETATM    2  C8  UNL     1     -41.809  14.173   7.374  1.00 20.00     0.331 C 
HETATM    3  N10 UNL     1     -42.975  12.710   9.230  1.00 20.00    -0.195 NA
ENDROOT
BRANCH   2   4
HETATM    4  C9  UNL     1     -41.463  13.353   6.098  1.00 20.00     0.029 C 
HETATM    5  C3  UNL     1     -41.894  14.055   4.801  1.00 20.00     0.013 C 
BRANCH   4   6
HETATM    6  C7  UNL     1     -39.959  12.986   6.075  1.00 20.00     0.007 C 
BRANCH   6   7
HETATM    7  C6  UNL     1     -39.682  11.587   5.517  1.00 20.00    -0.004 C 
HETATM    8  C2  UNL     1     -39.027  11.658   4.145  1.00 20.00     0.005 C 
ENDBRANCH   6   7
ENDBRANCH   4   6
ENDBRANCH   2   4
BRANCH   2   9
HETATM    9  N11 UNL     1     -40.609  14.806   7.928  1.00 20.00     0.098 N 
HETATM   10  C4  UNL     1     -40.531  14.571   9.369  1.00 20.00     0.311 C 
HETATM   11  C5  UNL     1     -40.610  16.238   7.640  1.00 20.00     0.311 C 
ENDBRANCH   2   9
TORSDOF 4
ENDMDL
MODEL 5
REMARK VINA RESULT:      -3.4      3.186      5.385
REMARK  4 active torsions:
REMARK  status: ('A' for Active; 'I' for Inactive)
REMARK    1  A    between atoms: C6_6  and  C7_7 
REMARK    2  A    between atoms: C7_7  and  C9_9 
REMARK    3  A    between atoms: C8_8  and  C9_9 
REMARK    4  A    between atoms: C8_8  and  N11_11 
ROOT
HETATM    1  C1  UNL     1     -35.572  17.267  -5.646  1.00 20.00     0.095 C 
HETATM    2  C8  UNL     1     -34.951  16.413  -4.617  1.00 20.00     0.331 C 
HETATM    3  N10 UNL     1     -36.065  17.939  -6.453  1.00 20.00    -0.195 NA
ENDROOT
BRANCH   2   4
HETATM    4  C9  UNL     1     -33.627  17.015  -4.063  1.00 20.00     0.029 C 
HETATM    5  C3  UNL     1     -33.578  18.547  -4.164  1.00 20.00     0.013 C 
BRANCH   4   6
HETATM    6  C7  UNL     1     -33.369  16.529  -2.616  1.00 20.00     0.007 C 
BRANCH   6   7
HETATM    7  C6  UNL     1     -32.851  17.631  -1.687  1.00 20.00    -0.004 C 
HETATM    8  C2  UNL     1     -33.778  17.833  -0.497  1.00 20.00     0.005 C 
ENDBRANCH   6   7
ENDBRANCH   4   6
ENDBRANCH   2   4
BRANCH   2   9
HETATM    9  N11 UNL     1     -34.725  15.072  -5.163  1.00 20.00     0.098 N 
HETATM   10  C4  UNL     1     -33.954  15.151  -6.402  1.00 20.00     0.311 C 
HETATM   11  C5  UNL     1     -36.000  14.395  -5.393  1.00 20.00     0.311 C 
ENDBRANCH   2   9
TORSDOF 4
ENDMDL
MODEL 6
REMARK VINA RESULT:      -3.4      3.344      5.439
REMARK  4 active torsions:
REMARK  status: ('A' for Active; 'I' for Inactive)
REMARK    1  A    between atoms: C6_6  and  C7_7 
REMARK    2  A    between atoms: C7_7  and  C9_9 
REMARK    3  A    between atoms: C8_8  and  C9_9 
REMARK    4  A    between atoms: C8_8  and  N11_11 
ROOT
HETATM    1  C1  UNL     1     -34.494  14.656  -4.596  1.00 20.00     0.095 C 
HETATM    2  C8  UNL     1     -34.125  15.946  -5.208  1.00 20.00     0.331 C 
HETATM    3  N10 UNL     1     -34.780  13.639  -4.117  1.00 20.00    -0.195 NA
ENDROOT
BRANCH   2   4
HETATM    4  C9  UNL     1     -33.923  17.070  -4.152  1.00 20.00     0.029 C 
HETATM    5  C3  UNL     1     -35.218  17.835  -3.838  1.00 20.00     0.013 C 
BRANCH   4   6
HETATM    6  C7  UNL     1     -33.269  16.504  -2.869  1.00 20.00     0.007 C 
BRANCH   6   7
HETATM    7  C6  UNL     1     -33.617  17.297  -1.606  1.00 20.00    -0.004 C 
HETATM    8  C2  UNL     1     -32.413  18.072  -1.089  1.00 20.00     0.005 C 
ENDBRANCH   6   7
ENDBRANCH   4   6
ENDBRANCH   2   4
BRANCH   2   9
HETATM    9  N11 UNL     1     -35.141  16.331  -6.192  1.00 20.00     0.098 N 
HETATM   10  C4  UNL     1     -35.763  15.141  -6.772  1.00 20.00     0.311 C 
HETATM   11  C5  UNL     1     -34.548  17.163  -7.237  1.00 20.00     0.311 C 
ENDBRANCH   2   9
TORSDOF 4
ENDMDL
MODEL 7
REMARK VINA RESULT:      -3.4     10.909     12.327
REMARK  4 active torsions:
REMARK  status: ('A' for Active; 'I' for Inactive)
REMARK    1  A    between atoms: C6_6  and  C7_7 
REMARK    2  A    between atoms: C7_7  and  C9_9 
REMARK    3  A    between atoms: C8_8  and  C9_9 
REMARK    4  A    between atoms: C8_8  and  N11_11 
ROOT
HETATM    1  C1  UNL     1     -42.142  14.516   4.744  1.00 20.00     0.095 C 
HETATM    2  C8  UNL     1     -41.822  14.773   6.160  1.00 20.00     0.331 C 
HETATM    3  N10 UNL     1     -42.391  14.317   3.628  1.00 20.00    -0.195 NA
ENDROOT
BRANCH   2   4
HETATM    4  C9  UNL     1     -41.401  13.482   6.919  1.00 20.00     0.029 C 
HETATM    5  C3  UNL     1     -42.405  12.332   6.749  1.00 20.00     0.013 C 
BRANCH   4   6
HETATM    6  C7  UNL     1     -39.969  13.053   6.515  1.00 20.00     0.007 C 
BRANCH   6   7
HETATM    7  C6  UNL     1     -39.913  11.684   5.832  1.00 20.00    -0.004 C 
HETATM    8  C2  UNL     1     -39.256  11.774   4.462  1.00 20.00     0.005 C 
ENDBRANCH   6   7
ENDBRANCH   4   6
ENDBRANCH   2   4
BRANCH   2   9
HETATM    9  N11 UNL     1     -42.967  15.411   6.815  1.00 20.00     0.098 N 
HETATM   10  C4  UNL     1     -43.295  16.672   6.149  1.00 20.00     0.311 C 
HETATM   11  C5  UNL     1     -42.684  15.636   8.231  1.00 20.00     0.311 C 
ENDBRANCH   2   9
TORSDOF 4
ENDMDL
MODEL 8
REMARK VINA RESULT:      -3.4     11.223     12.680
REMARK  4 active torsions:
REMARK  status: ('A' for Active; 'I' for Inactive)
REMARK    1  A    between atoms: C6_6  and  C7_7 
REMARK    2  A    between atoms: C7_7  and  C9_9 
REMARK    3  A    between atoms: C8_8  and  C9_9 
REMARK    4  A    between atoms: C8_8  and  N11_11 
ROOT
HETATM    1  C1  UNL     1     -42.826  12.907   7.897  1.00 20.00     0.095 C 
HETATM    2  C8  UNL     1     -42.387  13.015   6.494  1.00 20.00     0.331 C 
HETATM    3  N10 UNL     1     -43.175  12.817   9.001  1.00 20.00    -0.195 NA
ENDROOT
BRANCH   2   4
HETATM    4  C9  UNL     1     -40.854  13.248   6.367  1.00 20.00     0.029 C 
HETATM    5  C3  UNL     1     -40.254  13.966   7.585  1.00 20.00     0.013 C 
BRANCH   4   6
HETATM    6  C7  UNL     1     -40.122  11.916   6.072  1.00 20.00     0.007 C 
BRANCH   6   7
HETATM    7  C6  UNL     1     -38.795  12.102   5.330  1.00 20.00    -0.004 C 
HETATM    8  C2  UNL     1     -38.908  11.664   3.876  1.00 20.00     0.005 C 
ENDBRANCH   6   7
ENDBRANCH   4   6
ENDBRANCH   2   4
BRANCH   2   9
HETATM    9  N11 UNL     1     -43.133  14.085   5.827  1.00 20.00     0.098 N 
HETATM   10  C4  UNL     1     -42.459  14.481   4.592  1.00 20.00     0.311 C 
HETATM   11  C5  UNL     1     -43.285  15.233   6.720  1.00 20.00     0.311 C 
ENDBRANCH   2   9
TORSDOF 4
ENDMDL
MODEL 9
REMARK VINA RESULT:      -3.3     11.549     12.498
REMARK  4 active torsions:
REMARK  status: ('A' for Active; 'I' for Inactive)
REMARK    1  A    between atoms: C6_6  and  C7_7 
REMARK    2  A    between atoms: C7_7  and  C9_9 
REMARK    3  A    between atoms: C8_8  and  C9_9 
REMARK    4  A    between atoms: C8_8  and  N11_11 
ROOT
HETATM    1  C1  UNL     1     -34.432   5.603   4.575  1.00 20.00     0.095 C 
HETATM    2  C8  UNL     1     -33.743   6.878   4.307  1.00 20.00     0.331 C 
HETATM    3  N10 UNL     1     -34.979   4.601   4.786  1.00 20.00    -0.195 NA
ENDROOT
BRANCH   2   4
HETATM    4  C9  UNL     1     -32.530   6.708   3.348  1.00 20.00     0.029 C 
HETATM    5  C3  UNL     1     -32.735   5.590   2.314  1.00 20.00     0.013 C 
BRANCH   4   6
HETATM    6  C7  UNL     1     -32.176   8.054   2.670  1.00 20.00     0.007 C 
BRANCH   6   7
HETATM    7  C6  UNL     1     -32.175   7.984   1.140  1.00 20.00    -0.004 C 
HETATM    8  C2  UNL     1     -32.696   9.276   0.526  1.00 20.00     0.005 C 
ENDBRANCH   6   7
ENDBRANCH   4   6
ENDBRANCH   2   4
BRANCH   2   9
HETATM    9  N11 UNL     1     -33.326   7.487   5.572  1.00 20.00     0.098 N 
HETATM   10  C4  UNL     1     -34.127   6.963   6.677  1.00 20.00     0.311 C 
HETATM   11  C5  UNL     1     -33.441   8.942   5.499  1.00 20.00     0.311 C 
ENDBRANCH   2   9
TORSDOF 4
ENDMDL
