MODEL 1
REMARK VINA RESULT:      -4.1      0.000      0.000
REMARK  3 active torsions:
REMARK  status: ('A' for Active; 'I' for Inactive)
REMARK    1  A    between atoms: C4_4  and  C10_10 
REMARK    2  A    between atoms: C5_5  and  C11_11 
REMARK    3  A    between atoms: C6_6  and  C12_12 
ROOT
HETATM    1  C7  UNL     1     -34.051  19.263   0.245  1.00 20.00     0.009 C 
HETATM    2  C8  UNL     1     -34.949  19.067  -0.978  1.00 20.00     0.010 C 
HETATM    3  C9  UNL     1     -32.075  18.380  -1.074  1.00 20.00     0.017 C 
HETATM    4  C10 UNL     1     -32.861  18.295   0.245  1.00 20.00     0.008 C 
HETATM    5  C11 UNL     1     -34.144  19.166  -2.284  1.00 20.00     0.015 C 
HETATM    6  C12 UNL     1     -32.969  18.159  -2.312  1.00 20.00     0.015 C 
ENDROOT
BRANCH   4   7
HETATM    7  C4  UNL     1     -31.955  18.563   1.409  1.00 20.00    -0.032 C 
HETATM    8  C1  UNL     1     -30.648  18.825   1.296  1.00 20.00     0.007 C 
ENDBRANCH   4   7
BRANCH   6   9
HETATM    9  C6  UNL     1     -33.395  16.718  -2.401  1.00 20.00    -0.031 C 
HETATM   10  C3  UNL     1     -33.247  15.960  -3.493  1.00 20.00     0.007 C 
ENDBRANCH   6   9
BRANCH   5  11
HETATM   11  C5  UNL     1     -35.037  19.056  -3.484  1.00 20.00    -0.031 C 
HETATM   12  C2  UNL     1     -36.327  18.710  -3.429  1.00 20.00     0.007 C 
ENDBRANCH   5  11
TORSDOF 3
ENDMDL
MODEL 2
REMARK VINA RESULT:      -4.0      0.934      1.101
REMARK  3 active torsions:
REMARK  status: ('A' for Active; 'I' for Inactive)
REMARK    1  A    between atoms: C4_4  and  C10_10 
REMARK    2  A    between atoms: C5_5  and  C11_11 
REMARK    3  A    between atoms: C6_6  and  C12_12 
ROOT
HETATM    1  C7  UNL     1     -34.476  19.151  -0.530  1.00 20.00     0.009 C 
HETATM    2  C8  UNL     1     -35.186  18.875  -1.856  1.00 20.00     0.010 C 
HETATM    3  C9  UNL     1     -32.356  18.119  -1.459  1.00 20.00     0.017 C 
HETATM    4  C10 UNL     1     -33.334  18.160  -0.272  1.00 20.00     0.008 C 
HETATM    5  C11 UNL     1     -34.191  18.849  -3.027  1.00 20.00     0.015 C 
HETATM    6  C12 UNL     1     -33.059  17.818  -2.797  1.00 20.00     0.015 C 
ENDROOT
BRANCH   4   7
HETATM    7  C4  UNL     1     -32.604  18.503   0.992  1.00 20.00    -0.032 C 
HETATM    8  C1  UNL     1     -31.273  18.579   1.091  1.00 20.00     0.007 C 
ENDBRANCH   4   7
BRANCH   6   9
HETATM    9  C6  UNL     1     -33.517  16.384  -2.838  1.00 20.00    -0.031 C 
HETATM   10  C3  UNL     1     -33.196  15.524  -3.811  1.00 20.00     0.007 C 
ENDBRANCH   6   9
BRANCH   5  11
HETATM   11  C5  UNL     1     -34.896  18.661  -4.338  1.00 20.00    -0.031 C 
HETATM   12  C2  UNL     1     -34.317  18.834  -5.531  1.00 20.00     0.007 C 
ENDBRANCH   5  11
TORSDOF 3
ENDMDL
MODEL 3
REMARK VINA RESULT:      -3.9      1.554      5.151
REMARK  3 active torsions:
REMARK  status: ('A' for Active; 'I' for Inactive)
REMARK    1  A    between atoms: C4_4  and  C10_10 
REMARK    2  A    between atoms: C5_5  and  C11_11 
REMARK    3  A    between atoms: C6_6  and  C12_12 
ROOT
HETATM    1  C7  UNL     1     -33.508  15.962  -3.824  1.00 20.00     0.009 C 
HETATM    2  C8  UNL     1     -33.279  16.518  -2.418  1.00 20.00     0.010 C 
HETATM    3  C9  UNL     1     -34.379  18.222  -4.569  1.00 20.00     0.017 C 
HETATM    4  C10 UNL     1     -34.630  16.704  -4.561  1.00 20.00     0.008 C 
HETATM    5  C11 UNL     1     -33.021  18.033  -2.452  1.00 20.00     0.015 C 
HETATM    6  C12 UNL     1     -34.171  18.797  -3.153  1.00 20.00     0.015 C 
ENDROOT
BRANCH   4   7
HETATM    7  C4  UNL     1     -34.778  16.194  -5.962  1.00 20.00    -0.032 C 
HETATM    8  C1  UNL     1     -34.098  15.153  -6.456  1.00 20.00     0.007 C 
ENDBRANCH   4   7
BRANCH   6   9
HETATM    9  C6  UNL     1     -35.468  18.790  -2.389  1.00 20.00    -0.031 C 
HETATM   10  C3  UNL     1     -36.623  19.263  -2.871  1.00 20.00     0.007 C 
ENDBRANCH   6   9
BRANCH   5  11
HETATM   11  C5  UNL     1     -32.714  18.566  -1.083  1.00 20.00    -0.031 C 
HETATM   12  C2  UNL     1     -31.511  18.500  -0.507  1.00 20.00     0.007 C 
ENDBRANCH   5  11
TORSDOF 3
ENDMDL
MODEL 4
REMARK VINA RESULT:      -3.6      2.013      3.898
REMARK  3 active torsions:
REMARK  status: ('A' for Active; 'I' for Inactive)
REMARK    1  A    between atoms: C4_4  and  C10_10 
REMARK    2  A    between atoms: C5_5  and  C11_11 
REMARK    3  A    between atoms: C6_6  and  C12_12 
ROOT
HETATM    1  C7  UNL     1     -33.313  16.638  -2.372  1.00 20.00     0.009 C 
HETATM    2  C8  UNL     1     -33.205  15.975  -3.746  1.00 20.00     0.010 C 
HETATM    3  C9  UNL     1     -35.120  18.175  -3.264  1.00 20.00     0.017 C 
HETATM    4  C10 UNL     1     -33.806  18.087  -2.470  1.00 20.00     0.008 C 
HETATM    5  C11 UNL     1     -34.532  16.065  -4.515  1.00 20.00     0.015 C 
HETATM    6  C12 UNL     1     -35.014  17.530  -4.661  1.00 20.00     0.015 C 
ENDROOT
BRANCH   4   7
HETATM    7  C4  UNL     1     -33.980  18.686  -1.107  1.00 20.00    -0.032 C 
HETATM    8  C1  UNL     1     -33.721  18.039   0.035  1.00 20.00     0.007 C 
ENDBRANCH   4   7
BRANCH   6   9
HETATM    9  C6  UNL     1     -34.153  18.373  -5.563  1.00 20.00    -0.031 C 
HETATM   10  C3  UNL     1     -34.598  18.975  -6.672  1.00 20.00     0.007 C 
ENDBRANCH   6   9
BRANCH   5  11
HETATM   11  C5  UNL     1     -34.452  15.344  -5.828  1.00 20.00    -0.031 C 
HETATM   12  C2  UNL     1     -35.517  14.934  -6.524  1.00 20.00     0.007 C 
ENDBRANCH   5  11
TORSDOF 3
ENDMDL
MODEL 5
REMARK VINA RESULT:      -3.6      2.875      4.499
REMARK  3 active torsions:
REMARK  status: ('A' for Active; 'I' for Inactive)
REMARK    1  A    between atoms: C4_4  and  C10_10 
REMARK    2  A    between atoms: C5_5  and  C11_11 
REMARK    3  A    between atoms: C6_6  and  C12_12 
ROOT
HETATM    1  C7  UNL     1     -34.130  17.933  -4.276  1.00 20.00     0.009 C 
HETATM    2  C8  UNL     1     -34.946  17.780  -5.561  1.00 20.00     0.010 C 
HETATM    3  C9  UNL     1     -33.522  15.475  -4.378  1.00 20.00     0.017 C 
HETATM    4  C10 UNL     1     -34.042  16.619  -3.490  1.00 20.00     0.008 C 
HETATM    5  C11 UNL     1     -34.401  16.639  -6.435  1.00 20.00     0.015 C 
HETATM    6  C12 UNL     1     -34.353  15.297  -5.664  1.00 20.00     0.015 C 
ENDROOT
BRANCH   4   7
HETATM    7  C4  UNL     1     -33.171  16.776  -2.281  1.00 20.00    -0.032 C 
HETATM    8  C1  UNL     1     -33.468  17.563  -1.241  1.00 20.00     0.007 C 
ENDBRANCH   4   7
BRANCH   6   9
HETATM    9  C6  UNL     1     -35.708  14.726  -5.339  1.00 20.00    -0.031 C 
HETATM   10  C3  UNL     1     -35.898  13.624  -4.605  1.00 20.00     0.007 C 
ENDBRANCH   6   9
BRANCH   5  11
HETATM   11  C5  UNL     1     -35.149  16.541  -7.732  1.00 20.00    -0.031 C 
HETATM   12  C2  UNL     1     -36.389  17.004  -7.918  1.00 20.00     0.007 C 
ENDBRANCH   5  11
TORSDOF 3
ENDMDL
MODEL 6
REMARK VINA RESULT:      -3.6     11.861     13.277
REMARK  3 active torsions:
REMARK  status: ('A' for Active; 'I' for Inactive)
REMARK    1  A    between atoms: C4_4  and  C10_10 
REMARK    2  A    between atoms: C5_5  and  C11_11 
REMARK    3  A    between atoms: C6_6  and  C12_12 
ROOT
HETATM    1  C7  UNL     1     -42.258  12.425   6.725  1.00 20.00     0.009 C 
HETATM    2  C8  UNL     1     -43.089  13.390   7.572  1.00 20.00     0.010 C 
HETATM    3  C9  UNL     1     -40.163  13.722   7.316  1.00 20.00     0.017 C 
HETATM    4  C10 UNL     1     -40.985  13.086   6.182  1.00 20.00     0.008 C 
HETATM    5  C11 UNL     1     -42.250  14.004   8.704  1.00 20.00     0.015 C 
HETATM    6  C12 UNL     1     -40.986  14.715   8.162  1.00 20.00     0.015 C 
ENDROOT
BRANCH   4   7
HETATM    7  C4  UNL     1     -40.150  12.098   5.425  1.00 20.00    -0.032 C 
HETATM    8  C1  UNL     1     -38.814  12.063   5.462  1.00 20.00     0.007 C 
ENDBRANCH   4   7
BRANCH   6   9
HETATM    9  C6  UNL     1     -41.275  15.964   7.371  1.00 20.00    -0.031 C 
HETATM   10  C3  UNL     1     -40.776  17.168   7.666  1.00 20.00     0.007 C 
ENDBRANCH   6   9
BRANCH   5  11
HETATM   11  C5  UNL     1     -43.085  14.886   9.585  1.00 20.00    -0.031 C 
HETATM   12  C2  UNL     1     -42.698  15.325  10.787  1.00 20.00     0.007 C 
ENDBRANCH   5  11
TORSDOF 3
ENDMDL
MODEL 7
REMARK VINA RESULT:      -3.5     11.419     12.740
REMARK  3 active torsions:
REMARK  status: ('A' for Active; 'I' for Inactive)
REMARK    1  A    between atoms: C4_4  and  C10_10 
REMARK    2  A    between atoms: C5_5  and  C11_11 
REMARK    3  A    between atoms: C6_6  and  C12_12 
ROOT
HETATM    1  C7  UNL     1     -33.335   5.251   3.232  1.00 20.00     0.009 C 
HETATM    2  C8  UNL     1     -32.392   6.093   2.370  1.00 20.00     0.010 C 
HETATM    3  C9  UNL     1     -34.235   7.366   4.300  1.00 20.00     0.017 C 
HETATM    4  C10 UNL     1     -33.687   5.951   4.550  1.00 20.00     0.008 C 
HETATM    5  C11 UNL     1     -32.966   7.498   2.124  1.00 20.00     0.015 C 
HETATM    6  C12 UNL     1     -33.281   8.230   3.451  1.00 20.00     0.015 C 
ENDROOT
BRANCH   4   7
HETATM    7  C4  UNL     1     -34.673   5.142   5.337  1.00 20.00    -0.032 C 
HETATM    8  C1  UNL     1     -34.814   5.217   6.665  1.00 20.00     0.007 C 
ENDBRANCH   4   7
BRANCH   6   9
HETATM    9  C6  UNL     1     -32.061   8.604   4.252  1.00 20.00    -0.031 C 
HETATM   10  C3  UNL     1     -32.105   9.124   5.483  1.00 20.00     0.007 C 
ENDBRANCH   6   9
BRANCH   5  11
HETATM   11  C5  UNL     1     -32.082   8.296   1.211  1.00 20.00    -0.031 C 
HETATM   12  C2  UNL     1     -32.534   9.188   0.324  1.00 20.00     0.007 C 
ENDBRANCH   5  11
TORSDOF 3
ENDMDL
MODEL 8
REMARK VINA RESULT:      -3.5     11.407     12.617
REMARK  3 active torsions:
REMARK  status: ('A' for Active; 'I' for Inactive)
REMARK    1  A    between atoms: C4_4  and  C10_10 
REMARK    2  A    between atoms: C5_5  and  C11_11 
REMARK    3  A    between atoms: C6_6  and  C12_12 
ROOT
HETATM    1  C7  UNL     1     -40.898  14.507   8.175  1.00 20.00     0.009 C 
HETATM    2  C8  UNL     1     -40.062  13.768   7.129  1.00 20.00     0.010 C 
HETATM    3  C9  UNL     1     -42.993  14.019   6.835  1.00 20.00     0.017 C 
HETATM    4  C10 UNL     1     -42.181  15.095   7.575  1.00 20.00     0.008 C 
HETATM    5  C11 UNL     1     -40.891  12.691   6.411  1.00 20.00     0.015 C 
HETATM    6  C12 UNL     1     -42.165  13.284   5.762  1.00 20.00     0.015 C 
ENDROOT
BRANCH   4   7
HETATM    7  C4  UNL     1     -43.019  15.742   8.636  1.00 20.00    -0.032 C 
HETATM    8  C1  UNL     1     -42.743  15.692   9.944  1.00 20.00     0.007 C 
ENDBRANCH   4   7
BRANCH   6   9
HETATM    9  C6  UNL     1     -41.892  14.197   4.595  1.00 20.00    -0.031 C 
HETATM   10  C3  UNL     1     -42.846  14.726   3.821  1.00 20.00     0.007 C 
ENDBRANCH   6   9
BRANCH   5  11
HETATM   11  C5  UNL     1     -40.051  11.910   5.444  1.00 20.00    -0.031 C 
HETATM   12  C2  UNL     1     -38.735  12.083   5.287  1.00 20.00     0.007 C 
ENDBRANCH   5  11
TORSDOF 3
ENDMDL
MODEL 9
REMARK VINA RESULT:      -3.4      2.051      5.207
REMARK  3 active torsions:
REMARK  status: ('A' for Active; 'I' for Inactive)
REMARK    1  A    between atoms: C4_4  and  C10_10 
REMARK    2  A    between atoms: C5_5  and  C11_11 
REMARK    3  A    between atoms: C6_6  and  C12_12 
ROOT
HETATM    1  C7  UNL     1     -33.681  19.263  -4.870  1.00 20.00     0.009 C 
HETATM    2  C8  UNL     1     -32.845  18.886  -3.645  1.00 20.00     0.010 C 
HETATM    3  C9  UNL     1     -35.061  17.159  -4.566  1.00 20.00     0.017 C 
HETATM    4  C10 UNL     1     -34.276  18.030  -5.562  1.00 20.00     0.008 C 
HETATM    5  C11 UNL     1     -33.654  18.026  -2.661  1.00 20.00     0.015 C 
HETATM    6  C12 UNL     1     -34.219  16.754  -3.339  1.00 20.00     0.015 C 
ENDROOT
BRANCH   4   7
HETATM    7  C4  UNL     1     -35.155  18.432  -6.708  1.00 20.00    -0.032 C 
HETATM    8  C1  UNL     1     -35.960  17.591  -7.365  1.00 20.00     0.007 C 
ENDBRANCH   4   7
BRANCH   6   9
HETATM    9  C6  UNL     1     -33.169  15.749  -3.733  1.00 20.00    -0.031 C 
HETATM   10  C3  UNL     1     -33.436  14.590  -4.345  1.00 20.00     0.007 C 
ENDBRANCH   6   9
BRANCH   5  11
HETATM   11  C5  UNL     1     -32.863  17.725  -1.422  1.00 20.00    -0.031 C 
HETATM   12  C2  UNL     1     -31.906  18.521  -0.934  1.00 20.00     0.007 C 
ENDBRANCH   5  11
TORSDOF 3
ENDMDL
