MODEL 1
REMARK VINA RESULT:      -3.8      0.000      0.000
REMARK  3 active torsions:
REMARK  status: ('A' for Active; 'I' for Inactive)
REMARK    1  A    between atoms: C1_1  and  C7_7 
REMARK    2  A    between atoms: C5_5  and  N8_8 
REMARK    3  A    between atoms: C7_7  and  N8_8 
ROOT
HETATM    1  C2  UNL     1     -23.815  16.909  10.505  1.00 20.00     0.047 C 
HETATM    2  C3  UNL     1     -24.455  16.255  11.719  1.00 20.00     0.076 C 
HETATM    3  C4  UNL     1     -25.026  18.854  11.336  1.00 20.00     0.109 C 
HETATM    4  C5  UNL     1     -23.658  18.388  10.851  1.00 20.00     0.233 C 
HETATM    5  S10 UNL     1     -25.656  17.471  12.331  1.00 20.00    -0.167 SA
ENDROOT
BRANCH   4   6
HETATM    6  N8  UNL     1     -23.206  19.173   9.710  1.00 20.00     0.096 N 
HETATM    7  C6  UNL     1     -24.155  19.066   8.600  1.00 20.00     0.310 C 
BRANCH   6   8
HETATM    8  C7  UNL     1     -21.874  18.741   9.280  1.00 20.00     0.341 C 
BRANCH   8   9
HETATM    9  C1  UNL     1     -21.959  18.295   7.848  1.00 20.00     0.261 C 
HETATM   10  O9  UNL     1     -21.750  17.135   7.502  1.00 20.00    -0.305 OA
ENDBRANCH   8   9
ENDBRANCH   6   8
ENDBRANCH   4   6
TORSDOF 3
ENDMDL
MODEL 2
REMARK VINA RESULT:      -3.7     17.062     18.020
REMARK  3 active torsions:
REMARK  status: ('A' for Active; 'I' for Inactive)
REMARK    1  A    between atoms: C1_1  and  C7_7 
REMARK    2  A    between atoms: C5_5  and  N8_8 
REMARK    3  A    between atoms: C7_7  and  N8_8 
ROOT
HETATM    1  C2  UNL     1     -33.333  16.358  -2.863  1.00 20.00     0.047 C 
HETATM    2  C3  UNL     1     -33.101  17.453  -1.834  1.00 20.00     0.076 C 
HETATM    3  C4  UNL     1     -35.029  17.922  -3.648  1.00 20.00     0.109 C 
HETATM    4  C5  UNL     1     -33.866  17.054  -4.113  1.00 20.00     0.233 C 
HETATM    5  S10 UNL     1     -34.481  18.611  -2.058  1.00 20.00    -0.167 SA
ENDROOT
BRANCH   4   6
HETATM    6  N8  UNL     1     -34.292  16.103  -5.132  1.00 20.00     0.096 N 
HETATM    7  C6  UNL     1     -35.645  16.413  -5.595  1.00 20.00     0.310 C 
BRANCH   6   8
HETATM    8  C7  UNL     1     -34.234  14.733  -4.616  1.00 20.00     0.341 C 
BRANCH   8   9
HETATM    9  C1  UNL     1     -35.573  14.088  -4.834  1.00 20.00     0.261 C 
HETATM   10  O9  UNL     1     -35.869  12.998  -4.351  1.00 20.00    -0.305 OA
ENDBRANCH   8   9
ENDBRANCH   6   8
ENDBRANCH   4   6
TORSDOF 3
ENDMDL
MODEL 3
REMARK VINA RESULT:      -3.5     15.598     16.625
REMARK  3 active torsions:
REMARK  status: ('A' for Active; 'I' for Inactive)
REMARK    1  A    between atoms: C1_1  and  C7_7 
REMARK    2  A    between atoms: C5_5  and  N8_8 
REMARK    3  A    between atoms: C7_7  and  N8_8 
ROOT
HETATM    1  C2  UNL     1     -33.261  15.907  -3.491  1.00 20.00     0.047 C 
HETATM    2  C3  UNL     1     -33.882  14.962  -4.508  1.00 20.00     0.076 C 
HETATM    3  C4  UNL     1     -34.427  17.575  -4.833  1.00 20.00     0.109 C 
HETATM    4  C5  UNL     1     -34.199  17.109  -3.400  1.00 20.00     0.233 C 
HETATM    5  S10 UNL     1     -34.568  16.041  -5.797  1.00 20.00    -0.167 SA
ENDROOT
BRANCH   4   6
HETATM    6  N8  UNL     1     -33.642  18.178  -2.580  1.00 20.00     0.096 N 
HETATM    7  C6  UNL     1     -32.943  19.158  -3.413  1.00 20.00     0.310 C 
BRANCH   6   8
HETATM    8  C7  UNL     1     -32.733  17.633  -1.569  1.00 20.00     0.341 C 
BRANCH   8   9
HETATM    9  C1  UNL     1     -31.941  18.768  -0.982  1.00 20.00     0.261 C 
HETATM   10  O9  UNL     1     -30.779  18.639  -0.606  1.00 20.00    -0.305 OA
ENDBRANCH   8   9
ENDBRANCH   6   8
ENDBRANCH   4   6
TORSDOF 3
ENDMDL
MODEL 4
REMARK VINA RESULT:      -3.5     17.227     18.203
REMARK  3 active torsions:
REMARK  status: ('A' for Active; 'I' for Inactive)
REMARK    1  A    between atoms: C1_1  and  C7_7 
REMARK    2  A    between atoms: C5_5  and  N8_8 
REMARK    3  A    between atoms: C7_7  and  N8_8 
ROOT
HETATM    1  C2  UNL     1     -33.321  16.644  -2.481  1.00 20.00     0.047 C 
HETATM    2  C3  UNL     1     -32.916  18.000  -1.925  1.00 20.00     0.076 C 
HETATM    3  C4  UNL     1     -34.827  18.018  -3.816  1.00 20.00     0.109 C 
HETATM    4  C5  UNL     1     -33.800  16.895  -3.909  1.00 20.00     0.233 C 
HETATM    5  S10 UNL     1     -34.143  19.165  -2.583  1.00 20.00    -0.167 SA
ENDROOT
BRANCH   4   6
HETATM    6  N8  UNL     1     -34.377  15.701  -4.512  1.00 20.00     0.096 N 
HETATM    7  C6  UNL     1     -33.450  14.572  -4.412  1.00 20.00     0.310 C 
BRANCH   6   8
HETATM    8  C7  UNL     1     -34.727  15.946  -5.912  1.00 20.00     0.341 C 
BRANCH   8   9
HETATM    9  C1  UNL     1     -35.954  15.143  -6.243  1.00 20.00     0.261 C 
HETATM   10  O9  UNL     1     -35.963  14.276  -7.113  1.00 20.00    -0.305 OA
ENDBRANCH   8   9
ENDBRANCH   6   8
ENDBRANCH   4   6
TORSDOF 3
ENDMDL
MODEL 5
REMARK VINA RESULT:      -3.4     14.945     15.602
REMARK  3 active torsions:
REMARK  status: ('A' for Active; 'I' for Inactive)
REMARK    1  A    between atoms: C1_1  and  C7_7 
REMARK    2  A    between atoms: C5_5  and  N8_8 
REMARK    3  A    between atoms: C7_7  and  N8_8 
ROOT
HETATM    1  C2  UNL     1     -33.513   7.005   6.109  1.00 20.00     0.047 C 
HETATM    2  C3  UNL     1     -34.739   6.152   6.396  1.00 20.00     0.076 C 
HETATM    3  C4  UNL     1     -33.637   5.859   3.962  1.00 20.00     0.109 C 
HETATM    4  C5  UNL     1     -33.500   7.237   4.600  1.00 20.00     0.233 C 
HETATM    5  S10 UNL     1     -34.836   4.984   5.009  1.00 20.00    -0.167 SA
ENDROOT
BRANCH   4   6
HETATM    6  N8  UNL     1     -32.283   7.905   4.158  1.00 20.00     0.096 N 
HETATM    7  C6  UNL     1     -32.217   9.266   4.694  1.00 20.00     0.310 C 
BRANCH   6   8
HETATM    8  C7  UNL     1     -32.209   7.933   2.696  1.00 20.00     0.341 C 
BRANCH   8   9
HETATM    9  C1  UNL     1     -32.818   9.219   2.214  1.00 20.00     0.261 C 
HETATM   10  O9  UNL     1     -32.753   9.584   1.044  1.00 20.00    -0.305 OA
ENDBRANCH   8   9
ENDBRANCH   6   8
ENDBRANCH   4   6
TORSDOF 3
ENDMDL
MODEL 6
REMARK VINA RESULT:      -3.3      1.062      1.929
REMARK  3 active torsions:
REMARK  status: ('A' for Active; 'I' for Inactive)
REMARK    1  A    between atoms: C1_1  and  C7_7 
REMARK    2  A    between atoms: C5_5  and  N8_8 
REMARK    3  A    between atoms: C7_7  and  N8_8 
ROOT
HETATM    1  C2  UNL     1     -24.279  19.164  10.239  1.00 20.00     0.047 C 
HETATM    2  C3  UNL     1     -25.638  18.877  10.857  1.00 20.00     0.076 C 
HETATM    3  C4  UNL     1     -23.590  17.388  11.759  1.00 20.00     0.109 C 
HETATM    4  C5  UNL     1     -23.494  17.856  10.312  1.00 20.00     0.233 C 
HETATM    5  S10 UNL     1     -25.297  17.767  12.252  1.00 20.00    -0.167 SA
ENDROOT
BRANCH   4   6
HETATM    6  N8  UNL     1     -22.106  18.026   9.903  1.00 20.00     0.096 N 
HETATM    7  C6  UNL     1     -21.293  18.509  11.021  1.00 20.00     0.310 C 
BRANCH   6   8
HETATM    8  C7  UNL     1     -22.010  18.951   8.771  1.00 20.00     0.341 C 
BRANCH   8   9
HETATM    9  C1  UNL     1     -21.460  18.201   7.591  1.00 20.00     0.261 C 
HETATM   10  O9  UNL     1     -21.675  17.005   7.408  1.00 20.00    -0.305 OA
ENDBRANCH   8   9
ENDBRANCH   6   8
ENDBRANCH   4   6
TORSDOF 3
ENDMDL
MODEL 7
REMARK VINA RESULT:      -3.3      2.683      4.058
REMARK  3 active torsions:
REMARK  status: ('A' for Active; 'I' for Inactive)
REMARK    1  A    between atoms: C1_1  and  C7_7 
REMARK    2  A    between atoms: C5_5  and  N8_8 
REMARK    3  A    between atoms: C7_7  and  N8_8 
ROOT
HETATM    1  C2  UNL     1     -23.911  18.891   9.000  1.00 20.00     0.047 C 
HETATM    2  C3  UNL     1     -23.156  18.886   7.680  1.00 20.00     0.076 C 
HETATM    3  C4  UNL     1     -21.852  17.858   9.795  1.00 20.00     0.109 C 
HETATM    4  C5  UNL     1     -22.851  18.969  10.097  1.00 20.00     0.233 C 
HETATM    5  S10 UNL     1     -21.679  17.875   7.986  1.00 20.00    -0.167 SA
ENDROOT
BRANCH   4   6
HETATM    6  N8  UNL     1     -23.426  18.814  11.427  1.00 20.00     0.096 N 
HETATM    7  C6  UNL     1     -22.471  18.172  12.332  1.00 20.00     0.310 C 
BRANCH   6   8
HETATM    8  C7  UNL     1     -24.667  18.039  11.367  1.00 20.00     0.341 C 
BRANCH   8   9
HETATM    9  C1  UNL     1     -24.417  16.694  11.987  1.00 20.00     0.261 C 
HETATM   10  O9  UNL     1     -24.502  15.646  11.352  1.00 20.00    -0.305 OA
ENDBRANCH   8   9
ENDBRANCH   6   8
ENDBRANCH   4   6
TORSDOF 3
ENDMDL
MODEL 8
REMARK VINA RESULT:      -3.2     14.477     15.598
REMARK  3 active torsions:
REMARK  status: ('A' for Active; 'I' for Inactive)
REMARK    1  A    between atoms: C1_1  and  C7_7 
REMARK    2  A    between atoms: C5_5  and  N8_8 
REMARK    3  A    between atoms: C7_7  and  N8_8 
ROOT
HETATM    1  C2  UNL     1     -34.704  18.284  -2.647  1.00 20.00     0.047 C 
HETATM    2  C3  UNL     1     -35.131  18.088  -4.094  1.00 20.00     0.076 C 
HETATM    3  C4  UNL     1     -33.235  16.413  -3.182  1.00 20.00     0.109 C 
HETATM    4  C5  UNL     1     -33.256  17.806  -2.563  1.00 20.00     0.233 C 
HETATM    5  S10 UNL     1     -34.357  16.527  -4.606  1.00 20.00    -0.167 SA
ENDROOT
BRANCH   4   6
HETATM    6  N8  UNL     1     -32.766  17.781  -1.191  1.00 20.00     0.096 N 
HETATM    7  C6  UNL     1     -33.869  17.956  -0.244  1.00 20.00     0.310 C 
BRANCH   6   8
HETATM    8  C7  UNL     1     -31.753  18.818  -0.984  1.00 20.00     0.341 C 
BRANCH   8   9
HETATM    9  C1  UNL     1     -31.325  18.785   0.455  1.00 20.00     0.261 C 
HETATM   10  O9  UNL     1     -30.235  19.208   0.832  1.00 20.00    -0.305 OA
ENDBRANCH   8   9
ENDBRANCH   6   8
ENDBRANCH   4   6
TORSDOF 3
ENDMDL
MODEL 9
REMARK VINA RESULT:      -3.2     17.460     18.470
REMARK  3 active torsions:
REMARK  status: ('A' for Active; 'I' for Inactive)
REMARK    1  A    between atoms: C1_1  and  C7_7 
REMARK    2  A    between atoms: C5_5  and  N8_8 
REMARK    3  A    between atoms: C7_7  and  N8_8 
ROOT
HETATM    1  C2  UNL     1     -34.678  18.137  -4.000  1.00 20.00     0.047 C 
HETATM    2  C3  UNL     1     -34.575  18.425  -2.510  1.00 20.00     0.076 C 
HETATM    3  C4  UNL     1     -33.246  16.261  -3.392  1.00 20.00     0.109 C 
HETATM    4  C5  UNL     1     -34.515  16.626  -4.153  1.00 20.00     0.233 C 
HETATM    5  S10 UNL     1     -33.292  17.295  -1.899  1.00 20.00    -0.167 SA
ENDROOT
BRANCH   4   6
HETATM    6  N8  UNL     1     -34.427  16.223  -5.551  1.00 20.00     0.096 N 
HETATM    7  C6  UNL     1     -35.480  16.864  -6.341  1.00 20.00     0.310 C 
BRANCH   6   8
HETATM    8  C7  UNL     1     -34.516  14.767  -5.675  1.00 20.00     0.341 C 
BRANCH   8   9
HETATM    9  C1  UNL     1     -35.917  14.345  -5.332  1.00 20.00     0.261 C 
HETATM   10  O9  UNL     1     -36.159  13.436  -4.543  1.00 20.00    -0.305 OA
ENDBRANCH   8   9
ENDBRANCH   6   8
ENDBRANCH   4   6
TORSDOF 3
ENDMDL
