MODEL 1
REMARK VINA RESULT:      -3.8      0.000      0.000
REMARK  2 active torsions:
REMARK  status: ('A' for Active; 'I' for Inactive)
REMARK    1  A    between atoms: C1_1  and  C7_7 
REMARK    2  A    between atoms: C7_7  and  N8_8 
ROOT
HETATM    1  C2  UNL     1     -33.464  16.670  -2.297  1.00 20.00     0.040 C 
HETATM    2  C3  UNL     1     -33.239  15.940  -3.623  1.00 20.00     0.273 C 
HETATM    3  C4  UNL     1     -34.422  17.410  -5.211  1.00 20.00     0.283 C 
HETATM    4  C5  UNL     1     -32.863  18.065  -2.192  1.00 20.00     0.075 C 
HETATM    5  C6  UNL     1     -34.667  18.594  -4.274  1.00 20.00     0.104 C 
HETATM    6  N8  UNL     1     -34.364  16.096  -4.556  1.00 20.00     0.095 N 
HETATM    7  S10 UNL     1     -33.125  19.228  -3.562  1.00 20.00    -0.167 SA
ENDROOT
BRANCH   6   8
HETATM    8  C7  UNL     1     -34.307  15.046  -5.581  1.00 20.00     0.341 C 
BRANCH   8   9
HETATM    9  C1  UNL     1     -35.714  14.665  -5.948  1.00 20.00     0.261 C 
HETATM   10  O9  UNL     1     -36.019  14.263  -7.067  1.00 20.00    -0.305 OA
ENDBRANCH   8   9
ENDBRANCH   6   8
TORSDOF 2
ENDMDL
MODEL 2
REMARK VINA RESULT:      -3.7      3.571      4.992
REMARK  2 active torsions:
REMARK  status: ('A' for Active; 'I' for Inactive)
REMARK    1  A    between atoms: C1_1  and  C7_7 
REMARK    2  A    between atoms: C7_7  and  N8_8 
ROOT
HETATM    1  C2  UNL     1     -33.199  16.041  -3.456  1.00 20.00     0.040 C 
HETATM    2  C3  UNL     1     -33.556  16.707  -2.125  1.00 20.00     0.273 C 
HETATM    3  C4  UNL     1     -33.300  19.097  -2.674  1.00 20.00     0.283 C 
HETATM    4  C5  UNL     1     -34.118  16.361  -4.628  1.00 20.00     0.075 C 
HETATM    5  C6  UNL     1     -33.156  18.960  -4.191  1.00 20.00     0.104 C 
HETATM    6  N8  UNL     1     -32.810  17.952  -1.894  1.00 20.00     0.095 N 
HETATM    7  S10 UNL     1     -34.567  18.094  -4.932  1.00 20.00    -0.167 SA
ENDROOT
BRANCH   6   8
HETATM    8  C7  UNL     1     -32.841  18.291  -0.465  1.00 20.00     0.341 C 
BRANCH   8   9
HETATM    9  C1  UNL     1     -31.581  19.037  -0.128  1.00 20.00     0.261 C 
HETATM   10  O9  UNL     1     -30.466  18.618  -0.423  1.00 20.00    -0.305 OA
ENDBRANCH   8   9
ENDBRANCH   6   8
TORSDOF 2
ENDMDL
MODEL 3
REMARK VINA RESULT:      -3.6      3.404      4.631
REMARK  2 active torsions:
REMARK  status: ('A' for Active; 'I' for Inactive)
REMARK    1  A    between atoms: C1_1  and  C7_7 
REMARK    2  A    between atoms: C7_7  and  N8_8 
ROOT
HETATM    1  C2  UNL     1     -33.064  15.610  -3.842  1.00 20.00     0.040 C 
HETATM    2  C3  UNL     1     -33.311  16.687  -2.783  1.00 20.00     0.273 C 
HETATM    3  C4  UNL     1     -34.101  18.574  -4.161  1.00 20.00     0.283 C 
HETATM    4  C5  UNL     1     -34.289  15.150  -4.623  1.00 20.00     0.075 C 
HETATM    5  C6  UNL     1     -34.286  17.821  -5.479  1.00 20.00     0.104 C 
HETATM    6  N8  UNL     1     -33.049  18.045  -3.281  1.00 20.00     0.095 N 
HETATM    7  S10 UNL     1     -35.408  16.407  -5.303  1.00 20.00    -0.167 SA
ENDROOT
BRANCH   6   8
HETATM    8  C7  UNL     1     -32.859  18.960  -2.149  1.00 20.00     0.341 C 
BRANCH   8   9
HETATM    9  C1  UNL     1     -32.017  18.267  -1.115  1.00 20.00     0.261 C 
HETATM   10  O9  UNL     1     -30.939  18.713  -0.733  1.00 20.00    -0.305 OA
ENDBRANCH   8   9
ENDBRANCH   6   8
TORSDOF 2
ENDMDL
MODEL 4
REMARK VINA RESULT:      -3.3      1.319      2.134
REMARK  2 active torsions:
REMARK  status: ('A' for Active; 'I' for Inactive)
REMARK    1  A    between atoms: C1_1  and  C7_7 
REMARK    2  A    between atoms: C7_7  and  N8_8 
ROOT
HETATM    1  C2  UNL     1     -33.392  18.787  -4.447  1.00 20.00     0.040 C 
HETATM    2  C3  UNL     1     -34.674  18.171  -5.012  1.00 20.00     0.273 C 
HETATM    3  C4  UNL     1     -34.329  15.774  -4.543  1.00 20.00     0.283 C 
HETATM    4  C5  UNL     1     -33.177  18.622  -2.948  1.00 20.00     0.075 C 
HETATM    5  C6  UNL     1     -33.104  15.903  -3.635  1.00 20.00     0.104 C 
HETATM    6  N8  UNL     1     -34.464  16.824  -5.562  1.00 20.00     0.095 N 
HETATM    7  S10 UNL     1     -33.422  16.980  -2.212  1.00 20.00    -0.167 SA
ENDROOT
BRANCH   6   8
HETATM    8  C7  UNL     1     -35.568  16.481  -6.467  1.00 20.00     0.341 C 
BRANCH   8   9
HETATM    9  C1  UNL     1     -35.878  15.019  -6.303  1.00 20.00     0.261 C 
HETATM   10  O9  UNL     1     -36.030  14.265  -7.260  1.00 20.00    -0.305 OA
ENDBRANCH   8   9
ENDBRANCH   6   8
TORSDOF 2
ENDMDL
MODEL 5
REMARK VINA RESULT:      -3.3      1.293      1.488
REMARK  2 active torsions:
REMARK  status: ('A' for Active; 'I' for Inactive)
REMARK    1  A    between atoms: C1_1  and  C7_7 
REMARK    2  A    between atoms: C7_7  and  N8_8 
ROOT
HETATM    1  C2  UNL     1     -33.460  16.409  -2.495  1.00 20.00     0.040 C 
HETATM    2  C3  UNL     1     -33.489  16.634  -4.009  1.00 20.00     0.273 C 
HETATM    3  C4  UNL     1     -35.328  18.262  -4.238  1.00 20.00     0.283 C 
HETATM    4  C5  UNL     1     -33.125  17.629  -1.646  1.00 20.00     0.075 C 
HETATM    5  C6  UNL     1     -35.513  18.595  -2.757  1.00 20.00     0.104 C 
HETATM    6  N8  UNL     1     -34.841  16.903  -4.518  1.00 20.00     0.095 N 
HETATM    7  S10 UNL     1     -33.978  19.192  -1.997  1.00 20.00    -0.167 SA
ENDROOT
BRANCH   6   8
HETATM    8  C7  UNL     1     -34.883  16.662  -5.965  1.00 20.00     0.341 C 
BRANCH   8   9
HETATM    9  C1  UNL     1     -34.389  15.267  -6.228  1.00 20.00     0.261 C 
HETATM   10  O9  UNL     1     -33.698  14.984  -7.203  1.00 20.00    -0.305 OA
ENDBRANCH   8   9
ENDBRANCH   6   8
TORSDOF 2
ENDMDL
MODEL 6
REMARK VINA RESULT:      -3.2      0.923      2.094
REMARK  2 active torsions:
REMARK  status: ('A' for Active; 'I' for Inactive)
REMARK    1  A    between atoms: C1_1  and  C7_7 
REMARK    2  A    between atoms: C7_7  and  N8_8 
ROOT
HETATM    1  C2  UNL     1     -34.806  18.499  -4.810  1.00 20.00     0.040 C 
HETATM    2  C3  UNL     1     -35.166  17.017  -4.926  1.00 20.00     0.273 C 
HETATM    3  C4  UNL     1     -33.569  15.988  -3.353  1.00 20.00     0.283 C 
HETATM    4  C5  UNL     1     -35.013  19.131  -3.439  1.00 20.00     0.075 C 
HETATM    5  C6  UNL     1     -33.051  17.269  -2.697  1.00 20.00     0.104 C 
HETATM    6  N8  UNL     1     -34.005  16.133  -4.749  1.00 20.00     0.095 N 
HETATM    7  S10 UNL     1     -34.393  18.253  -1.976  1.00 20.00    -0.167 SA
ENDROOT
BRANCH   6   8
HETATM    8  C7  UNL     1     -34.302  14.807  -5.305  1.00 20.00     0.341 C 
BRANCH   8   9
HETATM    9  C1  UNL     1     -35.683  14.839  -5.896  1.00 20.00     0.261 C 
HETATM   10  O9  UNL     1     -35.971  14.252  -6.935  1.00 20.00    -0.305 OA
ENDBRANCH   8   9
ENDBRANCH   6   8
TORSDOF 2
ENDMDL
MODEL 7
REMARK VINA RESULT:      -3.2     12.079     12.944
REMARK  2 active torsions:
REMARK  status: ('A' for Active; 'I' for Inactive)
REMARK    1  A    between atoms: C1_1  and  C7_7 
REMARK    2  A    between atoms: C7_7  and  N8_8 
ROOT
HETATM    1  C2  UNL     1     -33.173   7.428   5.705  1.00 20.00     0.040 C 
HETATM    2  C3  UNL     1     -33.153   7.942   4.264  1.00 20.00     0.273 C 
HETATM    3  C4  UNL     1     -33.271   5.840   2.979  1.00 20.00     0.283 C 
HETATM    4  C5  UNL     1     -34.431   6.680   6.129  1.00 20.00     0.075 C 
HETATM    5  C6  UNL     1     -33.592   4.893   4.136  1.00 20.00     0.104 C 
HETATM    6  N8  UNL     1     -32.475   7.022   3.340  1.00 20.00     0.095 N 
HETATM    7  S10 UNL     1     -35.089   5.394   5.030  1.00 20.00    -0.167 SA
ENDROOT
BRANCH   6   8
HETATM    8  C7  UNL     1     -32.091   7.739   2.118  1.00 20.00     0.341 C 
BRANCH   8   9
HETATM    9  C1  UNL     1     -32.817   9.054   2.092  1.00 20.00     0.261 C 
HETATM   10  O9  UNL     1     -32.801   9.799   1.116  1.00 20.00    -0.305 OA
ENDBRANCH   8   9
ENDBRANCH   6   8
TORSDOF 2
ENDMDL
MODEL 8
REMARK VINA RESULT:      -3.2      3.672      5.085
REMARK  2 active torsions:
REMARK  status: ('A' for Active; 'I' for Inactive)
REMARK    1  A    between atoms: C1_1  and  C7_7 
REMARK    2  A    between atoms: C7_7  and  N8_8 
ROOT
HETATM    1  C2  UNL     1     -35.888  18.678  -2.728  1.00 20.00     0.040 C 
HETATM    2  C3  UNL     1     -34.644  19.022  -1.908  1.00 20.00     0.273 C 
HETATM    3  C4  UNL     1     -33.125  17.172  -2.500  1.00 20.00     0.283 C 
HETATM    4  C5  UNL     1     -35.710  18.675  -4.241  1.00 20.00     0.075 C 
HETATM    5  C6  UNL     1     -33.937  16.581  -3.653  1.00 20.00     0.104 C 
HETATM    6  N8  UNL     1     -33.916  17.830  -1.451  1.00 20.00     0.095 N 
HETATM    7  S10 UNL     1     -34.277  17.809  -4.944  1.00 20.00    -0.167 SA
ENDROOT
BRANCH   6   8
HETATM    8  C7  UNL     1     -33.035  18.185  -0.331  1.00 20.00     0.341 C 
BRANCH   8   9
HETATM    9  C1  UNL     1     -31.815  18.866  -0.886  1.00 20.00     0.261 C 
HETATM   10  O9  UNL     1     -30.688  18.668  -0.440  1.00 20.00    -0.305 OA
ENDBRANCH   8   9
ENDBRANCH   6   8
TORSDOF 2
ENDMDL
MODEL 9
REMARK VINA RESULT:      -3.1      2.961      4.272
REMARK  2 active torsions:
REMARK  status: ('A' for Active; 'I' for Inactive)
REMARK    1  A    between atoms: C1_1  and  C7_7 
REMARK    2  A    between atoms: C7_7  and  N8_8 
ROOT
HETATM    1  C2  UNL     1     -34.139  15.132  -6.464  1.00 20.00     0.040 C 
HETATM    2  C3  UNL     1     -34.055  15.098  -4.937  1.00 20.00     0.273 C 
HETATM    3  C4  UNL     1     -34.961  17.311  -4.334  1.00 20.00     0.283 C 
HETATM    4  C5  UNL     1     -35.539  15.250  -7.053  1.00 20.00     0.075 C 
HETATM    5  C6  UNL     1     -35.493  17.713  -5.710  1.00 20.00     0.104 C 
HETATM    6  N8  UNL     1     -33.793  16.419  -4.351  1.00 20.00     0.095 N 
HETATM    7  S10 UNL     1     -36.667  16.497  -6.368  1.00 20.00    -0.167 SA
ENDROOT
BRANCH   6   8
HETATM    8  C7  UNL     1     -33.283  16.263  -2.983  1.00 20.00     0.341 C 
BRANCH   8   9
HETATM    9  C1  UNL     1     -33.702  17.463  -2.181  1.00 20.00     0.261 C 
HETATM   10  O9  UNL     1     -33.824  17.432  -0.960  1.00 20.00    -0.305 OA
ENDBRANCH   8   9
ENDBRANCH   6   8
TORSDOF 2
ENDMDL
