MODEL 1
REMARK VINA RESULT:      -4.5      0.000      0.000
REMARK  3 active torsions:
REMARK  status: ('A' for Active; 'I' for Inactive)
REMARK    1  A    between atoms: C1_1  and  C3_3 
REMARK    2  A    between atoms: C1_1  and  C4_4 
REMARK    3  A    between atoms: C3_3  and  C5_5 
ROOT
HETATM    1  C1  UNL     1     -32.750   8.000   4.353  1.00 20.00     0.140 C 
HETATM    2  O6  UNL     1     -32.186   8.922   4.941  1.00 20.00    -0.297 OA
ENDROOT
BRANCH   1   3
HETATM    3  C3  UNL     1     -34.076   7.428   4.837  1.00 20.00     0.079 C 
BRANCH   3   4
HETATM    4  C5  UNL     1     -34.010   6.806   6.230  1.00 20.00     0.003 C 
HETATM    5  C2  UNL     1     -34.554   5.385   6.263  1.00 20.00     0.005 C 
ENDBRANCH   3   4
ENDBRANCH   1   3
BRANCH   1   6
HETATM    6  C4  UNL     1     -32.168   7.326   3.129  1.00 20.00     0.192 C 
HETATM    7 CL7  UNL     1     -32.899   5.733   2.883  1.00 20.00    -0.123 Cl
ENDBRANCH   1   6
TORSDOF 3
ENDMDL
MODEL 2
REMARK VINA RESULT:      -4.1      1.672      3.001
REMARK  3 active torsions:
REMARK  status: ('A' for Active; 'I' for Inactive)
REMARK    1  A    between atoms: C1_1  and  C3_3 
REMARK    2  A    between atoms: C1_1  and  C4_4 
REMARK    3  A    between atoms: C3_3  and  C5_5 
ROOT
HETATM    1  C1  UNL     1     -34.069   6.854   5.563  1.00 20.00     0.140 C 
HETATM    2  O6  UNL     1     -33.633   6.639   6.693  1.00 20.00    -0.297 OA
ENDROOT
BRANCH   1   3
HETATM    3  C3  UNL     1     -33.742   8.133   4.803  1.00 20.00     0.079 C 
BRANCH   3   4
HETATM    4  C5  UNL     1     -32.314   8.186   4.264  1.00 20.00     0.003 C 
HETATM    5  C2  UNL     1     -32.141   7.379   2.986  1.00 20.00     0.005 C 
ENDBRANCH   3   4
ENDBRANCH   1   3
BRANCH   1   6
HETATM    6  C4  UNL     1     -34.994   5.897   4.841  1.00 20.00     0.192 C 
HETATM    7 CL7  UNL     1     -34.129   4.429   4.362  1.00 20.00    -0.123 Cl
ENDBRANCH   1   6
TORSDOF 3
ENDMDL
MODEL 3
REMARK VINA RESULT:      -4.1      2.071      3.120
REMARK  3 active torsions:
REMARK  status: ('A' for Active; 'I' for Inactive)
REMARK    1  A    between atoms: C1_1  and  C3_3 
REMARK    2  A    between atoms: C1_1  and  C4_4 
REMARK    3  A    between atoms: C3_3  and  C5_5 
ROOT
HETATM    1  C1  UNL     1     -34.368   5.913   5.818  1.00 20.00     0.140 C 
HETATM    2  O6  UNL     1     -34.443   5.017   6.658  1.00 20.00    -0.297 OA
ENDROOT
BRANCH   1   3
HETATM    3  C3  UNL     1     -33.792   7.283   6.151  1.00 20.00     0.079 C 
BRANCH   3   4
HETATM    4  C5  UNL     1     -33.686   8.219   4.948  1.00 20.00     0.003 C 
HETATM    5  C2  UNL     1     -32.249   8.428   4.494  1.00 20.00     0.005 C 
ENDBRANCH   3   4
ENDBRANCH   1   3
BRANCH   1   6
HETATM    6  C4  UNL     1     -34.873   5.756   4.399  1.00 20.00     0.192 C 
HETATM    7 CL7  UNL     1     -33.599   5.125   3.346  1.00 20.00    -0.123 Cl
ENDBRANCH   1   6
TORSDOF 3
ENDMDL
MODEL 4
REMARK VINA RESULT:      -4.1      2.578      2.827
REMARK  3 active torsions:
REMARK  status: ('A' for Active; 'I' for Inactive)
REMARK    1  A    between atoms: C1_1  and  C3_3 
REMARK    2  A    between atoms: C1_1  and  C4_4 
REMARK    3  A    between atoms: C3_3  and  C5_5 
ROOT
HETATM    1  C1  UNL     1     -33.942   4.898   3.957  1.00 20.00     0.140 C 
HETATM    2  O6  UNL     1     -33.872   3.737   4.356  1.00 20.00    -0.297 OA
ENDROOT
BRANCH   1   3
HETATM    3  C3  UNL     1     -34.912   5.902   4.568  1.00 20.00     0.079 C 
BRANCH   3   4
HETATM    4  C5  UNL     1     -34.775   6.054   6.081  1.00 20.00     0.003 C 
HETATM    5  C2  UNL     1     -33.867   7.211   6.473  1.00 20.00     0.005 C 
ENDBRANCH   3   4
ENDBRANCH   1   3
BRANCH   1   6
HETATM    6  C4  UNL     1     -33.110   5.426   2.808  1.00 20.00     0.192 C 
HETATM    7 CL7  UNL     1     -32.436   7.015   3.200  1.00 20.00    -0.123 Cl
ENDBRANCH   1   6
TORSDOF 3
ENDMDL
MODEL 5
REMARK VINA RESULT:      -3.9      2.250      2.394
REMARK  3 active torsions:
REMARK  status: ('A' for Active; 'I' for Inactive)
REMARK    1  A    between atoms: C1_1  and  C3_3 
REMARK    2  A    between atoms: C1_1  and  C4_4 
REMARK    3  A    between atoms: C3_3  and  C5_5 
ROOT
HETATM    1  C1  UNL     1     -33.120   6.353   3.383  1.00 20.00     0.140 C 
HETATM    2  O6  UNL     1     -32.864   5.366   2.695  1.00 20.00    -0.297 OA
ENDROOT
BRANCH   1   3
HETATM    3  C3  UNL     1     -34.388   6.443   4.222  1.00 20.00     0.079 C 
BRANCH   3   4
HETATM    4  C5  UNL     1     -34.691   5.179   5.024  1.00 20.00     0.003 C 
HETATM    5  C2  UNL     1     -34.483   5.371   6.519  1.00 20.00     0.005 C 
ENDBRANCH   3   4
ENDBRANCH   1   3
BRANCH   1   6
HETATM    6  C4  UNL     1     -32.229   7.576   3.432  1.00 20.00     0.192 C 
HETATM    7 CL7  UNL     1     -32.530   8.513   4.903  1.00 20.00    -0.123 Cl
ENDBRANCH   1   6
TORSDOF 3
ENDMDL
MODEL 6
REMARK VINA RESULT:      -3.8      2.756      3.978
REMARK  3 active torsions:
REMARK  status: ('A' for Active; 'I' for Inactive)
REMARK    1  A    between atoms: C1_1  and  C3_3 
REMARK    2  A    between atoms: C1_1  and  C4_4 
REMARK    3  A    between atoms: C3_3  and  C5_5 
ROOT
HETATM    1  C1  UNL     1     -34.306   5.008   4.828  1.00 20.00     0.140 C 
HETATM    2  O6  UNL     1     -34.094   3.838   4.515  1.00 20.00    -0.297 OA
ENDROOT
BRANCH   1   3
HETATM    3  C3  UNL     1     -34.203   6.144   3.818  1.00 20.00     0.079 C 
BRANCH   3   4
HETATM    4  C5  UNL     1     -32.851   6.225   3.112  1.00 20.00     0.003 C 
HETATM    5  C2  UNL     1     -32.174   7.575   3.297  1.00 20.00     0.005 C 
ENDBRANCH   3   4
ENDBRANCH   1   3
BRANCH   1   6
HETATM    6  C4  UNL     1     -34.645   5.434   6.241  1.00 20.00     0.192 C 
HETATM    7 CL7  UNL     1     -34.159   7.112   6.524  1.00 20.00    -0.123 Cl
ENDBRANCH   1   6
TORSDOF 3
ENDMDL
MODEL 7
REMARK VINA RESULT:      -3.8      2.273      2.873
REMARK  3 active torsions:
REMARK  status: ('A' for Active; 'I' for Inactive)
REMARK    1  A    between atoms: C1_1  and  C3_3 
REMARK    2  A    between atoms: C1_1  and  C4_4 
REMARK    3  A    between atoms: C3_3  and  C5_5 
ROOT
HETATM    1  C1  UNL     1     -34.055   6.836   5.535  1.00 20.00     0.140 C 
HETATM    2  O6  UNL     1     -33.736   6.436   6.653  1.00 20.00    -0.297 OA
ENDROOT
BRANCH   1   3
HETATM    3  C3  UNL     1     -34.801   5.951   4.545  1.00 20.00     0.079 C 
BRANCH   3   4
HETATM    4  C5  UNL     1     -33.970   4.788   4.006  1.00 20.00     0.003 C 
HETATM    5  C2  UNL     1     -33.113   5.186   2.813  1.00 20.00     0.005 C 
ENDBRANCH   3   4
ENDBRANCH   1   3
BRANCH   1   6
HETATM    6  C4  UNL     1     -33.706   8.218   5.025  1.00 20.00     0.192 C 
HETATM    7 CL7  UNL     1     -32.063   8.248   4.367  1.00 20.00    -0.123 Cl
ENDBRANCH   1   6
TORSDOF 3
ENDMDL
MODEL 8
REMARK VINA RESULT:      -3.8      2.466      3.496
REMARK  3 active torsions:
REMARK  status: ('A' for Active; 'I' for Inactive)
REMARK    1  A    between atoms: C1_1  and  C3_3 
REMARK    2  A    between atoms: C1_1  and  C4_4 
REMARK    3  A    between atoms: C3_3  and  C5_5 
ROOT
HETATM    1  C1  UNL     1     -33.717   5.716   3.874  1.00 20.00     0.140 C 
HETATM    2  O6  UNL     1     -33.131   5.393   2.842  1.00 20.00    -0.297 OA
ENDROOT
BRANCH   1   3
HETATM    3  C3  UNL     1     -33.705   7.148   4.394  1.00 20.00     0.079 C 
BRANCH   3   4
HETATM    4  C5  UNL     1     -32.541   7.986   3.872  1.00 20.00     0.003 C 
HETATM    5  C2  UNL     1     -32.145   9.099   4.831  1.00 20.00     0.005 C 
ENDBRANCH   3   4
ENDBRANCH   1   3
BRANCH   1   6
HETATM    6  C4  UNL     1     -34.465   4.724   4.741  1.00 20.00     0.192 C 
HETATM    7 CL7  UNL     1     -34.742   5.389   6.357  1.00 20.00    -0.123 Cl
ENDBRANCH   1   6
TORSDOF 3
ENDMDL
MODEL 9
REMARK VINA RESULT:      -3.7      2.802      4.017
REMARK  3 active torsions:
REMARK  status: ('A' for Active; 'I' for Inactive)
REMARK    1  A    between atoms: C1_1  and  C3_3 
REMARK    2  A    between atoms: C1_1  and  C4_4 
REMARK    3  A    between atoms: C3_3  and  C5_5 
ROOT
HETATM    1  C1  UNL     1     -33.911   5.308   4.023  1.00 20.00     0.140 C 
HETATM    2  O6  UNL     1     -34.146   4.127   4.273  1.00 20.00    -0.297 OA
ENDROOT
BRANCH   1   3
HETATM    3  C3  UNL     1     -32.954   5.722   2.913  1.00 20.00     0.079 C 
BRANCH   3   4
HETATM    4  C5  UNL     1     -32.319   7.094   3.122  1.00 20.00     0.003 C 
HETATM    5  C2  UNL     1     -32.222   7.898   1.834  1.00 20.00     0.005 C 
ENDBRANCH   3   4
ENDBRANCH   1   3
BRANCH   1   6
HETATM    6  C4  UNL     1     -34.513   6.452   4.812  1.00 20.00     0.192 C 
HETATM    7 CL7  UNL     1     -34.460   6.113   6.548  1.00 20.00    -0.123 Cl
ENDBRANCH   1   6
TORSDOF 3
ENDMDL
