MODEL 1
REMARK VINA RESULT:      -5.8      0.000      0.000
REMARK  0 active torsions:
REMARK  status: ('A' for Active; 'I' for Inactive)
ROOT
HETATM    1  C1  UNL     1     -33.233   6.390   3.070  1.00 20.00     0.055 A 
HETATM    2  C2  UNL     1     -33.770   6.194   4.319  1.00 20.00    -0.029 A 
HETATM    3  C3  UNL     1     -33.622   7.182   5.276  1.00 20.00     0.063 A 
HETATM    4  C4  UNL     1     -32.559   7.583   2.879  1.00 20.00     0.148 A 
HETATM    5  C5  UNL     1     -34.575   5.051   4.838  1.00 20.00     0.041 C 
HETATM    6  C6  UNL     1     -34.322   6.811   6.550  1.00 20.00     0.062 C 
HETATM    7  C7  UNL     1     -34.487   5.296   6.355  1.00 20.00     0.011 C 
HETATM    8  N8  UNL     1     -32.973   8.337   5.066  1.00 20.00    -0.153 NA
HETATM    9  N9  UNL     1     -32.423   8.536   3.839  1.00 20.00    -0.138 NA
HETATM   10 CL10 UNL     1     -31.832   7.965   1.374  1.00 20.00    -0.060 Cl
ENDROOT
TORSDOF 0
ENDMDL
MODEL 2
REMARK VINA RESULT:      -5.2      1.611      2.054
REMARK  0 active torsions:
REMARK  status: ('A' for Active; 'I' for Inactive)
ROOT
HETATM    1  C1  UNL     1     -32.849   7.785   3.959  1.00 20.00     0.055 A 
HETATM    2  C2  UNL     1     -33.488   6.974   4.865  1.00 20.00    -0.029 A 
HETATM    3  C3  UNL     1     -33.808   5.678   4.497  1.00 20.00     0.063 A 
HETATM    4  C4  UNL     1     -32.588   7.227   2.721  1.00 20.00     0.148 A 
HETATM    5  C5  UNL     1     -33.879   7.249   6.277  1.00 20.00     0.041 C 
HETATM    6  C6  UNL     1     -34.446   4.935   5.633  1.00 20.00     0.062 C 
HETATM    7  C7  UNL     1     -34.874   6.104   6.535  1.00 20.00     0.011 C 
HETATM    8  N8  UNL     1     -33.535   5.153   3.293  1.00 20.00    -0.153 NA
HETATM    9  N9  UNL     1     -32.917   5.951   2.383  1.00 20.00    -0.138 NA
HETATM   10 CL10 UNL     1     -31.800   8.119   1.488  1.00 20.00    -0.060 Cl
ENDROOT
TORSDOF 0
ENDMDL
MODEL 3
REMARK VINA RESULT:      -4.8      1.712      2.098
REMARK  0 active torsions:
REMARK  status: ('A' for Active; 'I' for Inactive)
ROOT
HETATM    1  C1  UNL     1     -33.853   4.927   3.810  1.00 20.00     0.055 A 
HETATM    2  C2  UNL     1     -34.009   5.922   4.744  1.00 20.00    -0.029 A 
HETATM    3  C3  UNL     1     -33.360   7.130   4.553  1.00 20.00     0.063 A 
HETATM    4  C4  UNL     1     -33.027   5.221   2.741  1.00 20.00     0.148 A 
HETATM    5  C5  UNL     1     -34.845   5.945   5.979  1.00 20.00     0.041 C 
HETATM    6  C6  UNL     1     -33.696   8.103   5.643  1.00 20.00     0.062 C 
HETATM    7  C7  UNL     1     -34.242   7.152   6.719  1.00 20.00     0.011 C 
HETATM    8  N8  UNL     1     -32.570   7.397   3.502  1.00 20.00    -0.153 NA
HETATM    9  N9  UNL     1     -32.396   6.415   2.579  1.00 20.00    -0.138 NA
HETATM   10 CL10 UNL     1     -32.733   4.076   1.500  1.00 20.00    -0.060 Cl
ENDROOT
TORSDOF 0
ENDMDL
MODEL 4
REMARK VINA RESULT:      -4.6      1.698      2.365
REMARK  0 active torsions:
REMARK  status: ('A' for Active; 'I' for Inactive)
ROOT
HETATM    1  C1  UNL     1     -33.313   8.027   5.665  1.00 20.00     0.055 A 
HETATM    2  C2  UNL     1     -33.837   6.791   5.376  1.00 20.00    -0.029 A 
HETATM    3  C3  UNL     1     -33.504   6.183   4.177  1.00 20.00     0.063 A 
HETATM    4  C4  UNL     1     -32.488   8.578   4.700  1.00 20.00     0.148 A 
HETATM    5  C5  UNL     1     -34.719   5.916   6.201  1.00 20.00     0.041 C 
HETATM    6  C6  UNL     1     -34.125   4.822   4.069  1.00 20.00     0.062 C 
HETATM    7  C7  UNL     1     -35.224   4.923   5.138  1.00 20.00     0.011 C 
HETATM    8  N8  UNL     1     -32.693   6.732   3.260  1.00 20.00    -0.153 NA
HETATM    9  N9  UNL     1     -32.181   7.962   3.528  1.00 20.00    -0.138 NA
HETATM   10 CL10 UNL     1     -31.765  10.116   4.919  1.00 20.00    -0.060 Cl
ENDROOT
TORSDOF 0
ENDMDL
MODEL 5
REMARK VINA RESULT:      -4.5      2.295      2.851
REMARK  0 active torsions:
REMARK  status: ('A' for Active; 'I' for Inactive)
ROOT
HETATM    1  C1  UNL     1     -32.675   6.456   3.126  1.00 20.00     0.055 A 
HETATM    2  C2  UNL     1     -33.060   7.117   4.267  1.00 20.00    -0.029 A 
HETATM    3  C3  UNL     1     -33.902   6.480   5.161  1.00 20.00     0.063 A 
HETATM    4  C4  UNL     1     -33.189   5.183   2.959  1.00 20.00     0.148 A 
HETATM    5  C5  UNL     1     -32.666   8.468   4.762  1.00 20.00     0.041 C 
HETATM    6  C6  UNL     1     -34.161   7.336   6.365  1.00 20.00     0.062 C 
HETATM    7  C7  UNL     1     -33.744   8.715   5.831  1.00 20.00     0.011 C 
HETATM    8  N8  UNL     1     -34.380   5.239   4.984  1.00 20.00    -0.153 NA
HETATM    9  N9  UNL     1     -34.019   4.580   3.852  1.00 20.00    -0.138 NA
HETATM   10 CL10 UNL     1     -32.801   4.238   1.583  1.00 20.00    -0.060 Cl
ENDROOT
TORSDOF 0
ENDMDL
MODEL 6
REMARK VINA RESULT:      -4.4     12.566     12.749
REMARK  0 active torsions:
REMARK  status: ('A' for Active; 'I' for Inactive)
ROOT
HETATM    1  C1  UNL     1     -33.287  18.681   0.666  1.00 20.00     0.055 A 
HETATM    2  C2  UNL     1     -32.218  18.918   1.496  1.00 20.00    -0.029 A 
HETATM    3  C3  UNL     1     -30.942  18.929   0.961  1.00 20.00     0.063 A 
HETATM    4  C4  UNL     1     -32.984  18.451  -0.664  1.00 20.00     0.148 A 
HETATM    5  C5  UNL     1     -32.198  19.232   2.954  1.00 20.00     0.041 C 
HETATM    6  C6  UNL     1     -29.919  19.260   2.007  1.00 20.00     0.062 C 
HETATM    7  C7  UNL     1     -30.718  18.977   3.288  1.00 20.00     0.011 C 
HETATM    8  N8  UNL     1     -30.672  18.714  -0.335  1.00 20.00    -0.153 NA
HETATM    9  N9  UNL     1     -31.720  18.462  -1.164  1.00 20.00    -0.138 NA
HETATM   10 CL10 UNL     1     -34.213  18.136  -1.816  1.00 20.00    -0.060 Cl
ENDROOT
TORSDOF 0
ENDMDL
MODEL 7
REMARK VINA RESULT:      -4.3     15.919     16.004
REMARK  0 active torsions:
REMARK  status: ('A' for Active; 'I' for Inactive)
ROOT
HETATM    1  C1  UNL     1     -22.382  17.450   9.492  1.00 20.00     0.055 A 
HETATM    2  C2  UNL     1     -23.366  17.791  10.387  1.00 20.00    -0.029 A 
HETATM    3  C3  UNL     1     -24.351  18.681   9.996  1.00 20.00     0.063 A 
HETATM    4  C4  UNL     1     -22.455  18.054   8.250  1.00 20.00     0.148 A 
HETATM    5  C5  UNL     1     -23.598  17.302  11.777  1.00 20.00     0.041 C 
HETATM    6  C6  UNL     1     -25.362  18.883  11.085  1.00 20.00     0.062 C 
HETATM    7  C7  UNL     1     -24.580  18.364  12.302  1.00 20.00     0.011 C 
HETATM    8  N8  UNL     1     -24.409  19.247   8.781  1.00 20.00    -0.153 NA
HETATM    9  N9  UNL     1     -23.431  18.930   7.892  1.00 20.00    -0.138 NA
HETATM   10 CL10 UNL     1     -21.294  17.730   7.031  1.00 20.00    -0.060 Cl
ENDROOT
TORSDOF 0
ENDMDL
MODEL 8
REMARK VINA RESULT:      -4.3     12.458     12.884
REMARK  0 active torsions:
REMARK  status: ('A' for Active; 'I' for Inactive)
ROOT
HETATM    1  C1  UNL     1     -32.562  18.722   1.690  1.00 20.00     0.055 A 
HETATM    2  C2  UNL     1     -32.937  18.501   0.387  1.00 20.00    -0.029 A 
HETATM    3  C3  UNL     1     -31.970  18.521  -0.603  1.00 20.00     0.063 A 
HETATM    4  C4  UNL     1     -31.218  18.966   1.902  1.00 20.00     0.148 A 
HETATM    5  C5  UNL     1     -34.281  18.178  -0.174  1.00 20.00     0.041 C 
HETATM    6  C6  UNL     1     -32.561  18.204  -1.944  1.00 20.00     0.062 C 
HETATM    7  C7  UNL     1     -34.051  18.463  -1.669  1.00 20.00     0.011 C 
HETATM    8  N8  UNL     1     -30.668  18.750  -0.373  1.00 20.00    -0.153 NA
HETATM    9  N9  UNL     1     -30.287  18.985   0.911  1.00 20.00    -0.138 NA
HETATM   10 CL10 UNL     1     -30.603  19.263   3.474  1.00 20.00    -0.060 Cl
ENDROOT
TORSDOF 0
ENDMDL
MODEL 9
REMARK VINA RESULT:      -4.2      1.774      2.345
REMARK  0 active torsions:
REMARK  status: ('A' for Active; 'I' for Inactive)
ROOT
HETATM    1  C1  UNL     1     -32.465   7.616   3.796  1.00 20.00     0.055 A 
HETATM    2  C2  UNL     1     -33.173   6.442   3.871  1.00 20.00    -0.029 A 
HETATM    3  C3  UNL     1     -34.041   6.248   4.932  1.00 20.00     0.063 A 
HETATM    4  C4  UNL     1     -32.675   8.520   4.821  1.00 20.00     0.148 A 
HETATM    5  C5  UNL     1     -33.205   5.289   2.926  1.00 20.00     0.041 C 
HETATM    6  C6  UNL     1     -34.760   4.938   4.810  1.00 20.00     0.062 C 
HETATM    7  C7  UNL     1     -33.856   4.207   3.806  1.00 20.00     0.011 C 
HETATM    8  N8  UNL     1     -34.237   7.144   5.911  1.00 20.00    -0.153 NA
HETATM    9  N9  UNL     1     -33.531   8.303   5.856  1.00 20.00    -0.138 NA
HETATM   10 CL10 UNL     1     -31.858  10.026   4.864  1.00 20.00    -0.060 Cl
ENDROOT
TORSDOF 0
ENDMDL
