MODEL 1
REMARK VINA RESULT:      -5.0      0.000      0.000
REMARK  2 active torsions:
REMARK  status: ('A' for Active; 'I' for Inactive)
REMARK    1  A    between atoms: C2_2  and  C3_3 
REMARK    2  A    between atoms: C3_3  and  C8_8 
ROOT
HETATM    1  C3  UNL     1     -32.805   8.425   4.341  1.00 20.00     0.159 C 
HETATM    2  O11 UNL     1     -31.997   8.907   5.149  1.00 20.00    -0.292 OA
ENDROOT
BRANCH   1   3
HETATM    3  C2  UNL     1     -32.600   8.542   2.931  1.00 20.00    -0.016 C 
HETATM    4  C1  UNL     1     -32.124   7.591   2.119  1.00 20.00    -0.016 C 
HETATM    5  C4  UNL     1     -32.022   8.070   0.710  1.00 20.00     0.028 C 
HETATM    6  C6  UNL     1     -32.838   9.361   0.731  1.00 20.00     0.009 C 
HETATM    7  C5  UNL     1     -32.891   9.809   2.192  1.00 20.00     0.042 C 
ENDBRANCH   1   3
BRANCH   1   8
HETATM    8  C8  UNL     1     -34.043   7.705   4.834  1.00 20.00     0.064 A 
HETATM    9  C7  UNL     1     -34.021   7.162   6.215  1.00 20.00     0.018 A 
HETATM   10  C9  UNL     1     -33.945   6.229   5.036  1.00 20.00    -0.006 A 
HETATM   11  C10 UNL     1     -35.113   5.375   4.679  1.00 20.00     0.011 C 
ENDBRANCH   1   8
TORSDOF 2
ENDMDL
MODEL 2
REMARK VINA RESULT:      -4.7      0.813      4.544
REMARK  2 active torsions:
REMARK  status: ('A' for Active; 'I' for Inactive)
REMARK    1  A    between atoms: C2_2  and  C3_3 
REMARK    2  A    between atoms: C3_3  and  C8_8 
ROOT
HETATM    1  C3  UNL     1     -33.064   7.989   4.209  1.00 20.00     0.159 C 
HETATM    2  O11 UNL     1     -32.400   8.829   4.835  1.00 20.00    -0.292 OA
ENDROOT
BRANCH   1   3
HETATM    3  C2  UNL     1     -33.762   6.943   4.889  1.00 20.00    -0.016 C 
HETATM    4  C1  UNL     1     -34.299   5.854   4.326  1.00 20.00    -0.016 C 
HETATM    5  C4  UNL     1     -34.970   4.985   5.337  1.00 20.00     0.028 C 
HETATM    6  C6  UNL     1     -34.459   5.550   6.662  1.00 20.00     0.009 C 
HETATM    7  C5  UNL     1     -33.991   6.975   6.366  1.00 20.00     0.042 C 
ENDBRANCH   1   3
BRANCH   1   8
HETATM    8  C8  UNL     1     -33.143   8.048   2.698  1.00 20.00     0.064 A 
HETATM    9  C7  UNL     1     -31.947   7.628   1.927  1.00 20.00     0.018 A 
HETATM   10  C9  UNL     1     -32.320   9.084   2.006  1.00 20.00    -0.006 A 
HETATM   11  C10 UNL     1     -32.889   9.779   0.817  1.00 20.00     0.011 C 
ENDBRANCH   1   8
TORSDOF 2
ENDMDL
MODEL 3
REMARK VINA RESULT:      -4.3     10.867     11.696
REMARK  2 active torsions:
REMARK  status: ('A' for Active; 'I' for Inactive)
REMARK    1  A    between atoms: C2_2  and  C3_3 
REMARK    2  A    between atoms: C3_3  and  C8_8 
ROOT
HETATM    1  C3  UNL     1     -33.244  17.668  -3.284  1.00 20.00     0.159 C 
HETATM    2  O11 UNL     1     -33.101  18.779  -3.816  1.00 20.00    -0.292 OA
ENDROOT
BRANCH   1   3
HETATM    3  C2  UNL     1     -33.837  16.579  -3.994  1.00 20.00    -0.016 C 
HETATM    4  C1  UNL     1     -33.661  15.278  -3.739  1.00 20.00    -0.016 C 
HETATM    5  C4  UNL     1     -34.419  14.420  -4.696  1.00 20.00     0.028 C 
HETATM    6  C6  UNL     1     -35.362  15.416  -5.369  1.00 20.00     0.009 C 
HETATM    7  C5  UNL     1     -34.740  16.797  -5.166  1.00 20.00     0.042 C 
ENDBRANCH   1   3
BRANCH   1   8
HETATM    8  C8  UNL     1     -32.798  17.441  -1.854  1.00 20.00     0.064 A 
HETATM    9  C7  UNL     1     -33.696  17.907  -0.769  1.00 20.00     0.018 A 
HETATM   10  C9  UNL     1     -32.414  18.643  -1.055  1.00 20.00    -0.006 A 
HETATM   11  C10 UNL     1     -31.265  18.543  -0.112  1.00 20.00     0.011 C 
ENDBRANCH   1   8
TORSDOF 2
ENDMDL
MODEL 4
REMARK VINA RESULT:      -4.3      1.736      4.638
REMARK  2 active torsions:
REMARK  status: ('A' for Active; 'I' for Inactive)
REMARK    1  A    between atoms: C2_2  and  C3_3 
REMARK    2  A    between atoms: C3_3  and  C8_8 
ROOT
HETATM    1  C3  UNL     1     -32.873   6.064   3.107  1.00 20.00     0.159 C 
HETATM    2  O11 UNL     1     -32.861   5.018   2.440  1.00 20.00    -0.292 OA
ENDROOT
BRANCH   1   3
HETATM    3  C2  UNL     1     -33.596   6.148   4.337  1.00 20.00    -0.016 C 
HETATM    4  C1  UNL     1     -34.451   5.237   4.816  1.00 20.00    -0.016 C 
HETATM    5  C4  UNL     1     -35.040   5.666   6.119  1.00 20.00     0.028 C 
HETATM    6  C6  UNL     1     -34.144   6.833   6.528  1.00 20.00     0.009 C 
HETATM    7  C5  UNL     1     -33.479   7.331   5.244  1.00 20.00     0.042 C 
ENDBRANCH   1   3
BRANCH   1   8
HETATM    8  C8  UNL     1     -32.124   7.288   2.623  1.00 20.00     0.064 A 
HETATM    9  C7  UNL     1     -32.614   8.617   3.066  1.00 20.00     0.018 A 
HETATM   10  C9  UNL     1     -32.816   8.175   1.641  1.00 20.00    -0.006 A 
HETATM   11  C10 UNL     1     -32.021   8.792   0.543  1.00 20.00     0.011 C 
ENDBRANCH   1   8
TORSDOF 2
ENDMDL
MODEL 5
REMARK VINA RESULT:      -4.3     10.848     11.563
REMARK  2 active torsions:
REMARK  status: ('A' for Active; 'I' for Inactive)
REMARK    1  A    between atoms: C2_2  and  C3_3 
REMARK    2  A    between atoms: C3_3  and  C8_8 
ROOT
HETATM    1  C3  UNL     1     -33.254  17.393  -3.041  1.00 20.00     0.159 C 
HETATM    2  O11 UNL     1     -33.113  18.177  -3.992  1.00 20.00    -0.292 OA
ENDROOT
BRANCH   1   3
HETATM    3  C2  UNL     1     -33.087  17.830  -1.691  1.00 20.00    -0.016 C 
HETATM    4  C1  UNL     1     -33.956  17.653  -0.689  1.00 20.00    -0.016 C 
HETATM    5  C4  UNL     1     -33.462  18.260   0.582  1.00 20.00     0.028 C 
HETATM    6  C6  UNL     1     -31.992  18.540   0.275  1.00 20.00     0.009 C 
HETATM    7  C5  UNL     1     -31.875  18.586  -1.249  1.00 20.00     0.042 C 
ENDBRANCH   1   3
BRANCH   1   8
HETATM    8  C8  UNL     1     -33.600  15.940  -3.294  1.00 20.00     0.064 A 
HETATM    9  C7  UNL     1     -32.672  15.146  -4.137  1.00 20.00     0.018 A 
HETATM   10  C9  UNL     1     -34.014  15.562  -4.678  1.00 20.00    -0.006 A 
HETATM   11  C10 UNL     1     -35.097  14.554  -4.855  1.00 20.00     0.011 C 
ENDBRANCH   1   8
TORSDOF 2
ENDMDL
MODEL 6
REMARK VINA RESULT:      -4.3     10.594     11.375
REMARK  2 active torsions:
REMARK  status: ('A' for Active; 'I' for Inactive)
REMARK    1  A    between atoms: C2_2  and  C3_3 
REMARK    2  A    between atoms: C3_3  and  C8_8 
ROOT
HETATM    1  C3  UNL     1     -33.387  18.211  -0.017  1.00 20.00     0.159 C 
HETATM    2  O11 UNL     1     -34.358  17.828   0.655  1.00 20.00    -0.292 OA
ENDROOT
BRANCH   1   3
HETATM    3  C2  UNL     1     -33.296  17.925  -1.414  1.00 20.00    -0.016 C 
HETATM    4  C1  UNL     1     -33.501  16.737  -1.993  1.00 20.00    -0.016 C 
HETATM    5  C4  UNL     1     -33.298  16.801  -3.470  1.00 20.00     0.028 C 
HETATM    6  C6  UNL     1     -33.269  18.304  -3.743  1.00 20.00     0.009 C 
HETATM    7  C5  UNL     1     -32.921  18.973  -2.413  1.00 20.00     0.042 C 
ENDBRANCH   1   3
BRANCH   1   8
HETATM    8  C8  UNL     1     -32.264  18.988   0.637  1.00 20.00     0.064 A 
HETATM    9  C7  UNL     1     -30.876  18.511   0.419  1.00 20.00     0.018 A 
HETATM   10  C9  UNL     1     -31.533  18.328   1.761  1.00 20.00    -0.006 A 
HETATM   11  C10 UNL     1     -31.106  19.153   2.925  1.00 20.00     0.011 C 
ENDBRANCH   1   8
TORSDOF 2
ENDMDL
MODEL 7
REMARK VINA RESULT:      -4.2     10.587     12.082
REMARK  2 active torsions:
REMARK  status: ('A' for Active; 'I' for Inactive)
REMARK    1  A    between atoms: C2_2  and  C3_3 
REMARK    2  A    between atoms: C3_3  and  C8_8 
ROOT
HETATM    1  C3  UNL     1     -33.987  14.879  -4.395  1.00 20.00     0.159 C 
HETATM    2  O11 UNL     1     -34.119  13.800  -3.797  1.00 20.00    -0.292 OA
ENDROOT
BRANCH   1   3
HETATM    3  C2  UNL     1     -34.572  15.088  -5.682  1.00 20.00    -0.016 C 
HETATM    4  C1  UNL     1     -35.878  15.059  -5.972  1.00 20.00    -0.016 C 
HETATM    5  C4  UNL     1     -36.126  15.298  -7.424  1.00 20.00     0.028 C 
HETATM    6  C6  UNL     1     -34.777  15.818  -7.917  1.00 20.00     0.009 C 
HETATM    7  C5  UNL     1     -33.740  15.348  -6.897  1.00 20.00     0.042 C 
ENDBRANCH   1   3
BRANCH   1   8
HETATM    8  C8  UNL     1     -33.188  16.005  -3.773  1.00 20.00     0.064 A 
HETATM    9  C7  UNL     1     -33.560  16.443  -2.405  1.00 20.00     0.018 A 
HETATM   10  C9  UNL     1     -33.876  17.318  -3.589  1.00 20.00    -0.006 A 
HETATM   11  C10 UNL     1     -33.107  18.573  -3.821  1.00 20.00     0.011 C 
ENDBRANCH   1   8
TORSDOF 2
ENDMDL
MODEL 8
REMARK VINA RESULT:      -4.2     10.792     11.590
REMARK  2 active torsions:
REMARK  status: ('A' for Active; 'I' for Inactive)
REMARK    1  A    between atoms: C2_2  and  C3_3 
REMARK    2  A    between atoms: C3_3  and  C8_8 
ROOT
HETATM    1  C3  UNL     1     -31.899  18.598  -0.853  1.00 20.00     0.159 C 
HETATM    2  O11 UNL     1     -30.669  18.441  -0.793  1.00 20.00    -0.292 OA
ENDROOT
BRANCH   1   3
HETATM    3  C2  UNL     1     -32.644  18.168  -1.994  1.00 20.00    -0.016 C 
HETATM    4  C1  UNL     1     -32.878  18.881  -3.101  1.00 20.00    -0.016 C 
HETATM    5  C4  UNL     1     -33.711  18.123  -4.080  1.00 20.00     0.028 C 
HETATM    6  C6  UNL     1     -33.663  16.697  -3.534  1.00 20.00     0.009 C 
HETATM    7  C5  UNL     1     -33.286  16.819  -2.057  1.00 20.00     0.042 C 
ENDBRANCH   1   3
BRANCH   1   8
HETATM    8  C8  UNL     1     -32.641  19.263   0.287  1.00 20.00     0.064 A 
HETATM    9  C7  UNL     1     -32.343  18.804   1.666  1.00 20.00     0.018 A 
HETATM   10  C9  UNL     1     -33.654  18.445   1.019  1.00 20.00    -0.006 A 
HETATM   11  C10 UNL     1     -34.917  19.096   1.468  1.00 20.00     0.011 C 
ENDBRANCH   1   8
TORSDOF 2
ENDMDL
MODEL 9
REMARK VINA RESULT:      -4.1      9.398     10.337
REMARK  2 active torsions:
REMARK  status: ('A' for Active; 'I' for Inactive)
REMARK    1  A    between atoms: C2_2  and  C3_3 
REMARK    2  A    between atoms: C3_3  and  C8_8 
ROOT
HETATM    1  C3  UNL     1     -40.932  13.521   7.283  1.00 20.00     0.159 C 
HETATM    2  O11 UNL     1     -41.961  13.008   7.749  1.00 20.00    -0.292 OA
ENDROOT
BRANCH   1   3
HETATM    3  C2  UNL     1     -40.161  12.853   6.282  1.00 20.00    -0.016 C 
HETATM    4  C1  UNL     1     -40.452  12.778   4.978  1.00 20.00    -0.016 C 
HETATM    5  C4  UNL     1     -39.434  11.983   4.232  1.00 20.00     0.028 C 
HETATM    6  C6  UNL     1     -38.288  11.870   5.235  1.00 20.00     0.009 C 
HETATM    7  C5  UNL     1     -38.903  12.117   6.614  1.00 20.00     0.042 C 
ENDBRANCH   1   3
BRANCH   1   8
HETATM    8  C8  UNL     1     -40.462  14.874   7.776  1.00 20.00     0.064 A 
HETATM    9  C7  UNL     1     -40.182  15.021   9.225  1.00 20.00     0.018 A 
HETATM   10  C9  UNL     1     -41.404  15.662   8.625  1.00 20.00    -0.006 A 
HETATM   11  C10 UNL     1     -41.467  17.140   8.448  1.00 20.00     0.011 C 
ENDBRANCH   1   8
TORSDOF 2
ENDMDL
