MODEL 1
REMARK VINA RESULT:      -4.6      0.000      0.000
REMARK  2 active torsions:
REMARK  status: ('A' for Active; 'I' for Inactive)
REMARK    1  A    between atoms: C2_2  and  C3_3 
REMARK    2  A    between atoms: C3_3  and  C9_9 
ROOT
HETATM    1  C1  UNL     1     -33.911   6.055   3.856  1.00 20.00    -0.016 C 
HETATM    2  C2  UNL     1     -33.312   7.137   4.374  1.00 20.00    -0.016 C 
HETATM    3  C4  UNL     1     -34.695   5.087   4.694  1.00 20.00     0.028 C 
HETATM    4  C5  UNL     1     -33.383   7.516   5.822  1.00 20.00     0.042 C 
HETATM    5  C6  UNL     1     -34.485   5.278   6.199  1.00 20.00     0.004 C 
HETATM    6  C7  UNL     1     -34.478   6.756   6.577  1.00 20.00     0.005 C 
ENDROOT
BRANCH   2   7
HETATM    7  C3  UNL     1     -32.565   8.004   3.461  1.00 20.00     0.159 C 
HETATM    8  O12 UNL     1     -32.017   9.029   3.874  1.00 20.00    -0.292 OA
BRANCH   7   9
HETATM    9  C9  UNL     1     -32.480   7.602   2.010  1.00 20.00     0.064 A 
HETATM   10  C8  UNL     1     -31.353   8.140   1.199  1.00 20.00     0.018 A 
HETATM   11  C10 UNL     1     -32.758   8.608   0.948  1.00 20.00    -0.006 A 
HETATM   12  C11 UNL     1     -33.136  10.022   1.233  1.00 20.00     0.011 C 
ENDBRANCH   7   9
ENDBRANCH   2   7
TORSDOF 2
ENDMDL
MODEL 2
REMARK VINA RESULT:      -4.5     11.245     12.570
REMARK  2 active torsions:
REMARK  status: ('A' for Active; 'I' for Inactive)
REMARK    1  A    between atoms: C2_2  and  C3_3 
REMARK    2  A    between atoms: C3_3  and  C9_9 
ROOT
HETATM    1  C1  UNL     1     -33.314  15.869  -3.408  1.00 20.00    -0.016 C 
HETATM    2  C2  UNL     1     -33.803  17.082  -3.701  1.00 20.00    -0.016 C 
HETATM    3  C4  UNL     1     -33.569  14.665  -4.268  1.00 20.00     0.028 C 
HETATM    4  C5  UNL     1     -34.622  17.378  -4.920  1.00 20.00     0.042 C 
HETATM    5  C6  UNL     1     -34.671  14.886  -5.309  1.00 20.00     0.004 C 
HETATM    6  C7  UNL     1     -34.551  16.259  -5.963  1.00 20.00     0.005 C 
ENDROOT
BRANCH   2   7
HETATM    7  C3  UNL     1     -33.497  18.180  -2.781  1.00 20.00     0.159 C 
HETATM    8  O12 UNL     1     -32.918  19.193  -3.182  1.00 20.00    -0.292 OA
BRANCH   7   9
HETATM    9  C9  UNL     1     -33.917  18.037  -1.340  1.00 20.00     0.064 A 
HETATM   10  C8  UNL     1     -33.920  19.258  -0.488  1.00 20.00     0.018 A 
HETATM   11  C10 UNL     1     -32.903  18.176  -0.259  1.00 20.00    -0.006 A 
HETATM   12  C11 UNL     1     -31.458  18.445  -0.516  1.00 20.00     0.011 C 
ENDBRANCH   7   9
ENDBRANCH   2   7
TORSDOF 2
ENDMDL
MODEL 3
REMARK VINA RESULT:      -4.5      0.541      1.539
REMARK  2 active torsions:
REMARK  status: ('A' for Active; 'I' for Inactive)
REMARK    1  A    between atoms: C2_2  and  C3_3 
REMARK    2  A    between atoms: C3_3  and  C9_9 
ROOT
HETATM    1  C1  UNL     1     -33.422   7.320   5.363  1.00 20.00    -0.016 C 
HETATM    2  C2  UNL     1     -33.167   6.848   4.135  1.00 20.00    -0.016 C 
HETATM    3  C4  UNL     1     -34.313   6.602   6.335  1.00 20.00     0.028 C 
HETATM    4  C5  UNL     1     -33.707   5.552   3.610  1.00 20.00     0.042 C 
HETATM    5  C6  UNL     1     -35.128   5.475   5.694  1.00 20.00     0.004 C 
HETATM    6  C7  UNL     1     -34.283   4.663   4.717  1.00 20.00     0.005 C 
ENDROOT
BRANCH   2   7
HETATM    7  C3  UNL     1     -32.292   7.640   3.268  1.00 20.00     0.159 C 
HETATM    8  O12 UNL     1     -31.395   8.337   3.749  1.00 20.00    -0.292 OA
BRANCH   7   9
HETATM    9  C9  UNL     1     -32.515   7.570   1.779  1.00 20.00     0.064 A 
HETATM   10  C8  UNL     1     -31.498   8.194   0.888  1.00 20.00     0.018 A 
HETATM   11  C10 UNL     1     -32.863   8.807   1.026  1.00 20.00    -0.006 A 
HETATM   12  C11 UNL     1     -33.019  10.144   1.668  1.00 20.00     0.011 C 
ENDBRANCH   7   9
ENDBRANCH   2   7
TORSDOF 2
ENDMDL
MODEL 4
REMARK VINA RESULT:      -4.4     11.272     12.640
REMARK  2 active torsions:
REMARK  status: ('A' for Active; 'I' for Inactive)
REMARK    1  A    between atoms: C2_2  and  C3_3 
REMARK    2  A    between atoms: C3_3  and  C9_9 
ROOT
HETATM    1  C1  UNL     1     -33.304  16.596  -2.347  1.00 20.00    -0.016 C 
HETATM    2  C2  UNL     1     -33.677  16.751  -3.625  1.00 20.00    -0.016 C 
HETATM    3  C4  UNL     1     -32.838  17.743  -1.497  1.00 20.00     0.028 C 
HETATM    4  C5  UNL     1     -33.703  18.072  -4.333  1.00 20.00     0.042 C 
HETATM    5  C6  UNL     1     -32.538  19.012  -2.301  1.00 20.00     0.004 C 
HETATM    6  C7  UNL     1     -33.600  19.258  -3.369  1.00 20.00     0.005 C 
ENDROOT
BRANCH   2   7
HETATM    7  C3  UNL     1     -34.104  15.558  -4.360  1.00 20.00     0.159 C 
HETATM    8  O12 UNL     1     -33.452  14.512  -4.293  1.00 20.00    -0.292 OA
BRANCH   7   9
HETATM    9  C9  UNL     1     -35.361  15.646  -5.187  1.00 20.00     0.064 A 
HETATM   10  C8  UNL     1     -35.799  14.429  -5.926  1.00 20.00     0.018 A 
HETATM   11  C10 UNL     1     -35.269  15.620  -6.673  1.00 20.00    -0.006 A 
HETATM   12  C11 UNL     1     -33.980  15.521  -7.416  1.00 20.00     0.011 C 
ENDBRANCH   7   9
ENDBRANCH   2   7
TORSDOF 2
ENDMDL
MODEL 5
REMARK VINA RESULT:      -4.2      1.169      1.473
REMARK  2 active torsions:
REMARK  status: ('A' for Active; 'I' for Inactive)
REMARK    1  A    between atoms: C2_2  and  C3_3 
REMARK    2  A    between atoms: C3_3  and  C9_9 
ROOT
HETATM    1  C1  UNL     1     -34.024   5.751   3.946  1.00 20.00    -0.016 C 
HETATM    2  C2  UNL     1     -33.275   6.850   4.116  1.00 20.00    -0.016 C 
HETATM    3  C4  UNL     1     -34.815   5.132   5.062  1.00 20.00     0.028 C 
HETATM    4  C5  UNL     1     -33.169   7.595   5.412  1.00 20.00     0.042 C 
HETATM    5  C6  UNL     1     -34.443   5.677   6.445  1.00 20.00     0.004 C 
HETATM    6  C7  UNL     1     -34.256   7.191   6.414  1.00 20.00     0.005 C 
ENDROOT
BRANCH   2   7
HETATM    7  C3  UNL     1     -32.538   7.358   2.957  1.00 20.00     0.159 C 
HETATM    8  O12 UNL     1     -32.104   6.585   2.100  1.00 20.00    -0.292 OA
BRANCH   7   9
HETATM    9  C9  UNL     1     -32.336   8.849   2.843  1.00 20.00     0.064 A 
HETATM   10  C8  UNL     1     -33.527   9.696   2.562  1.00 20.00     0.018 A 
HETATM   11  C10 UNL     1     -32.465   9.510   1.515  1.00 20.00    -0.006 A 
HETATM   12  C11 UNL     1     -32.781   8.774   0.256  1.00 20.00     0.011 C 
ENDBRANCH   7   9
ENDBRANCH   2   7
TORSDOF 2
ENDMDL
MODEL 6
REMARK VINA RESULT:      -4.2     11.297     11.973
REMARK  2 active torsions:
REMARK  status: ('A' for Active; 'I' for Inactive)
REMARK    1  A    between atoms: C2_2  and  C3_3 
REMARK    2  A    between atoms: C3_3  and  C9_9 
ROOT
HETATM    1  C1  UNL     1     -31.734  18.234  -1.135  1.00 20.00    -0.016 C 
HETATM    2  C2  UNL     1     -32.979  17.970  -1.557  1.00 20.00    -0.016 C 
HETATM    3  C4  UNL     1     -31.443  18.766   0.239  1.00 20.00     0.028 C 
HETATM    4  C5  UNL     1     -34.202  18.141  -0.709  1.00 20.00     0.042 C 
HETATM    5  C6  UNL     1     -32.692  19.261   0.975  1.00 20.00     0.004 C 
HETATM    6  C7  UNL     1     -33.868  18.309   0.777  1.00 20.00     0.005 C 
ENDROOT
BRANCH   2   7
HETATM    7  C3  UNL     1     -33.141  17.464  -2.923  1.00 20.00     0.159 C 
HETATM    8  O12 UNL     1     -32.991  18.212  -3.892  1.00 20.00    -0.292 OA
BRANCH   7   9
HETATM    9  C9  UNL     1     -33.488  16.008  -3.103  1.00 20.00     0.064 A 
HETATM   10  C8  UNL     1     -32.819  15.261  -4.203  1.00 20.00     0.018 A 
HETATM   11  C10 UNL     1     -34.284  15.581  -4.287  1.00 20.00    -0.006 A 
HETATM   12  C11 UNL     1     -34.782  16.526  -5.328  1.00 20.00     0.011 C 
ENDBRANCH   7   9
ENDBRANCH   2   7
TORSDOF 2
ENDMDL
MODEL 7
REMARK VINA RESULT:      -4.2     11.301     12.382
REMARK  2 active torsions:
REMARK  status: ('A' for Active; 'I' for Inactive)
REMARK    1  A    between atoms: C2_2  and  C3_3 
REMARK    2  A    between atoms: C3_3  and  C9_9 
ROOT
HETATM    1  C1  UNL     1     -33.713  19.126   0.670  1.00 20.00    -0.016 C 
HETATM    2  C2  UNL     1     -33.163  18.795  -0.507  1.00 20.00    -0.016 C 
HETATM    3  C4  UNL     1     -32.920  19.188   1.943  1.00 20.00     0.028 C 
HETATM    4  C5  UNL     1     -31.708  18.485  -0.690  1.00 20.00     0.042 C 
HETATM    5  C6  UNL     1     -31.534  18.548   1.827  1.00 20.00     0.004 C 
HETATM    6  C7  UNL     1     -30.859  18.918   0.509  1.00 20.00     0.005 C 
ENDROOT
BRANCH   2   7
HETATM    7  C3  UNL     1     -34.038  18.757  -1.681  1.00 20.00     0.159 C 
HETATM    8  O12 UNL     1     -35.264  18.799  -1.553  1.00 20.00    -0.292 OA
BRANCH   7   9
HETATM    9  C9  UNL     1     -33.394  18.676  -3.042  1.00 20.00     0.064 A 
HETATM   10  C8  UNL     1     -34.248  18.285  -4.198  1.00 20.00     0.018 A 
HETATM   11  C10 UNL     1     -33.193  17.347  -3.684  1.00 20.00    -0.006 A 
HETATM   12  C11 UNL     1     -33.587  16.057  -3.047  1.00 20.00     0.011 C 
ENDBRANCH   7   9
ENDBRANCH   2   7
TORSDOF 2
ENDMDL
MODEL 8
REMARK VINA RESULT:      -4.2     13.070     14.644
REMARK  2 active torsions:
REMARK  status: ('A' for Active; 'I' for Inactive)
REMARK    1  A    between atoms: C2_2  and  C3_3 
REMARK    2  A    between atoms: C3_3  and  C9_9 
ROOT
HETATM    1  C1  UNL     1     -26.661  -3.100  10.449  1.00 20.00    -0.016 C 
HETATM    2  C2  UNL     1     -25.996  -2.073  10.997  1.00 20.00    -0.016 C 
HETATM    3  C4  UNL     1     -28.116  -3.019  10.089  1.00 20.00     0.028 C 
HETATM    4  C5  UNL     1     -26.611  -0.736  11.278  1.00 20.00     0.042 C 
HETATM    5  C6  UNL     1     -28.822  -1.796  10.682  1.00 20.00     0.004 C 
HETATM    6  C7  UNL     1     -27.955  -0.545  10.569  1.00 20.00     0.005 C 
ENDROOT
BRANCH   2   7
HETATM    7  C3  UNL     1     -24.580  -2.271  11.315  1.00 20.00     0.159 C 
HETATM    8  O12 UNL     1     -23.895  -1.339  11.743  1.00 20.00    -0.292 OA
BRANCH   7   9
HETATM    9  C9  UNL     1     -23.993  -3.646  11.114  1.00 20.00     0.064 A 
HETATM   10  C8  UNL     1     -22.511  -3.773  11.064  1.00 20.00     0.018 A 
HETATM   11  C10 UNL     1     -23.331  -3.982   9.823  1.00 20.00    -0.006 A 
HETATM   12  C11 UNL     1     -23.217  -3.027   8.683  1.00 20.00     0.011 C 
ENDBRANCH   7   9
ENDBRANCH   2   7
TORSDOF 2
ENDMDL
MODEL 9
REMARK VINA RESULT:      -4.1     11.811     12.768
REMARK  2 active torsions:
REMARK  status: ('A' for Active; 'I' for Inactive)
REMARK    1  A    between atoms: C2_2  and  C3_3 
REMARK    2  A    between atoms: C3_3  and  C9_9 
ROOT
HETATM    1  C1  UNL     1     -34.995  18.357  -3.436  1.00 20.00    -0.016 C 
HETATM    2  C2  UNL     1     -34.315  17.278  -3.847  1.00 20.00    -0.016 C 
HETATM    3  C4  UNL     1     -34.845  18.930  -2.057  1.00 20.00     0.028 C 
HETATM    4  C5  UNL     1     -33.317  16.549  -3.000  1.00 20.00     0.042 C 
HETATM    5  C6  UNL     1     -34.100  18.002  -1.092  1.00 20.00     0.004 C 
HETATM    6  C7  UNL     1     -32.895  17.351  -1.765  1.00 20.00     0.005 C 
ENDROOT
BRANCH   2   7
HETATM    7  C3  UNL     1     -34.552  16.802  -5.212  1.00 20.00     0.159 C 
HETATM    8  O12 UNL     1     -34.365  17.546  -6.178  1.00 20.00    -0.292 OA
BRANCH   7   9
HETATM    9  C9  UNL     1     -35.021  15.381  -5.397  1.00 20.00     0.064 A 
HETATM   10  C8  UNL     1     -35.618  15.006  -6.708  1.00 20.00     0.018 A 
HETATM   11  C10 UNL     1     -36.479  15.091  -5.480  1.00 20.00    -0.006 A 
HETATM   12  C11 UNL     1     -37.534  16.141  -5.380  1.00 20.00     0.011 C 
ENDBRANCH   7   9
ENDBRANCH   2   7
TORSDOF 2
ENDMDL
