MODEL 1
REMARK VINA RESULT:      -4.7      0.000      0.000
REMARK  2 active torsions:
REMARK  status: ('A' for Active; 'I' for Inactive)
REMARK    1  A    between atoms: C2_2  and  C3_3 
REMARK    2  A    between atoms: C3_3  and  C11_11 
ROOT
HETATM    1  C7  UNL     1     -36.596  16.161  -7.252  1.00 20.00     0.005 C 
HETATM    2  C8  UNL     1     -35.212  15.611  -7.631  1.00 20.00     0.006 C 
HETATM    3  C9  UNL     1     -35.740  16.841  -4.994  1.00 20.00     0.017 C 
HETATM    4  C10 UNL     1     -35.930  14.556  -5.629  1.00 20.00     0.010 C 
HETATM    5  C11 UNL     1     -34.344  16.344  -5.408  1.00 20.00     0.065 C 
HETATM    6  C12 UNL     1     -36.682  15.879  -5.742  1.00 20.00    -0.013 C 
HETATM    7  C13 UNL     1     -34.661  15.114  -6.283  1.00 20.00    -0.003 C 
ENDROOT
BRANCH   5   8
HETATM    8  C3  UNL     1     -33.515  15.978  -4.214  1.00 20.00     0.159 C 
HETATM    9  O14 UNL     1     -32.972  14.881  -4.111  1.00 20.00    -0.292 OA
BRANCH   8  10
HETATM   10  C2  UNL     1     -33.374  16.951  -3.178  1.00 20.00    -0.016 C 
HETATM   11  C1  UNL     1     -33.574  16.749  -1.870  1.00 20.00    -0.016 C 
HETATM   12  C4  UNL     1     -33.355  17.997  -1.080  1.00 20.00     0.028 C 
HETATM   13  C6  UNL     1     -32.654  18.914  -2.081  1.00 20.00     0.009 C 
HETATM   14  C5  UNL     1     -32.990  18.367  -3.469  1.00 20.00     0.042 C 
ENDBRANCH   8  10
ENDBRANCH   5   8
TORSDOF 2
ENDMDL
MODEL 2
REMARK VINA RESULT:      -4.6     12.248     14.330
REMARK  2 active torsions:
REMARK  status: ('A' for Active; 'I' for Inactive)
REMARK    1  A    between atoms: C2_2  and  C3_3 
REMARK    2  A    between atoms: C3_3  and  C11_11 
ROOT
HETATM    1  C7  UNL     1     -41.414  16.712   9.031  1.00 20.00     0.005 C 
HETATM    2  C8  UNL     1     -42.750  15.955   8.968  1.00 20.00     0.006 C 
HETATM    3  C9  UNL     1     -40.389  15.096   7.408  1.00 20.00     0.017 C 
HETATM    4  C10 UNL     1     -41.040  14.433   9.599  1.00 20.00     0.010 C 
HETATM    5  C11 UNL     1     -41.749  14.383   7.306  1.00 20.00     0.065 C 
HETATM    6  C12 UNL     1     -40.371  15.593   8.866  1.00 20.00    -0.013 C 
HETATM    7  C13 UNL     1     -42.308  14.498   8.739  1.00 20.00    -0.003 C 
ENDROOT
BRANCH   5   8
HETATM    8  C3  UNL     1     -41.591  12.954   6.885  1.00 20.00     0.159 C 
HETATM    9  O14 UNL     1     -42.389  12.084   7.224  1.00 20.00    -0.292 OA
BRANCH   8  10
HETATM   10  C2  UNL     1     -40.465  12.620   6.072  1.00 20.00    -0.016 C 
HETATM   11  C1  UNL     1     -39.310  12.093   6.496  1.00 20.00    -0.016 C 
HETATM   12  C4  UNL     1     -38.349  11.894   5.372  1.00 20.00     0.028 C 
HETATM   13  C6  UNL     1     -39.230  12.069   4.136  1.00 20.00     0.009 C 
HETATM   14  C5  UNL     1     -40.457  12.859   4.596  1.00 20.00     0.042 C 
ENDBRANCH   8  10
ENDBRANCH   5   8
TORSDOF 2
ENDMDL
MODEL 3
REMARK VINA RESULT:      -4.5      1.001      4.666
REMARK  2 active torsions:
REMARK  status: ('A' for Active; 'I' for Inactive)
REMARK    1  A    between atoms: C2_2  and  C3_3 
REMARK    2  A    between atoms: C3_3  and  C11_11 
ROOT
HETATM    1  C7  UNL     1     -32.991  18.984  -2.418  1.00 20.00     0.005 C 
HETATM    2  C8  UNL     1     -32.938  18.892  -3.951  1.00 20.00     0.006 C 
HETATM    3  C9  UNL     1     -33.425  16.518  -2.257  1.00 20.00     0.017 C 
HETATM    4  C10 UNL     1     -35.014  18.014  -3.206  1.00 20.00     0.010 C 
HETATM    5  C11 UNL     1     -33.309  16.428  -3.789  1.00 20.00     0.065 C 
HETATM    6  C12 UNL     1     -34.033  17.917  -2.041  1.00 20.00    -0.013 C 
HETATM    7  C13 UNL     1     -33.932  17.758  -4.261  1.00 20.00    -0.003 C 
ENDROOT
BRANCH   5   8
HETATM    8  C3  UNL     1     -34.051  15.244  -4.328  1.00 20.00     0.159 C 
HETATM    9  O14 UNL     1     -34.126  14.186  -3.709  1.00 20.00    -0.292 OA
BRANCH   8  10
HETATM   10  C2  UNL     1     -34.674  15.375  -5.607  1.00 20.00    -0.016 C 
HETATM   11  C1  UNL     1     -35.980  15.557  -5.837  1.00 20.00    -0.016 C 
HETATM   12  C4  UNL     1     -36.278  15.632  -7.297  1.00 20.00     0.028 C 
HETATM   13  C6  UNL     1     -34.893  15.809  -7.918  1.00 20.00     0.009 C 
HETATM   14  C5  UNL     1     -33.893  15.299  -6.879  1.00 20.00     0.042 C 
ENDBRANCH   8  10
ENDBRANCH   5   8
TORSDOF 2
ENDMDL
MODEL 4
REMARK VINA RESULT:      -4.5     11.827     13.963
REMARK  2 active torsions:
REMARK  status: ('A' for Active; 'I' for Inactive)
REMARK    1  A    between atoms: C2_2  and  C3_3 
REMARK    2  A    between atoms: C3_3  and  C11_11 
ROOT
HETATM    1  C7  UNL     1     -40.947  17.722   8.443  1.00 20.00     0.005 C 
HETATM    2  C8  UNL     1     -41.087  17.396   6.948  1.00 20.00     0.006 C 
HETATM    3  C9  UNL     1     -40.452  15.315   8.950  1.00 20.00     0.017 C 
HETATM    4  C10 UNL     1     -42.587  16.021   8.172  1.00 20.00     0.010 C 
HETATM    5  C11 UNL     1     -40.534  15.012   7.444  1.00 20.00     0.065 C 
HETATM    6  C12 UNL     1     -41.478  16.451   9.128  1.00 20.00    -0.013 C 
HETATM    7  C13 UNL     1     -41.649  15.962   6.961  1.00 20.00    -0.003 C 
ENDROOT
BRANCH   5   8
HETATM    8  C3  UNL     1     -40.879  13.576   7.190  1.00 20.00     0.159 C 
HETATM    9  O14 UNL     1     -41.783  13.007   7.796  1.00 20.00    -0.292 OA
BRANCH   8  10
HETATM   10  C2  UNL     1     -40.112  12.871   6.213  1.00 20.00    -0.016 C 
HETATM   11  C1  UNL     1     -40.406  12.750   4.912  1.00 20.00    -0.016 C 
HETATM   12  C4  UNL     1     -39.391  11.925   4.192  1.00 20.00     0.028 C 
HETATM   13  C6  UNL     1     -38.243  11.847   5.197  1.00 20.00     0.009 C 
HETATM   14  C5  UNL     1     -38.854  12.146   6.567  1.00 20.00     0.042 C 
ENDBRANCH   8  10
ENDBRANCH   5   8
TORSDOF 2
ENDMDL
MODEL 5
REMARK VINA RESULT:      -4.5      1.639      5.448
REMARK  2 active torsions:
REMARK  status: ('A' for Active; 'I' for Inactive)
REMARK    1  A    between atoms: C2_2  and  C3_3 
REMARK    2  A    between atoms: C3_3  and  C11_11 
ROOT
HETATM    1  C7  UNL     1     -32.662  18.286   0.419  1.00 20.00     0.005 C 
HETATM    2  C8  UNL     1     -31.886  19.163  -0.577  1.00 20.00     0.006 C 
HETATM    3  C9  UNL     1     -33.661  16.973  -1.471  1.00 20.00     0.017 C 
HETATM    4  C10 UNL     1     -34.197  19.263  -1.112  1.00 20.00     0.010 C 
HETATM    5  C11 UNL     1     -32.832  17.816  -2.455  1.00 20.00     0.065 C 
HETATM    6  C12 UNL     1     -33.965  17.969  -0.336  1.00 20.00    -0.013 C 
HETATM    7  C13 UNL     1     -32.827  19.210  -1.795  1.00 20.00    -0.003 C 
ENDROOT
BRANCH   5   8
HETATM    8  C3  UNL     1     -33.459  17.848  -3.816  1.00 20.00     0.159 C 
HETATM    9  O14 UNL     1     -33.507  18.877  -4.486  1.00 20.00    -0.292 OA
BRANCH   8  10
HETATM   10  C2  UNL     1     -34.016  16.634  -4.321  1.00 20.00    -0.016 C 
HETATM   11  C1  UNL     1     -35.181  16.505  -4.966  1.00 20.00    -0.016 C 
HETATM   12  C4  UNL     1     -35.456  15.084  -5.331  1.00 20.00     0.028 C 
HETATM   13  C6  UNL     1     -34.105  14.408  -5.105  1.00 20.00     0.009 C 
HETATM   14  C5  UNL     1     -33.328  15.317  -4.151  1.00 20.00     0.042 C 
ENDBRANCH   8  10
ENDBRANCH   5   8
TORSDOF 2
ENDMDL
MODEL 6
REMARK VINA RESULT:      -4.5     11.255     12.931
REMARK  2 active torsions:
REMARK  status: ('A' for Active; 'I' for Inactive)
REMARK    1  A    between atoms: C2_2  and  C3_3 
REMARK    2  A    between atoms: C3_3  and  C11_11 
ROOT
HETATM    1  C7  UNL     1     -35.356   5.413   5.909  1.00 20.00     0.005 C 
HETATM    2  C8  UNL     1     -35.471   5.798   4.426  1.00 20.00     0.006 C 
HETATM    3  C9  UNL     1     -33.736   7.289   6.299  1.00 20.00     0.017 C 
HETATM    4  C10 UNL     1     -33.185   5.416   4.938  1.00 20.00     0.010 C 
HETATM    5  C11 UNL     1     -33.907   7.702   4.827  1.00 20.00     0.065 C 
HETATM    6  C12 UNL     1     -33.894   5.757   6.246  1.00 20.00    -0.013 C 
HETATM    7  C13 UNL     1     -34.070   6.349   4.105  1.00 20.00    -0.003 C 
ENDROOT
BRANCH   5   8
HETATM    8  C3  UNL     1     -32.716   8.460   4.326  1.00 20.00     0.159 C 
HETATM    9  O14 UNL     1     -31.899   8.967   5.091  1.00 20.00    -0.292 OA
BRANCH   8  10
HETATM   10  C2  UNL     1     -32.553   8.586   2.913  1.00 20.00    -0.016 C 
HETATM   11  C1  UNL     1     -32.024   7.671   2.092  1.00 20.00    -0.016 C 
HETATM   12  C4  UNL     1     -31.994   8.149   0.678  1.00 20.00     0.028 C 
HETATM   13  C6  UNL     1     -32.908   9.373   0.715  1.00 20.00     0.009 C 
HETATM   14  C5  UNL     1     -32.962   9.821   2.177  1.00 20.00     0.042 C 
ENDBRANCH   8  10
ENDBRANCH   5   8
TORSDOF 2
ENDMDL
MODEL 7
REMARK VINA RESULT:      -4.4     12.071     14.152
REMARK  2 active torsions:
REMARK  status: ('A' for Active; 'I' for Inactive)
REMARK    1  A    between atoms: C2_2  and  C3_3 
REMARK    2  A    between atoms: C3_3  and  C11_11 
ROOT
HETATM    1  C7  UNL     1     -41.270  17.001   9.185  1.00 20.00     0.005 C 
HETATM    2  C8  UNL     1     -40.738  16.957   7.744  1.00 20.00     0.006 C 
HETATM    3  C9  UNL     1     -41.311  14.494   9.276  1.00 20.00     0.017 C 
HETATM    4  C10 UNL     1     -42.763  15.723   7.846  1.00 20.00     0.010 C 
HETATM    5  C11 UNL     1     -40.720  14.463   7.856  1.00 20.00     0.065 C 
HETATM    6  C12 UNL     1     -42.183  15.764   9.257  1.00 20.00    -0.013 C 
HETATM    7  C13 UNL     1     -41.384  15.679   7.179  1.00 20.00    -0.003 C 
ENDROOT
BRANCH   5   8
HETATM    8  C3  UNL     1     -41.052  13.184   7.149  1.00 20.00     0.159 C 
HETATM    9  O14 UNL     1     -42.078  12.554   7.393  1.00 20.00    -0.292 OA
BRANCH   8  10
HETATM   10  C2  UNL     1     -40.126  12.703   6.174  1.00 20.00    -0.016 C 
HETATM   11  C1  UNL     1     -38.930  12.155   6.420  1.00 20.00    -0.016 C 
HETATM   12  C4  UNL     1     -38.223  11.784   5.158  1.00 20.00     0.028 C 
HETATM   13  C6  UNL     1     -39.329  11.882   4.108  1.00 20.00     0.009 C 
HETATM   14  C5  UNL     1     -40.407  12.786   4.708  1.00 20.00     0.042 C 
ENDBRANCH   8  10
ENDBRANCH   5   8
TORSDOF 2
ENDMDL
MODEL 8
REMARK VINA RESULT:      -4.3      1.402      2.421
REMARK  2 active torsions:
REMARK  status: ('A' for Active; 'I' for Inactive)
REMARK    1  A    between atoms: C2_2  and  C3_3 
REMARK    2  A    between atoms: C3_3  and  C11_11 
ROOT
HETATM    1  C7  UNL     1     -35.583  14.579  -5.661  1.00 20.00     0.005 C 
HETATM    2  C8  UNL     1     -36.382  15.866  -5.403  1.00 20.00     0.006 C 
HETATM    3  C9  UNL     1     -33.646  15.482  -4.346  1.00 20.00     0.017 C 
HETATM    4  C10 UNL     1     -34.315  16.442  -6.419  1.00 20.00     0.010 C 
HETATM    5  C11 UNL     1     -34.479  16.740  -4.042  1.00 20.00     0.065 C 
HETATM    6  C12 UNL     1     -34.131  15.081  -5.753  1.00 20.00    -0.013 C 
HETATM    7  C13 UNL     1     -35.284  16.944  -5.342  1.00 20.00    -0.003 C 
ENDROOT
BRANCH   5   8
HETATM    8  C3  UNL     1     -33.604  17.918  -3.740  1.00 20.00     0.159 C 
HETATM    9  O14 UNL     1     -33.247  18.704  -4.614  1.00 20.00    -0.292 OA
BRANCH   8  10
HETATM   10  C2  UNL     1     -33.183  18.105  -2.388  1.00 20.00    -0.016 C 
HETATM   11  C1  UNL     1     -32.256  18.970  -1.959  1.00 20.00    -0.016 C 
HETATM   12  C4  UNL     1     -32.057  18.879  -0.483  1.00 20.00     0.028 C 
HETATM   13  C6  UNL     1     -33.260  18.055  -0.029  1.00 20.00     0.009 C 
HETATM   14  C5  UNL     1     -33.750  17.298  -1.264  1.00 20.00     0.042 C 
ENDBRANCH   8  10
ENDBRANCH   5   8
TORSDOF 2
ENDMDL
MODEL 9
REMARK VINA RESULT:      -4.0      1.958      2.779
REMARK  2 active torsions:
REMARK  status: ('A' for Active; 'I' for Inactive)
REMARK    1  A    between atoms: C2_2  and  C3_3 
REMARK    2  A    between atoms: C3_3  and  C11_11 
ROOT
HETATM    1  C7  UNL     1     -34.986  19.263  -5.872  1.00 20.00     0.005 C 
HETATM    2  C8  UNL     1     -34.414  17.854  -6.093  1.00 20.00     0.006 C 
HETATM    3  C9  UNL     1     -34.189  19.243  -3.493  1.00 20.00     0.017 C 
HETATM    4  C10 UNL     1     -35.912  17.788  -4.252  1.00 20.00     0.010 C 
HETATM    5  C11 UNL     1     -33.567  17.859  -3.744  1.00 20.00     0.065 C 
HETATM    6  C12 UNL     1     -35.434  19.230  -4.400  1.00 20.00    -0.013 C 
HETATM    7  C13 UNL     1     -34.573  17.199  -4.709  1.00 20.00    -0.003 C 
ENDROOT
BRANCH   5   8
HETATM    8  C3  UNL     1     -33.424  17.080  -2.472  1.00 20.00     0.159 C 
HETATM    9  O14 UNL     1     -33.608  15.866  -2.428  1.00 20.00    -0.292 OA
BRANCH   8  10
HETATM   10  C2  UNL     1     -33.071  17.798  -1.289  1.00 20.00    -0.016 C 
HETATM   11  C1  UNL     1     -33.882  18.077  -0.260  1.00 20.00    -0.016 C 
HETATM   12  C4  UNL     1     -33.180  18.862   0.798  1.00 20.00     0.028 C 
HETATM   13  C6  UNL     1     -31.710  18.724   0.404  1.00 20.00     0.009 C 
HETATM   14  C5  UNL     1     -31.699  18.354  -1.080  1.00 20.00     0.042 C 
ENDBRANCH   8  10
ENDBRANCH   5   8
TORSDOF 2
ENDMDL
