MODEL 1
REMARK VINA RESULT:      -5.6      0.000      0.000
REMARK  4 active torsions:
REMARK  status: ('A' for Active; 'I' for Inactive)
REMARK    1  A    between atoms: C2_2  and  C11_11 
REMARK    2  A    between atoms: C9_9  and  C10_10 
REMARK    3  A    between atoms: C10_10  and  C11_11 
REMARK    4  A    between atoms: C11_11  and  O12_12 
ROOT
HETATM    1  C11 UNL     1     -32.225   7.706   3.496  1.00 20.00     0.147 C 
ENDROOT
BRANCH   1   2
HETATM    2  C2  UNL     1     -33.159   6.947   4.391  1.00 20.00    -0.055 C 
HETATM    3  C1  UNL     1     -33.864   5.890   3.952  1.00 20.00    -0.021 C 
HETATM    4  C3  UNL     1     -34.780   5.081   4.822  1.00 20.00     0.027 C 
HETATM    5  C5  UNL     1     -34.592   5.354   6.314  1.00 20.00     0.004 C 
HETATM    6  C6  UNL     1     -34.445   6.847   6.583  1.00 20.00     0.005 C 
HETATM    7  C4  UNL     1     -33.259   7.436   5.815  1.00 20.00     0.036 C 
ENDBRANCH   1   2
BRANCH   1   8
HETATM    8  C10 UNL     1     -32.511   7.437   2.026  1.00 20.00     0.041 C 
BRANCH   8   9
HETATM    9  C9  UNL     1     -32.026   8.557   1.118  1.00 20.00    -0.012 A 
HETATM   10  C7  UNL     1     -32.586   8.704  -0.270  1.00 20.00     0.005 A 
HETATM   11  C8  UNL     1     -32.931   9.712   0.791  1.00 20.00     0.005 A 
ENDBRANCH   8   9
ENDBRANCH   1   8
BRANCH   1  12
HETATM   12  O12 UNL     1     -32.473   9.074   3.773  1.00 20.00    -0.391 OA
HETATM   13  H30 UNL     1     -32.216   9.574   2.981  1.00 20.00     0.210 HD
ENDBRANCH   1  12
TORSDOF 4
ENDMDL
MODEL 2
REMARK VINA RESULT:      -4.9      9.705     10.882
REMARK  4 active torsions:
REMARK  status: ('A' for Active; 'I' for Inactive)
REMARK    1  A    between atoms: C2_2  and  C11_11 
REMARK    2  A    between atoms: C9_9  and  C10_10 
REMARK    3  A    between atoms: C10_10  and  C11_11 
REMARK    4  A    between atoms: C11_11  and  O12_12 
ROOT
HETATM    1  C11 UNL     1     -42.019  13.155   6.526  1.00 20.00     0.147 C 
ENDROOT
BRANCH   1   2
HETATM    2  C2  UNL     1     -41.639  13.890   7.777  1.00 20.00    -0.055 C 
HETATM    3  C1  UNL     1     -42.304  13.720   8.932  1.00 20.00    -0.021 C 
HETATM    4  C3  UNL     1     -41.935  14.406  10.214  1.00 20.00     0.027 C 
HETATM    5  C5  UNL     1     -40.551  15.054  10.175  1.00 20.00     0.004 C 
HETATM    6  C6  UNL     1     -40.325  15.783   8.856  1.00 20.00     0.005 C 
HETATM    7  C4  UNL     1     -40.464  14.831   7.665  1.00 20.00     0.036 C 
ENDBRANCH   1   2
BRANCH   1   8
HETATM    8  C10 UNL     1     -40.920  13.224   5.476  1.00 20.00     0.041 C 
BRANCH   8   9
HETATM    9  C9  UNL     1     -40.050  11.976   5.452  1.00 20.00    -0.012 A 
HETATM   10  C7  UNL     1     -39.156  11.699   4.276  1.00 20.00     0.005 A 
HETATM   11  C8  UNL     1     -38.558  12.092   5.597  1.00 20.00     0.005 A 
ENDBRANCH   8   9
ENDBRANCH   1   8
BRANCH   1  12
HETATM   12  O12 UNL     1     -42.192  11.805   6.926  1.00 20.00    -0.391 OA
HETATM   13  H30 UNL     1     -42.596  11.821   7.809  1.00 20.00     0.210 HD
ENDBRANCH   1  12
TORSDOF 4
ENDMDL
MODEL 3
REMARK VINA RESULT:      -4.8      1.042      4.891
REMARK  4 active torsions:
REMARK  status: ('A' for Active; 'I' for Inactive)
REMARK    1  A    between atoms: C2_2  and  C11_11 
REMARK    2  A    between atoms: C9_9  and  C10_10 
REMARK    3  A    between atoms: C10_10  and  C11_11 
REMARK    4  A    between atoms: C11_11  and  O12_12 
ROOT
HETATM    1  C11 UNL     1     -32.945   8.649   5.051  1.00 20.00     0.147 C 
ENDROOT
BRANCH   1   2
HETATM    2  C2  UNL     1     -32.743   8.568   3.566  1.00 20.00    -0.055 C 
HETATM    3  C1  UNL     1     -33.062   9.585   2.748  1.00 20.00    -0.021 C 
HETATM    4  C3  UNL     1     -32.842   9.560   1.264  1.00 20.00     0.027 C 
HETATM    5  C5  UNL     1     -31.927   8.423   0.809  1.00 20.00     0.004 C 
HETATM    6  C6  UNL     1     -32.272   7.123   1.526  1.00 20.00     0.005 C 
HETATM    7  C4  UNL     1     -32.156   7.279   3.045  1.00 20.00     0.036 C 
ENDBRANCH   1   2
BRANCH   1   8
HETATM    8  C10 UNL     1     -33.038   7.268   5.682  1.00 20.00     0.041 C 
BRANCH   8   9
HETATM    9  C9  UNL     1     -34.463   6.739   5.732  1.00 20.00    -0.012 A 
HETATM   10  C7  UNL     1     -34.882   5.605   4.837  1.00 20.00     0.005 A 
HETATM   11  C8  UNL     1     -34.746   5.383   6.317  1.00 20.00     0.005 A 
ENDBRANCH   8   9
ENDBRANCH   1   8
BRANCH   1  12
HETATM   12  O12 UNL     1     -31.793   9.309   5.548  1.00 20.00    -0.391 OA
HETATM   13  H30 UNL     1     -32.047  10.231   5.721  1.00 20.00     0.210 HD
ENDBRANCH   1  12
TORSDOF 4
ENDMDL
MODEL 4
REMARK VINA RESULT:      -4.8     11.060     11.861
REMARK  4 active torsions:
REMARK  status: ('A' for Active; 'I' for Inactive)
REMARK    1  A    between atoms: C2_2  and  C11_11 
REMARK    2  A    between atoms: C9_9  and  C10_10 
REMARK    3  A    between atoms: C10_10  and  C11_11 
REMARK    4  A    between atoms: C11_11  and  O12_12 
ROOT
HETATM    1  C11 UNL     1     -33.685  17.828  -2.236  1.00 20.00     0.147 C 
ENDROOT
BRANCH   1   2
HETATM    2  C2  UNL     1     -33.135  18.311  -0.926  1.00 20.00    -0.055 C 
HETATM    3  C1  UNL     1     -33.934  18.697   0.082  1.00 20.00    -0.021 C 
HETATM    4  C3  UNL     1     -33.427  19.150   1.420  1.00 20.00     0.027 C 
HETATM    5  C5  UNL     1     -31.951  18.824   1.647  1.00 20.00     0.004 C 
HETATM    6  C6  UNL     1     -31.125  19.128   0.402  1.00 20.00     0.005 C 
HETATM    7  C4  UNL     1     -31.631  18.335  -0.806  1.00 20.00     0.036 C 
ENDBRANCH   1   2
BRANCH   1   8
HETATM    8  C10 UNL     1     -33.530  16.323  -2.391  1.00 20.00     0.041 C 
BRANCH   8   9
HETATM    9  C9  UNL     1     -33.223  15.908  -3.822  1.00 20.00    -0.012 A 
HETATM   10  C7  UNL     1     -33.682  14.573  -4.339  1.00 20.00     0.005 A 
HETATM   11  C8  UNL     1     -34.325  15.834  -4.841  1.00 20.00     0.005 A 
ENDBRANCH   8   9
ENDBRANCH   1   8
BRANCH   1  12
HETATM   12  O12 UNL     1     -35.066  18.150  -2.201  1.00 20.00    -0.391 OA
HETATM   13  H30 UNL     1     -35.396  18.079  -3.111  1.00 20.00     0.210 HD
ENDBRANCH   1  12
TORSDOF 4
ENDMDL
MODEL 5
REMARK VINA RESULT:      -4.7      9.818     10.984
REMARK  4 active torsions:
REMARK  status: ('A' for Active; 'I' for Inactive)
REMARK    1  A    between atoms: C2_2  and  C11_11 
REMARK    2  A    between atoms: C9_9  and  C10_10 
REMARK    3  A    between atoms: C10_10  and  C11_11 
REMARK    4  A    between atoms: C11_11  and  O12_12 
ROOT
HETATM    1  C11 UNL     1     -41.933  13.109   6.496  1.00 20.00     0.147 C 
ENDROOT
BRANCH   1   2
HETATM    2  C2  UNL     1     -41.693  13.907   7.744  1.00 20.00    -0.055 C 
HETATM    3  C1  UNL     1     -40.458  14.265   8.133  1.00 20.00    -0.021 C 
HETATM    4  C3  UNL     1     -40.177  15.093   9.353  1.00 20.00     0.027 C 
HETATM    5  C5  UNL     1     -41.424  15.767   9.924  1.00 20.00     0.004 C 
HETATM    6  C6  UNL     1     -42.607  14.806   9.941  1.00 20.00     0.005 C 
HETATM    7  C4  UNL     1     -42.921  14.288   8.535  1.00 20.00     0.036 C 
ENDBRANCH   1   2
BRANCH   1   8
HETATM    8  C10 UNL     1     -40.779  13.242   5.513  1.00 20.00     0.041 C 
BRANCH   8   9
HETATM    9  C9  UNL     1     -39.951  11.970   5.403  1.00 20.00    -0.012 A 
HETATM   10  C7  UNL     1     -39.126  11.707   4.174  1.00 20.00     0.005 A 
HETATM   11  C8  UNL     1     -38.451  12.036   5.475  1.00 20.00     0.005 A 
ENDBRANCH   8   9
ENDBRANCH   1   8
BRANCH   1  12
HETATM   12  O12 UNL     1     -42.020  11.761   6.927  1.00 20.00    -0.391 OA
HETATM   13  H30 UNL     1     -42.940  11.479   6.789  1.00 20.00     0.210 HD
ENDBRANCH   1  12
TORSDOF 4
ENDMDL
MODEL 6
REMARK VINA RESULT:      -4.6     11.192     12.562
REMARK  4 active torsions:
REMARK  status: ('A' for Active; 'I' for Inactive)
REMARK    1  A    between atoms: C2_2  and  C11_11 
REMARK    2  A    between atoms: C9_9  and  C10_10 
REMARK    3  A    between atoms: C10_10  and  C11_11 
REMARK    4  A    between atoms: C11_11  and  O12_12 
ROOT
HETATM    1  C11 UNL     1     -33.799  18.202  -2.769  1.00 20.00     0.147 C 
ENDROOT
BRANCH   1   2
HETATM    2  C2  UNL     1     -34.007  17.092  -3.756  1.00 20.00    -0.055 C 
HETATM    3  C1  UNL     1     -34.792  17.239  -4.837  1.00 20.00    -0.021 C 
HETATM    4  C3  UNL     1     -34.997  16.167  -5.868  1.00 20.00     0.027 C 
HETATM    5  C5  UNL     1     -33.989  15.024  -5.759  1.00 20.00     0.004 C 
HETATM    6  C6  UNL     1     -33.776  14.619  -4.306  1.00 20.00     0.005 C 
HETATM    7  C4  UNL     1     -33.282  15.800  -3.467  1.00 20.00     0.036 C 
ENDBRANCH   1   2
BRANCH   1   8
HETATM    8  C10 UNL     1     -33.302  17.679  -1.430  1.00 20.00     0.041 C 
BRANCH   8   9
HETATM    9  C9  UNL     1     -32.546  18.731  -0.632  1.00 20.00    -0.012 A 
HETATM   10  C7  UNL     1     -32.243  18.505   0.823  1.00 20.00     0.005 A 
HETATM   11  C8  UNL     1     -31.133  18.472  -0.189  1.00 20.00     0.005 A 
ENDBRANCH   8   9
ENDBRANCH   1   8
BRANCH   1  12
HETATM   12  O12 UNL     1     -32.799  19.028  -3.343  1.00 20.00    -0.391 OA
HETATM   13  H30 UNL     1     -31.977  18.857  -2.856  1.00 20.00     0.210 HD
ENDBRANCH   1  12
TORSDOF 4
ENDMDL
MODEL 7
REMARK VINA RESULT:      -4.6     11.245     12.527
REMARK  4 active torsions:
REMARK  status: ('A' for Active; 'I' for Inactive)
REMARK    1  A    between atoms: C2_2  and  C11_11 
REMARK    2  A    between atoms: C9_9  and  C10_10 
REMARK    3  A    between atoms: C10_10  and  C11_11 
REMARK    4  A    between atoms: C11_11  and  O12_12 
ROOT
HETATM    1  C11 UNL     1     -33.768  18.197  -2.636  1.00 20.00     0.147 C 
ENDROOT
BRANCH   1   2
HETATM    2  C2  UNL     1     -33.922  17.059  -3.603  1.00 20.00    -0.055 C 
HETATM    3  C1  UNL     1     -33.286  15.888  -3.430  1.00 20.00    -0.021 C 
HETATM    4  C3  UNL     1     -33.441  14.714  -4.351  1.00 20.00     0.027 C 
HETATM    5  C5  UNL     1     -34.626  14.848  -5.306  1.00 20.00     0.004 C 
HETATM    6  C6  UNL     1     -34.706  16.255  -5.885  1.00 20.00     0.005 C 
HETATM    7  C4  UNL     1     -34.836  17.305  -4.778  1.00 20.00     0.036 C 
ENDBRANCH   1   2
BRANCH   1   8
HETATM    8  C10 UNL     1     -33.313  17.714  -1.267  1.00 20.00     0.041 C 
BRANCH   8   9
HETATM    9  C9  UNL     1     -32.507  18.761  -0.513  1.00 20.00    -0.012 A 
HETATM   10  C7  UNL     1     -32.167  18.556   0.937  1.00 20.00     0.005 A 
HETATM   11  C8  UNL     1     -31.088  18.474  -0.106  1.00 20.00     0.005 A 
ENDBRANCH   8   9
ENDBRANCH   1   8
BRANCH   1  12
HETATM   12  O12 UNL     1     -32.761  19.025  -3.194  1.00 20.00    -0.391 OA
HETATM   13  H30 UNL     1     -33.129  19.411  -4.005  1.00 20.00     0.210 HD
ENDBRANCH   1  12
TORSDOF 4
ENDMDL
MODEL 8
REMARK VINA RESULT:      -4.4      1.447      2.152
REMARK  4 active torsions:
REMARK  status: ('A' for Active; 'I' for Inactive)
REMARK    1  A    between atoms: C2_2  and  C11_11 
REMARK    2  A    between atoms: C9_9  and  C10_10 
REMARK    3  A    between atoms: C10_10  and  C11_11 
REMARK    4  A    between atoms: C11_11  and  O12_12 
ROOT
HETATM    1  C11 UNL     1     -33.198   6.101   2.622  1.00 20.00     0.147 C 
ENDROOT
BRANCH   1   2
HETATM    2  C2  UNL     1     -33.607   6.195   4.062  1.00 20.00    -0.055 C 
HETATM    3  C1  UNL     1     -33.318   7.270   4.815  1.00 20.00    -0.021 C 
HETATM    4  C3  UNL     1     -33.740   7.421   6.247  1.00 20.00     0.027 C 
HETATM    5  C5  UNL     1     -34.799   6.405   6.674  1.00 20.00     0.004 C 
HETATM    6  C6  UNL     1     -34.469   5.015   6.144  1.00 20.00     0.005 C 
HETATM    7  C4  UNL     1     -34.364   5.013   4.617  1.00 20.00     0.036 C 
ENDBRANCH   1   2
BRANCH   1   8
HETATM    8  C10 UNL     1     -32.273   7.242   2.224  1.00 20.00     0.041 C 
BRANCH   8   9
HETATM    9  C9  UNL     1     -32.894   8.169   1.189  1.00 20.00    -0.012 A 
HETATM   10  C7  UNL     1     -32.785   9.660   1.346  1.00 20.00     0.005 A 
HETATM   11  C8  UNL     1     -32.017   8.960   0.260  1.00 20.00     0.005 A 
ENDBRANCH   8   9
ENDBRANCH   1   8
BRANCH   1  12
HETATM   12  O12 UNL     1     -32.493   4.875   2.514  1.00 20.00    -0.391 OA
HETATM   13  H30 UNL     1     -32.785   4.453   1.689  1.00 20.00     0.210 HD
ENDBRANCH   1  12
TORSDOF 4
ENDMDL
MODEL 9
REMARK VINA RESULT:      -4.4     11.082     12.849
REMARK  4 active torsions:
REMARK  status: ('A' for Active; 'I' for Inactive)
REMARK    1  A    between atoms: C2_2  and  C11_11 
REMARK    2  A    between atoms: C9_9  and  C10_10 
REMARK    3  A    between atoms: C10_10  and  C11_11 
REMARK    4  A    between atoms: C11_11  and  O12_12 
ROOT
HETATM    1  C11 UNL     1     -33.768  14.384  -4.727  1.00 20.00     0.147 C 
ENDROOT
BRANCH   1   2
HETATM    2  C2  UNL     1     -34.608  15.091  -5.750  1.00 20.00    -0.055 C 
HETATM    3  C1  UNL     1     -34.073  15.642  -6.853  1.00 20.00    -0.021 C 
HETATM    4  C3  UNL     1     -34.881  16.324  -7.918  1.00 20.00     0.027 C 
HETATM    5  C5  UNL     1     -36.380  16.051  -7.805  1.00 20.00     0.004 C 
HETATM    6  C6  UNL     1     -36.845  16.138  -6.357  1.00 20.00     0.005 C 
HETATM    7  C4  UNL     1     -36.090  15.144  -5.470  1.00 20.00     0.036 C 
ENDBRANCH   1   2
BRANCH   1   8
HETATM    8  C10 UNL     1     -32.942  15.362  -3.905  1.00 20.00     0.041 C 
BRANCH   8   9
HETATM    9  C9  UNL     1     -33.793  16.422  -3.222  1.00 20.00    -0.012 A 
HETATM   10  C7  UNL     1     -33.315  17.079  -1.957  1.00 20.00     0.005 A 
HETATM   11  C8  UNL     1     -33.365  17.863  -3.239  1.00 20.00     0.005 A 
ENDBRANCH   8   9
ENDBRANCH   1   8
BRANCH   1  12
HETATM   12  O12 UNL     1     -34.692  13.728  -3.875  1.00 20.00    -0.391 OA
HETATM   13  H30 UNL     1     -35.428  13.427  -4.433  1.00 20.00     0.210 HD
ENDBRANCH   1  12
TORSDOF 4
ENDMDL
