MODEL 1
REMARK VINA RESULT:      -5.1      0.000      0.000
REMARK  2 active torsions:
REMARK  status: ('A' for Active; 'I' for Inactive)
REMARK    1  A    between atoms: C2_2  and  C3_3 
REMARK    2  A    between atoms: C3_3  and  C9_9 
ROOT
HETATM    1  C1  UNL     1     -34.387   5.216   4.770  1.00 20.00    -0.016 C 
HETATM    2  C2  UNL     1     -33.623   6.237   4.365  1.00 20.00    -0.016 C 
HETATM    3  C4  UNL     1     -35.021   5.492   6.093  1.00 20.00     0.028 C 
HETATM    4  C5  UNL     1     -33.625   7.359   5.354  1.00 20.00     0.042 C 
HETATM    5  C6  UNL     1     -34.245   6.710   6.593  1.00 20.00     0.009 C 
ENDROOT
BRANCH   2   6
HETATM    6  C3  UNL     1     -32.890   6.311   3.141  1.00 20.00     0.159 C 
HETATM    7  O10 UNL     1     -32.926   5.388   2.313  1.00 20.00    -0.292 OA
BRANCH   6   8
HETATM    8  C9  UNL     1     -32.066   7.552   2.865  1.00 20.00     0.060 A 
HETATM    9  C7  UNL     1     -32.062   8.085   1.482  1.00 20.00     0.013 A 
HETATM   10  C8  UNL     1     -32.792   8.810   2.572  1.00 20.00     0.013 A 
ENDBRANCH   6   8
ENDBRANCH   2   6
TORSDOF 2
ENDMDL
MODEL 2
REMARK VINA RESULT:      -5.1      1.634      1.914
REMARK  2 active torsions:
REMARK  status: ('A' for Active; 'I' for Inactive)
REMARK    1  A    between atoms: C2_2  and  C3_3 
REMARK    2  A    between atoms: C3_3  and  C9_9 
ROOT
HETATM    1  C1  UNL     1     -34.188   6.003   4.288  1.00 20.00    -0.016 C 
HETATM    2  C2  UNL     1     -33.638   6.984   5.012  1.00 20.00    -0.016 C 
HETATM    3  C4  UNL     1     -35.048   5.116   5.125  1.00 20.00     0.028 C 
HETATM    4  C5  UNL     1     -34.042   6.908   6.449  1.00 20.00     0.042 C 
HETATM    5  C6  UNL     1     -34.660   5.512   6.548  1.00 20.00     0.009 C 
ENDROOT
BRANCH   2   6
HETATM    6  C3  UNL     1     -32.778   8.015   4.523  1.00 20.00     0.159 C 
HETATM    7  O10 UNL     1     -32.776   9.146   5.033  1.00 20.00    -0.292 OA
BRANCH   6   8
HETATM    8  C9  UNL     1     -31.853   7.698   3.366  1.00 20.00     0.060 A 
HETATM    9  C7  UNL     1     -32.308   6.697   2.372  1.00 20.00     0.013 A 
HETATM   10  C8  UNL     1     -32.258   8.151   2.015  1.00 20.00     0.013 A 
ENDBRANCH   6   8
ENDBRANCH   2   6
TORSDOF 2
ENDMDL
MODEL 3
REMARK VINA RESULT:      -4.7      1.636      4.197
REMARK  2 active torsions:
REMARK  status: ('A' for Active; 'I' for Inactive)
REMARK    1  A    between atoms: C2_2  and  C3_3 
REMARK    2  A    between atoms: C3_3  and  C9_9 
ROOT
HETATM    1  C1  UNL     1     -32.570   6.824   2.996  1.00 20.00    -0.016 C 
HETATM    2  C2  UNL     1     -32.997   7.584   4.011  1.00 20.00    -0.016 C 
HETATM    3  C4  UNL     1     -32.047   7.651   1.870  1.00 20.00     0.028 C 
HETATM    4  C5  UNL     1     -32.826   9.042   3.724  1.00 20.00     0.042 C 
HETATM    5  C6  UNL     1     -32.541   9.054   2.221  1.00 20.00     0.009 C 
ENDROOT
BRANCH   2   6
HETATM    6  C3  UNL     1     -33.539   7.117   5.248  1.00 20.00     0.159 C 
HETATM    7  O10 UNL     1     -33.051   7.462   6.335  1.00 20.00    -0.292 OA
BRANCH   6   8
HETATM    8  C9  UNL     1     -34.737   6.191   5.208  1.00 20.00     0.060 A 
HETATM    9  C7  UNL     1     -34.505   4.775   4.839  1.00 20.00     0.013 A 
HETATM   10  C8  UNL     1     -34.836   5.145   6.253  1.00 20.00     0.013 A 
ENDBRANCH   6   8
ENDBRANCH   2   6
TORSDOF 2
ENDMDL
MODEL 4
REMARK VINA RESULT:      -4.5      0.993      3.911
REMARK  2 active torsions:
REMARK  status: ('A' for Active; 'I' for Inactive)
REMARK    1  A    between atoms: C2_2  and  C3_3 
REMARK    2  A    between atoms: C3_3  and  C9_9 
ROOT
HETATM    1  C1  UNL     1     -32.565   6.531   2.493  1.00 20.00    -0.016 C 
HETATM    2  C2  UNL     1     -33.262   6.617   3.632  1.00 20.00    -0.016 C 
HETATM    3  C4  UNL     1     -31.898   7.822   2.156  1.00 20.00     0.028 C 
HETATM    4  C5  UNL     1     -33.172   7.981   4.237  1.00 20.00     0.042 C 
HETATM    5  C6  UNL     1     -32.582   8.813   3.096  1.00 20.00     0.009 C 
ENDROOT
BRANCH   2   6
HETATM    6  C3  UNL     1     -34.004   5.564   4.251  1.00 20.00     0.159 C 
HETATM    7  O10 UNL     1     -33.914   4.393   3.851  1.00 20.00    -0.292 OA
BRANCH   6   8
HETATM    8  C9  UNL     1     -34.904   5.904   5.421  1.00 20.00     0.060 A 
HETATM    9  C7  UNL     1     -34.672   5.194   6.700  1.00 20.00     0.013 A 
HETATM   10  C8  UNL     1     -34.306   6.641   6.559  1.00 20.00     0.013 A 
ENDBRANCH   6   8
ENDBRANCH   2   6
TORSDOF 2
ENDMDL
MODEL 5
REMARK VINA RESULT:      -4.5     12.301     12.771
REMARK  2 active torsions:
REMARK  status: ('A' for Active; 'I' for Inactive)
REMARK    1  A    between atoms: C2_2  and  C3_3 
REMARK    2  A    between atoms: C3_3  and  C9_9 
ROOT
HETATM    1  C1  UNL     1     -30.865  18.475   0.040  1.00 20.00    -0.016 C 
HETATM    2  C2  UNL     1     -32.146  18.506  -0.346  1.00 20.00    -0.016 C 
HETATM    3  C4  UNL     1     -30.735  18.534   1.525  1.00 20.00     0.028 C 
HETATM    4  C5  UNL     1     -33.076  18.591   0.821  1.00 20.00     0.042 C 
HETATM    5  C6  UNL     1     -32.135  18.953   1.972  1.00 20.00     0.009 C 
ENDROOT
BRANCH   2   6
HETATM    6  C3  UNL     1     -32.625  18.449  -1.691  1.00 20.00     0.159 C 
HETATM    7  O10 UNL     1     -32.222  19.246  -2.552  1.00 20.00    -0.292 OA
BRANCH   6   8
HETATM    8  C9  UNL     1     -33.636  17.381  -2.054  1.00 20.00     0.060 A 
HETATM    9  C7  UNL     1     -34.193  17.394  -3.427  1.00 20.00     0.013 A 
HETATM   10  C8  UNL     1     -33.218  16.333  -3.014  1.00 20.00     0.013 A 
ENDBRANCH   6   8
ENDBRANCH   2   6
TORSDOF 2
ENDMDL
MODEL 6
REMARK VINA RESULT:      -4.4      1.740      4.483
REMARK  2 active torsions:
REMARK  status: ('A' for Active; 'I' for Inactive)
REMARK    1  A    between atoms: C2_2  and  C3_3 
REMARK    2  A    between atoms: C3_3  and  C9_9 
ROOT
HETATM    1  C1  UNL     1     -32.129   7.610   2.078  1.00 20.00    -0.016 C 
HETATM    2  C2  UNL     1     -32.604   8.519   2.937  1.00 20.00    -0.016 C 
HETATM    3  C4  UNL     1     -32.040   8.155   0.691  1.00 20.00     0.028 C 
HETATM    4  C5  UNL     1     -32.909   9.817   2.260  1.00 20.00     0.042 C 
HETATM    5  C6  UNL     1     -32.864   9.439   0.779  1.00 20.00     0.009 C 
ENDROOT
BRANCH   2   6
HETATM    6  C3  UNL     1     -32.798   8.335   4.341  1.00 20.00     0.159 C 
HETATM    7  O10 UNL     1     -31.947   8.708   5.162  1.00 20.00    -0.292 OA
BRANCH   6   8
HETATM    8  C9  UNL     1     -34.079   7.679   4.813  1.00 20.00     0.060 A 
HETATM    9  C7  UNL     1     -34.127   6.198   4.843  1.00 20.00     0.013 A 
HETATM   10  C8  UNL     1     -34.055   6.981   6.120  1.00 20.00     0.013 A 
ENDBRANCH   6   8
ENDBRANCH   2   6
TORSDOF 2
ENDMDL
MODEL 7
REMARK VINA RESULT:      -4.4      9.513     10.179
REMARK  2 active torsions:
REMARK  status: ('A' for Active; 'I' for Inactive)
REMARK    1  A    between atoms: C2_2  and  C3_3 
REMARK    2  A    between atoms: C3_3  and  C9_9 
ROOT
HETATM    1  C1  UNL     1     -42.474  12.890   7.055  1.00 20.00    -0.016 C 
HETATM    2  C2  UNL     1     -41.342  13.338   6.499  1.00 20.00    -0.016 C 
HETATM    3  C4  UNL     1     -42.742  13.548   8.367  1.00 20.00     0.028 C 
HETATM    4  C5  UNL     1     -40.674  14.367   7.353  1.00 20.00     0.042 C 
HETATM    5  C6  UNL     1     -41.409  14.223   8.686  1.00 20.00     0.009 C 
ENDROOT
BRANCH   2   6
HETATM    6  C3  UNL     1     -40.801  12.933   5.240  1.00 20.00     0.159 C 
HETATM    7  O10 UNL     1     -41.098  13.527   4.192  1.00 20.00    -0.292 OA
BRANCH   6   8
HETATM    8  C9  UNL     1     -39.842  11.761   5.208  1.00 20.00     0.060 A 
HETATM    9  C7  UNL     1     -38.927  11.648   4.048  1.00 20.00     0.013 A 
HETATM   10  C8  UNL     1     -38.399  12.045   5.394  1.00 20.00     0.013 A 
ENDBRANCH   6   8
ENDBRANCH   2   6
TORSDOF 2
ENDMDL
MODEL 8
REMARK VINA RESULT:      -4.4     12.234     12.709
REMARK  2 active torsions:
REMARK  status: ('A' for Active; 'I' for Inactive)
REMARK    1  A    between atoms: C2_2  and  C3_3 
REMARK    2  A    between atoms: C3_3  and  C9_9 
ROOT
HETATM    1  C1  UNL     1     -33.005  18.829   0.930  1.00 20.00    -0.016 C 
HETATM    2  C2  UNL     1     -32.207  18.597  -0.118  1.00 20.00    -0.016 C 
HETATM    3  C4  UNL     1     -32.232  18.916   2.204  1.00 20.00     0.028 C 
HETATM    4  C5  UNL     1     -30.772  18.493   0.288  1.00 20.00     0.042 C 
HETATM    5  C6  UNL     1     -30.866  18.358   1.809  1.00 20.00     0.009 C 
ENDROOT
BRANCH   2   6
HETATM    6  C3  UNL     1     -32.617  18.475  -1.482  1.00 20.00     0.159 C 
HETATM    7  O10 UNL     1     -32.152  19.215  -2.361  1.00 20.00    -0.292 OA
BRANCH   6   8
HETATM    8  C9  UNL     1     -33.632  17.408  -1.839  1.00 20.00     0.060 A 
HETATM    9  C7  UNL     1     -34.271  17.483  -3.174  1.00 20.00     0.013 A 
HETATM   10  C8  UNL     1     -33.257  16.420  -2.877  1.00 20.00     0.013 A 
ENDBRANCH   6   8
ENDBRANCH   2   6
TORSDOF 2
ENDMDL
MODEL 9
REMARK VINA RESULT:      -4.2     11.684     13.241
REMARK  2 active torsions:
REMARK  status: ('A' for Active; 'I' for Inactive)
REMARK    1  A    between atoms: C2_2  and  C3_3 
REMARK    2  A    between atoms: C3_3  and  C9_9 
ROOT
HETATM    1  C1  UNL     1     -36.000  15.496  -5.865  1.00 20.00    -0.016 C 
HETATM    2  C2  UNL     1     -34.710  15.205  -5.663  1.00 20.00    -0.016 C 
HETATM    3  C4  UNL     1     -36.275  15.823  -7.294  1.00 20.00     0.028 C 
HETATM    4  C5  UNL     1     -33.916  15.293  -6.928  1.00 20.00     0.042 C 
HETATM    5  C6  UNL     1     -34.875  16.021  -7.872  1.00 20.00     0.009 C 
ENDROOT
BRANCH   2   6
HETATM    6  C3  UNL     1     -34.111  14.832  -4.420  1.00 20.00     0.159 C 
HETATM    7  O10 UNL     1     -34.377  13.748  -3.879  1.00 20.00    -0.292 OA
BRANCH   6   8
HETATM    8  C9  UNL     1     -33.130  15.788  -3.774  1.00 20.00     0.060 A 
HETATM    9  C7  UNL     1     -33.474  17.229  -3.763  1.00 20.00     0.013 A 
HETATM   10  C8  UNL     1     -33.527  16.427  -2.498  1.00 20.00     0.013 A 
ENDBRANCH   6   8
ENDBRANCH   2   6
TORSDOF 2
ENDMDL
