MODEL 1
REMARK VINA RESULT:      -3.4      0.000      0.000
REMARK  4 active torsions:
REMARK  status: ('A' for Active; 'I' for Inactive)
REMARK    1  A    between atoms: C4_4  and  C6_6 
REMARK    2  A    between atoms: C5_5  and  C7_7 
REMARK    3  A    between atoms: C6_6  and  C7_7 
REMARK    4  A    between atoms: C7_7  and  N8_8 
ROOT
HETATM    1  C1  UNL     1     -41.096  14.267   8.143  1.00 20.00     0.158 C 
HETATM    2  N8  UNL     1     -41.500  13.185   7.933  1.00 20.00    -0.270 NA
HETATM    3  S9  UNL     1     -40.552  15.729   8.463  1.00 20.00    -0.055 SA
ENDROOT
BRANCH   2   4
HETATM    4  C7  UNL     1     -41.612  12.838   6.511  1.00 20.00     0.109 C 
BRANCH   4   5
HETATM    5  C5  UNL     1     -42.633  13.768   5.845  1.00 20.00     0.023 C 
HETATM    6  C3  UNL     1     -42.131  14.340   4.526  1.00 20.00     0.007 C 
ENDBRANCH   4   5
BRANCH   4   7
HETATM    7  C6  UNL     1     -40.233  12.973   5.850  1.00 20.00     0.027 C 
BRANCH   7   8
HETATM    8  C4  UNL     1     -39.627  11.617   5.478  1.00 20.00    -0.002 C 
HETATM    9  C2  UNL     1     -38.998  11.650   4.094  1.00 20.00     0.005 C 
ENDBRANCH   7   8
ENDBRANCH   4   7
ENDBRANCH   2   4
TORSDOF 4
ENDMDL
MODEL 2
REMARK VINA RESULT:      -3.4      9.741     10.787
REMARK  4 active torsions:
REMARK  status: ('A' for Active; 'I' for Inactive)
REMARK    1  A    between atoms: C4_4  and  C6_6 
REMARK    2  A    between atoms: C5_5  and  C7_7 
REMARK    3  A    between atoms: C6_6  and  C7_7 
REMARK    4  A    between atoms: C7_7  and  N8_8 
ROOT
HETATM    1  C1  UNL     1     -32.709   9.065   2.050  1.00 20.00     0.158 C 
HETATM    2  N8  UNL     1     -32.664   8.958   3.218  1.00 20.00    -0.270 NA
HETATM    3  S9  UNL     1     -32.757   9.243   0.469  1.00 20.00    -0.055 SA
ENDROOT
BRANCH   2   4
HETATM    4  C7  UNL     1     -33.133   7.665   3.734  1.00 20.00     0.109 C 
BRANCH   4   5
HETATM    5  C5  UNL     1     -32.329   6.539   3.071  1.00 20.00     0.023 C 
HETATM    6  C3  UNL     1     -33.145   5.266   2.891  1.00 20.00     0.007 C 
ENDBRANCH   4   5
BRANCH   4   7
HETATM    7  C6  UNL     1     -32.959   7.639   5.258  1.00 20.00     0.027 C 
BRANCH   7   8
HETATM    8  C4  UNL     1     -34.266   7.318   5.989  1.00 20.00    -0.002 C 
HETATM    9  C2  UNL     1     -34.352   5.844   6.352  1.00 20.00     0.005 C 
ENDBRANCH   7   8
ENDBRANCH   4   7
ENDBRANCH   2   4
TORSDOF 4
ENDMDL
MODEL 3
REMARK VINA RESULT:      -3.3      0.709      2.724
REMARK  4 active torsions:
REMARK  status: ('A' for Active; 'I' for Inactive)
REMARK    1  A    between atoms: C4_4  and  C6_6 
REMARK    2  A    between atoms: C5_5  and  C7_7 
REMARK    3  A    between atoms: C6_6  and  C7_7 
REMARK    4  A    between atoms: C7_7  and  N8_8 
ROOT
HETATM    1  C1  UNL     1     -40.327  14.472   8.241  1.00 20.00     0.158 C 
HETATM    2  N8  UNL     1     -40.075  13.368   7.936  1.00 20.00    -0.270 NA
HETATM    3  S9  UNL     1     -40.656  15.965   8.688  1.00 20.00    -0.055 SA
ENDROOT
BRANCH   2   4
HETATM    4  C7  UNL     1     -40.475  13.003   6.570  1.00 20.00     0.109 C 
BRANCH   4   5
HETATM    5  C5  UNL     1     -39.598  11.842   6.084  1.00 20.00     0.023 C 
HETATM    6  C3  UNL     1     -39.374  11.869   4.578  1.00 20.00     0.007 C 
ENDBRANCH   4   5
BRANCH   4   7
HETATM    7  C6  UNL     1     -41.958  12.608   6.570  1.00 20.00     0.027 C 
BRANCH   7   8
HETATM    8  C4  UNL     1     -42.846  13.673   5.918  1.00 20.00    -0.002 C 
HETATM    9  C2  UNL     1     -42.148  14.330   4.737  1.00 20.00     0.005 C 
ENDBRANCH   7   8
ENDBRANCH   4   7
ENDBRANCH   2   4
TORSDOF 4
ENDMDL
MODEL 4
REMARK VINA RESULT:      -3.3     11.143     12.181
REMARK  4 active torsions:
REMARK  status: ('A' for Active; 'I' for Inactive)
REMARK    1  A    between atoms: C4_4  and  C6_6 
REMARK    2  A    between atoms: C5_5  and  C7_7 
REMARK    3  A    between atoms: C6_6  and  C7_7 
REMARK    4  A    between atoms: C7_7  and  N8_8 
ROOT
HETATM    1  C1  UNL     1     -30.767  18.871   0.656  1.00 20.00     0.158 C 
HETATM    2  N8  UNL     1     -31.050  18.633  -0.457  1.00 20.00    -0.270 NA
HETATM    3  S9  UNL     1     -30.350  19.201   2.157  1.00 20.00    -0.055 SA
ENDROOT
BRANCH   2   4
HETATM    4  C7  UNL     1     -32.429  18.165  -0.654  1.00 20.00     0.109 C 
BRANCH   4   5
HETATM    5  C5  UNL     1     -33.400  19.263  -0.203  1.00 20.00     0.023 C 
HETATM    6  C3  UNL     1     -34.382  18.777   0.855  1.00 20.00     0.007 C 
ENDBRANCH   4   5
BRANCH   4   7
HETATM    7  C6  UNL     1     -32.637  17.822  -2.135  1.00 20.00     0.027 C 
BRANCH   7   8
HETATM    8  C4  UNL     1     -33.606  16.652  -2.333  1.00 20.00    -0.002 C 
HETATM    9  C2  UNL     1     -33.261  15.850  -3.577  1.00 20.00     0.005 C 
ENDBRANCH   7   8
ENDBRANCH   4   7
ENDBRANCH   2   4
TORSDOF 4
ENDMDL
MODEL 5
REMARK VINA RESULT:      -3.3      2.076      2.833
REMARK  4 active torsions:
REMARK  status: ('A' for Active; 'I' for Inactive)
REMARK    1  A    between atoms: C4_4  and  C6_6 
REMARK    2  A    between atoms: C5_5  and  C7_7 
REMARK    3  A    between atoms: C6_6  and  C7_7 
REMARK    4  A    between atoms: C7_7  and  N8_8 
ROOT
HETATM    1  C1  UNL     1     -42.177  14.182   4.878  1.00 20.00     0.158 C 
HETATM    2  N8  UNL     1     -41.963  13.559   5.848  1.00 20.00    -0.270 NA
HETATM    3  S9  UNL     1     -42.503  15.019   3.562  1.00 20.00    -0.055 SA
ENDROOT
BRANCH   2   4
HETATM    4  C7  UNL     1     -40.560  13.565   6.284  1.00 20.00     0.109 C 
BRANCH   4   5
HETATM    5  C5  UNL     1     -40.485  14.078   7.727  1.00 20.00     0.023 C 
HETATM    6  C3  UNL     1     -40.361  15.594   7.803  1.00 20.00     0.007 C 
ENDBRANCH   4   5
BRANCH   4   7
HETATM    7  C6  UNL     1     -39.994  12.143   6.176  1.00 20.00     0.027 C 
BRANCH   7   8
HETATM    8  C4  UNL     1     -38.702  12.088   5.356  1.00 20.00    -0.002 C 
HETATM    9  C2  UNL     1     -38.975  11.682   3.917  1.00 20.00     0.005 C 
ENDBRANCH   7   8
ENDBRANCH   4   7
ENDBRANCH   2   4
TORSDOF 4
ENDMDL
MODEL 6
REMARK VINA RESULT:      -3.2     11.488     12.313
REMARK  4 active torsions:
REMARK  status: ('A' for Active; 'I' for Inactive)
REMARK    1  A    between atoms: C4_4  and  C6_6 
REMARK    2  A    between atoms: C5_5  and  C7_7 
REMARK    3  A    between atoms: C6_6  and  C7_7 
REMARK    4  A    between atoms: C7_7  and  N8_8 
ROOT
HETATM    1  C1  UNL     1     -31.276  18.845  -0.028  1.00 20.00     0.158 C 
HETATM    2  N8  UNL     1     -31.702  18.800  -1.120  1.00 20.00    -0.270 NA
HETATM    3  S9  UNL     1     -30.677  18.932   1.445  1.00 20.00    -0.055 SA
ENDROOT
BRANCH   2   4
HETATM    4  C7  UNL     1     -32.686  17.734  -1.352  1.00 20.00     0.109 C 
BRANCH   4   5
HETATM    5  C5  UNL     1     -33.960  18.046  -0.557  1.00 20.00     0.023 C 
HETATM    6  C3  UNL     1     -34.862  19.047  -1.267  1.00 20.00     0.007 C 
ENDBRANCH   4   5
BRANCH   4   7
HETATM    7  C6  UNL     1     -32.984  17.644  -2.854  1.00 20.00     0.027 C 
BRANCH   7   8
HETATM    8  C4  UNL     1     -33.321  16.218  -3.299  1.00 20.00    -0.002 C 
HETATM    9  C2  UNL     1     -34.259  16.216  -4.495  1.00 20.00     0.005 C 
ENDBRANCH   7   8
ENDBRANCH   4   7
ENDBRANCH   2   4
TORSDOF 4
ENDMDL
MODEL 7
REMARK VINA RESULT:      -3.2     12.636     13.421
REMARK  4 active torsions:
REMARK  status: ('A' for Active; 'I' for Inactive)
REMARK    1  A    between atoms: C4_4  and  C6_6 
REMARK    2  A    between atoms: C5_5  and  C7_7 
REMARK    3  A    between atoms: C6_6  and  C7_7 
REMARK    4  A    between atoms: C7_7  and  N8_8 
ROOT
HETATM    1  C1  UNL     1     -34.182  18.082  -5.034  1.00 20.00     0.158 C 
HETATM    2  N8  UNL     1     -33.574  18.070  -4.030  1.00 20.00    -0.270 NA
HETATM    3  S9  UNL     1     -34.993  18.130  -6.403  1.00 20.00    -0.055 SA
ENDROOT
BRANCH   2   4
HETATM    4  C7  UNL     1     -33.804  16.889  -3.188  1.00 20.00     0.109 C 
BRANCH   4   5
HETATM    5  C5  UNL     1     -33.061  15.690  -3.790  1.00 20.00     0.023 C 
HETATM    6  C3  UNL     1     -33.998  14.553  -4.173  1.00 20.00     0.007 C 
ENDBRANCH   4   5
BRANCH   4   7
HETATM    7  C6  UNL     1     -33.311  17.183  -1.765  1.00 20.00     0.027 C 
BRANCH   7   8
HETATM    8  C4  UNL     1     -32.503  18.481  -1.682  1.00 20.00    -0.002 C 
HETATM    9  C2  UNL     1     -31.527  18.455  -0.517  1.00 20.00     0.005 C 
ENDBRANCH   7   8
ENDBRANCH   4   7
ENDBRANCH   2   4
TORSDOF 4
ENDMDL
MODEL 8
REMARK VINA RESULT:      -3.1      9.744     10.754
REMARK  4 active torsions:
REMARK  status: ('A' for Active; 'I' for Inactive)
REMARK    1  A    between atoms: C4_4  and  C6_6 
REMARK    2  A    between atoms: C5_5  and  C7_7 
REMARK    3  A    between atoms: C6_6  and  C7_7 
REMARK    4  A    between atoms: C7_7  and  N8_8 
ROOT
HETATM    1  C1  UNL     1     -32.414   7.562   2.057  1.00 20.00     0.158 C 
HETATM    2  N8  UNL     1     -32.347   6.626   2.762  1.00 20.00    -0.270 NA
HETATM    3  S9  UNL     1     -32.488   8.813   1.075  1.00 20.00    -0.055 SA
ENDROOT
BRANCH   2   4
HETATM    4  C7  UNL     1     -32.873   6.839   4.116  1.00 20.00     0.109 C 
BRANCH   4   5
HETATM    5  C5  UNL     1     -32.541   8.268   4.565  1.00 20.00     0.023 C 
HETATM    6  C3  UNL     1     -33.556   8.821   5.556  1.00 20.00     0.007 C 
ENDBRANCH   4   5
BRANCH   4   7
HETATM    7  C6  UNL     1     -34.389   6.604   4.110  1.00 20.00     0.027 C 
BRANCH   7   8
HETATM    8  C4  UNL     1     -34.781   5.294   4.798  1.00 20.00    -0.002 C 
HETATM    9  C2  UNL     1     -34.570   5.372   6.302  1.00 20.00     0.005 C 
ENDBRANCH   7   8
ENDBRANCH   4   7
ENDBRANCH   2   4
TORSDOF 4
ENDMDL
MODEL 9
REMARK VINA RESULT:      -3.1      9.991     10.682
REMARK  4 active torsions:
REMARK  status: ('A' for Active; 'I' for Inactive)
REMARK    1  A    between atoms: C4_4  and  C6_6 
REMARK    2  A    between atoms: C5_5  and  C7_7 
REMARK    3  A    between atoms: C6_6  and  C7_7 
REMARK    4  A    between atoms: C7_7  and  N8_8 
ROOT
HETATM    1  C1  UNL     1     -33.679   6.985   5.641  1.00 20.00     0.158 C 
HETATM    2  N8  UNL     1     -32.997   7.777   5.110  1.00 20.00    -0.270 NA
HETATM    3  S9  UNL     1     -34.605   5.929   6.392  1.00 20.00    -0.055 SA
ENDROOT
BRANCH   2   4
HETATM    4  C7  UNL     1     -32.561   7.403   3.758  1.00 20.00     0.109 C 
BRANCH   4   5
HETATM    5  C5  UNL     1     -33.519   6.345   3.196  1.00 20.00     0.023 C 
HETATM    6  C3  UNL     1     -32.793   5.095   2.716  1.00 20.00     0.007 C 
ENDBRANCH   4   5
BRANCH   4   7
HETATM    7  C6  UNL     1     -32.544   8.655   2.870  1.00 20.00     0.027 C 
BRANCH   7   8
HETATM    8  C4  UNL     1     -32.160   8.340   1.422  1.00 20.00    -0.002 C 
HETATM    9  C2  UNL     1     -32.725   9.373   0.460  1.00 20.00     0.005 C 
ENDBRANCH   7   8
ENDBRANCH   4   7
ENDBRANCH   2   4
TORSDOF 4
ENDMDL
