MODEL 1
REMARK VINA RESULT:      -3.8      0.000      0.000
REMARK  4 active torsions:
REMARK  status: ('A' for Active; 'I' for Inactive)
REMARK    1  A    between atoms: C4_4  and  C6_6 
REMARK    2  A    between atoms: C5_5  and  C7_7 
REMARK    3  A    between atoms: C6_6  and  C7_7 
REMARK    4  A    between atoms: C7_7  and  N8_8 
ROOT
HETATM    1  C1  UNL     1     -32.617   9.073   2.647  1.00 20.00     0.158 C 
HETATM    2  N8  UNL     1     -32.432   8.767   3.764  1.00 20.00    -0.270 NA
HETATM    3  S9  UNL     1     -32.861   9.522   1.139  1.00 20.00    -0.055 SA
ENDROOT
BRANCH   2   4
HETATM    4  C7  UNL     1     -32.658   7.343   4.054  1.00 20.00     0.109 C 
BRANCH   4   5
HETATM    5  C5  UNL     1     -32.481   6.535   2.763  1.00 20.00     0.023 C 
HETATM    6  C3  UNL     1     -33.114   5.152   2.848  1.00 20.00     0.007 C 
ENDBRANCH   4   5
BRANCH   4   7
HETATM    7  C6  UNL     1     -34.072   7.165   4.624  1.00 20.00     0.027 C 
BRANCH   7   8
HETATM    8  C4  UNL     1     -34.062   6.837   6.120  1.00 20.00    -0.002 C 
HETATM    9  C2  UNL     1     -34.545   5.417   6.379  1.00 20.00     0.005 C 
ENDBRANCH   7   8
ENDBRANCH   4   7
ENDBRANCH   2   4
TORSDOF 4
ENDMDL
MODEL 2
REMARK VINA RESULT:      -3.7      9.655     10.582
REMARK  4 active torsions:
REMARK  status: ('A' for Active; 'I' for Inactive)
REMARK    1  A    between atoms: C4_4  and  C6_6 
REMARK    2  A    between atoms: C5_5  and  C7_7 
REMARK    3  A    between atoms: C6_6  and  C7_7 
REMARK    4  A    between atoms: C7_7  and  N8_8 
ROOT
HETATM    1  C1  UNL     1     -40.361  14.469   8.510  1.00 20.00     0.158 C 
HETATM    2  N8  UNL     1     -40.172  13.466   7.931  1.00 20.00    -0.270 NA
HETATM    3  S9  UNL     1     -40.598  15.817   9.322  1.00 20.00    -0.055 SA
ENDROOT
BRANCH   2   4
HETATM    4  C7  UNL     1     -40.832  13.382   6.620  1.00 20.00     0.109 C 
BRANCH   4   5
HETATM    5  C5  UNL     1     -42.350  13.474   6.816  1.00 20.00     0.023 C 
HETATM    6  C3  UNL     1     -42.986  12.118   7.096  1.00 20.00     0.007 C 
ENDBRANCH   4   5
BRANCH   4   7
HETATM    7  C6  UNL     1     -40.444  12.057   5.947  1.00 20.00     0.027 C 
BRANCH   7   8
HETATM    8  C4  UNL     1     -39.004  12.067   5.425  1.00 20.00    -0.002 C 
HETATM    9  C2  UNL     1     -38.942  11.653   3.962  1.00 20.00     0.005 C 
ENDBRANCH   7   8
ENDBRANCH   4   7
ENDBRANCH   2   4
TORSDOF 4
ENDMDL
MODEL 3
REMARK VINA RESULT:      -3.7     11.670     12.339
REMARK  4 active torsions:
REMARK  status: ('A' for Active; 'I' for Inactive)
REMARK    1  A    between atoms: C4_4  and  C6_6 
REMARK    2  A    between atoms: C5_5  and  C7_7 
REMARK    3  A    between atoms: C6_6  and  C7_7 
REMARK    4  A    between atoms: C7_7  and  N8_8 
ROOT
HETATM    1  C1  UNL     1     -30.713  18.816   0.694  1.00 20.00     0.158 C 
HETATM    2  N8  UNL     1     -31.007  18.588  -0.418  1.00 20.00    -0.270 NA
HETATM    3  S9  UNL     1     -30.280  19.114   2.197  1.00 20.00    -0.055 SA
ENDROOT
BRANCH   2   4
HETATM    4  C7  UNL     1     -32.414  18.859  -0.747  1.00 20.00     0.109 C 
BRANCH   4   5
HETATM    5  C5  UNL     1     -33.310  18.232   0.328  1.00 20.00     0.023 C 
HETATM    6  C3  UNL     1     -34.381  19.191   0.830  1.00 20.00     0.007 C 
ENDBRANCH   4   5
BRANCH   4   7
HETATM    7  C6  UNL     1     -32.727  18.275  -2.132  1.00 20.00     0.027 C 
BRANCH   7   8
HETATM    8  C4  UNL     1     -33.501  16.956  -2.048  1.00 20.00    -0.002 C 
HETATM    9  C2  UNL     1     -33.312  16.121  -3.306  1.00 20.00     0.005 C 
ENDBRANCH   7   8
ENDBRANCH   4   7
ENDBRANCH   2   4
TORSDOF 4
ENDMDL
MODEL 4
REMARK VINA RESULT:      -3.4      2.669      3.520
REMARK  4 active torsions:
REMARK  status: ('A' for Active; 'I' for Inactive)
REMARK    1  A    between atoms: C4_4  and  C6_6 
REMARK    2  A    between atoms: C5_5  and  C7_7 
REMARK    3  A    between atoms: C6_6  and  C7_7 
REMARK    4  A    between atoms: C7_7  and  N8_8 
ROOT
HETATM    1  C1  UNL     1     -33.328   5.470   3.337  1.00 20.00     0.158 C 
HETATM    2  N8  UNL     1     -32.628   5.998   2.558  1.00 20.00    -0.270 NA
HETATM    3  S9  UNL     1     -34.269   4.724   4.382  1.00 20.00    -0.055 SA
ENDROOT
BRANCH   2   4
HETATM    4  C7  UNL     1     -32.612   7.465   2.643  1.00 20.00     0.109 C 
BRANCH   4   5
HETATM    5  C5  UNL     1     -32.064   8.037   1.330  1.00 20.00     0.023 C 
HETATM    6  C3  UNL     1     -32.736   9.346   0.936  1.00 20.00     0.007 C 
ENDBRANCH   4   5
BRANCH   4   7
HETATM    7  C6  UNL     1     -31.739   7.889   3.833  1.00 20.00     0.027 C 
BRANCH   7   8
HETATM    8  C4  UNL     1     -32.447   8.893   4.748  1.00 20.00    -0.002 C 
HETATM    9  C2  UNL     1     -33.595   8.241   5.503  1.00 20.00     0.005 C 
ENDBRANCH   7   8
ENDBRANCH   4   7
ENDBRANCH   2   4
TORSDOF 4
ENDMDL
MODEL 5
REMARK VINA RESULT:      -3.4      9.651     10.643
REMARK  4 active torsions:
REMARK  status: ('A' for Active; 'I' for Inactive)
REMARK    1  A    between atoms: C4_4  and  C6_6 
REMARK    2  A    between atoms: C5_5  and  C7_7 
REMARK    3  A    between atoms: C6_6  and  C7_7 
REMARK    4  A    between atoms: C7_7  and  N8_8 
ROOT
HETATM    1  C1  UNL     1     -39.430  12.073   5.695  1.00 20.00     0.158 C 
HETATM    2  N8  UNL     1     -39.684  12.386   6.796  1.00 20.00    -0.270 NA
HETATM    3  S9  UNL     1     -39.062  11.623   4.212  1.00 20.00    -0.055 SA
ENDROOT
BRANCH   2   4
HETATM    4  C7  UNL     1     -40.644  13.493   6.912  1.00 20.00     0.109 C 
BRANCH   4   5
HETATM    5  C5  UNL     1     -40.424  14.209   8.250  1.00 20.00     0.023 C 
HETATM    6  C3  UNL     1     -40.447  15.726   8.113  1.00 20.00     0.007 C 
ENDBRANCH   4   5
BRANCH   4   7
HETATM    7  C6  UNL     1     -42.070  12.933   6.817  1.00 20.00     0.027 C 
BRANCH   7   8
HETATM    8  C4  UNL     1     -42.985  13.808   5.955  1.00 20.00    -0.002 C 
HETATM    9  C2  UNL     1     -42.239  14.377   4.757  1.00 20.00     0.005 C 
ENDBRANCH   7   8
ENDBRANCH   4   7
ENDBRANCH   2   4
TORSDOF 4
ENDMDL
MODEL 6
REMARK VINA RESULT:      -3.4      1.365      2.142
REMARK  4 active torsions:
REMARK  status: ('A' for Active; 'I' for Inactive)
REMARK    1  A    between atoms: C4_4  and  C6_6 
REMARK    2  A    between atoms: C5_5  and  C7_7 
REMARK    3  A    between atoms: C6_6  and  C7_7 
REMARK    4  A    between atoms: C7_7  and  N8_8 
ROOT
HETATM    1  C1  UNL     1     -32.379   8.066   1.589  1.00 20.00     0.158 C 
HETATM    2  N8  UNL     1     -32.168   7.241   2.396  1.00 20.00    -0.270 NA
HETATM    3  S9  UNL     1     -32.637   9.176   0.477  1.00 20.00    -0.055 SA
ENDROOT
BRANCH   2   4
HETATM    4  C7  UNL     1     -33.114   7.228   3.521  1.00 20.00     0.109 C 
BRANCH   4   5
HETATM    5  C5  UNL     1     -32.489   7.971   4.708  1.00 20.00     0.023 C 
HETATM    6  C3  UNL     1     -33.514   8.771   5.503  1.00 20.00     0.007 C 
ENDBRANCH   4   5
BRANCH   4   7
HETATM    7  C6  UNL     1     -33.434   5.773   3.892  1.00 20.00     0.027 C 
BRANCH   7   8
HETATM    8  C4  UNL     1     -34.815   5.626   4.537  1.00 20.00    -0.002 C 
HETATM    9  C2  UNL     1     -34.703   5.307   6.021  1.00 20.00     0.005 C 
ENDBRANCH   7   8
ENDBRANCH   4   7
ENDBRANCH   2   4
TORSDOF 4
ENDMDL
MODEL 7
REMARK VINA RESULT:      -3.3      2.750      4.565
REMARK  4 active torsions:
REMARK  status: ('A' for Active; 'I' for Inactive)
REMARK    1  A    between atoms: C4_4  and  C6_6 
REMARK    2  A    between atoms: C5_5  and  C7_7 
REMARK    3  A    between atoms: C6_6  and  C7_7 
REMARK    4  A    between atoms: C7_7  and  N8_8 
ROOT
HETATM    1  C1  UNL     1     -33.979   5.784   4.508  1.00 20.00     0.158 C 
HETATM    2  N8  UNL     1     -33.499   6.059   3.474  1.00 20.00    -0.270 NA
HETATM    3  S9  UNL     1     -34.651   5.386   5.896  1.00 20.00    -0.055 SA
ENDROOT
BRANCH   2   4
HETATM    4  C7  UNL     1     -32.554   7.184   3.517  1.00 20.00     0.109 C 
BRANCH   4   5
HETATM    5  C5  UNL     1     -33.206   8.357   4.258  1.00 20.00     0.023 C 
HETATM    6  C3  UNL     1     -32.240   9.062   5.202  1.00 20.00     0.007 C 
ENDBRANCH   4   5
BRANCH   4   7
HETATM    7  C6  UNL     1     -32.180   7.581   2.081  1.00 20.00     0.027 C 
BRANCH   7   8
HETATM    8  C4  UNL     1     -32.684   8.980   1.713  1.00 20.00    -0.002 C 
HETATM    9  C2  UNL     1     -32.687   9.190   0.206  1.00 20.00     0.005 C 
ENDBRANCH   7   8
ENDBRANCH   4   7
ENDBRANCH   2   4
TORSDOF 4
ENDMDL
MODEL 8
REMARK VINA RESULT:      -3.3     11.598     12.295
REMARK  4 active torsions:
REMARK  status: ('A' for Active; 'I' for Inactive)
REMARK    1  A    between atoms: C4_4  and  C6_6 
REMARK    2  A    between atoms: C5_5  and  C7_7 
REMARK    3  A    between atoms: C6_6  and  C7_7 
REMARK    4  A    between atoms: C7_7  and  N8_8 
ROOT
HETATM    1  C1  UNL     1     -34.433  17.916  -5.157  1.00 20.00     0.158 C 
HETATM    2  N8  UNL     1     -34.593  17.170  -4.266  1.00 20.00    -0.270 NA
HETATM    3  S9  UNL     1     -34.250  18.930  -6.372  1.00 20.00    -0.055 SA
ENDROOT
BRANCH   2   4
HETATM    4  C7  UNL     1     -33.355  16.727  -3.609  1.00 20.00     0.109 C 
BRANCH   4   5
HETATM    5  C5  UNL     1     -33.007  15.315  -4.097  1.00 20.00     0.023 C 
HETATM    6  C3  UNL     1     -34.216  14.389  -4.120  1.00 20.00     0.007 C 
ENDBRANCH   4   5
BRANCH   4   7
HETATM    7  C6  UNL     1     -33.560  16.746  -2.088  1.00 20.00     0.027 C 
BRANCH   7   8
HETATM    8  C4  UNL     1     -32.753  17.855  -1.405  1.00 20.00    -0.002 C 
HETATM    9  C2  UNL     1     -33.377  18.256  -0.076  1.00 20.00     0.005 C 
ENDBRANCH   7   8
ENDBRANCH   4   7
ENDBRANCH   2   4
TORSDOF 4
ENDMDL
MODEL 9
REMARK VINA RESULT:      -3.2      9.830     10.451
REMARK  4 active torsions:
REMARK  status: ('A' for Active; 'I' for Inactive)
REMARK    1  A    between atoms: C4_4  and  C6_6 
REMARK    2  A    between atoms: C5_5  and  C7_7 
REMARK    3  A    between atoms: C6_6  and  C7_7 
REMARK    4  A    between atoms: C7_7  and  N8_8 
ROOT
HETATM    1  C1  UNL     1     -42.004  14.343   4.435  1.00 20.00     0.158 C 
HETATM    2  N8  UNL     1     -41.238  13.456   4.469  1.00 20.00    -0.270 NA
HETATM    3  S9  UNL     1     -43.049  15.542   4.355  1.00 20.00    -0.055 SA
ENDROOT
BRANCH   2   4
HETATM    4  C7  UNL     1     -40.621  13.229   5.784  1.00 20.00     0.109 C 
BRANCH   4   5
HETATM    5  C5  UNL     1     -39.753  11.967   5.719  1.00 20.00     0.023 C 
HETATM    6  C3  UNL     1     -39.168  11.730   4.333  1.00 20.00     0.007 C 
ENDBRANCH   4   5
BRANCH   4   7
HETATM    7  C6  UNL     1     -41.728  13.081   6.838  1.00 20.00     0.027 C 
BRANCH   7   8
HETATM    8  C4  UNL     1     -41.508  13.995   8.048  1.00 20.00    -0.002 C 
HETATM    9  C2  UNL     1     -40.479  15.074   7.747  1.00 20.00     0.005 C 
ENDBRANCH   7   8
ENDBRANCH   4   7
ENDBRANCH   2   4
TORSDOF 4
ENDMDL
