MODEL 1
REMARK VINA RESULT:      -3.8      0.000      0.000
REMARK  3 active torsions:
REMARK  status: ('A' for Active; 'I' for Inactive)
REMARK    1  A    between atoms: C6_6  and  N10_10 
REMARK    2  A    between atoms: C7_7  and  C8_8 
REMARK    3  A    between atoms: C8_8  and  N10_10 
ROOT
HETATM    1  C1  UNL     1     -35.093  14.887  -6.417  1.00 20.00     0.094 C 
HETATM    2  C2  UNL     1     -34.125  14.398  -4.201  1.00 20.00     0.059 C 
HETATM    3  C6  UNL     1     -33.951  15.131  -5.525  1.00 20.00     0.322 C 
HETATM    4  N9  UNL     1     -35.992  14.690  -7.123  1.00 20.00    -0.195 NA
ENDROOT
BRANCH   3   5
HETATM    5  N10 UNL     1     -33.794  16.566  -5.303  1.00 20.00     0.105 N 
HETATM    6  H26 UNL     1     -34.272  17.070  -6.052  1.00 20.00     0.318 HD
BRANCH   5   7
HETATM    7  C8  UNL     1     -34.340  16.963  -4.022  1.00 20.00     0.221 C 
HETATM    8  C5  UNL     1     -35.489  17.941  -4.253  1.00 20.00     0.043 C 
BRANCH   7   9
HETATM    9  C7  UNL     1     -33.236  17.531  -3.101  1.00 20.00     0.010 C 
HETATM   10  C3  UNL     1     -32.987  19.032  -3.282  1.00 20.00     0.011 C 
HETATM   11  C4  UNL     1     -33.532  17.229  -1.627  1.00 20.00     0.011 C 
ENDBRANCH   7   9
ENDBRANCH   5   7
ENDBRANCH   3   5
TORSDOF 3
ENDMDL
MODEL 2
REMARK VINA RESULT:      -3.7      2.673      5.110
REMARK  3 active torsions:
REMARK  status: ('A' for Active; 'I' for Inactive)
REMARK    1  A    between atoms: C6_6  and  N10_10 
REMARK    2  A    between atoms: C7_7  and  C8_8 
REMARK    3  A    between atoms: C8_8  and  N10_10 
ROOT
HETATM    1  C1  UNL     1     -31.796  18.451  -0.664  1.00 20.00     0.094 C 
HETATM    2  C2  UNL     1     -34.070  18.373   0.289  1.00 20.00     0.059 C 
HETATM    3  C6  UNL     1     -33.223  18.284  -0.973  1.00 20.00     0.322 C 
HETATM    4  N9  UNL     1     -30.670  18.587  -0.419  1.00 20.00    -0.195 NA
ENDROOT
BRANCH   3   5
HETATM    5  N10 UNL     1     -33.437  17.009  -1.651  1.00 20.00     0.105 N 
HETATM    6  H26 UNL     1     -34.374  16.670  -1.426  1.00 20.00     0.318 HD
BRANCH   5   7
HETATM    7  C8  UNL     1     -33.301  17.148  -3.087  1.00 20.00     0.221 C 
HETATM    8  C5  UNL     1     -33.914  18.479  -3.518  1.00 20.00     0.043 C 
BRANCH   7   9
HETATM    9  C7  UNL     1     -33.912  15.933  -3.821  1.00 20.00     0.010 C 
HETATM   10  C3  UNL     1     -34.782  16.307  -5.025  1.00 20.00     0.011 C 
HETATM   11  C4  UNL     1     -32.826  14.942  -4.254  1.00 20.00     0.011 C 
ENDBRANCH   7   9
ENDBRANCH   5   7
ENDBRANCH   3   5
TORSDOF 3
ENDMDL
MODEL 3
REMARK VINA RESULT:      -3.7      1.458      2.380
REMARK  3 active torsions:
REMARK  status: ('A' for Active; 'I' for Inactive)
REMARK    1  A    between atoms: C6_6  and  N10_10 
REMARK    2  A    between atoms: C7_7  and  C8_8 
REMARK    3  A    between atoms: C8_8  and  N10_10 
ROOT
HETATM    1  C1  UNL     1     -35.740  15.489  -6.920  1.00 20.00     0.094 C 
HETATM    2  C2  UNL     1     -35.463  17.788  -7.771  1.00 20.00     0.059 C 
HETATM    3  C6  UNL     1     -35.407  16.873  -6.555  1.00 20.00     0.322 C 
HETATM    4  N9  UNL     1     -36.007  14.397  -7.209  1.00 20.00    -0.195 NA
ENDROOT
BRANCH   3   5
HETATM    5  N10 UNL     1     -34.085  16.918  -5.935  1.00 20.00     0.105 N 
HETATM    6  H26 UNL     1     -33.492  17.555  -6.470  1.00 20.00     0.318 HD
BRANCH   5   7
HETATM    7  C8  UNL     1     -34.166  17.365  -4.559  1.00 20.00     0.221 C 
HETATM    8  C5  UNL     1     -33.740  18.829  -4.487  1.00 20.00     0.043 C 
BRANCH   7   9
HETATM    9  C7  UNL     1     -33.340  16.446  -3.630  1.00 20.00     0.010 C 
HETATM   10  C3  UNL     1     -33.487  16.774  -2.141  1.00 20.00     0.011 C 
HETATM   11  C4  UNL     1     -33.672  14.969  -3.870  1.00 20.00     0.011 C 
ENDBRANCH   7   9
ENDBRANCH   5   7
ENDBRANCH   3   5
TORSDOF 3
ENDMDL
MODEL 4
REMARK VINA RESULT:      -3.7      1.396      2.080
REMARK  3 active torsions:
REMARK  status: ('A' for Active; 'I' for Inactive)
REMARK    1  A    between atoms: C6_6  and  N10_10 
REMARK    2  A    between atoms: C7_7  and  C8_8 
REMARK    3  A    between atoms: C8_8  and  N10_10 
ROOT
HETATM    1  C1  UNL     1     -35.888  15.389  -6.668  1.00 20.00     0.094 C 
HETATM    2  C2  UNL     1     -34.629  17.510  -6.624  1.00 20.00     0.059 C 
HETATM    3  C6  UNL     1     -35.749  16.689  -5.998  1.00 20.00     0.322 C 
HETATM    4  N9  UNL     1     -36.000  14.364  -7.199  1.00 20.00    -0.195 NA
ENDROOT
BRANCH   3   5
HETATM    5  N10 UNL     1     -35.507  16.490  -4.572  1.00 20.00     0.105 N 
HETATM    6  H26 UNL     1     -35.805  15.546  -4.316  1.00 20.00     0.318 HD
BRANCH   5   7
HETATM    7  C8  UNL     1     -34.106  16.664  -4.247  1.00 20.00     0.221 C 
HETATM    8  C5  UNL     1     -33.497  15.301  -3.928  1.00 20.00     0.043 C 
BRANCH   7   9
HETATM    9  C7  UNL     1     -33.927  17.691  -3.106  1.00 20.00     0.010 C 
HETATM   10  C3  UNL     1     -35.171  18.544  -2.836  1.00 20.00     0.011 C 
HETATM   11  C4  UNL     1     -33.476  17.009  -1.809  1.00 20.00     0.011 C 
ENDBRANCH   7   9
ENDBRANCH   5   7
ENDBRANCH   3   5
TORSDOF 3
ENDMDL
MODEL 5
REMARK VINA RESULT:      -3.5      1.252      1.511
REMARK  3 active torsions:
REMARK  status: ('A' for Active; 'I' for Inactive)
REMARK    1  A    between atoms: C6_6  and  N10_10 
REMARK    2  A    between atoms: C7_7  and  C8_8 
REMARK    3  A    between atoms: C8_8  and  N10_10 
ROOT
HETATM    1  C1  UNL     1     -35.246  14.229  -4.901  1.00 20.00     0.094 C 
HETATM    2  C2  UNL     1     -34.039  15.167  -6.837  1.00 20.00     0.059 C 
HETATM    3  C6  UNL     1     -34.649  15.445  -5.469  1.00 20.00     0.322 C 
HETATM    4  N9  UNL     1     -35.721  13.269  -4.454  1.00 20.00    -0.195 NA
ENDROOT
BRANCH   3   5
HETATM    5  N10 UNL     1     -33.644  15.978  -4.554  1.00 20.00     0.105 N 
HETATM    6  H26 UNL     1     -32.834  16.285  -5.097  1.00 20.00     0.318 HD
BRANCH   5   7
HETATM    7  C8  UNL     1     -34.167  17.091  -3.789  1.00 20.00     0.221 C 
HETATM    8  C5  UNL     1     -34.572  18.207  -4.748  1.00 20.00     0.043 C 
BRANCH   7   9
HETATM    9  C7  UNL     1     -33.153  17.551  -2.717  1.00 20.00     0.010 C 
HETATM   10  C3  UNL     1     -32.734  19.019  -2.847  1.00 20.00     0.011 C 
HETATM   11  C4  UNL     1     -33.682  17.287  -1.302  1.00 20.00     0.011 C 
ENDBRANCH   7   9
ENDBRANCH   5   7
ENDBRANCH   3   5
TORSDOF 3
ENDMDL
MODEL 6
REMARK VINA RESULT:      -3.5      1.413      1.942
REMARK  3 active torsions:
REMARK  status: ('A' for Active; 'I' for Inactive)
REMARK    1  A    between atoms: C6_6  and  N10_10 
REMARK    2  A    between atoms: C7_7  and  C8_8 
REMARK    3  A    between atoms: C8_8  and  N10_10 
ROOT
HETATM    1  C1  UNL     1     -34.195  15.097  -6.375  1.00 20.00     0.094 C 
HETATM    2  C2  UNL     1     -35.808  13.975  -4.883  1.00 20.00     0.059 C 
HETATM    3  C6  UNL     1     -34.707  15.022  -5.000  1.00 20.00     0.322 C 
HETATM    4  N9  UNL     1     -33.788  15.153  -7.460  1.00 20.00    -0.195 NA
ENDROOT
BRANCH   3   5
HETATM    5  N10 UNL     1     -35.194  16.332  -4.579  1.00 20.00     0.105 N 
HETATM    6  H26 UNL     1     -35.958  16.202  -3.913  1.00 20.00     0.318 HD
BRANCH   5   7
HETATM    7  C8  UNL     1     -34.139  17.112  -3.964  1.00 20.00     0.221 C 
HETATM    8  C5  UNL     1     -33.349  16.217  -3.013  1.00 20.00     0.043 C 
BRANCH   7   9
HETATM    9  C7  UNL     1     -34.712  18.372  -3.277  1.00 20.00     0.010 C 
HETATM   10  C3  UNL     1     -36.203  18.602  -3.542  1.00 20.00     0.011 C 
HETATM   11  C4  UNL     1     -34.453  18.347  -1.766  1.00 20.00     0.011 C 
ENDBRANCH   7   9
ENDBRANCH   5   7
ENDBRANCH   3   5
TORSDOF 3
ENDMDL
MODEL 7
REMARK VINA RESULT:      -3.5     12.013     13.460
REMARK  3 active torsions:
REMARK  status: ('A' for Active; 'I' for Inactive)
REMARK    1  A    between atoms: C6_6  and  N10_10 
REMARK    2  A    between atoms: C7_7  and  C8_8 
REMARK    3  A    between atoms: C8_8  and  N10_10 
ROOT
HETATM    1  C1  UNL     1     -41.260  15.996   7.135  1.00 20.00     0.094 C 
HETATM    2  C2  UNL     1     -40.278  14.722   9.005  1.00 20.00     0.059 C 
HETATM    3  C6  UNL     1     -40.869  14.660   7.603  1.00 20.00     0.322 C 
HETATM    4  N9  UNL     1     -41.573  17.052   6.768  1.00 20.00    -0.195 NA
ENDROOT
BRANCH   3   5
HETATM    5  N10 UNL     1     -39.918  14.065   6.667  1.00 20.00     0.105 N 
HETATM    6  H26 UNL     1     -39.148  13.654   7.197  1.00 20.00     0.318 HD
BRANCH   5   7
HETATM    7  C8  UNL     1     -40.549  13.046   5.854  1.00 20.00     0.221 C 
HETATM    8  C5  UNL     1     -41.800  12.542   6.570  1.00 20.00     0.043 C 
BRANCH   7   9
HETATM    9  C7  UNL     1     -39.551  11.917   5.510  1.00 20.00     0.010 C 
HETATM   10  C3  UNL     1     -39.269  11.772   4.011  1.00 20.00     0.011 C 
HETATM   11  C4  UNL     1     -38.232  12.090   6.270  1.00 20.00     0.011 C 
ENDBRANCH   7   9
ENDBRANCH   5   7
ENDBRANCH   3   5
TORSDOF 3
ENDMDL
MODEL 8
REMARK VINA RESULT:      -3.5      2.733      5.086
REMARK  3 active torsions:
REMARK  status: ('A' for Active; 'I' for Inactive)
REMARK    1  A    between atoms: C6_6  and  N10_10 
REMARK    2  A    between atoms: C7_7  and  C8_8 
REMARK    3  A    between atoms: C8_8  and  N10_10 
ROOT
HETATM    1  C1  UNL     1     -31.622  18.682  -0.699  1.00 20.00     0.094 C 
HETATM    2  C2  UNL     1     -33.915  17.784  -0.555  1.00 20.00     0.059 C 
HETATM    3  C6  UNL     1     -32.955  18.687  -1.318  1.00 20.00     0.322 C 
HETATM    4  N9  UNL     1     -30.571  18.680  -0.209  1.00 20.00    -0.195 NA
ENDROOT
BRANCH   3   5
HETATM    5  N10 UNL     1     -32.856  18.274  -2.714  1.00 20.00     0.105 N 
HETATM    6  H26 UNL     1     -31.940  17.847  -2.868  1.00 20.00     0.318 HD
BRANCH   5   7
HETATM    7  C8  UNL     1     -33.898  17.327  -3.057  1.00 20.00     0.221 C 
HETATM    8  C5  UNL     1     -33.253  16.009  -3.478  1.00 20.00     0.043 C 
BRANCH   7   9
HETATM    9  C7  UNL     1     -34.843  17.910  -4.131  1.00 20.00     0.010 C 
HETATM   10  C3  UNL     1     -35.329  16.880  -5.157  1.00 20.00     0.011 C 
HETATM   11  C4  UNL     1     -36.047  18.611  -3.492  1.00 20.00     0.011 C 
ENDBRANCH   7   9
ENDBRANCH   5   7
ENDBRANCH   3   5
TORSDOF 3
ENDMDL
MODEL 9
REMARK VINA RESULT:      -3.4     11.878     13.310
REMARK  3 active torsions:
REMARK  status: ('A' for Active; 'I' for Inactive)
REMARK    1  A    between atoms: C6_6  and  N10_10 
REMARK    2  A    between atoms: C7_7  and  C8_8 
REMARK    3  A    between atoms: C8_8  and  N10_10 
ROOT
HETATM    1  C1  UNL     1     -32.447   8.380   2.255  1.00 20.00     0.094 C 
HETATM    2  C2  UNL     1     -31.950   9.189   4.531  1.00 20.00     0.059 C 
HETATM    3  C6  UNL     1     -32.910   8.403   3.649  1.00 20.00     0.322 C 
HETATM    4  N9  UNL     1     -32.083   8.366   1.153  1.00 20.00    -0.195 NA
ENDROOT
BRANCH   3   5
HETATM    5  N10 UNL     1     -33.066   7.038   4.142  1.00 20.00     0.105 N 
HETATM    6  H26 UNL     1     -32.242   6.791   4.694  1.00 20.00     0.318 HD
BRANCH   5   7
HETATM    7  C8  UNL     1     -34.256   6.907   4.958  1.00 20.00     0.221 C 
HETATM    8  C5  UNL     1     -33.977   7.491   6.341  1.00 20.00     0.043 C 
BRANCH   7   9
HETATM    9  C7  UNL     1     -34.735   5.438   5.006  1.00 20.00     0.010 C 
HETATM   10  C3  UNL     1     -33.987   4.509   4.043  1.00 20.00     0.011 C 
HETATM   11  C4  UNL     1     -34.662   4.875   6.430  1.00 20.00     0.011 C 
ENDBRANCH   7   9
ENDBRANCH   5   7
ENDBRANCH   3   5
TORSDOF 3
ENDMDL
