MODEL 1
REMARK VINA RESULT:      -6.4      0.000      0.000
REMARK  1 active torsions:
REMARK  status: ('A' for Active; 'I' for Inactive)
REMARK    1  A    between atoms: C9_9  and  O11_11 
ROOT
HETATM    1  C1  UNL     1     -33.117   6.219   2.920  1.00 20.00     0.052 A 
HETATM    2  C2  UNL     1     -32.165   8.375   3.529  1.00 20.00     0.049 A 
HETATM    3  C3  UNL     1     -33.688   6.154   4.181  1.00 20.00    -0.020 A 
HETATM    4  C4  UNL     1     -33.508   7.188   5.108  1.00 20.00    -0.043 A 
HETATM    5  C5  UNL     1     -32.754   8.308   4.793  1.00 20.00    -0.052 A 
HETATM    6  C6  UNL     1     -32.345   7.338   2.599  1.00 20.00     0.117 A 
HETATM    7  C7  UNL     1     -34.258   6.912   6.373  1.00 20.00     0.042 C 
HETATM    8  C8  UNL     1     -34.491   5.400   6.251  1.00 20.00     0.041 C 
HETATM    9  C9  UNL     1     -34.582   5.092   4.747  1.00 20.00     0.152 C 
HETATM   10  C10 UNL     1     -32.570   9.421   5.764  1.00 20.00     0.049 C 
HETATM   11  F12 UNL     1     -31.776   7.427   1.389  1.00 20.00    -0.206 F 
ENDROOT
BRANCH   9  12
HETATM   12  O11 UNL     1     -34.107   3.791   4.467  1.00 20.00    -0.391 OA
HETATM   13  H23 UNL     1     -33.149   3.793   4.636  1.00 20.00     0.210 HD
ENDBRANCH   9  12
TORSDOF 1
ENDMDL
MODEL 2
REMARK VINA RESULT:      -5.8      1.457      1.918
REMARK  1 active torsions:
REMARK  status: ('A' for Active; 'I' for Inactive)
REMARK    1  A    between atoms: C9_9  and  O11_11 
ROOT
HETATM    1  C1  UNL     1     -33.813   4.980   3.708  1.00 20.00     0.052 A 
HETATM    2  C2  UNL     1     -32.390   6.562   2.526  1.00 20.00     0.049 A 
HETATM    3  C3  UNL     1     -34.043   5.955   4.666  1.00 20.00    -0.020 A 
HETATM    4  C4  UNL     1     -33.460   7.224   4.556  1.00 20.00    -0.043 A 
HETATM    5  C5  UNL     1     -32.637   7.543   3.488  1.00 20.00    -0.052 A 
HETATM    6  C6  UNL     1     -32.974   5.289   2.635  1.00 20.00     0.117 A 
HETATM    7  C7  UNL     1     -33.894   8.113   5.679  1.00 20.00     0.042 C 
HETATM    8  C8  UNL     1     -34.400   7.077   6.693  1.00 20.00     0.041 C 
HETATM    9  C9  UNL     1     -34.926   5.886   5.876  1.00 20.00     0.152 C 
HETATM   10  C10 UNL     1     -32.025   8.893   3.353  1.00 20.00     0.049 C 
HETATM   11  F12 UNL     1     -32.730   4.366   1.696  1.00 20.00    -0.206 F 
ENDROOT
BRANCH   9  12
HETATM   12  O11 UNL     1     -34.762   4.674   6.585  1.00 20.00    -0.391 OA
HETATM   13  H23 UNL     1     -35.652   4.330   6.775  1.00 20.00     0.210 HD
ENDBRANCH   9  12
TORSDOF 1
ENDMDL
MODEL 3
REMARK VINA RESULT:      -5.8      2.737      4.485
REMARK  1 active torsions:
REMARK  status: ('A' for Active; 'I' for Inactive)
REMARK    1  A    between atoms: C9_9  and  O11_11 
ROOT
HETATM    1  C1  UNL     1     -34.056   6.980   5.989  1.00 20.00     0.052 A 
HETATM    2  C2  UNL     1     -34.364   4.906   4.755  1.00 20.00     0.049 A 
HETATM    3  C3  UNL     1     -33.322   7.467   4.920  1.00 20.00    -0.020 A 
HETATM    4  C4  UNL     1     -33.112   6.688   3.775  1.00 20.00    -0.043 A 
HETATM    5  C5  UNL     1     -33.633   5.408   3.676  1.00 20.00    -0.052 A 
HETATM    6  C6  UNL     1     -34.574   5.687   5.903  1.00 20.00     0.117 A 
HETATM    7  C7  UNL     1     -32.335   7.445   2.745  1.00 20.00     0.042 C 
HETATM    8  C8  UNL     1     -31.715   8.556   3.604  1.00 20.00     0.041 C 
HETATM    9  C9  UNL     1     -32.702   8.823   4.752  1.00 20.00     0.152 C 
HETATM   10  C10 UNL     1     -33.431   4.577   2.458  1.00 20.00     0.049 C 
HETATM   11  F12 UNL     1     -35.285   5.187   6.923  1.00 20.00    -0.206 F 
ENDROOT
BRANCH   9  12
HETATM   12  O11 UNL     1     -32.022   9.244   5.917  1.00 20.00    -0.391 OA
HETATM   13  H23 UNL     1     -32.698   9.497   6.570  1.00 20.00     0.210 HD
ENDBRANCH   9  12
TORSDOF 1
ENDMDL
MODEL 4
REMARK VINA RESULT:      -5.7      2.173      3.461
REMARK  1 active torsions:
REMARK  status: ('A' for Active; 'I' for Inactive)
REMARK    1  A    between atoms: C9_9  and  O11_11 
ROOT
HETATM    1  C1  UNL     1     -32.602   6.352   2.783  1.00 20.00     0.052 A 
HETATM    2  C2  UNL     1     -33.918   4.634   3.896  1.00 20.00     0.049 A 
HETATM    3  C3  UNL     1     -32.861   7.195   3.851  1.00 20.00    -0.020 A 
HETATM    4  C4  UNL     1     -33.636   6.766   4.936  1.00 20.00    -0.043 A 
HETATM    5  C5  UNL     1     -34.165   5.486   4.975  1.00 20.00    -0.052 A 
HETATM    6  C6  UNL     1     -33.142   5.064   2.808  1.00 20.00     0.117 A 
HETATM    7  C7  UNL     1     -33.734   7.833   5.981  1.00 20.00     0.042 C 
HETATM    8  C8  UNL     1     -33.339   9.074   5.170  1.00 20.00     0.041 C 
HETATM    9  C9  UNL     1     -32.368   8.592   4.079  1.00 20.00     0.152 C 
HETATM   10  C10 UNL     1     -34.976   5.013   6.131  1.00 20.00     0.049 C 
HETATM   11  F12 UNL     1     -32.912   4.228   1.787  1.00 20.00    -0.206 F 
ENDROOT
BRANCH   9  12
HETATM   12  O11 UNL     1     -32.476   9.391   2.917  1.00 20.00    -0.391 OA
HETATM   13  H23 UNL     1     -31.572   9.623   2.643  1.00 20.00     0.210 HD
ENDBRANCH   9  12
TORSDOF 1
ENDMDL
MODEL 5
REMARK VINA RESULT:      -5.0      1.848      2.967
REMARK  1 active torsions:
REMARK  status: ('A' for Active; 'I' for Inactive)
REMARK    1  A    between atoms: C9_9  and  O11_11 
ROOT
HETATM    1  C1  UNL     1     -33.857   7.305   5.553  1.00 20.00     0.052 A 
HETATM    2  C2  UNL     1     -32.752   8.786   3.969  1.00 20.00     0.049 A 
HETATM    3  C3  UNL     1     -33.669   6.264   4.659  1.00 20.00    -0.020 A 
HETATM    4  C4  UNL     1     -33.024   6.474   3.433  1.00 20.00    -0.043 A 
HETATM    5  C5  UNL     1     -32.555   7.729   3.078  1.00 20.00    -0.052 A 
HETATM    6  C6  UNL     1     -33.398   8.576   5.198  1.00 20.00     0.117 A 
HETATM    7  C7  UNL     1     -32.899   5.196   2.666  1.00 20.00     0.042 C 
HETATM    8  C8  UNL     1     -33.958   4.331   3.363  1.00 20.00     0.041 C 
HETATM    9  C9  UNL     1     -34.028   4.817   4.821  1.00 20.00     0.152 C 
HETATM   10  C10 UNL     1     -31.854   7.961   1.785  1.00 20.00     0.049 C 
HETATM   11  F12 UNL     1     -33.569   9.603   6.040  1.00 20.00    -0.206 F 
ENDROOT
BRANCH   9  12
HETATM   12  O11 UNL     1     -35.329   4.648   5.348  1.00 20.00    -0.391 OA
HETATM   13  H23 UNL     1     -35.372   3.753   5.725  1.00 20.00     0.210 HD
ENDBRANCH   9  12
TORSDOF 1
ENDMDL
MODEL 6
REMARK VINA RESULT:      -5.0      1.665      2.883
REMARK  1 active torsions:
REMARK  status: ('A' for Active; 'I' for Inactive)
REMARK    1  A    between atoms: C9_9  and  O11_11 
ROOT
HETATM    1  C1  UNL     1     -32.970   8.129   5.034  1.00 20.00     0.052 A 
HETATM    2  C2  UNL     1     -32.482   7.462   2.745  1.00 20.00     0.049 A 
HETATM    3  C3  UNL     1     -33.477   6.860   5.260  1.00 20.00    -0.020 A 
HETATM    4  C4  UNL     1     -33.483   5.895   4.244  1.00 20.00    -0.043 A 
HETATM    5  C5  UNL     1     -32.982   6.181   2.984  1.00 20.00    -0.052 A 
HETATM    6  C6  UNL     1     -32.476   8.430   3.763  1.00 20.00     0.117 A 
HETATM    7  C7  UNL     1     -34.032   4.595   4.741  1.00 20.00     0.042 C 
HETATM    8  C8  UNL     1     -34.778   5.055   6.001  1.00 20.00     0.041 C 
HETATM    9  C9  UNL     1     -34.021   6.284   6.533  1.00 20.00     0.152 C 
HETATM   10  C10 UNL     1     -32.968   5.159   1.901  1.00 20.00     0.049 C 
HETATM   11  F12 UNL     1     -31.984   9.650   3.514  1.00 20.00    -0.206 F 
ENDROOT
BRANCH   9  12
HETATM   12  O11 UNL     1     -34.901   7.176   7.187  1.00 20.00    -0.391 OA
HETATM   13  H23 UNL     1     -34.832   8.033   6.731  1.00 20.00     0.210 HD
ENDBRANCH   9  12
TORSDOF 1
ENDMDL
MODEL 7
REMARK VINA RESULT:      -4.8     12.046     13.309
REMARK  1 active torsions:
REMARK  status: ('A' for Active; 'I' for Inactive)
REMARK    1  A    between atoms: C9_9  and  O11_11 
ROOT
HETATM    1  C1  UNL     1     -33.259  16.247  -2.880  1.00 20.00     0.052 A 
HETATM    2  C2  UNL     1     -34.612  18.246  -2.572  1.00 20.00     0.049 A 
HETATM    3  C3  UNL     1     -33.842  16.085  -4.126  1.00 20.00    -0.020 A 
HETATM    4  C4  UNL     1     -34.797  16.994  -4.598  1.00 20.00    -0.043 A 
HETATM    5  C5  UNL     1     -35.187  18.083  -3.835  1.00 20.00    -0.052 A 
HETATM    6  C6  UNL     1     -33.655  17.334  -2.099  1.00 20.00     0.117 A 
HETATM    7  C7  UNL     1     -35.242  16.635  -5.981  1.00 20.00     0.042 C 
HETATM    8  C8  UNL     1     -34.801  15.167  -6.059  1.00 20.00     0.041 C 
HETATM    9  C9  UNL     1     -33.561  15.035  -5.159  1.00 20.00     0.152 C 
HETATM   10  C10 UNL     1     -36.188  19.065  -4.333  1.00 20.00     0.049 C 
HETATM   11  F12 UNL     1     -33.111  17.514  -0.888  1.00 20.00    -0.206 F 
ENDROOT
BRANCH   9  12
HETATM   12  O11 UNL     1     -33.481  13.741  -4.596  1.00 20.00    -0.391 OA
HETATM   13  H23 UNL     1     -33.569  13.842  -3.632  1.00 20.00     0.210 HD
ENDBRANCH   9  12
TORSDOF 1
ENDMDL
MODEL 8
REMARK VINA RESULT:      -4.7      2.283      3.507
REMARK  1 active torsions:
REMARK  status: ('A' for Active; 'I' for Inactive)
REMARK    1  A    between atoms: C9_9  and  O11_11 
ROOT
HETATM    1  C1  UNL     1     -34.211   4.982   4.769  1.00 20.00     0.052 A 
HETATM    2  C2  UNL     1     -34.376   6.870   6.296  1.00 20.00     0.049 A 
HETATM    3  C3  UNL     1     -33.419   5.763   3.943  1.00 20.00    -0.020 A 
HETATM    4  C4  UNL     1     -33.102   7.083   4.287  1.00 20.00    -0.043 A 
HETATM    5  C5  UNL     1     -33.568   7.647   5.464  1.00 20.00    -0.052 A 
HETATM    6  C6  UNL     1     -34.695   5.546   5.951  1.00 20.00     0.117 A 
HETATM    7  C7  UNL     1     -32.200   7.703   3.265  1.00 20.00     0.042 C 
HETATM    8  C8  UNL     1     -32.425   6.766   2.071  1.00 20.00     0.041 C 
HETATM    9  C9  UNL     1     -32.751   5.381   2.656  1.00 20.00     0.152 C 
HETATM   10  C10 UNL     1     -33.223   9.043   5.848  1.00 20.00     0.049 C 
HETATM   11  F12 UNL     1     -35.466   4.817   6.768  1.00 20.00    -0.206 F 
ENDROOT
BRANCH   9  12
HETATM   12  O11 UNL     1     -33.616   4.661   1.800  1.00 20.00    -0.391 OA
HETATM   13  H23 UNL     1     -34.342   4.317   2.349  1.00 20.00     0.210 HD
ENDBRANCH   9  12
TORSDOF 1
ENDMDL
MODEL 9
REMARK VINA RESULT:      -4.7      1.515      2.268
REMARK  1 active torsions:
REMARK  status: ('A' for Active; 'I' for Inactive)
REMARK    1  A    between atoms: C9_9  and  O11_11 
ROOT
HETATM    1  C1  UNL     1     -32.660   7.513   3.281  1.00 20.00     0.052 A 
HETATM    2  C2  UNL     1     -33.161   8.507   5.445  1.00 20.00     0.049 A 
HETATM    3  C3  UNL     1     -33.310   6.363   3.696  1.00 20.00    -0.020 A 
HETATM    4  C4  UNL     1     -33.887   6.281   4.970  1.00 20.00    -0.043 A 
HETATM    5  C5  UNL     1     -33.826   7.348   5.852  1.00 20.00    -0.052 A 
HETATM    6  C6  UNL     1     -32.582   8.589   4.168  1.00 20.00     0.117 A 
HETATM    7  C7  UNL     1     -34.569   4.964   5.167  1.00 20.00     0.042 C 
HETATM    8  C8  UNL     1     -33.914   4.126   4.061  1.00 20.00     0.041 C 
HETATM    9  C9  UNL     1     -33.562   5.102   2.925  1.00 20.00     0.152 C 
HETATM   10  C10 UNL     1     -34.450   7.279   7.202  1.00 20.00     0.049 C 
HETATM   11  F12 UNL     1     -31.956   9.713   3.796  1.00 20.00    -0.206 F 
ENDROOT
BRANCH   9  12
HETATM   12  O11 UNL     1     -32.413   4.668   2.224  1.00 20.00    -0.391 OA
HETATM   13  H23 UNL     1     -32.362   5.190   1.405  1.00 20.00     0.210 HD
ENDBRANCH   9  12
TORSDOF 1
ENDMDL
