MODEL 1
REMARK VINA RESULT:      -3.4      0.000      0.000
REMARK  3 active torsions:
REMARK  status: ('A' for Active; 'I' for Inactive)
REMARK    1  A    between atoms: C3_3  and  C5_5 
REMARK    2  A    between atoms: C5_5  and  C6_6 
REMARK    3  A    between atoms: C6_6  and  S9_9 
ROOT
HETATM    1  C1  UNL     1     -34.129  15.445  -7.255  1.00 20.00     0.281 C 
HETATM    2  C2  UNL     1     -34.687  16.844  -7.037  1.00 20.00     0.106 C 
HETATM    3  C3  UNL     1     -34.169  15.393  -4.901  1.00 20.00     0.282 C 
HETATM    4  N7  UNL     1     -33.338  15.106  -6.072  1.00 20.00     0.098 N 
HETATM    5  S8  UNL     1     -35.192  16.845  -5.301  1.00 20.00    -0.132 SA
HETATM    6  H22 UNL     1     -33.070  14.124  -6.088  1.00 20.00     0.317 HD
ENDROOT
BRANCH   3   7
HETATM    7  C5  UNL     1     -33.297  15.658  -3.685  1.00 20.00     0.056 C 
BRANCH   7   8
HETATM    8  C6  UNL     1     -33.280  17.142  -3.332  1.00 20.00     0.076 C 
BRANCH   8   9
HETATM    9  S9  UNL     1     -33.603  17.381  -1.562  1.00 20.00    -0.173 SA
HETATM   10  C4  UNL     1     -32.173  18.413  -1.171  1.00 20.00     0.089 C 
ENDBRANCH   8   9
ENDBRANCH   7   8
ENDBRANCH   3   7
TORSDOF 3
ENDMDL
MODEL 2
REMARK VINA RESULT:      -3.3      1.936      2.225
REMARK  3 active torsions:
REMARK  status: ('A' for Active; 'I' for Inactive)
REMARK    1  A    between atoms: C3_3  and  C5_5 
REMARK    2  A    between atoms: C5_5  and  C6_6 
REMARK    3  A    between atoms: C6_6  and  S9_9 
ROOT
HETATM    1  C1  UNL     1     -35.449  16.276  -5.372  1.00 20.00     0.281 C 
HETATM    2  C2  UNL     1     -35.058  14.812  -5.227  1.00 20.00     0.106 C 
HETATM    3  C3  UNL     1     -33.692  16.580  -3.834  1.00 20.00     0.282 C 
HETATM    4  N7  UNL     1     -35.079  16.947  -4.125  1.00 20.00     0.098 N 
HETATM    5  S8  UNL     1     -33.446  14.871  -4.410  1.00 20.00    -0.132 SA
HETATM    6  H22 UNL     1     -35.170  17.956  -4.220  1.00 20.00     0.317 HD
ENDROOT
BRANCH   3   7
HETATM    7  C5  UNL     1     -33.414  16.699  -2.344  1.00 20.00     0.056 C 
BRANCH   7   8
HETATM    8  C6  UNL     1     -34.016  17.978  -1.771  1.00 20.00     0.076 C 
BRANCH   8   9
HETATM    9  S9  UNL     1     -33.370  18.297  -0.106  1.00 20.00    -0.173 SA
HETATM   10  C4  UNL     1     -31.642  18.590  -0.546  1.00 20.00     0.089 C 
ENDBRANCH   8   9
ENDBRANCH   7   8
ENDBRANCH   3   7
TORSDOF 3
ENDMDL
MODEL 3
REMARK VINA RESULT:      -3.2      2.162      4.399
REMARK  3 active torsions:
REMARK  status: ('A' for Active; 'I' for Inactive)
REMARK    1  A    between atoms: C3_3  and  C5_5 
REMARK    2  A    between atoms: C5_5  and  C6_6 
REMARK    3  A    between atoms: C6_6  and  S9_9 
ROOT
HETATM    1  C1  UNL     1     -33.848  17.766  -1.649  1.00 20.00     0.281 C 
HETATM    2  C2  UNL     1     -34.733  18.445  -2.684  1.00 20.00     0.106 C 
HETATM    3  C3  UNL     1     -33.337  16.351  -3.460  1.00 20.00     0.282 C 
HETATM    4  N7  UNL     1     -33.716  16.364  -2.046  1.00 20.00     0.098 N 
HETATM    5  S8  UNL     1     -34.160  17.765  -4.259  1.00 20.00    -0.132 SA
HETATM    6  H22 UNL     1     -33.009  15.896  -1.483  1.00 20.00     0.317 HD
ENDROOT
BRANCH   3   7
HETATM    7  C5  UNL     1     -33.754  15.041  -4.108  1.00 20.00     0.056 C 
BRANCH   7   8
HETATM    8  C6  UNL     1     -33.939  15.205  -5.614  1.00 20.00     0.076 C 
BRANCH   8   9
HETATM    9  S9  UNL     1     -35.630  14.762  -6.100  1.00 20.00    -0.173 SA
HETATM   10  C4  UNL     1     -36.047  13.721  -4.684  1.00 20.00     0.089 C 
ENDBRANCH   8   9
ENDBRANCH   7   8
ENDBRANCH   3   7
TORSDOF 3
ENDMDL
MODEL 4
REMARK VINA RESULT:      -3.2      2.136      4.551
REMARK  3 active torsions:
REMARK  status: ('A' for Active; 'I' for Inactive)
REMARK    1  A    between atoms: C3_3  and  C5_5 
REMARK    2  A    between atoms: C5_5  and  C6_6 
REMARK    3  A    between atoms: C6_6  and  S9_9 
ROOT
HETATM    1  C1  UNL     1     -33.871  17.860  -1.682  1.00 20.00     0.281 C 
HETATM    2  C2  UNL     1     -34.780  18.470  -2.739  1.00 20.00     0.106 C 
HETATM    3  C3  UNL     1     -33.338  16.380  -3.435  1.00 20.00     0.282 C 
HETATM    4  N7  UNL     1     -33.706  16.446  -2.019  1.00 20.00     0.098 N 
HETATM    5  S8  UNL     1     -34.202  17.737  -4.287  1.00 20.00    -0.132 SA
HETATM    6  H22 UNL     1     -32.983  16.020  -1.442  1.00 20.00     0.317 HD
ENDROOT
BRANCH   3   7
HETATM    7  C5  UNL     1     -33.726  15.033  -4.022  1.00 20.00     0.056 C 
BRANCH   7   8
HETATM    8  C6  UNL     1     -34.029  15.148  -5.512  1.00 20.00     0.076 C 
BRANCH   8   9
HETATM    9  S9  UNL     1     -35.723  14.603  -5.863  1.00 20.00    -0.173 SA
HETATM   10  C4  UNL     1     -35.939  15.424  -7.458  1.00 20.00     0.089 C 
ENDBRANCH   8   9
ENDBRANCH   7   8
ENDBRANCH   3   7
TORSDOF 3
ENDMDL
MODEL 5
REMARK VINA RESULT:      -2.9     13.348     14.778
REMARK  3 active torsions:
REMARK  status: ('A' for Active; 'I' for Inactive)
REMARK    1  A    between atoms: C3_3  and  C5_5 
REMARK    2  A    between atoms: C5_5  and  C6_6 
REMARK    3  A    between atoms: C6_6  and  S9_9 
ROOT
HETATM    1  C1  UNL     1     -40.154  15.143   9.315  1.00 20.00     0.281 C 
HETATM    2  C2  UNL     1     -41.073  14.379  10.258  1.00 20.00     0.106 C 
HETATM    3  C3  UNL     1     -41.577  14.226   7.678  1.00 20.00     0.282 C 
HETATM    4  N7  UNL     1     -40.172  14.441   8.032  1.00 20.00     0.098 N 
HETATM    5  S8  UNL     1     -42.494  13.947   9.226  1.00 20.00    -0.132 SA
HETATM    6  H22 UNL     1     -39.703  14.990   7.314  1.00 20.00     0.317 HD
ENDROOT
BRANCH   3   7
HETATM    7  C5  UNL     1     -41.712  13.036   6.742  1.00 20.00     0.056 C 
BRANCH   7   8
HETATM    8  C6  UNL     1     -40.706  13.117   5.598  1.00 20.00     0.076 C 
BRANCH   8   9
HETATM    9  S9  UNL     1     -39.523  11.745   5.691  1.00 20.00    -0.173 SA
HETATM   10  C4  UNL     1     -39.030  11.704   3.953  1.00 20.00     0.089 C 
ENDBRANCH   8   9
ENDBRANCH   7   8
ENDBRANCH   3   7
TORSDOF 3
ENDMDL
MODEL 6
REMARK VINA RESULT:      -2.9      5.410      7.320
REMARK  3 active torsions:
REMARK  status: ('A' for Active; 'I' for Inactive)
REMARK    1  A    between atoms: C3_3  and  C5_5 
REMARK    2  A    between atoms: C5_5  and  C6_6 
REMARK    3  A    between atoms: C6_6  and  S9_9 
ROOT
HETATM    1  C1  UNL     1     -33.805  18.426  -0.057  1.00 20.00     0.281 C 
HETATM    2  C2  UNL     1     -32.590  18.125  -0.924  1.00 20.00     0.106 C 
HETATM    3  C3  UNL     1     -32.155  19.044   1.505  1.00 20.00     0.282 C 
HETATM    4  N7  UNL     1     -33.388  18.274   1.337  1.00 20.00     0.098 N 
HETATM    5  S8  UNL     1     -31.225  18.935  -0.057  1.00 20.00    -0.132 SA
HETATM    6  H22 UNL     1     -34.111  18.615   1.968  1.00 20.00     0.317 HD
ENDROOT
BRANCH   3   7
HETATM    7  C5  UNL     1     -31.339  18.495   2.663  1.00 20.00     0.056 C 
BRANCH   7   8
HETATM    8  C6  UNL     1     -29.898  18.992   2.609  1.00 20.00     0.076 C 
BRANCH   8   9
HETATM    9  S9  UNL     1     -29.253  19.263   4.283  1.00 20.00    -0.173 SA
HETATM   10  C4  UNL     1     -27.634  18.490   4.069  1.00 20.00     0.089 C 
ENDBRANCH   8   9
ENDBRANCH   7   8
ENDBRANCH   3   7
TORSDOF 3
ENDMDL
MODEL 7
REMARK VINA RESULT:      -2.8     11.984     13.242
REMARK  3 active torsions:
REMARK  status: ('A' for Active; 'I' for Inactive)
REMARK    1  A    between atoms: C3_3  and  C5_5 
REMARK    2  A    between atoms: C5_5  and  C6_6 
REMARK    3  A    between atoms: C6_6  and  S9_9 
ROOT
HETATM    1  C1  UNL     1     -34.749   6.142   6.515  1.00 20.00     0.281 C 
HETATM    2  C2  UNL     1     -34.485   4.964   5.587  1.00 20.00     0.106 C 
HETATM    3  C3  UNL     1     -33.745   7.353   4.763  1.00 20.00     0.282 C 
HETATM    4  N7  UNL     1     -33.744   7.161   6.214  1.00 20.00     0.098 N 
HETATM    5  S8  UNL     1     -34.101   5.739   3.999  1.00 20.00    -0.132 SA
HETATM    6  H22 UNL     1     -33.963   8.034   6.690  1.00 20.00     0.317 HD
ENDROOT
BRANCH   3   7
HETATM    7  C5  UNL     1     -32.402   7.892   4.298  1.00 20.00     0.056 C 
BRANCH   7   8
HETATM    8  C6  UNL     1     -32.573   8.883   3.151  1.00 20.00     0.076 C 
BRANCH   8   9
HETATM    9  S9  UNL     1     -32.153   8.103   1.567  1.00 20.00    -0.173 SA
HETATM   10  C4  UNL     1     -32.749   9.406   0.466  1.00 20.00     0.089 C 
ENDBRANCH   8   9
ENDBRANCH   7   8
ENDBRANCH   3   7
TORSDOF 3
ENDMDL
MODEL 8
REMARK VINA RESULT:      -2.8      2.216      4.616
REMARK  3 active torsions:
REMARK  status: ('A' for Active; 'I' for Inactive)
REMARK    1  A    between atoms: C3_3  and  C5_5 
REMARK    2  A    between atoms: C5_5  and  C6_6 
REMARK    3  A    between atoms: C6_6  and  S9_9 
ROOT
HETATM    1  C1  UNL     1     -32.687  14.783  -4.198  1.00 20.00     0.281 C 
HETATM    2  C2  UNL     1     -33.335  15.979  -3.515  1.00 20.00     0.106 C 
HETATM    3  C3  UNL     1     -34.340  15.203  -5.822  1.00 20.00     0.282 C 
HETATM    4  N7  UNL     1     -33.716  14.148  -5.023  1.00 20.00     0.098 N 
HETATM    5  S8  UNL     1     -34.362  16.716  -4.808  1.00 20.00    -0.132 SA
HETATM    6  H22 UNL     1     -33.305  13.438  -5.626  1.00 20.00     0.317 HD
ENDROOT
BRANCH   3   7
HETATM    7  C5  UNL     1     -35.748  14.799  -6.228  1.00 20.00     0.056 C 
BRANCH   7   8
HETATM    8  C6  UNL     1     -36.764  15.863  -5.827  1.00 20.00     0.076 C 
BRANCH   8   9
HETATM    9  S9  UNL     1     -37.347  16.771  -7.285  1.00 20.00    -0.173 SA
HETATM   10  C4  UNL     1     -39.055  17.041  -6.763  1.00 20.00     0.089 C 
ENDBRANCH   8   9
ENDBRANCH   7   8
ENDBRANCH   3   7
TORSDOF 3
ENDMDL
MODEL 9
REMARK VINA RESULT:      -2.7     24.418     25.605
REMARK  3 active torsions:
REMARK  status: ('A' for Active; 'I' for Inactive)
REMARK    1  A    between atoms: C3_3  and  C5_5 
REMARK    2  A    between atoms: C5_5  and  C6_6 
REMARK    3  A    between atoms: C6_6  and  S9_9 
ROOT
HETATM    1  C1  UNL     1     -27.708  -0.863  10.178  1.00 20.00     0.281 C 
HETATM    2  C2  UNL     1     -26.948  -0.330  11.384  1.00 20.00     0.106 C 
HETATM    3  C3  UNL     1     -26.820  -2.917  10.910  1.00 20.00     0.282 C 
HETATM    4  N7  UNL     1     -27.016  -2.071   9.731  1.00 20.00     0.098 N 
HETATM    5  S8  UNL     1     -26.540  -1.815  12.332  1.00 20.00    -0.132 SA
HETATM    6  H22 UNL     1     -27.565  -2.561   9.027  1.00 20.00     0.317 HD
ENDROOT
BRANCH   3   7
HETATM    7  C5  UNL     1     -25.638  -3.850  10.703  1.00 20.00     0.056 C 
BRANCH   7   8
HETATM    8  C6  UNL     1     -24.411  -3.086  10.216  1.00 20.00     0.076 C 
BRANCH   8   9
HETATM    9  S9  UNL     1     -23.292  -4.189   9.307  1.00 20.00    -0.173 SA
HETATM   10  C4  UNL     1     -23.166  -3.233   7.779  1.00 20.00     0.089 C 
ENDBRANCH   8   9
ENDBRANCH   7   8
ENDBRANCH   3   7
TORSDOF 3
ENDMDL
