MODEL 1
REMARK VINA RESULT:      -4.7      0.000      0.000
REMARK  5 active torsions:
REMARK  status: ('A' for Active; 'I' for Inactive)
REMARK    1  A    between atoms: C5_5  and  N10_10 
REMARK    2  A    between atoms: C6_6  and  C7_7 
REMARK    3  A    between atoms: C6_6  and  C8_8 
REMARK    4  A    between atoms: C7_7  and  C9_9 
REMARK    5  A    between atoms: C8_8  and  N10_10 
ROOT
HETATM    1  C1  UNL     1     -32.882   5.071   2.533  1.00 20.00     0.013 C 
HETATM    2  C2  UNL     1     -32.579   6.223   2.685  1.00 20.00    -0.087 C 
HETATM    3  C5  UNL     1     -32.209   7.628   2.867  1.00 20.00     0.362 C 
ENDROOT
BRANCH   3   4
HETATM    4  N10 UNL     1     -31.736   7.866   4.231  1.00 20.00     0.094 N 
HETATM    5  H27 UNL     1     -30.765   8.194   4.183  1.00 20.00     0.317 HD
BRANCH   4   6
HETATM    6  C8  UNL     1     -32.552   8.831   4.916  1.00 20.00     0.270 C 
BRANCH   6   7
HETATM    7  C6  UNL     1     -33.930   8.278   5.273  1.00 20.00     0.030 C 
BRANCH   7   8
HETATM    8  C7  UNL     1     -33.863   7.190   6.350  1.00 20.00     0.005 C 
BRANCH   8   9
HETATM    9  C9  UNL     1     -34.763   5.975   6.050  1.00 20.00    -0.023 C 
HETATM   10  C3  UNL     1     -35.432   6.151   4.684  1.00 20.00     0.009 C 
HETATM   11  C4  UNL     1     -33.992   4.655   6.081  1.00 20.00     0.009 C 
ENDBRANCH   8   9
ENDBRANCH   7   8
ENDBRANCH   6   7
ENDBRANCH   4   6
ENDBRANCH   3   4
TORSDOF 5
ENDMDL
MODEL 2
REMARK VINA RESULT:      -4.3      1.164      1.780
REMARK  5 active torsions:
REMARK  status: ('A' for Active; 'I' for Inactive)
REMARK    1  A    between atoms: C5_5  and  N10_10 
REMARK    2  A    between atoms: C6_6  and  C7_7 
REMARK    3  A    between atoms: C6_6  and  C8_8 
REMARK    4  A    between atoms: C7_7  and  C9_9 
REMARK    5  A    between atoms: C8_8  and  N10_10 
ROOT
HETATM    1  C1  UNL     1     -32.228   6.768   2.582  1.00 20.00     0.013 C 
HETATM    2  C2  UNL     1     -32.256   7.684   3.357  1.00 20.00    -0.087 C 
HETATM    3  C5  UNL     1     -32.286   8.803   4.303  1.00 20.00     0.362 C 
ENDROOT
BRANCH   3   4
HETATM    4  N10 UNL     1     -33.381   8.641   5.260  1.00 20.00     0.094 N 
HETATM    5  H27 UNL     1     -34.247   8.479   4.734  1.00 20.00     0.317 HD
BRANCH   4   6
HETATM    6  C8  UNL     1     -33.139   7.553   6.166  1.00 20.00     0.270 C 
BRANCH   6   7
HETATM    7  C6  UNL     1     -34.426   6.839   6.573  1.00 20.00     0.030 C 
BRANCH   7   8
HETATM    8  C7  UNL     1     -34.342   5.322   6.372  1.00 20.00     0.005 C 
BRANCH   8   9
HETATM    9  C9  UNL     1     -34.906   4.852   5.017  1.00 20.00    -0.023 C 
HETATM   10  C3  UNL     1     -35.590   6.024   4.307  1.00 20.00     0.009 C 
HETATM   11  C4  UNL     1     -33.828   4.258   4.109  1.00 20.00     0.009 C 
ENDBRANCH   8   9
ENDBRANCH   7   8
ENDBRANCH   6   7
ENDBRANCH   4   6
ENDBRANCH   3   4
TORSDOF 5
ENDMDL
MODEL 3
REMARK VINA RESULT:      -4.3      1.238      1.747
REMARK  5 active torsions:
REMARK  status: ('A' for Active; 'I' for Inactive)
REMARK    1  A    between atoms: C5_5  and  N10_10 
REMARK    2  A    between atoms: C6_6  and  C7_7 
REMARK    3  A    between atoms: C6_6  and  C8_8 
REMARK    4  A    between atoms: C7_7  and  C9_9 
REMARK    5  A    between atoms: C8_8  and  N10_10 
ROOT
HETATM    1  C1  UNL     1     -32.239   8.538   0.637  1.00 20.00     0.013 C 
HETATM    2  C2  UNL     1     -32.239   8.062   1.740  1.00 20.00    -0.087 C 
HETATM    3  C5  UNL     1     -32.238   7.478   3.083  1.00 20.00     0.362 C 
ENDROOT
BRANCH   3   4
HETATM    4  N10 UNL     1     -32.936   8.351   4.027  1.00 20.00     0.094 N 
HETATM    5  H27 UNL     1     -33.928   8.381   3.765  1.00 20.00     0.317 HD
BRANCH   4   6
HETATM    6  C8  UNL     1     -32.794   7.891   5.381  1.00 20.00     0.270 C 
BRANCH   6   7
HETATM    7  C6  UNL     1     -34.131   7.495   6.003  1.00 20.00     0.030 C 
BRANCH   7   8
HETATM    8  C7  UNL     1     -34.199   6.003   6.344  1.00 20.00     0.005 C 
BRANCH   8   9
HETATM    9  C9  UNL     1     -34.861   5.153   5.242  1.00 20.00    -0.023 C 
HETATM   10  C3  UNL     1     -35.696   6.053   4.325  1.00 20.00     0.009 C 
HETATM   11  C4  UNL     1     -33.839   4.376   4.410  1.00 20.00     0.009 C 
ENDBRANCH   8   9
ENDBRANCH   7   8
ENDBRANCH   6   7
ENDBRANCH   4   6
ENDBRANCH   3   4
TORSDOF 5
ENDMDL
MODEL 4
REMARK VINA RESULT:      -4.2      1.635      3.367
REMARK  5 active torsions:
REMARK  status: ('A' for Active; 'I' for Inactive)
REMARK    1  A    between atoms: C5_5  and  N10_10 
REMARK    2  A    between atoms: C6_6  and  C7_7 
REMARK    3  A    between atoms: C6_6  and  C8_8 
REMARK    4  A    between atoms: C7_7  and  C9_9 
REMARK    5  A    between atoms: C8_8  and  N10_10 
ROOT
HETATM    1  C1  UNL     1     -32.964   5.139   2.343  1.00 20.00     0.013 C 
HETATM    2  C2  UNL     1     -33.527   4.798   3.347  1.00 20.00    -0.087 C 
HETATM    3  C5  UNL     1     -34.214   4.378   4.571  1.00 20.00     0.362 C 
ENDROOT
BRANCH   3   4
HETATM    4  N10 UNL     1     -35.041   5.464   5.098  1.00 20.00     0.094 N 
HETATM    5  H27 UNL     1     -36.014   5.139   5.136  1.00 20.00     0.317 HD
BRANCH   4   6
HETATM    6  C8  UNL     1     -34.605   5.880   6.402  1.00 20.00     0.270 C 
BRANCH   6   7
HETATM    7  C6  UNL     1     -34.023   7.292   6.397  1.00 20.00     0.030 C 
BRANCH   7   8
HETATM    8  C7  UNL     1     -34.030   7.923   5.001  1.00 20.00     0.005 C 
BRANCH   8   9
HETATM    9  C9  UNL     1     -32.618   8.199   4.448  1.00 20.00    -0.023 C 
HETATM   10  C3  UNL     1     -32.703   8.536   2.956  1.00 20.00     0.009 C 
HETATM   11  C4  UNL     1     -31.910   9.331   5.192  1.00 20.00     0.009 C 
ENDBRANCH   8   9
ENDBRANCH   7   8
ENDBRANCH   6   7
ENDBRANCH   4   6
ENDBRANCH   3   4
TORSDOF 5
ENDMDL
MODEL 5
REMARK VINA RESULT:      -3.9      1.129      3.555
REMARK  5 active torsions:
REMARK  status: ('A' for Active; 'I' for Inactive)
REMARK    1  A    between atoms: C5_5  and  N10_10 
REMARK    2  A    between atoms: C6_6  and  C7_7 
REMARK    3  A    between atoms: C6_6  and  C8_8 
REMARK    4  A    between atoms: C7_7  and  C9_9 
REMARK    5  A    between atoms: C8_8  and  N10_10 
ROOT
HETATM    1  C1  UNL     1     -35.418   5.433   4.446  1.00 20.00     0.013 C 
HETATM    2  C2  UNL     1     -34.881   5.854   5.434  1.00 20.00    -0.087 C 
HETATM    3  C5  UNL     1     -34.228   6.367   6.641  1.00 20.00     0.362 C 
ENDROOT
BRANCH   3   4
HETATM    4  N10 UNL     1     -33.113   7.248   6.292  1.00 20.00     0.094 N 
HETATM    5  H27 UNL     1     -32.429   6.704   5.754  1.00 20.00     0.317 HD
BRANCH   4   6
HETATM    6  C8  UNL     1     -33.552   8.385   5.531  1.00 20.00     0.270 C 
BRANCH   6   7
HETATM    7  C6  UNL     1     -32.441   8.966   4.660  1.00 20.00     0.030 C 
BRANCH   7   8
HETATM    8  C7  UNL     1     -31.733   7.895   3.823  1.00 20.00     0.005 C 
BRANCH   8   9
HETATM    9  C9  UNL     1     -32.576   7.390   2.636  1.00 20.00    -0.023 C 
HETATM   10  C3  UNL     1     -32.061   8.011   1.334  1.00 20.00     0.009 C 
HETATM   11  C4  UNL     1     -32.568   5.865   2.519  1.00 20.00     0.009 C 
ENDBRANCH   8   9
ENDBRANCH   7   8
ENDBRANCH   6   7
ENDBRANCH   4   6
ENDBRANCH   3   4
TORSDOF 5
ENDMDL
MODEL 6
REMARK VINA RESULT:      -3.9      1.623      4.423
REMARK  5 active torsions:
REMARK  status: ('A' for Active; 'I' for Inactive)
REMARK    1  A    between atoms: C5_5  and  N10_10 
REMARK    2  A    between atoms: C6_6  and  C7_7 
REMARK    3  A    between atoms: C6_6  and  C8_8 
REMARK    4  A    between atoms: C7_7  and  C9_9 
REMARK    5  A    between atoms: C8_8  and  N10_10 
ROOT
HETATM    1  C1  UNL     1     -34.042   7.334   6.666  1.00 20.00     0.013 C 
HETATM    2  C2  UNL     1     -34.358   6.235   6.300  1.00 20.00    -0.087 C 
HETATM    3  C5  UNL     1     -34.745   4.893   5.857  1.00 20.00     0.362 C 
ENDROOT
BRANCH   3   4
HETATM    4  N10 UNL     1     -34.153   4.588   4.554  1.00 20.00     0.094 N 
HETATM    5  H27 UNL     1     -34.722   3.862   4.104  1.00 20.00     0.317 HD
BRANCH   4   6
HETATM    6  C8  UNL     1     -34.082   5.753   3.717  1.00 20.00     0.270 C 
BRANCH   6   7
HETATM    7  C6  UNL     1     -32.898   5.705   2.754  1.00 20.00     0.030 C 
BRANCH   7   8
HETATM    8  C7  UNL     1     -32.006   6.947   2.861  1.00 20.00     0.005 C 
BRANCH   8   9
HETATM    9  C9  UNL     1     -32.780   8.226   3.235  1.00 20.00    -0.023 C 
HETATM   10  C3  UNL     1     -32.159   8.861   4.483  1.00 20.00     0.009 C 
HETATM   11  C4  UNL     1     -32.807   9.247   2.096  1.00 20.00     0.009 C 
ENDBRANCH   8   9
ENDBRANCH   7   8
ENDBRANCH   6   7
ENDBRANCH   4   6
ENDBRANCH   3   4
TORSDOF 5
ENDMDL
MODEL 7
REMARK VINA RESULT:      -3.8      1.305      2.727
REMARK  5 active torsions:
REMARK  status: ('A' for Active; 'I' for Inactive)
REMARK    1  A    between atoms: C5_5  and  N10_10 
REMARK    2  A    between atoms: C6_6  and  C7_7 
REMARK    3  A    between atoms: C6_6  and  C8_8 
REMARK    4  A    between atoms: C7_7  and  C9_9 
REMARK    5  A    between atoms: C8_8  and  N10_10 
ROOT
HETATM    1  C1  UNL     1     -32.580   9.078   0.411  1.00 20.00     0.013 C 
HETATM    2  C2  UNL     1     -32.592   8.870   1.593  1.00 20.00    -0.087 C 
HETATM    3  C5  UNL     1     -32.607   8.619   3.036  1.00 20.00     0.362 C 
ENDROOT
BRANCH   3   4
HETATM    4  N10 UNL     1     -32.097   7.280   3.333  1.00 20.00     0.094 N 
HETATM    5  H27 UNL     1     -32.100   7.153   4.352  1.00 20.00     0.317 HD
BRANCH   4   6
HETATM    6  C8  UNL     1     -32.887   6.258   2.703  1.00 20.00     0.270 C 
BRANCH   6   7
HETATM    7  C6  UNL     1     -33.582   5.353   3.716  1.00 20.00     0.030 C 
BRANCH   7   8
HETATM    8  C7  UNL     1     -34.852   5.987   4.293  1.00 20.00     0.005 C 
BRANCH   8   9
HETATM    9  C9  UNL     1     -34.811   6.156   5.824  1.00 20.00    -0.023 C 
HETATM   10  C3  UNL     1     -34.240   4.890   6.470  1.00 20.00     0.009 C 
HETATM   11  C4  UNL     1     -33.988   7.371   6.256  1.00 20.00     0.009 C 
ENDBRANCH   8   9
ENDBRANCH   7   8
ENDBRANCH   6   7
ENDBRANCH   4   6
ENDBRANCH   3   4
TORSDOF 5
ENDMDL
MODEL 8
REMARK VINA RESULT:      -3.7     12.178     12.855
REMARK  5 active torsions:
REMARK  status: ('A' for Active; 'I' for Inactive)
REMARK    1  A    between atoms: C5_5  and  N10_10 
REMARK    2  A    between atoms: C6_6  and  C7_7 
REMARK    3  A    between atoms: C6_6  and  C8_8 
REMARK    4  A    between atoms: C7_7  and  C9_9 
REMARK    5  A    between atoms: C8_8  and  N10_10 
ROOT
HETATM    1  C1  UNL     1     -28.462  18.579   3.653  1.00 20.00     0.013 C 
HETATM    2  C2  UNL     1     -29.640  18.796   3.567  1.00 20.00    -0.087 C 
HETATM    3  C5  UNL     1     -31.076  19.063   3.464  1.00 20.00     0.362 C 
ENDROOT
BRANCH   3   4
HETATM    4  N10 UNL     1     -31.670  18.286   2.376  1.00 20.00     0.094 N 
HETATM    5  H27 UNL     1     -32.681  18.464   2.367  1.00 20.00     0.317 HD
BRANCH   4   6
HETATM    6  C8  UNL     1     -31.094  18.626   1.104  1.00 20.00     0.270 C 
BRANCH   6   7
HETATM    7  C6  UNL     1     -32.150  19.028   0.077  1.00 20.00     0.030 C 
BRANCH   7   8
HETATM    8  C7  UNL     1     -32.119  18.140  -1.172  1.00 20.00     0.005 C 
BRANCH   8   9
HETATM    9  C9  UNL     1     -33.457  17.430  -1.452  1.00 20.00    -0.023 C 
HETATM   10  C3  UNL     1     -34.565  18.470  -1.645  1.00 20.00     0.009 C 
HETATM   11  C4  UNL     1     -33.390  16.515  -2.675  1.00 20.00     0.009 C 
ENDBRANCH   8   9
ENDBRANCH   7   8
ENDBRANCH   6   7
ENDBRANCH   4   6
ENDBRANCH   3   4
TORSDOF 5
ENDMDL
MODEL 9
REMARK VINA RESULT:      -3.7      1.191      2.910
REMARK  5 active torsions:
REMARK  status: ('A' for Active; 'I' for Inactive)
REMARK    1  A    between atoms: C5_5  and  N10_10 
REMARK    2  A    between atoms: C6_6  and  C7_7 
REMARK    3  A    between atoms: C6_6  and  C8_8 
REMARK    4  A    between atoms: C7_7  and  C9_9 
REMARK    5  A    between atoms: C8_8  and  N10_10 
ROOT
HETATM    1  C1  UNL     1     -32.732   8.524   5.319  1.00 20.00     0.013 C 
HETATM    2  C2  UNL     1     -32.700   8.606   4.122  1.00 20.00    -0.087 C 
HETATM    3  C5  UNL     1     -32.663   8.710   2.661  1.00 20.00     0.362 C 
ENDROOT
BRANCH   3   4
HETATM    4  N10 UNL     1     -32.290   7.429   2.061  1.00 20.00     0.094 N 
HETATM    5  H27 UNL     1     -31.368   7.534   1.623  1.00 20.00     0.317 HD
BRANCH   4   6
HETATM    6  C8  UNL     1     -32.259   6.374   3.036  1.00 20.00     0.270 C 
BRANCH   6   7
HETATM    7  C6  UNL     1     -33.417   5.394   2.869  1.00 20.00     0.030 C 
BRANCH   7   8
HETATM    8  C7  UNL     1     -33.651   4.544   4.123  1.00 20.00     0.005 C 
BRANCH   8   9
HETATM    9  C9  UNL     1     -34.858   5.009   4.960  1.00 20.00    -0.023 C 
HETATM   10  C3  UNL     1     -34.387   5.452   6.349  1.00 20.00     0.009 C 
HETATM   11  C4  UNL     1     -35.631   6.146   4.291  1.00 20.00     0.009 C 
ENDBRANCH   8   9
ENDBRANCH   7   8
ENDBRANCH   6   7
ENDBRANCH   4   6
ENDBRANCH   3   4
TORSDOF 5
ENDMDL
