MODEL 1
REMARK VINA RESULT:      -5.4      0.000      0.000
REMARK  3 active torsions:
REMARK  status: ('A' for Active; 'I' for Inactive)
REMARK    1  A    between atoms: C3_3  and  C4_4 
REMARK    2  A    between atoms: C3_3  and  C5_5 
REMARK    3  A    between atoms: C5_5  and  C6_6 
ROOT
HETATM    1  C1  UNL     1     -32.129   8.075   3.533  1.00 20.00     0.012 C 
HETATM    2  C2  UNL     1     -32.570   6.987   3.286  1.00 20.00    -0.110 C 
HETATM    3  C4  UNL     1     -33.107   5.656   2.975  1.00 20.00     0.171 C 
ENDROOT
BRANCH   3   4
HETATM    4  C3  UNL     1     -33.995   5.113   4.079  1.00 20.00     0.146 C 
HETATM    5  O7  UNL     1     -34.061   3.913   4.344  1.00 20.00    -0.297 OA
BRANCH   4   6
HETATM    6  C5  UNL     1     -34.801   6.154   4.841  1.00 20.00     0.196 C 
BRANCH   6   7
HETATM    7  C6  UNL     1     -34.476   6.194   6.316  1.00 20.00     0.394 C 
HETATM    8  F8  UNL     1     -35.372   5.462   7.015  1.00 20.00    -0.171 F 
HETATM    9  F9  UNL     1     -33.251   5.685   6.567  1.00 20.00    -0.171 F 
HETATM   10  F10 UNL     1     -34.516   7.454   6.798  1.00 20.00    -0.171 F 
ENDBRANCH   6   7
ENDBRANCH   4   6
ENDBRANCH   3   4
TORSDOF 3
ENDMDL
MODEL 2
REMARK VINA RESULT:      -5.4      1.954      2.643
REMARK  3 active torsions:
REMARK  status: ('A' for Active; 'I' for Inactive)
REMARK    1  A    between atoms: C3_3  and  C4_4 
REMARK    2  A    between atoms: C3_3  and  C5_5 
REMARK    3  A    between atoms: C5_5  and  C6_6 
ROOT
HETATM    1  C1  UNL     1     -33.021   5.092   2.630  1.00 20.00     0.012 C 
HETATM    2  C2  UNL     1     -32.645   6.196   2.917  1.00 20.00    -0.110 C 
HETATM    3  C4  UNL     1     -32.181   7.545   3.261  1.00 20.00     0.171 C 
ENDROOT
BRANCH   3   4
HETATM    4  C3  UNL     1     -32.860   8.097   4.501  1.00 20.00     0.146 C 
HETATM    5  O7  UNL     1     -32.390   9.028   5.153  1.00 20.00    -0.297 OA
BRANCH   4   6
HETATM    6  C5  UNL     1     -34.168   7.422   4.885  1.00 20.00     0.196 C 
BRANCH   6   7
HETATM    7  C6  UNL     1     -34.123   6.773   6.249  1.00 20.00     0.394 C 
HETATM    8  F8  UNL     1     -34.627   7.609   7.184  1.00 20.00    -0.171 F 
HETATM    9  F9  UNL     1     -34.854   5.638   6.282  1.00 20.00    -0.171 F 
HETATM   10  F10 UNL     1     -32.858   6.471   6.612  1.00 20.00    -0.171 F 
ENDBRANCH   6   7
ENDBRANCH   4   6
ENDBRANCH   3   4
TORSDOF 3
ENDMDL
MODEL 3
REMARK VINA RESULT:      -5.2      2.702      3.574
REMARK  3 active torsions:
REMARK  status: ('A' for Active; 'I' for Inactive)
REMARK    1  A    between atoms: C3_3  and  C4_4 
REMARK    2  A    between atoms: C3_3  and  C5_5 
REMARK    3  A    between atoms: C5_5  and  C6_6 
ROOT
HETATM    1  C1  UNL     1     -32.984   5.003   2.521  1.00 20.00     0.012 C 
HETATM    2  C2  UNL     1     -33.626   5.270   3.499  1.00 20.00    -0.110 C 
HETATM    3  C4  UNL     1     -34.417   5.590   4.694  1.00 20.00     0.171 C 
ENDROOT
BRANCH   3   4
HETATM    4  C3  UNL     1     -33.930   6.844   5.397  1.00 20.00     0.146 C 
HETATM    5  O7  UNL     1     -33.555   6.842   6.569  1.00 20.00    -0.297 OA
BRANCH   4   6
HETATM    6  C5  UNL     1     -33.934   8.110   4.553  1.00 20.00     0.196 C 
BRANCH   6   7
HETATM    7  C6  UNL     1     -32.548   8.653   4.291  1.00 20.00     0.394 C 
HETATM    8  F8  UNL     1     -32.535   9.376   3.149  1.00 20.00    -0.171 F 
HETATM    9  F9  UNL     1     -32.138   9.463   5.290  1.00 20.00    -0.171 F 
HETATM   10  F10 UNL     1     -31.644   7.660   4.155  1.00 20.00    -0.171 F 
ENDBRANCH   6   7
ENDBRANCH   4   6
ENDBRANCH   3   4
TORSDOF 3
ENDMDL
MODEL 4
REMARK VINA RESULT:      -5.0      3.206      4.373
REMARK  3 active torsions:
REMARK  status: ('A' for Active; 'I' for Inactive)
REMARK    1  A    between atoms: C3_3  and  C4_4 
REMARK    2  A    between atoms: C3_3  and  C5_5 
REMARK    3  A    between atoms: C5_5  and  C6_6 
ROOT
HETATM    1  C1  UNL     1     -34.785   5.115   5.075  1.00 20.00     0.012 C 
HETATM    2  C2  UNL     1     -34.348   6.129   5.545  1.00 20.00    -0.110 C 
HETATM    3  C4  UNL     1     -33.817   7.368   6.127  1.00 20.00     0.171 C 
ENDROOT
BRANCH   3   4
HETATM    4  C3  UNL     1     -33.139   8.252   5.098  1.00 20.00     0.146 C 
HETATM    5  O7  UNL     1     -32.389   9.177   5.411  1.00 20.00    -0.297 OA
BRANCH   4   6
HETATM    6  C5  UNL     1     -33.446   7.919   3.646  1.00 20.00     0.196 C 
BRANCH   6   7
HETATM    7  C6  UNL     1     -32.284   7.275   2.925  1.00 20.00     0.394 C 
HETATM    8  F8  UNL     1     -32.136   7.816   1.696  1.00 20.00    -0.171 F 
HETATM    9  F9  UNL     1     -31.125   7.458   3.593  1.00 20.00    -0.171 F 
HETATM   10  F10 UNL     1     -32.474   5.948   2.766  1.00 20.00    -0.171 F 
ENDBRANCH   6   7
ENDBRANCH   4   6
ENDBRANCH   3   4
TORSDOF 3
ENDMDL
MODEL 5
REMARK VINA RESULT:      -4.8      1.344      1.520
REMARK  3 active torsions:
REMARK  status: ('A' for Active; 'I' for Inactive)
REMARK    1  A    between atoms: C3_3  and  C4_4 
REMARK    2  A    between atoms: C3_3  and  C5_5 
REMARK    3  A    between atoms: C5_5  and  C6_6 
ROOT
HETATM    1  C1  UNL     1     -32.189   7.074   2.733  1.00 20.00     0.012 C 
HETATM    2  C2  UNL     1     -32.904   6.184   3.104  1.00 20.00    -0.110 C 
HETATM    3  C4  UNL     1     -33.774   5.090   3.552  1.00 20.00     0.171 C 
ENDROOT
BRANCH   3   4
HETATM    4  C3  UNL     1     -34.873   5.564   4.487  1.00 20.00     0.146 C 
HETATM    5  O7  UNL     1     -35.986   5.897   4.083  1.00 20.00    -0.297 OA
BRANCH   4   6
HETATM    6  C5  UNL     1     -34.505   5.599   5.962  1.00 20.00     0.196 C 
BRANCH   6   7
HETATM    7  C6  UNL     1     -34.035   6.959   6.425  1.00 20.00     0.394 C 
HETATM    8  F8  UNL     1     -34.783   7.384   7.468  1.00 20.00    -0.171 F 
HETATM    9  F9  UNL     1     -32.749   6.924   6.834  1.00 20.00    -0.171 F 
HETATM   10  F10 UNL     1     -34.142   7.880   5.445  1.00 20.00    -0.171 F 
ENDBRANCH   6   7
ENDBRANCH   4   6
ENDBRANCH   3   4
TORSDOF 3
ENDMDL
MODEL 6
REMARK VINA RESULT:      -4.8      2.077      2.577
REMARK  3 active torsions:
REMARK  status: ('A' for Active; 'I' for Inactive)
REMARK    1  A    between atoms: C3_3  and  C4_4 
REMARK    2  A    between atoms: C3_3  and  C5_5 
REMARK    3  A    between atoms: C5_5  and  C6_6 
ROOT
HETATM    1  C1  UNL     1     -32.170   7.549   2.222  1.00 20.00     0.012 C 
HETATM    2  C2  UNL     1     -32.262   7.911   3.362  1.00 20.00    -0.110 C 
HETATM    3  C4  UNL     1     -32.369   8.359   4.756  1.00 20.00     0.171 C 
ENDROOT
BRANCH   3   4
HETATM    4  C3  UNL     1     -33.336   7.516   5.567  1.00 20.00     0.146 C 
HETATM    5  O7  UNL     1     -33.036   7.032   6.658  1.00 20.00    -0.297 OA
BRANCH   4   6
HETATM    6  C5  UNL     1     -34.706   7.308   4.941  1.00 20.00     0.196 C 
BRANCH   6   7
HETATM    7  C6  UNL     1     -35.044   5.851   4.721  1.00 20.00     0.394 C 
HETATM    8  F8  UNL     1     -36.245   5.735   4.112  1.00 20.00    -0.171 F 
HETATM    9  F9  UNL     1     -34.129   5.245   3.936  1.00 20.00    -0.171 F 
HETATM   10  F10 UNL     1     -35.113   5.177   5.888  1.00 20.00    -0.171 F 
ENDBRANCH   6   7
ENDBRANCH   4   6
ENDBRANCH   3   4
TORSDOF 3
ENDMDL
MODEL 7
REMARK VINA RESULT:      -4.8      1.974      2.480
REMARK  3 active torsions:
REMARK  status: ('A' for Active; 'I' for Inactive)
REMARK    1  A    between atoms: C3_3  and  C4_4 
REMARK    2  A    between atoms: C3_3  and  C5_5 
REMARK    3  A    between atoms: C5_5  and  C6_6 
ROOT
HETATM    1  C1  UNL     1     -32.528   8.948   1.098  1.00 20.00     0.012 C 
HETATM    2  C2  UNL     1     -32.376   8.218   2.039  1.00 20.00    -0.110 C 
HETATM    3  C4  UNL     1     -32.187   7.320   3.185  1.00 20.00     0.171 C 
ENDROOT
BRANCH   3   4
HETATM    4  C3  UNL     1     -32.958   7.770   4.412  1.00 20.00     0.146 C 
HETATM    5  O7  UNL     1     -32.636   8.758   5.071  1.00 20.00    -0.297 OA
BRANCH   4   6
HETATM    6  C5  UNL     1     -34.163   6.915   4.776  1.00 20.00     0.196 C 
BRANCH   6   7
HETATM    7  C6  UNL     1     -34.195   6.523   6.235  1.00 20.00     0.394 C 
HETATM    8  F8  UNL     1     -34.600   7.567   6.993  1.00 20.00    -0.171 F 
HETATM    9  F9  UNL     1     -35.052   5.504   6.455  1.00 20.00    -0.171 F 
HETATM   10  F10 UNL     1     -32.974   6.151   6.675  1.00 20.00    -0.171 F 
ENDBRANCH   6   7
ENDBRANCH   4   6
ENDBRANCH   3   4
TORSDOF 3
ENDMDL
MODEL 8
REMARK VINA RESULT:      -4.7      2.662      3.683
REMARK  3 active torsions:
REMARK  status: ('A' for Active; 'I' for Inactive)
REMARK    1  A    between atoms: C3_3  and  C4_4 
REMARK    2  A    between atoms: C3_3  and  C5_5 
REMARK    3  A    between atoms: C5_5  and  C6_6 
ROOT
HETATM    1  C1  UNL     1     -34.833   5.353   6.729  1.00 20.00     0.012 C 
HETATM    2  C2  UNL     1     -34.548   5.232   5.569  1.00 20.00    -0.110 C 
HETATM    3  C4  UNL     1     -34.204   5.077   4.150  1.00 20.00     0.171 C 
ENDROOT
BRANCH   3   4
HETATM    4  C3  UNL     1     -33.381   6.236   3.619  1.00 20.00     0.146 C 
HETATM    5  O7  UNL     1     -32.660   6.135   2.627  1.00 20.00    -0.297 OA
BRANCH   4   6
HETATM    6  C5  UNL     1     -33.508   7.537   4.396  1.00 20.00     0.196 C 
BRANCH   6   7
HETATM    7  C6  UNL     1     -32.380   8.505   4.122  1.00 20.00     0.394 C 
HETATM    8  F8  UNL     1     -32.300   9.425   5.109  1.00 20.00    -0.171 F 
HETATM    9  F9  UNL     1     -31.189   7.872   4.059  1.00 20.00    -0.171 F 
HETATM   10  F10 UNL     1     -32.568   9.168   2.961  1.00 20.00    -0.171 F 
ENDBRANCH   6   7
ENDBRANCH   4   6
ENDBRANCH   3   4
TORSDOF 3
ENDMDL
MODEL 9
REMARK VINA RESULT:      -4.6      1.864      2.505
REMARK  3 active torsions:
REMARK  status: ('A' for Active; 'I' for Inactive)
REMARK    1  A    between atoms: C3_3  and  C4_4 
REMARK    2  A    between atoms: C3_3  and  C5_5 
REMARK    3  A    between atoms: C5_5  and  C6_6 
ROOT
HETATM    1  C1  UNL     1     -32.867   9.480   1.346  1.00 20.00     0.012 C 
HETATM    2  C2  UNL     1     -32.719   9.069   2.464  1.00 20.00    -0.110 C 
HETATM    3  C4  UNL     1     -32.535   8.572   3.832  1.00 20.00     0.171 C 
ENDROOT
BRANCH   3   4
HETATM    4  C3  UNL     1     -33.019   7.144   4.006  1.00 20.00     0.146 C 
HETATM    5  O7  UNL     1     -32.852   6.281   3.145  1.00 20.00    -0.297 OA
BRANCH   4   6
HETATM    6  C5  UNL     1     -33.726   6.849   5.320  1.00 20.00     0.196 C 
BRANCH   6   7
HETATM    7  C6  UNL     1     -34.728   5.722   5.215  1.00 20.00     0.394 C 
HETATM    8  F8  UNL     1     -35.295   5.485   6.419  1.00 20.00    -0.171 F 
HETATM    9  F9  UNL     1     -35.721   6.022   4.350  1.00 20.00    -0.171 F 
HETATM   10  F10 UNL     1     -34.143   4.576   4.807  1.00 20.00    -0.171 F 
ENDBRANCH   6   7
ENDBRANCH   4   6
ENDBRANCH   3   4
TORSDOF 3
ENDMDL
