MODEL 1
REMARK VINA RESULT:      -4.6      0.000      0.000
REMARK  5 active torsions:
REMARK  status: ('A' for Active; 'I' for Inactive)
REMARK    1  A    between atoms: C1_1  and  C9_9 
REMARK    2  A    between atoms: C6_6  and  C7_7 
REMARK    3  A    between atoms: C7_7  and  C10_10 
REMARK    4  A    between atoms: C8_8  and  C9_9 
REMARK    5  A    between atoms: C8_8  and  C10_10 
ROOT
HETATM    1  C8  UNL     1     -33.795   7.387   4.398  1.00 20.00     0.016 C 
ENDROOT
BRANCH   1   2
HETATM    2  C9  UNL     1     -34.051   6.007   3.765  1.00 20.00     0.051 C 
HETATM    3  C4  UNL     1     -32.906   5.545   2.868  1.00 20.00     0.018 C 
BRANCH   2   4
HETATM    4  C1  UNL     1     -34.272   4.962   4.857  1.00 20.00     0.126 C 
HETATM    5  C2  UNL     1     -34.737   5.470   6.199  1.00 20.00     0.091 C 
HETATM    6  O11 UNL     1     -34.112   3.758   4.658  1.00 20.00    -0.298 OA
ENDBRANCH   2   4
ENDBRANCH   1   2
BRANCH   1   7
HETATM    7  C10 UNL     1     -32.577   8.160   3.848  1.00 20.00    -0.018 C 
HETATM    8  C5  UNL     1     -31.981   9.036   4.957  1.00 20.00     0.010 C 
BRANCH   7   9
HETATM    9  C7  UNL     1     -32.863   8.987   2.578  1.00 20.00     0.004 C 
BRANCH   9  10
HETATM   10  C6  UNL     1     -32.134   8.517   1.316  1.00 20.00    -0.004 C 
HETATM   11  C3  UNL     1     -32.784   9.080   0.062  1.00 20.00     0.005 C 
ENDBRANCH   9  10
ENDBRANCH   7   9
ENDBRANCH   1   7
TORSDOF 5
ENDMDL
MODEL 2
REMARK VINA RESULT:      -4.5      0.655      1.729
REMARK  5 active torsions:
REMARK  status: ('A' for Active; 'I' for Inactive)
REMARK    1  A    between atoms: C1_1  and  C9_9 
REMARK    2  A    between atoms: C6_6  and  C7_7 
REMARK    3  A    between atoms: C7_7  and  C10_10 
REMARK    4  A    between atoms: C8_8  and  C9_9 
REMARK    5  A    between atoms: C8_8  and  C10_10 
ROOT
HETATM    1  C8  UNL     1     -33.848   7.745   4.436  1.00 20.00     0.016 C 
ENDROOT
BRANCH   1   2
HETATM    2  C9  UNL     1     -33.681   6.437   5.231  1.00 20.00     0.051 C 
HETATM    3  C4  UNL     1     -34.537   6.399   6.494  1.00 20.00     0.018 C 
BRANCH   2   4
HETATM    4  C1  UNL     1     -34.047   5.241   4.355  1.00 20.00     0.126 C 
HETATM    5  C2  UNL     1     -33.348   5.137   3.022  1.00 20.00     0.091 C 
HETATM    6  O11 UNL     1     -34.847   4.378   4.718  1.00 20.00    -0.298 OA
ENDBRANCH   2   4
ENDBRANCH   1   2
BRANCH   1   7
HETATM    7  C10 UNL     1     -32.540   8.409   3.957  1.00 20.00    -0.018 C 
HETATM    8  C5  UNL     1     -31.990   9.316   5.065  1.00 20.00     0.010 C 
BRANCH   7   9
HETATM    9  C7  UNL     1     -32.658   9.171   2.621  1.00 20.00     0.004 C 
BRANCH   9  10
HETATM   10  C6  UNL     1     -32.278   8.364   1.376  1.00 20.00    -0.004 C 
HETATM   11  C3  UNL     1     -32.707   9.081   0.104  1.00 20.00     0.005 C 
ENDBRANCH   9  10
ENDBRANCH   7   9
ENDBRANCH   1   7
TORSDOF 5
ENDMDL
MODEL 3
REMARK VINA RESULT:      -4.2     11.339     12.440
REMARK  5 active torsions:
REMARK  status: ('A' for Active; 'I' for Inactive)
REMARK    1  A    between atoms: C1_1  and  C9_9 
REMARK    2  A    between atoms: C6_6  and  C7_7 
REMARK    3  A    between atoms: C7_7  and  C10_10 
REMARK    4  A    between atoms: C8_8  and  C9_9 
REMARK    5  A    between atoms: C8_8  and  C10_10 
ROOT
HETATM    1  C8  UNL     1     -33.200  17.451  -1.468  1.00 20.00     0.016 C 
ENDROOT
BRANCH   1   2
HETATM    2  C9  UNL     1     -33.028  18.559  -0.412  1.00 20.00     0.051 C 
HETATM    3  C4  UNL     1     -34.000  18.419   0.757  1.00 20.00     0.018 C 
BRANCH   2   4
HETATM    4  C1  UNL     1     -31.600  18.545   0.133  1.00 20.00     0.126 C 
HETATM    5  C2  UNL     1     -31.444  18.375   1.623  1.00 20.00     0.091 C 
HETATM    6  O11 UNL     1     -30.615  18.635  -0.599  1.00 20.00    -0.298 OA
ENDBRANCH   2   4
ENDBRANCH   1   2
BRANCH   1   7
HETATM    7  C10 UNL     1     -33.198  17.923  -2.937  1.00 20.00    -0.018 C 
HETATM    8  C5  UNL     1     -33.938  19.262  -3.048  1.00 20.00     0.010 C 
BRANCH   7   9
HETATM    9  C7  UNL     1     -33.756  16.894  -3.943  1.00 20.00     0.004 C 
BRANCH   9  10
HETATM   10  C6  UNL     1     -33.131  15.499  -3.861  1.00 20.00    -0.004 C 
HETATM   11  C3  UNL     1     -34.138  14.422  -4.236  1.00 20.00     0.005 C 
ENDBRANCH   9  10
ENDBRANCH   7   9
ENDBRANCH   1   7
TORSDOF 5
ENDMDL
MODEL 4
REMARK VINA RESULT:      -4.2      2.299      5.042
REMARK  5 active torsions:
REMARK  status: ('A' for Active; 'I' for Inactive)
REMARK    1  A    between atoms: C1_1  and  C9_9 
REMARK    2  A    between atoms: C6_6  and  C7_7 
REMARK    3  A    between atoms: C7_7  and  C10_10 
REMARK    4  A    between atoms: C8_8  and  C9_9 
REMARK    5  A    between atoms: C8_8  and  C10_10 
ROOT
HETATM    1  C8  UNL     1     -32.184   6.877   3.071  1.00 20.00     0.016 C 
ENDROOT
BRANCH   1   2
HETATM    2  C9  UNL     1     -32.884   8.235   3.269  1.00 20.00     0.051 C 
HETATM    3  C4  UNL     1     -32.342   9.011   4.466  1.00 20.00     0.018 C 
BRANCH   2   4
HETATM    4  C1  UNL     1     -32.726   9.093   2.015  1.00 20.00     0.126 C 
HETATM    5  C2  UNL     1     -32.153   8.415   0.796  1.00 20.00     0.091 C 
HETATM    6  O11 UNL     1     -33.074  10.274   1.977  1.00 20.00    -0.298 OA
ENDBRANCH   2   4
ENDBRANCH   1   2
BRANCH   1   7
HETATM    7  C10 UNL     1     -33.015   5.634   3.453  1.00 20.00    -0.018 C 
HETATM    8  C5  UNL     1     -33.094   4.681   2.254  1.00 20.00     0.010 C 
BRANCH   7   9
HETATM    9  C7  UNL     1     -34.420   5.947   4.009  1.00 20.00     0.004 C 
BRANCH   9  10
HETATM   10  C6  UNL     1     -34.684   5.448   5.432  1.00 20.00    -0.004 C 
HETATM   11  C3  UNL     1     -34.307   6.500   6.464  1.00 20.00     0.005 C 
ENDBRANCH   9  10
ENDBRANCH   7   9
ENDBRANCH   1   7
TORSDOF 5
ENDMDL
MODEL 5
REMARK VINA RESULT:      -4.2      2.134      4.439
REMARK  5 active torsions:
REMARK  status: ('A' for Active; 'I' for Inactive)
REMARK    1  A    between atoms: C1_1  and  C9_9 
REMARK    2  A    between atoms: C6_6  and  C7_7 
REMARK    3  A    between atoms: C7_7  and  C10_10 
REMARK    4  A    between atoms: C8_8  and  C9_9 
REMARK    5  A    between atoms: C8_8  and  C10_10 
ROOT
HETATM    1  C8  UNL     1     -33.720   7.908   3.760  1.00 20.00     0.016 C 
ENDROOT
BRANCH   1   2
HETATM    2  C9  UNL     1     -32.501   7.427   2.950  1.00 20.00     0.051 C 
HETATM    3  C4  UNL     1     -32.591   5.953   2.565  1.00 20.00     0.018 C 
BRANCH   2   4
HETATM    4  C1  UNL     1     -32.356   8.259   1.677  1.00 20.00     0.126 C 
HETATM    5  C2  UNL     1     -32.993   9.626   1.684  1.00 20.00     0.091 C 
HETATM    6  O11 UNL     1     -31.727   7.860   0.697  1.00 20.00    -0.298 OA
ENDBRANCH   2   4
ENDBRANCH   1   2
BRANCH   1   7
HETATM    7  C10 UNL     1     -33.437   8.301   5.225  1.00 20.00    -0.018 C 
HETATM    8  C5  UNL     1     -32.136   9.111   5.297  1.00 20.00     0.010 C 
BRANCH   7   9
HETATM    9  C7  UNL     1     -33.411   7.117   6.213  1.00 20.00     0.004 C 
BRANCH   9  10
HETATM   10  C6  UNL     1     -34.698   6.289   6.273  1.00 20.00    -0.004 C 
HETATM   11  C3  UNL     1     -34.508   4.928   5.621  1.00 20.00     0.005 C 
ENDBRANCH   9  10
ENDBRANCH   7   9
ENDBRANCH   1   7
TORSDOF 5
ENDMDL
MODEL 6
REMARK VINA RESULT:      -4.0     11.616     12.752
REMARK  5 active torsions:
REMARK  status: ('A' for Active; 'I' for Inactive)
REMARK    1  A    between atoms: C1_1  and  C9_9 
REMARK    2  A    between atoms: C6_6  and  C7_7 
REMARK    3  A    between atoms: C7_7  and  C10_10 
REMARK    4  A    between atoms: C8_8  and  C9_9 
REMARK    5  A    between atoms: C8_8  and  C10_10 
ROOT
HETATM    1  C8  UNL     1     -34.716  16.150  -4.740  1.00 20.00     0.016 C 
ENDROOT
BRANCH   1   2
HETATM    2  C9  UNL     1     -34.967  14.830  -5.492  1.00 20.00     0.051 C 
HETATM    3  C4  UNL     1     -36.146  14.043  -4.928  1.00 20.00     0.018 C 
BRANCH   2   4
HETATM    4  C1  UNL     1     -35.226  15.110  -6.971  1.00 20.00     0.126 C 
HETATM    5  C2  UNL     1     -34.310  16.101  -7.645  1.00 20.00     0.091 C 
HETATM    6  O11 UNL     1     -36.115  14.540  -7.604  1.00 20.00    -0.298 OA
ENDBRANCH   2   4
ENDBRANCH   1   2
BRANCH   1   7
HETATM    7  C10 UNL     1     -33.414  16.213  -3.914  1.00 20.00    -0.018 C 
HETATM    8  C5  UNL     1     -32.578  14.954  -4.177  1.00 20.00     0.010 C 
BRANCH   7   9
HETATM    9  C7  UNL     1     -33.624  16.436  -2.402  1.00 20.00     0.004 C 
BRANCH   9  10
HETATM   10  C6  UNL     1     -32.909  17.658  -1.818  1.00 20.00    -0.004 C 
HETATM   11  C3  UNL     1     -33.485  18.037  -0.462  1.00 20.00     0.005 C 
ENDBRANCH   9  10
ENDBRANCH   7   9
ENDBRANCH   1   7
TORSDOF 5
ENDMDL
MODEL 7
REMARK VINA RESULT:      -3.9     11.773     12.947
REMARK  5 active torsions:
REMARK  status: ('A' for Active; 'I' for Inactive)
REMARK    1  A    between atoms: C1_1  and  C9_9 
REMARK    2  A    between atoms: C6_6  and  C7_7 
REMARK    3  A    between atoms: C7_7  and  C10_10 
REMARK    4  A    between atoms: C8_8  and  C9_9 
REMARK    5  A    between atoms: C8_8  and  C10_10 
ROOT
HETATM    1  C8  UNL     1     -33.251  17.174  -1.630  1.00 20.00     0.016 C 
ENDROOT
BRANCH   1   2
HETATM    2  C9  UNL     1     -33.023  18.603  -1.102  1.00 20.00     0.051 C 
HETATM    3  C4  UNL     1     -34.230  19.155  -0.349  1.00 20.00     0.018 C 
BRANCH   2   4
HETATM    4  C1  UNL     1     -31.810  18.631  -0.174  1.00 20.00     0.126 C 
HETATM    5  C2  UNL     1     -32.089  18.609   1.308  1.00 20.00     0.091 C 
HETATM    6  O11 UNL     1     -30.655  18.639  -0.600  1.00 20.00    -0.298 OA
ENDBRANCH   2   4
ENDBRANCH   1   2
BRANCH   1   7
HETATM    7  C10 UNL     1     -33.752  17.071  -3.086  1.00 20.00    -0.018 C 
HETATM    8  C5  UNL     1     -33.244  15.766  -3.712  1.00 20.00     0.010 C 
BRANCH   7   9
HETATM    9  C7  UNL     1     -33.405  18.286  -3.972  1.00 20.00     0.004 C 
BRANCH   9  10
HETATM   10  C6  UNL     1     -34.607  19.093  -4.469  1.00 20.00    -0.004 C 
HETATM   11  C3  UNL     1     -35.891  18.644  -3.790  1.00 20.00     0.005 C 
ENDBRANCH   9  10
ENDBRANCH   7   9
ENDBRANCH   1   7
TORSDOF 5
ENDMDL
MODEL 8
REMARK VINA RESULT:      -3.9     10.534     11.455
REMARK  5 active torsions:
REMARK  status: ('A' for Active; 'I' for Inactive)
REMARK    1  A    between atoms: C1_1  and  C9_9 
REMARK    2  A    between atoms: C6_6  and  C7_7 
REMARK    3  A    between atoms: C7_7  and  C10_10 
REMARK    4  A    between atoms: C8_8  and  C9_9 
REMARK    5  A    between atoms: C8_8  and  C10_10 
ROOT
HETATM    1  C8  UNL     1     -42.188  14.824   7.048  1.00 20.00     0.016 C 
ENDROOT
BRANCH   1   2
HETATM    2  C9  UNL     1     -40.774  15.311   7.415  1.00 20.00     0.051 C 
HETATM    3  C4  UNL     1     -40.680  16.831   7.520  1.00 20.00     0.018 C 
BRANCH   2   4
HETATM    4  C1  UNL     1     -40.338  14.699   8.745  1.00 20.00     0.126 C 
HETATM    5  C2  UNL     1     -40.447  15.578   9.965  1.00 20.00     0.091 C 
HETATM    6  O11 UNL     1     -39.944  13.536   8.837  1.00 20.00    -0.298 OA
ENDBRANCH   2   4
ENDBRANCH   1   2
BRANCH   1   7
HETATM    7  C10 UNL     1     -42.251  13.596   6.115  1.00 20.00    -0.018 C 
HETATM    8  C5  UNL     1     -42.630  12.352   6.930  1.00 20.00     0.010 C 
BRANCH   7   9
HETATM    9  C7  UNL     1     -40.972  13.351   5.288  1.00 20.00     0.004 C 
BRANCH   9  10
HETATM   10  C6  UNL     1     -40.205  12.073   5.638  1.00 20.00    -0.004 C 
HETATM   11  C3  UNL     1     -39.199  11.720   4.552  1.00 20.00     0.005 C 
ENDBRANCH   9  10
ENDBRANCH   7   9
ENDBRANCH   1   7
TORSDOF 5
ENDMDL
MODEL 9
REMARK VINA RESULT:      -3.9      2.161      4.689
REMARK  5 active torsions:
REMARK  status: ('A' for Active; 'I' for Inactive)
REMARK    1  A    between atoms: C1_1  and  C9_9 
REMARK    2  A    between atoms: C6_6  and  C7_7 
REMARK    3  A    between atoms: C7_7  and  C10_10 
REMARK    4  A    between atoms: C8_8  and  C9_9 
REMARK    5  A    between atoms: C8_8  and  C10_10 
ROOT
HETATM    1  C8  UNL     1     -33.520   6.782   3.467  1.00 20.00     0.016 C 
ENDROOT
BRANCH   1   2
HETATM    2  C9  UNL     1     -32.361   7.791   3.554  1.00 20.00     0.051 C 
HETATM    3  C4  UNL     1     -32.232   8.655   2.302  1.00 20.00     0.018 C 
BRANCH   2   4
HETATM    4  C1  UNL     1     -32.551   8.706   4.763  1.00 20.00     0.126 C 
HETATM    5  C2  UNL     1     -33.757   8.443   5.630  1.00 20.00     0.091 C 
HETATM    6  O11 UNL     1     -31.752   9.598   5.047  1.00 20.00    -0.298 OA
ENDBRANCH   2   4
ENDBRANCH   1   2
BRANCH   1   7
HETATM    7  C10 UNL     1     -33.114   5.293   3.486  1.00 20.00    -0.018 C 
HETATM    8  C5  UNL     1     -32.952   4.787   2.047  1.00 20.00     0.010 C 
BRANCH   7   9
HETATM    9  C7  UNL     1     -34.060   4.380   4.294  1.00 20.00     0.004 C 
BRANCH   9  10
HETATM   10  C6  UNL     1     -35.066   5.112   5.187  1.00 20.00    -0.004 C 
HETATM   11  C3  UNL     1     -34.529   5.279   6.600  1.00 20.00     0.005 C 
ENDBRANCH   9  10
ENDBRANCH   7   9
ENDBRANCH   1   7
TORSDOF 5
ENDMDL
