MODEL 1
REMARK VINA RESULT:      -4.4      0.000      0.000
REMARK  5 active torsions:
REMARK  status: ('A' for Active; 'I' for Inactive)
REMARK    1  A    between atoms: C1_1  and  C9_9 
REMARK    2  A    between atoms: C6_6  and  C7_7 
REMARK    3  A    between atoms: C7_7  and  C10_10 
REMARK    4  A    between atoms: C8_8  and  C9_9 
REMARK    5  A    between atoms: C8_8  and  C10_10 
ROOT
HETATM    1  C8  UNL     1     -32.942   7.162   4.944  1.00 20.00     0.016 C 
ENDROOT
BRANCH   1   2
HETATM    2  C9  UNL     1     -34.217   6.318   4.764  1.00 20.00     0.051 C 
HETATM    3  C4  UNL     1     -34.892   5.974   6.088  1.00 20.00     0.018 C 
BRANCH   2   4
HETATM    4  C1  UNL     1     -33.885   5.020   4.029  1.00 20.00     0.126 C 
HETATM    5  C2  UNL     1     -33.146   5.149   2.721  1.00 20.00     0.091 C 
HETATM    6  O11 UNL     1     -34.173   3.913   4.485  1.00 20.00    -0.298 OA
ENDBRANCH   2   4
ENDBRANCH   1   2
BRANCH   1   7
HETATM    7  C10 UNL     1     -32.920   8.510   4.194  1.00 20.00    -0.018 C 
HETATM    8  C5  UNL     1     -32.095   9.528   4.991  1.00 20.00     0.010 C 
BRANCH   7   9
HETATM    9  C7  UNL     1     -32.437   8.419   2.732  1.00 20.00     0.004 C 
BRANCH   9  10
HETATM   10  C6  UNL     1     -32.950   9.525   1.806  1.00 20.00    -0.004 C 
HETATM   11  C3  UNL     1     -32.679   9.190   0.346  1.00 20.00     0.005 C 
ENDBRANCH   9  10
ENDBRANCH   7   9
ENDBRANCH   1   7
TORSDOF 5
ENDMDL
MODEL 2
REMARK VINA RESULT:      -4.4      1.081      1.697
REMARK  5 active torsions:
REMARK  status: ('A' for Active; 'I' for Inactive)
REMARK    1  A    between atoms: C1_1  and  C9_9 
REMARK    2  A    between atoms: C6_6  and  C7_7 
REMARK    3  A    between atoms: C7_7  and  C10_10 
REMARK    4  A    between atoms: C8_8  and  C9_9 
REMARK    5  A    between atoms: C8_8  and  C10_10 
ROOT
HETATM    1  C8  UNL     1     -34.063   7.504   4.898  1.00 20.00     0.016 C 
ENDROOT
BRANCH   1   2
HETATM    2  C9  UNL     1     -34.611   6.235   4.220  1.00 20.00     0.051 C 
HETATM    3  C4  UNL     1     -36.112   6.305   3.956  1.00 20.00     0.018 C 
BRANCH   2   4
HETATM    4  C1  UNL     1     -34.322   5.011   5.089  1.00 20.00     0.126 C 
HETATM    5  C2  UNL     1     -34.385   5.208   6.583  1.00 20.00     0.091 C 
HETATM    6  O11 UNL     1     -34.078   3.905   4.608  1.00 20.00    -0.298 OA
ENDBRANCH   2   4
ENDBRANCH   1   2
BRANCH   1   7
HETATM    7  C10 UNL     1     -33.021   8.300   4.085  1.00 20.00    -0.018 C 
HETATM    8  C5  UNL     1     -32.101   9.068   5.042  1.00 20.00     0.010 C 
BRANCH   7   9
HETATM    9  C7  UNL     1     -32.208   7.451   3.087  1.00 20.00     0.004 C 
BRANCH   9  10
HETATM   10  C6  UNL     1     -32.196   7.972   1.647  1.00 20.00    -0.004 C 
HETATM   11  C3  UNL     1     -32.843   9.346   1.552  1.00 20.00     0.005 C 
ENDBRANCH   9  10
ENDBRANCH   7   9
ENDBRANCH   1   7
TORSDOF 5
ENDMDL
MODEL 3
REMARK VINA RESULT:      -4.3     11.278     12.354
REMARK  5 active torsions:
REMARK  status: ('A' for Active; 'I' for Inactive)
REMARK    1  A    between atoms: C1_1  and  C9_9 
REMARK    2  A    between atoms: C6_6  and  C7_7 
REMARK    3  A    between atoms: C7_7  and  C10_10 
REMARK    4  A    between atoms: C8_8  and  C9_9 
REMARK    5  A    between atoms: C8_8  and  C10_10 
ROOT
HETATM    1  C8  UNL     1     -33.173  18.684  -1.703  1.00 20.00     0.016 C 
ENDROOT
BRANCH   1   2
HETATM    2  C9  UNL     1     -32.978  18.099  -0.292  1.00 20.00     0.051 C 
HETATM    3  C4  UNL     1     -34.070  18.529   0.684  1.00 20.00     0.018 C 
BRANCH   2   4
HETATM    4  C1  UNL     1     -31.622  18.526   0.269  1.00 20.00     0.126 C 
HETATM    5  C2  UNL     1     -31.487  18.556   1.771  1.00 20.00     0.091 C 
HETATM    6  O11 UNL     1     -30.667  18.804  -0.456  1.00 20.00    -0.298 OA
ENDBRANCH   2   4
ENDBRANCH   1   2
BRANCH   1   7
HETATM    7  C10 UNL     1     -33.915  17.778  -2.707  1.00 20.00    -0.018 C 
HETATM    8  C5  UNL     1     -33.634  18.257  -4.136  1.00 20.00     0.010 C 
BRANCH   7   9
HETATM    9  C7  UNL     1     -33.613  16.274  -2.551  1.00 20.00     0.004 C 
BRANCH   9  10
HETATM   10  C6  UNL     1     -33.146  15.567  -3.826  1.00 20.00    -0.004 C 
HETATM   11  C3  UNL     1     -34.050  14.391  -4.168  1.00 20.00     0.005 C 
ENDBRANCH   9  10
ENDBRANCH   7   9
ENDBRANCH   1   7
TORSDOF 5
ENDMDL
MODEL 4
REMARK VINA RESULT:      -4.2     11.418     12.387
REMARK  5 active torsions:
REMARK  status: ('A' for Active; 'I' for Inactive)
REMARK    1  A    between atoms: C1_1  and  C9_9 
REMARK    2  A    between atoms: C6_6  and  C7_7 
REMARK    3  A    between atoms: C7_7  and  C10_10 
REMARK    4  A    between atoms: C8_8  and  C9_9 
REMARK    5  A    between atoms: C8_8  and  C10_10 
ROOT
HETATM    1  C8  UNL     1     -33.482  17.018  -1.825  1.00 20.00     0.016 C 
ENDROOT
BRANCH   1   2
HETATM    2  C9  UNL     1     -33.128  17.187  -3.314  1.00 20.00     0.051 C 
HETATM    3  C4  UNL     1     -33.326  18.616  -3.811  1.00 20.00     0.018 C 
BRANCH   2   4
HETATM    4  C1  UNL     1     -33.982  16.248  -4.164  1.00 20.00     0.126 C 
HETATM    5  C2  UNL     1     -33.589  14.792  -4.173  1.00 20.00     0.091 C 
HETATM    6  O11 UNL     1     -34.965  16.640  -4.793  1.00 20.00    -0.298 OA
ENDBRANCH   2   4
ENDBRANCH   1   2
BRANCH   1   7
HETATM    7  C10 UNL     1     -33.084  18.190  -0.904  1.00 20.00    -0.018 C 
HETATM    8  C5  UNL     1     -33.912  18.135   0.384  1.00 20.00     0.010 C 
BRANCH   7   9
HETATM    9  C7  UNL     1     -31.575  18.274  -0.597  1.00 20.00     0.004 C 
BRANCH   9  10
HETATM   10  C6  UNL     1     -31.196  19.205   0.558  1.00 20.00    -0.004 C 
HETATM   11  C3  UNL     1     -30.588  18.428   1.717  1.00 20.00     0.005 C 
ENDBRANCH   9  10
ENDBRANCH   7   9
ENDBRANCH   1   7
TORSDOF 5
ENDMDL
MODEL 5
REMARK VINA RESULT:      -4.2     11.342     12.540
REMARK  5 active torsions:
REMARK  status: ('A' for Active; 'I' for Inactive)
REMARK    1  A    between atoms: C1_1  and  C9_9 
REMARK    2  A    between atoms: C6_6  and  C7_7 
REMARK    3  A    between atoms: C7_7  and  C10_10 
REMARK    4  A    between atoms: C8_8  and  C9_9 
REMARK    5  A    between atoms: C8_8  and  C10_10 
ROOT
HETATM    1  C8  UNL     1     -33.739  15.327  -4.677  1.00 20.00     0.016 C 
ENDROOT
BRANCH   1   2
HETATM    2  C9  UNL     1     -35.166  15.040  -5.178  1.00 20.00     0.051 C 
HETATM    3  C4  UNL     1     -35.746  13.748  -4.610  1.00 20.00     0.018 C 
BRANCH   2   4
HETATM    4  C1  UNL     1     -35.178  14.955  -6.704  1.00 20.00     0.126 C 
HETATM    5  C2  UNL     1     -34.021  15.596  -7.429  1.00 20.00     0.091 C 
HETATM    6  O11 UNL     1     -36.066  14.370  -7.324  1.00 20.00    -0.298 OA
ENDBRANCH   2   4
ENDBRANCH   1   2
BRANCH   1   7
HETATM    7  C10 UNL     1     -33.569  16.608  -3.835  1.00 20.00    -0.018 C 
HETATM    8  C5  UNL     1     -34.671  17.610  -4.197  1.00 20.00     0.010 C 
BRANCH   7   9
HETATM    9  C7  UNL     1     -33.509  16.367  -2.313  1.00 20.00     0.004 C 
BRANCH   9  10
HETATM   10  C6  UNL     1     -33.626  17.625  -1.449  1.00 20.00    -0.004 C 
HETATM   11  C3  UNL     1     -32.257  18.231  -1.169  1.00 20.00     0.005 C 
ENDBRANCH   9  10
ENDBRANCH   7   9
ENDBRANCH   1   7
TORSDOF 5
ENDMDL
MODEL 6
REMARK VINA RESULT:      -4.0      1.800      4.232
REMARK  5 active torsions:
REMARK  status: ('A' for Active; 'I' for Inactive)
REMARK    1  A    between atoms: C1_1  and  C9_9 
REMARK    2  A    between atoms: C6_6  and  C7_7 
REMARK    3  A    between atoms: C7_7  and  C10_10 
REMARK    4  A    between atoms: C8_8  and  C9_9 
REMARK    5  A    between atoms: C8_8  and  C10_10 
ROOT
HETATM    1  C8  UNL     1     -33.873   7.785   4.519  1.00 20.00     0.016 C 
ENDROOT
BRANCH   1   2
HETATM    2  C9  UNL     1     -32.468   8.224   4.066  1.00 20.00     0.051 C 
HETATM    3  C4  UNL     1     -31.952   9.441   4.828  1.00 20.00     0.018 C 
BRANCH   2   4
HETATM    4  C1  UNL     1     -32.478   8.547   2.573  1.00 20.00     0.126 C 
HETATM    5  C2  UNL     1     -33.045   9.886   2.170  1.00 20.00     0.091 C 
HETATM    6  O11 UNL     1     -32.020   7.777   1.729  1.00 20.00    -0.298 OA
ENDBRANCH   2   4
ENDBRANCH   1   2
BRANCH   1   7
HETATM    7  C10 UNL     1     -33.934   6.481   5.341  1.00 20.00    -0.018 C 
HETATM    8  C5  UNL     1     -34.449   6.787   6.752  1.00 20.00     0.010 C 
BRANCH   7   9
HETATM    9  C7  UNL     1     -34.748   5.350   4.681  1.00 20.00     0.004 C 
BRANCH   9  10
HETATM   10  C6  UNL     1     -33.916   4.269   3.985  1.00 20.00    -0.004 C 
HETATM   11  C3  UNL     1     -33.167   4.835   2.787  1.00 20.00     0.005 C 
ENDBRANCH   9  10
ENDBRANCH   7   9
ENDBRANCH   1   7
TORSDOF 5
ENDMDL
MODEL 7
REMARK VINA RESULT:      -4.0      1.468      2.593
REMARK  5 active torsions:
REMARK  status: ('A' for Active; 'I' for Inactive)
REMARK    1  A    between atoms: C1_1  and  C9_9 
REMARK    2  A    between atoms: C6_6  and  C7_7 
REMARK    3  A    between atoms: C7_7  and  C10_10 
REMARK    4  A    between atoms: C8_8  and  C9_9 
REMARK    5  A    between atoms: C8_8  and  C10_10 
ROOT
HETATM    1  C8  UNL     1     -33.513   7.085   4.007  1.00 20.00     0.016 C 
ENDROOT
BRANCH   1   2
HETATM    2  C9  UNL     1     -34.402   5.984   4.613  1.00 20.00     0.051 C 
HETATM    3  C4  UNL     1     -35.853   6.071   4.151  1.00 20.00     0.018 C 
BRANCH   2   4
HETATM    4  C1  UNL     1     -34.366   6.063   6.139  1.00 20.00     0.126 C 
HETATM    5  C2  UNL     1     -34.000   7.396   6.742  1.00 20.00     0.091 C 
HETATM    6  O11 UNL     1     -34.650   5.103   6.855  1.00 20.00    -0.298 OA
ENDBRANCH   2   4
ENDBRANCH   1   2
BRANCH   1   7
HETATM    7  C10 UNL     1     -32.423   6.603   3.028  1.00 20.00    -0.018 C 
HETATM    8  C5  UNL     1     -32.804   5.226   2.473  1.00 20.00     0.010 C 
BRANCH   7   9
HETATM    9  C7  UNL     1     -32.103   7.596   1.892  1.00 20.00     0.004 C 
BRANCH   9  10
HETATM   10  C6  UNL     1     -32.700   8.995   2.062  1.00 20.00    -0.004 C 
HETATM   11  C3  UNL     1     -32.880   9.685   0.717  1.00 20.00     0.005 C 
ENDBRANCH   9  10
ENDBRANCH   7   9
ENDBRANCH   1   7
TORSDOF 5
ENDMDL
MODEL 8
REMARK VINA RESULT:      -4.0      1.568      2.779
REMARK  5 active torsions:
REMARK  status: ('A' for Active; 'I' for Inactive)
REMARK    1  A    between atoms: C1_1  and  C9_9 
REMARK    2  A    between atoms: C6_6  and  C7_7 
REMARK    3  A    between atoms: C7_7  and  C10_10 
REMARK    4  A    between atoms: C8_8  and  C9_9 
REMARK    5  A    between atoms: C8_8  and  C10_10 
ROOT
HETATM    1  C8  UNL     1     -33.931   7.368   3.613  1.00 20.00     0.016 C 
ENDROOT
BRANCH   1   2
HETATM    2  C9  UNL     1     -33.827   7.922   5.046  1.00 20.00     0.051 C 
HETATM    3  C4  UNL     1     -32.549   8.722   5.281  1.00 20.00     0.018 C 
BRANCH   2   4
HETATM    4  C1  UNL     1     -33.881   6.776   6.055  1.00 20.00     0.126 C 
HETATM    5  C2  UNL     1     -34.892   5.687   5.793  1.00 20.00     0.091 C 
HETATM    6  O11 UNL     1     -33.123   6.714   7.024  1.00 20.00    -0.298 OA
ENDBRANCH   2   4
ENDBRANCH   1   2
BRANCH   1   7
HETATM    7  C10 UNL     1     -32.629   6.790   3.023  1.00 20.00    -0.018 C 
HETATM    8  C5  UNL     1     -32.841   5.317   2.654  1.00 20.00     0.010 C 
BRANCH   7   9
HETATM    9  C7  UNL     1     -32.059   7.589   1.833  1.00 20.00     0.004 C 
BRANCH   9  10
HETATM   10  C6  UNL     1     -32.650   8.988   1.644  1.00 20.00    -0.004 C 
HETATM   11  C3  UNL     1     -32.756   9.348   0.169  1.00 20.00     0.005 C 
ENDBRANCH   9  10
ENDBRANCH   7   9
ENDBRANCH   1   7
TORSDOF 5
ENDMDL
MODEL 9
REMARK VINA RESULT:      -4.0     11.577     12.907
REMARK  5 active torsions:
REMARK  status: ('A' for Active; 'I' for Inactive)
REMARK    1  A    between atoms: C1_1  and  C9_9 
REMARK    2  A    between atoms: C6_6  and  C7_7 
REMARK    3  A    between atoms: C7_7  and  C10_10 
REMARK    4  A    between atoms: C8_8  and  C9_9 
REMARK    5  A    between atoms: C8_8  and  C10_10 
ROOT
HETATM    1  C8  UNL     1     -34.766  16.595  -4.750  1.00 20.00     0.016 C 
ENDROOT
BRANCH   1   2
HETATM    2  C9  UNL     1     -34.504  15.770  -6.024  1.00 20.00     0.051 C 
HETATM    3  C4  UNL     1     -34.549  16.612  -7.295  1.00 20.00     0.018 C 
BRANCH   2   4
HETATM    4  C1  UNL     1     -35.534  14.647  -6.141  1.00 20.00     0.126 C 
HETATM    5  C2  UNL     1     -35.930  13.953  -4.862  1.00 20.00     0.091 C 
HETATM    6  O11 UNL     1     -36.047  14.333  -7.215  1.00 20.00    -0.298 OA
ENDBRANCH   2   4
ENDBRANCH   1   2
BRANCH   1   7
HETATM    7  C10 UNL     1     -33.510  17.077  -3.995  1.00 20.00    -0.018 C 
HETATM    8  C5  UNL     1     -33.405  18.604  -4.095  1.00 20.00     0.010 C 
BRANCH   7   9
HETATM    9  C7  UNL     1     -33.429  16.606  -2.529  1.00 20.00     0.004 C 
BRANCH   9  10
HETATM   10  C6  UNL     1     -32.847  17.626  -1.547  1.00 20.00    -0.004 C 
HETATM   11  C3  UNL     1     -33.805  17.890  -0.394  1.00 20.00     0.005 C 
ENDBRANCH   9  10
ENDBRANCH   7   9
ENDBRANCH   1   7
TORSDOF 5
ENDMDL
