MODEL 1
REMARK VINA RESULT:      -4.0      0.000      0.000
REMARK  4 active torsions:
REMARK  status: ('A' for Active; 'I' for Inactive)
REMARK    1  A    between atoms: C2_2  and  C7_7 
REMARK    2  A    between atoms: C7_7  and  N11_11 
REMARK    3  A    between atoms: C8_8  and  C9_9 
REMARK    4  A    between atoms: C8_8  and  N11_11 
ROOT
HETATM    1  C1  UNL     1     -33.616  17.448  -0.985  1.00 20.00    -0.109 C 
HETATM    2  C2  UNL     1     -33.472  16.930  -2.060  1.00 20.00    -0.077 C 
HETATM    3  C4  UNL     1     -33.793  18.079   0.322  1.00 20.00     0.112 C 
ENDROOT
BRANCH   2   4
HETATM    4  C7  UNL     1     -33.289  16.295  -3.367  1.00 20.00     0.365 C 
BRANCH   4   5
HETATM    5  N11 UNL     1     -34.275  16.793  -4.335  1.00 20.00     0.096 N 
HETATM    6  C6  UNL     1     -34.001  18.202  -4.642  1.00 20.00     0.311 C 
BRANCH   5   7
HETATM    7  C8  UNL     1     -34.276  15.989  -5.536  1.00 20.00     0.291 C 
BRANCH   7   8
HETATM    8  C9  UNL     1     -35.639  15.330  -5.785  1.00 20.00     0.117 C 
HETATM    9  C3  UNL     1     -35.781  14.078  -5.016  1.00 20.00     0.065 C 
HETATM   10  N10 UNL     1     -35.895  13.094  -4.411  1.00 20.00    -0.197 NA
HETATM   11  C5  UNL     1     -35.896  15.078  -7.271  1.00 20.00     0.027 C 
ENDBRANCH   7   8
ENDBRANCH   5   7
ENDBRANCH   4   5
ENDBRANCH   2   4
TORSDOF 4
ENDMDL
MODEL 2
REMARK VINA RESULT:      -3.8      1.571      1.839
REMARK  4 active torsions:
REMARK  status: ('A' for Active; 'I' for Inactive)
REMARK    1  A    between atoms: C2_2  and  C7_7 
REMARK    2  A    between atoms: C7_7  and  N11_11 
REMARK    3  A    between atoms: C8_8  and  C9_9 
REMARK    4  A    between atoms: C8_8  and  N11_11 
ROOT
HETATM    1  C1  UNL     1     -33.676  17.605  -0.938  1.00 20.00    -0.109 C 
HETATM    2  C2  UNL     1     -33.690  17.221  -2.076  1.00 20.00    -0.077 C 
HETATM    3  C4  UNL     1     -33.658  18.072   0.447  1.00 20.00     0.112 C 
ENDROOT
BRANCH   2   4
HETATM    4  C7  UNL     1     -33.709  16.760  -3.467  1.00 20.00     0.365 C 
BRANCH   4   5
HETATM    5  N11 UNL     1     -34.640  17.561  -4.272  1.00 20.00     0.096 N 
HETATM    6  C6  UNL     1     -33.902  18.603  -4.996  1.00 20.00     0.311 C 
BRANCH   5   7
HETATM    7  C8  UNL     1     -35.390  16.727  -5.184  1.00 20.00     0.291 C 
BRANCH   7   8
HETATM    8  C9  UNL     1     -34.738  15.349  -5.369  1.00 20.00     0.117 C 
HETATM    9  C3  UNL     1     -34.120  15.219  -6.703  1.00 20.00     0.065 C 
HETATM   10  N10 UNL     1     -33.632  15.116  -7.751  1.00 20.00    -0.197 NA
HETATM   11  C5  UNL     1     -35.724  14.207  -5.121  1.00 20.00     0.027 C 
ENDBRANCH   7   8
ENDBRANCH   5   7
ENDBRANCH   4   5
ENDBRANCH   2   4
TORSDOF 4
ENDMDL
MODEL 3
REMARK VINA RESULT:      -3.7      2.801      4.296
REMARK  4 active torsions:
REMARK  status: ('A' for Active; 'I' for Inactive)
REMARK    1  A    between atoms: C2_2  and  C7_7 
REMARK    2  A    between atoms: C7_7  and  N11_11 
REMARK    3  A    between atoms: C8_8  and  C9_9 
REMARK    4  A    between atoms: C8_8  and  N11_11 
ROOT
HETATM    1  C1  UNL     1     -30.694  18.590   1.313  1.00 20.00    -0.109 C 
HETATM    2  C2  UNL     1     -31.288  18.573   0.269  1.00 20.00    -0.077 C 
HETATM    3  C4  UNL     1     -29.971  18.611   2.584  1.00 20.00     0.112 C 
ENDROOT
BRANCH   2   4
HETATM    4  C7  UNL     1     -32.017  18.547  -1.002  1.00 20.00     0.365 C 
BRANCH   4   5
HETATM    5  N11 UNL     1     -33.279  17.805  -0.867  1.00 20.00     0.096 N 
HETATM    6  C6  UNL     1     -33.994  18.257   0.332  1.00 20.00     0.311 C 
BRANCH   5   7
HETATM    7  C8  UNL     1     -34.098  17.955  -2.049  1.00 20.00     0.291 C 
BRANCH   7   8
HETATM    8  C9  UNL     1     -33.399  17.413  -3.303  1.00 20.00     0.117 C 
HETATM    9  C3  UNL     1     -33.993  17.971  -4.534  1.00 20.00     0.065 C 
HETATM   10  N10 UNL     1     -34.456  18.410  -5.503  1.00 20.00    -0.197 NA
HETATM   11  C5  UNL     1     -33.404  15.884  -3.351  1.00 20.00     0.027 C 
ENDBRANCH   7   8
ENDBRANCH   5   7
ENDBRANCH   4   5
ENDBRANCH   2   4
TORSDOF 4
ENDMDL
MODEL 4
REMARK VINA RESULT:      -3.7      2.051      2.768
REMARK  4 active torsions:
REMARK  status: ('A' for Active; 'I' for Inactive)
REMARK    1  A    between atoms: C2_2  and  C7_7 
REMARK    2  A    between atoms: C7_7  and  N11_11 
REMARK    3  A    between atoms: C8_8  and  C9_9 
REMARK    4  A    between atoms: C8_8  and  N11_11 
ROOT
HETATM    1  C1  UNL     1     -33.393  16.678  -2.445  1.00 20.00    -0.109 C 
HETATM    2  C2  UNL     1     -33.435  15.961  -3.408  1.00 20.00    -0.077 C 
HETATM    3  C4  UNL     1     -33.341  17.550  -1.273  1.00 20.00     0.112 C 
ENDROOT
BRANCH   2   4
HETATM    4  C7  UNL     1     -33.488  15.093  -4.588  1.00 20.00     0.365 C 
BRANCH   4   5
HETATM    5  N11 UNL     1     -34.361  15.667  -5.622  1.00 20.00     0.096 N 
HETATM    6  C6  UNL     1     -33.910  15.232  -6.949  1.00 20.00     0.311 C 
BRANCH   5   7
HETATM    7  C8  UNL     1     -35.742  15.304  -5.397  1.00 20.00     0.291 C 
BRANCH   7   8
HETATM    8  C9  UNL     1     -36.672  16.522  -5.457  1.00 20.00     0.117 C 
HETATM    9  C3  UNL     1     -37.479  16.525  -6.693  1.00 20.00     0.065 C 
HETATM   10  N10 UNL     1     -38.115  16.528  -7.664  1.00 20.00    -0.197 NA
HETATM   11  C5  UNL     1     -35.909  17.839  -5.312  1.00 20.00     0.027 C 
ENDBRANCH   7   8
ENDBRANCH   5   7
ENDBRANCH   4   5
ENDBRANCH   2   4
TORSDOF 4
ENDMDL
MODEL 5
REMARK VINA RESULT:      -3.7      1.972      2.747
REMARK  4 active torsions:
REMARK  status: ('A' for Active; 'I' for Inactive)
REMARK    1  A    between atoms: C2_2  and  C7_7 
REMARK    2  A    between atoms: C7_7  and  N11_11 
REMARK    3  A    between atoms: C8_8  and  C9_9 
REMARK    4  A    between atoms: C8_8  and  N11_11 
ROOT
HETATM    1  C1  UNL     1     -33.357  16.615  -2.593  1.00 20.00    -0.109 C 
HETATM    2  C2  UNL     1     -33.331  15.768  -3.446  1.00 20.00    -0.077 C 
HETATM    3  C4  UNL     1     -33.389  17.644  -1.557  1.00 20.00     0.112 C 
ENDROOT
BRANCH   2   4
HETATM    4  C7  UNL     1     -33.293  14.738  -4.487  1.00 20.00     0.365 C 
BRANCH   4   5
HETATM    5  N11 UNL     1     -34.477  14.824  -5.353  1.00 20.00     0.096 N 
HETATM    6  C6  UNL     1     -35.576  14.047  -4.769  1.00 20.00     0.311 C 
BRANCH   5   7
HETATM    7  C8  UNL     1     -34.867  16.199  -5.565  1.00 20.00     0.291 C 
BRANCH   7   8
HETATM    8  C9  UNL     1     -35.004  16.534  -7.057  1.00 20.00     0.117 C 
HETATM    9  C3  UNL     1     -36.386  16.321  -7.532  1.00 20.00     0.065 C 
HETATM   10  N10 UNL     1     -37.471  16.156  -7.907  1.00 20.00    -0.197 NA
HETATM   11  C5  UNL     1     -34.014  15.749  -7.917  1.00 20.00     0.027 C 
ENDBRANCH   7   8
ENDBRANCH   5   7
ENDBRANCH   4   5
ENDBRANCH   2   4
TORSDOF 4
ENDMDL
MODEL 6
REMARK VINA RESULT:      -3.6      2.742      5.795
REMARK  4 active torsions:
REMARK  status: ('A' for Active; 'I' for Inactive)
REMARK    1  A    between atoms: C2_2  and  C7_7 
REMARK    2  A    between atoms: C7_7  and  N11_11 
REMARK    3  A    between atoms: C8_8  and  C9_9 
REMARK    4  A    between atoms: C8_8  and  N11_11 
ROOT
HETATM    1  C1  UNL     1     -33.740  15.793  -3.952  1.00 20.00    -0.109 C 
HETATM    2  C2  UNL     1     -33.559  16.967  -3.771  1.00 20.00    -0.077 C 
HETATM    3  C4  UNL     1     -33.960  14.365  -4.174  1.00 20.00     0.112 C 
ENDROOT
BRANCH   2   4
HETATM    4  C7  UNL     1     -33.334  18.397  -3.543  1.00 20.00     0.365 C 
BRANCH   4   5
HETATM    5  N11 UNL     1     -34.219  18.905  -2.486  1.00 20.00     0.096 N 
HETATM    6  C6  UNL     1     -35.620  18.756  -2.897  1.00 20.00     0.311 C 
BRANCH   5   7
HETATM    7  C8  UNL     1     -33.970  18.230  -1.232  1.00 20.00     0.291 C 
BRANCH   7   8
HETATM    8  C9  UNL     1     -33.201  19.119  -0.245  1.00 20.00     0.117 C 
HETATM    9  C3  UNL     1     -31.752  18.838  -0.283  1.00 20.00     0.065 C 
HETATM   10  N10 UNL     1     -30.613  18.620  -0.313  1.00 20.00    -0.197 NA
HETATM   11  C5  UNL     1     -33.734  18.991   1.182  1.00 20.00     0.027 C 
ENDBRANCH   7   8
ENDBRANCH   5   7
ENDBRANCH   4   5
ENDBRANCH   2   4
TORSDOF 4
ENDMDL
MODEL 7
REMARK VINA RESULT:      -3.6      2.262      3.060
REMARK  4 active torsions:
REMARK  status: ('A' for Active; 'I' for Inactive)
REMARK    1  A    between atoms: C2_2  and  C7_7 
REMARK    2  A    between atoms: C7_7  and  N11_11 
REMARK    3  A    between atoms: C8_8  and  C9_9 
REMARK    4  A    between atoms: C8_8  and  N11_11 
ROOT
HETATM    1  C1  UNL     1     -31.067  18.597   0.697  1.00 20.00    -0.109 C 
HETATM    2  C2  UNL     1     -31.555  18.769  -0.388  1.00 20.00    -0.077 C 
HETATM    3  C4  UNL     1     -30.472  18.387   2.015  1.00 20.00     0.112 C 
ENDROOT
BRANCH   2   4
HETATM    4  C7  UNL     1     -32.157  18.982  -1.707  1.00 20.00     0.365 C 
BRANCH   4   5
HETATM    5  N11 UNL     1     -33.066  17.881  -2.052  1.00 20.00     0.096 N 
HETATM    6  C6  UNL     1     -34.419  18.184  -1.569  1.00 20.00     0.311 C 
BRANCH   5   7
HETATM    7  C8  UNL     1     -33.066  17.635  -3.477  1.00 20.00     0.291 C 
BRANCH   7   8
HETATM    8  C9  UNL     1     -34.239  16.743  -3.906  1.00 20.00     0.117 C 
HETATM    9  C3  UNL     1     -33.804  15.350  -4.129  1.00 20.00     0.065 C 
HETATM   10  N10 UNL     1     -33.465  14.254  -4.302  1.00 20.00    -0.197 NA
HETATM   11  C5  UNL     1     -34.954  17.286  -5.143  1.00 20.00     0.027 C 
ENDBRANCH   7   8
ENDBRANCH   5   7
ENDBRANCH   4   5
ENDBRANCH   2   4
TORSDOF 4
ENDMDL
MODEL 8
REMARK VINA RESULT:      -3.4     10.658     12.646
REMARK  4 active torsions:
REMARK  status: ('A' for Active; 'I' for Inactive)
REMARK    1  A    between atoms: C2_2  and  C7_7 
REMARK    2  A    between atoms: C7_7  and  N11_11 
REMARK    3  A    between atoms: C8_8  and  C9_9 
REMARK    4  A    between atoms: C8_8  and  N11_11 
ROOT
HETATM    1  C1  UNL     1     -39.541  12.278   5.142  1.00 20.00    -0.109 C 
HETATM    2  C2  UNL     1     -40.018  12.885   6.063  1.00 20.00    -0.077 C 
HETATM    3  C4  UNL     1     -38.961  11.539   4.022  1.00 20.00     0.112 C 
ENDROOT
BRANCH   2   4
HETATM    4  C7  UNL     1     -40.593  13.632   7.185  1.00 20.00     0.365 C 
BRANCH   4   5
HETATM    5  N11 UNL     1     -41.984  14.012   6.904  1.00 20.00     0.096 N 
HETATM    6  C6  UNL     1     -42.847  13.591   8.013  1.00 20.00     0.311 C 
BRANCH   5   7
HETATM    7  C8  UNL     1     -42.097  15.433   6.667  1.00 20.00     0.291 C 
BRANCH   7   8
HETATM    8  C9  UNL     1     -42.921  15.742   5.410  1.00 20.00     0.117 C 
HETATM    9  C3  UNL     1     -42.431  14.982   4.243  1.00 20.00     0.065 C 
HETATM   10  N10 UNL     1     -42.049  14.384   3.325  1.00 20.00    -0.197 NA
HETATM   11  C5  UNL     1     -42.958  17.238   5.098  1.00 20.00     0.027 C 
ENDBRANCH   7   8
ENDBRANCH   5   7
ENDBRANCH   4   5
ENDBRANCH   2   4
TORSDOF 4
ENDMDL
MODEL 9
REMARK VINA RESULT:      -3.4     11.837     14.186
REMARK  4 active torsions:
REMARK  status: ('A' for Active; 'I' for Inactive)
REMARK    1  A    between atoms: C2_2  and  C7_7 
REMARK    2  A    between atoms: C7_7  and  N11_11 
REMARK    3  A    between atoms: C8_8  and  C9_9 
REMARK    4  A    between atoms: C8_8  and  N11_11 
ROOT
HETATM    1  C1  UNL     1     -39.808  12.025   5.345  1.00 20.00    -0.109 C 
HETATM    2  C2  UNL     1     -40.799  12.251   5.986  1.00 20.00    -0.077 C 
HETATM    3  C4  UNL     1     -38.603  11.750   4.566  1.00 20.00     0.112 C 
ENDROOT
BRANCH   2   4
HETATM    4  C7  UNL     1     -42.010  12.532   6.762  1.00 20.00     0.365 C 
BRANCH   4   5
HETATM    5  N11 UNL     1     -42.087  13.956   7.116  1.00 20.00     0.096 N 
HETATM    6  C6  UNL     1     -43.417  14.479   6.782  1.00 20.00     0.311 C 
BRANCH   5   7
HETATM    7  C8  UNL     1     -41.783  14.161   8.514  1.00 20.00     0.291 C 
BRANCH   7   8
HETATM    8  C9  UNL     1     -40.430  14.858   8.711  1.00 20.00     0.117 C 
HETATM    9  C3  UNL     1     -40.160  15.118  10.139  1.00 20.00     0.065 C 
HETATM   10  N10 UNL     1     -39.945  15.321  11.261  1.00 20.00    -0.197 NA
HETATM   11  C5  UNL     1     -40.325  16.151   7.902  1.00 20.00     0.027 C 
ENDBRANCH   7   8
ENDBRANCH   5   7
ENDBRANCH   4   5
ENDBRANCH   2   4
TORSDOF 4
ENDMDL
