MODEL 1
REMARK VINA RESULT:      -4.5      0.000      0.000
REMARK  2 active torsions:
REMARK  status: ('A' for Active; 'I' for Inactive)
REMARK    1  A    between atoms: C1_1  and  C5_5 
REMARK    2  A    between atoms: C6_6  and  C7_7 
ROOT
HETATM    1  C4  UNL     1     -34.047   8.684   5.979  1.00 20.00     0.021 A 
HETATM    2  C5  UNL     1     -33.615   8.085   4.667  1.00 20.00     0.091 A 
HETATM    3  C7  UNL     1     -33.676   7.227   5.915  1.00 20.00     0.005 A 
ENDROOT
BRANCH   2   4
HETATM    4  C1  UNL     1     -32.304   8.444   4.163  1.00 20.00     0.177 C 
HETATM    5  O8  UNL     1     -31.817   9.507   4.638  1.00 20.00    -0.648 OA
HETATM    6  O9  UNL     1     -31.825   7.642   3.314  1.00 20.00    -0.648 OA
ENDBRANCH   2   4
BRANCH   3   7
HETATM    7  C6  UNL     1     -34.696   6.112   6.087  1.00 20.00    -0.010 A 
HETATM    8  C2  UNL     1     -35.151   5.245   4.946  1.00 20.00     0.005 A 
HETATM    9  C3  UNL     1     -34.322   4.657   6.054  1.00 20.00     0.005 A 
ENDBRANCH   3   7
TORSDOF 2
ENDMDL
MODEL 2
REMARK VINA RESULT:      -4.5      0.015      1.079
REMARK  2 active torsions:
REMARK  status: ('A' for Active; 'I' for Inactive)
REMARK    1  A    between atoms: C1_1  and  C5_5 
REMARK    2  A    between atoms: C6_6  and  C7_7 
ROOT
HETATM    1  C4  UNL     1     -34.045   8.681   5.978  1.00 20.00     0.021 A 
HETATM    2  C5  UNL     1     -33.622   8.084   4.662  1.00 20.00     0.091 A 
HETATM    3  C7  UNL     1     -33.683   7.222   5.907  1.00 20.00     0.005 A 
ENDROOT
BRANCH   2   4
HETATM    4  C1  UNL     1     -32.312   8.436   4.153  1.00 20.00     0.177 C 
HETATM    5  O8  UNL     1     -31.828   7.633   3.308  1.00 20.00    -0.648 OA
HETATM    6  O9  UNL     1     -31.829   9.503   4.626  1.00 20.00    -0.648 OA
ENDBRANCH   2   4
BRANCH   3   7
HETATM    7  C6  UNL     1     -34.710   6.113   6.081  1.00 20.00    -0.010 A 
HETATM    8  C2  UNL     1     -35.152   5.232   4.946  1.00 20.00     0.005 A 
HETATM    9  C3  UNL     1     -34.341   4.656   6.072  1.00 20.00     0.005 A 
ENDBRANCH   3   7
TORSDOF 2
ENDMDL
MODEL 3
REMARK VINA RESULT:      -4.4      2.509      4.087
REMARK  2 active torsions:
REMARK  status: ('A' for Active; 'I' for Inactive)
REMARK    1  A    between atoms: C1_1  and  C5_5 
REMARK    2  A    between atoms: C6_6  and  C7_7 
ROOT
HETATM    1  C4  UNL     1     -33.854   7.668   6.273  1.00 20.00     0.021 A 
HETATM    2  C5  UNL     1     -33.515   6.300   5.745  1.00 20.00     0.091 A 
HETATM    3  C7  UNL     1     -33.679   7.467   4.792  1.00 20.00     0.005 A 
ENDROOT
BRANCH   2   4
HETATM    4  C1  UNL     1     -34.559   5.295   5.760  1.00 20.00     0.177 C 
HETATM    5  O8  UNL     1     -34.604   4.550   4.742  1.00 20.00    -0.648 OA
HETATM    6  O9  UNL     1     -35.286   5.300   6.793  1.00 20.00    -0.648 OA
ENDBRANCH   2   4
BRANCH   3   7
HETATM    7  C6  UNL     1     -32.509   8.056   4.018  1.00 20.00    -0.010 A 
HETATM    8  C2  UNL     1     -32.086   7.540   2.671  1.00 20.00     0.005 A 
HETATM    9  C3  UNL     1     -32.694   8.909   2.794  1.00 20.00     0.005 A 
ENDBRANCH   3   7
TORSDOF 2
ENDMDL
MODEL 4
REMARK VINA RESULT:      -4.4      2.507      3.973
REMARK  2 active torsions:
REMARK  status: ('A' for Active; 'I' for Inactive)
REMARK    1  A    between atoms: C1_1  and  C5_5 
REMARK    2  A    between atoms: C6_6  and  C7_7 
ROOT
HETATM    1  C4  UNL     1     -33.847   7.666   6.278  1.00 20.00     0.021 A 
HETATM    2  C5  UNL     1     -33.510   6.299   5.745  1.00 20.00     0.091 A 
HETATM    3  C7  UNL     1     -33.677   7.469   4.796  1.00 20.00     0.005 A 
ENDROOT
BRANCH   2   4
HETATM    4  C1  UNL     1     -34.555   5.294   5.761  1.00 20.00     0.177 C 
HETATM    5  O8  UNL     1     -35.283   5.291   6.792  1.00 20.00    -0.648 OA
HETATM    6  O9  UNL     1     -34.595   4.554   4.738  1.00 20.00    -0.648 OA
ENDBRANCH   2   4
BRANCH   3   7
HETATM    7  C6  UNL     1     -32.511   8.060   4.018  1.00 20.00    -0.010 A 
HETATM    8  C2  UNL     1     -32.091   7.544   2.670  1.00 20.00     0.005 A 
HETATM    9  C3  UNL     1     -32.700   8.913   2.795  1.00 20.00     0.005 A 
ENDBRANCH   3   7
TORSDOF 2
ENDMDL
MODEL 5
REMARK VINA RESULT:      -4.4     12.091     12.597
REMARK  2 active torsions:
REMARK  status: ('A' for Active; 'I' for Inactive)
REMARK    1  A    between atoms: C1_1  and  C5_5 
REMARK    2  A    between atoms: C6_6  and  C7_7 
ROOT
HETATM    1  C4  UNL     1     -34.137  18.034  -1.598  1.00 20.00     0.021 A 
HETATM    2  C5  UNL     1     -32.664  18.334  -1.663  1.00 20.00     0.091 A 
HETATM    3  C7  UNL     1     -33.182  16.967  -2.061  1.00 20.00     0.005 A 
ENDROOT
BRANCH   2   4
HETATM    4  C1  UNL     1     -31.943  18.441  -0.410  1.00 20.00     0.177 C 
HETATM    5  O8  UNL     1     -32.655  18.361   0.629  1.00 20.00    -0.648 OA
HETATM    6  O9  UNL     1     -30.695  18.599  -0.528  1.00 20.00    -0.648 OA
ENDBRANCH   2   4
BRANCH   3   7
HETATM    7  C6  UNL     1     -33.144  16.467  -3.497  1.00 20.00    -0.010 A 
HETATM    8  C2  UNL     1     -33.706  15.135  -3.907  1.00 20.00     0.005 A 
HETATM    9  C3  UNL     1     -34.368  16.403  -4.367  1.00 20.00     0.005 A 
ENDBRANCH   3   7
TORSDOF 2
ENDMDL
MODEL 6
REMARK VINA RESULT:      -4.3      1.522      1.797
REMARK  2 active torsions:
REMARK  status: ('A' for Active; 'I' for Inactive)
REMARK    1  A    between atoms: C1_1  and  C5_5 
REMARK    2  A    between atoms: C6_6  and  C7_7 
ROOT
HETATM    1  C4  UNL     1     -32.229   8.351   4.742  1.00 20.00     0.021 A 
HETATM    2  C5  UNL     1     -33.179   8.651   3.614  1.00 20.00     0.091 A 
HETATM    3  C7  UNL     1     -33.230   7.310   4.318  1.00 20.00     0.005 A 
ENDROOT
BRANCH   2   4
HETATM    4  C1  UNL     1     -32.639   8.683   2.269  1.00 20.00     0.177 C 
HETATM    5  O8  UNL     1     -32.880   9.736   1.617  1.00 20.00    -0.648 OA
HETATM    6  O9  UNL     1     -31.998   7.649   1.931  1.00 20.00    -0.648 OA
ENDBRANCH   2   4
BRANCH   3   7
HETATM    7  C6  UNL     1     -34.401   6.894   5.195  1.00 20.00    -0.010 A 
HETATM    8  C2  UNL     1     -34.938   5.490   5.218  1.00 20.00     0.005 A 
HETATM    9  C3  UNL     1     -34.234   6.045   6.424  1.00 20.00     0.005 A 
ENDBRANCH   3   7
TORSDOF 2
ENDMDL
MODEL 7
REMARK VINA RESULT:      -4.1     11.976     12.756
REMARK  2 active torsions:
REMARK  status: ('A' for Active; 'I' for Inactive)
REMARK    1  A    between atoms: C1_1  and  C5_5 
REMARK    2  A    between atoms: C6_6  and  C7_7 
ROOT
HETATM    1  C4  UNL     1     -33.327  14.332  -4.482  1.00 20.00     0.021 A 
HETATM    2  C5  UNL     1     -34.611  14.986  -4.917  1.00 20.00     0.091 A 
HETATM    3  C7  UNL     1     -34.004  15.318  -3.569  1.00 20.00     0.005 A 
ENDROOT
BRANCH   2   4
HETATM    4  C1  UNL     1     -35.810  14.171  -4.932  1.00 20.00     0.177 C 
HETATM    5  O8  UNL     1     -36.807  14.691  -5.504  1.00 20.00    -0.648 OA
HETATM    6  O9  UNL     1     -35.693  13.048  -4.367  1.00 20.00    -0.648 OA
ENDBRANCH   2   4
BRANCH   3   7
HETATM    7  C6  UNL     1     -33.414  16.684  -3.255  1.00 20.00    -0.010 A 
HETATM    8  C2  UNL     1     -34.252  17.841  -2.787  1.00 20.00     0.005 A 
HETATM    9  C3  UNL     1     -33.265  17.201  -1.852  1.00 20.00     0.005 A 
ENDBRANCH   3   7
TORSDOF 2
ENDMDL
MODEL 8
REMARK VINA RESULT:      -4.1      2.700      4.261
REMARK  2 active torsions:
REMARK  status: ('A' for Active; 'I' for Inactive)
REMARK    1  A    between atoms: C1_1  and  C5_5 
REMARK    2  A    between atoms: C6_6  and  C7_7 
ROOT
HETATM    1  C4  UNL     1     -33.317   5.994   3.236  1.00 20.00     0.021 A 
HETATM    2  C5  UNL     1     -34.390   6.001   4.292  1.00 20.00     0.091 A 
HETATM    3  C7  UNL     1     -33.165   6.880   4.444  1.00 20.00     0.005 A 
ENDROOT
BRANCH   2   4
HETATM    4  C1  UNL     1     -34.493   4.839   5.153  1.00 20.00     0.177 C 
HETATM    5  O8  UNL     1     -34.959   5.063   6.305  1.00 20.00    -0.648 OA
HETATM    6  O9  UNL     1     -34.101   3.757   4.633  1.00 20.00    -0.648 OA
ENDBRANCH   2   4
BRANCH   3   7
HETATM    7  C6  UNL     1     -33.236   8.397   4.362  1.00 20.00    -0.010 A 
HETATM    8  C2  UNL     1     -32.102   9.286   4.792  1.00 20.00     0.005 A 
HETATM    9  C3  UNL     1     -32.473   9.191   3.339  1.00 20.00     0.005 A 
ENDBRANCH   3   7
TORSDOF 2
ENDMDL
MODEL 9
REMARK VINA RESULT:      -4.1     12.349     13.402
REMARK  2 active torsions:
REMARK  status: ('A' for Active; 'I' for Inactive)
REMARK    1  A    between atoms: C1_1  and  C5_5 
REMARK    2  A    between atoms: C6_6  and  C7_7 
ROOT
HETATM    1  C4  UNL     1     -34.369  14.300  -4.208  1.00 20.00     0.021 A 
HETATM    2  C5  UNL     1     -33.727  15.001  -5.376  1.00 20.00     0.091 A 
HETATM    3  C7  UNL     1     -34.150  15.788  -4.152  1.00 20.00     0.005 A 
ENDROOT
BRANCH   2   4
HETATM    4  C1  UNL     1     -34.517  15.161  -6.581  1.00 20.00     0.177 C 
HETATM    5  O8  UNL     1     -35.550  14.440  -6.647  1.00 20.00    -0.648 OA
HETATM    6  O9  UNL     1     -34.062  16.003  -7.405  1.00 20.00    -0.648 OA
ENDBRANCH   2   4
BRANCH   3   7
HETATM    7  C6  UNL     1     -33.143  16.433  -3.211  1.00 20.00    -0.010 A 
HETATM    8  C2  UNL     1     -33.117  17.912  -2.942  1.00 20.00     0.005 A 
HETATM    9  C3  UNL     1     -33.520  16.958  -1.854  1.00 20.00     0.005 A 
ENDBRANCH   3   7
TORSDOF 2
ENDMDL
