MODEL 1
REMARK VINA RESULT:      -3.7      0.000      0.000
REMARK  4 active torsions:
REMARK  status: ('A' for Active; 'I' for Inactive)
REMARK    1  A    between atoms: C2_2  and  C6_6 
REMARK    2  A    between atoms: C6_6  and  N10_10 
REMARK    3  A    between atoms: C7_7  and  N10_10 
REMARK    4  A    between atoms: C8_8  and  N10_10 
ROOT
HETATM    1  C1  UNL     1     -33.570  17.361  -1.272  1.00 20.00    -0.109 C 
HETATM    2  C2  UNL     1     -33.429  16.790  -2.320  1.00 20.00    -0.077 C 
HETATM    3  C4  UNL     1     -33.744  18.057   0.003  1.00 20.00     0.112 C 
ENDROOT
BRANCH   2   4
HETATM    4  C6  UNL     1     -33.262  16.093  -3.598  1.00 20.00     0.366 C 
BRANCH   4   5
HETATM    5  N10 UNL     1     -34.440  16.268  -4.446  1.00 20.00     0.111 N 
BRANCH   5   6
HETATM    6  C7  UNL     1     -34.541  15.175  -5.414  1.00 20.00     0.396 C 
HETATM    7  C3  UNL     1     -35.279  14.047  -4.848  1.00 20.00     0.089 C 
HETATM    8  N9  UNL     1     -35.864  13.149  -4.403  1.00 20.00    -0.195 NA
ENDBRANCH   5   6
BRANCH   5   9
HETATM    9  C8  UNL     1     -34.386  17.557  -5.136  1.00 20.00     0.270 C 
HETATM   10  C5  UNL     1     -35.636  18.339  -4.914  1.00 20.00     0.037 C 
ENDBRANCH   5   9
ENDBRANCH   4   5
ENDBRANCH   2   4
TORSDOF 4
ENDMDL
MODEL 2
REMARK VINA RESULT:      -3.5      1.254      1.645
REMARK  4 active torsions:
REMARK  status: ('A' for Active; 'I' for Inactive)
REMARK    1  A    between atoms: C2_2  and  C6_6 
REMARK    2  A    between atoms: C6_6  and  N10_10 
REMARK    3  A    between atoms: C7_7  and  N10_10 
REMARK    4  A    between atoms: C8_8  and  N10_10 
ROOT
HETATM    1  C1  UNL     1     -33.317  17.295  -1.634  1.00 20.00    -0.109 C 
HETATM    2  C2  UNL     1     -33.399  16.645  -2.640  1.00 20.00    -0.077 C 
HETATM    3  C4  UNL     1     -33.218  18.089  -0.409  1.00 20.00     0.112 C 
ENDROOT
BRANCH   2   4
HETATM    4  C6  UNL     1     -33.505  15.851  -3.869  1.00 20.00     0.366 C 
BRANCH   4   5
HETATM    5  N10 UNL     1     -34.714  16.200  -4.613  1.00 20.00     0.111 N 
BRANCH   5   6
HETATM    6  C7  UNL     1     -35.087  15.116  -5.522  1.00 20.00     0.396 C 
HETATM    7  C3  UNL     1     -34.246  15.127  -6.718  1.00 20.00     0.089 C 
HETATM    8  N9  UNL     1     -33.582  15.133  -7.669  1.00 20.00    -0.195 NA
ENDBRANCH   5   6
BRANCH   5   9
HETATM    9  C8  UNL     1     -34.514  17.444  -5.357  1.00 20.00     0.270 C 
HETATM   10  C5  UNL     1     -35.656  18.381  -5.153  1.00 20.00     0.037 C 
ENDBRANCH   5   9
ENDBRANCH   4   5
ENDBRANCH   2   4
TORSDOF 4
ENDMDL
MODEL 3
REMARK VINA RESULT:      -3.5      1.826      2.296
REMARK  4 active torsions:
REMARK  status: ('A' for Active; 'I' for Inactive)
REMARK    1  A    between atoms: C2_2  and  C6_6 
REMARK    2  A    between atoms: C6_6  and  N10_10 
REMARK    3  A    between atoms: C7_7  and  N10_10 
REMARK    4  A    between atoms: C8_8  and  N10_10 
ROOT
HETATM    1  C1  UNL     1     -33.296  16.669  -2.573  1.00 20.00    -0.109 C 
HETATM    2  C2  UNL     1     -33.391  15.872  -3.466  1.00 20.00    -0.077 C 
HETATM    3  C4  UNL     1     -33.183  17.640  -1.485  1.00 20.00     0.112 C 
ENDROOT
BRANCH   2   4
HETATM    4  C6  UNL     1     -33.507  14.894  -4.553  1.00 20.00     0.366 C 
BRANCH   4   5
HETATM    5  N10 UNL     1     -34.514  15.313  -5.527  1.00 20.00     0.111 N 
BRANCH   5   6
HETATM    6  C7  UNL     1     -35.714  14.485  -5.410  1.00 20.00     0.396 C 
HETATM    7  C3  UNL     1     -36.922  15.307  -5.477  1.00 20.00     0.089 C 
HETATM    8  N9  UNL     1     -37.882  15.956  -5.529  1.00 20.00    -0.195 NA
ENDBRANCH   5   6
BRANCH   5   9
HETATM    9  C8  UNL     1     -33.973  15.240  -6.884  1.00 20.00     0.270 C 
HETATM   10  C5  UNL     1     -34.250  16.495  -7.641  1.00 20.00     0.037 C 
ENDBRANCH   5   9
ENDBRANCH   4   5
ENDBRANCH   2   4
TORSDOF 4
ENDMDL
MODEL 4
REMARK VINA RESULT:      -3.3     11.077     11.888
REMARK  4 active torsions:
REMARK  status: ('A' for Active; 'I' for Inactive)
REMARK    1  A    between atoms: C2_2  and  C6_6 
REMARK    2  A    between atoms: C6_6  and  N10_10 
REMARK    3  A    between atoms: C7_7  and  N10_10 
REMARK    4  A    between atoms: C8_8  and  N10_10 
ROOT
HETATM    1  C1  UNL     1     -34.137   6.551   6.040  1.00 20.00    -0.109 C 
HETATM    2  C2  UNL     1     -33.585   7.460   5.483  1.00 20.00    -0.077 C 
HETATM    3  C4  UNL     1     -34.810   5.443   6.718  1.00 20.00     0.112 C 
ENDROOT
BRANCH   2   4
HETATM    4  C6  UNL     1     -32.909   8.566   4.798  1.00 20.00     0.366 C 
BRANCH   4   5
HETATM    5  N10 UNL     1     -32.945   8.383   3.348  1.00 20.00     0.111 N 
BRANCH   5   6
HETATM    6  C7  UNL     1     -31.954   7.389   2.933  1.00 20.00     0.396 C 
HETATM    7  C3  UNL     1     -32.579   6.081   2.741  1.00 20.00     0.089 C 
HETATM    8  N9  UNL     1     -33.070   5.041   2.587  1.00 20.00    -0.195 NA
ENDBRANCH   5   6
BRANCH   5   9
HETATM    9  C8  UNL     1     -32.708   9.655   2.666  1.00 20.00     0.270 C 
HETATM   10  C5  UNL     1     -32.854   9.509   1.189  1.00 20.00     0.037 C 
ENDBRANCH   5   9
ENDBRANCH   4   5
ENDBRANCH   2   4
TORSDOF 4
ENDMDL
MODEL 5
REMARK VINA RESULT:      -3.3      2.594      4.804
REMARK  4 active torsions:
REMARK  status: ('A' for Active; 'I' for Inactive)
REMARK    1  A    between atoms: C2_2  and  C6_6 
REMARK    2  A    between atoms: C6_6  and  N10_10 
REMARK    3  A    between atoms: C7_7  and  N10_10 
REMARK    4  A    between atoms: C8_8  and  N10_10 
ROOT
HETATM    1  C1  UNL     1     -33.419  15.782  -3.525  1.00 20.00    -0.109 C 
HETATM    2  C2  UNL     1     -33.211  16.666  -2.739  1.00 20.00    -0.077 C 
HETATM    3  C4  UNL     1     -33.673  14.707  -4.483  1.00 20.00     0.112 C 
ENDROOT
BRANCH   2   4
HETATM    4  C6  UNL     1     -32.957  17.749  -1.784  1.00 20.00     0.366 C 
BRANCH   4   5
HETATM    5  N10 UNL     1     -34.145  18.024  -0.977  1.00 20.00     0.111 N 
BRANCH   5   6
HETATM    6  C7  UNL     1     -34.786  19.263  -1.417  1.00 20.00     0.396 C 
HETATM    7  C3  UNL     1     -35.872  18.982  -2.356  1.00 20.00     0.089 C 
HETATM    8  N9  UNL     1     -36.733  18.763  -3.101  1.00 20.00    -0.195 NA
ENDBRANCH   5   6
BRANCH   5   9
HETATM    9  C8  UNL     1     -33.792  18.107   0.440  1.00 20.00     0.270 C 
HETATM   10  C5  UNL     1     -32.488  18.803   0.630  1.00 20.00     0.037 C 
ENDBRANCH   5   9
ENDBRANCH   4   5
ENDBRANCH   2   4
TORSDOF 4
ENDMDL
MODEL 6
REMARK VINA RESULT:      -3.3      2.812      4.928
REMARK  4 active torsions:
REMARK  status: ('A' for Active; 'I' for Inactive)
REMARK    1  A    between atoms: C2_2  and  C6_6 
REMARK    2  A    between atoms: C6_6  and  N10_10 
REMARK    3  A    between atoms: C7_7  and  N10_10 
REMARK    4  A    between atoms: C8_8  and  N10_10 
ROOT
HETATM    1  C1  UNL     1     -33.514  15.943  -3.789  1.00 20.00    -0.109 C 
HETATM    2  C2  UNL     1     -33.288  17.093  -3.531  1.00 20.00    -0.077 C 
HETATM    3  C4  UNL     1     -33.789  14.541  -4.105  1.00 20.00     0.112 C 
ENDROOT
BRANCH   2   4
HETATM    4  C6  UNL     1     -33.007  18.498  -3.220  1.00 20.00     0.366 C 
BRANCH   4   5
HETATM    5  N10 UNL     1     -33.670  18.901  -1.981  1.00 20.00     0.111 N 
BRANCH   5   6
HETATM    6  C7  UNL     1     -33.167  18.117  -0.853  1.00 20.00     0.396 C 
HETATM    7  C3  UNL     1     -31.772  18.450  -0.567  1.00 20.00     0.089 C 
HETATM    8  N9  UNL     1     -30.666  18.712  -0.338  1.00 20.00    -0.195 NA
ENDBRANCH   5   6
BRANCH   5   9
HETATM    9  C8  UNL     1     -35.120  18.749  -2.103  1.00 20.00     0.270 C 
HETATM   10  C5  UNL     1     -35.819  19.263  -0.891  1.00 20.00     0.037 C 
ENDBRANCH   5   9
ENDBRANCH   4   5
ENDBRANCH   2   4
TORSDOF 4
ENDMDL
MODEL 7
REMARK VINA RESULT:      -3.2      1.845      2.973
REMARK  4 active torsions:
REMARK  status: ('A' for Active; 'I' for Inactive)
REMARK    1  A    between atoms: C2_2  and  C6_6 
REMARK    2  A    between atoms: C6_6  and  N10_10 
REMARK    3  A    between atoms: C7_7  and  N10_10 
REMARK    4  A    between atoms: C8_8  and  N10_10 
ROOT
HETATM    1  C1  UNL     1     -32.179  18.188  -0.967  1.00 20.00    -0.109 C 
HETATM    2  C2  UNL     1     -32.849  17.488  -1.676  1.00 20.00    -0.077 C 
HETATM    3  C4  UNL     1     -31.361  19.040  -0.104  1.00 20.00     0.112 C 
ENDROOT
BRANCH   2   4
HETATM    4  C6  UNL     1     -33.664  16.634  -2.546  1.00 20.00     0.366 C 
BRANCH   4   5
HETATM    5  N10 UNL     1     -33.470  16.986  -3.952  1.00 20.00     0.111 N 
BRANCH   5   6
HETATM    6  C7  UNL     1     -34.098  18.273  -4.249  1.00 20.00     0.396 C 
HETATM    7  C3  UNL     1     -35.554  18.176  -4.159  1.00 20.00     0.089 C 
HETATM    8  N9  UNL     1     -36.710  18.102  -4.088  1.00 20.00    -0.195 NA
ENDBRANCH   5   6
BRANCH   5   9
HETATM    9  C8  UNL     1     -34.012  15.941  -4.820  1.00 20.00     0.270 C 
HETATM   10  C5  UNL     1     -33.893  14.597  -4.183  1.00 20.00     0.037 C 
ENDBRANCH   5   9
ENDBRANCH   4   5
ENDBRANCH   2   4
TORSDOF 4
ENDMDL
MODEL 8
REMARK VINA RESULT:      -3.2      2.490      3.590
REMARK  4 active torsions:
REMARK  status: ('A' for Active; 'I' for Inactive)
REMARK    1  A    between atoms: C2_2  and  C6_6 
REMARK    2  A    between atoms: C6_6  and  N10_10 
REMARK    3  A    between atoms: C7_7  and  N10_10 
REMARK    4  A    between atoms: C8_8  and  N10_10 
ROOT
HETATM    1  C1  UNL     1     -31.068  18.679   0.640  1.00 20.00    -0.109 C 
HETATM    2  C2  UNL     1     -31.625  18.837  -0.413  1.00 20.00    -0.077 C 
HETATM    3  C4  UNL     1     -30.389  18.486   1.921  1.00 20.00     0.112 C 
ENDROOT
BRANCH   2   4
HETATM    4  C6  UNL     1     -32.302  19.036  -1.698  1.00 20.00     0.366 C 
BRANCH   4   5
HETATM    5  N10 UNL     1     -33.692  18.589  -1.630  1.00 20.00     0.111 N 
BRANCH   5   6
HETATM    6  C7  UNL     1     -33.756  17.136  -1.473  1.00 20.00     0.396 C 
HETATM    7  C3  UNL     1     -33.358  16.461  -2.708  1.00 20.00     0.089 C 
HETATM    8  N9  UNL     1     -33.043  15.922  -3.686  1.00 20.00    -0.195 NA
ENDBRANCH   5   6
BRANCH   5   9
HETATM    9  C8  UNL     1     -34.422  19.006  -2.827  1.00 20.00     0.270 C 
HETATM   10  C5  UNL     1     -35.880  19.141  -2.548  1.00 20.00     0.037 C 
ENDBRANCH   5   9
ENDBRANCH   4   5
ENDBRANCH   2   4
TORSDOF 4
ENDMDL
MODEL 9
REMARK VINA RESULT:      -3.2      2.873      4.138
REMARK  4 active torsions:
REMARK  status: ('A' for Active; 'I' for Inactive)
REMARK    1  A    between atoms: C2_2  and  C6_6 
REMARK    2  A    between atoms: C6_6  and  N10_10 
REMARK    3  A    between atoms: C7_7  and  N10_10 
REMARK    4  A    between atoms: C8_8  and  N10_10 
ROOT
HETATM    1  C1  UNL     1     -31.547  18.565   0.505  1.00 20.00    -0.109 C 
HETATM    2  C2  UNL     1     -31.903  18.771  -0.623  1.00 20.00    -0.077 C 
HETATM    3  C4  UNL     1     -31.115  18.315   1.880  1.00 20.00     0.112 C 
ENDROOT
BRANCH   2   4
HETATM    4  C6  UNL     1     -32.341  19.018  -2.001  1.00 20.00     0.366 C 
BRANCH   4   5
HETATM    5  N10 UNL     1     -33.604  18.335  -2.277  1.00 20.00     0.111 N 
BRANCH   5   6
HETATM    6  C7  UNL     1     -34.686  18.919  -1.484  1.00 20.00     0.396 C 
HETATM    7  C3  UNL     1     -35.941  18.917  -2.234  1.00 20.00     0.089 C 
HETATM    8  N9  UNL     1     -36.938  18.918  -2.827  1.00 20.00    -0.195 NA
ENDBRANCH   5   6
BRANCH   5   9
HETATM    9  C8  UNL     1     -33.483  16.904  -1.999  1.00 20.00     0.270 C 
HETATM   10  C5  UNL     1     -33.373  16.119  -3.262  1.00 20.00     0.037 C 
ENDBRANCH   5   9
ENDBRANCH   4   5
ENDBRANCH   2   4
TORSDOF 4
ENDMDL
