MODEL 1
REMARK VINA RESULT:      -4.3      0.000      0.000
REMARK  4 active torsions:
REMARK  status: ('A' for Active; 'I' for Inactive)
REMARK    1  A    between atoms: C2_2  and  C7_7 
REMARK    2  A    between atoms: C5_5  and  C8_8 
REMARK    3  A    between atoms: C7_7  and  C8_8 
REMARK    4  A    between atoms: C8_8  and  O9_9 
ROOT
HETATM    1  C1  UNL     1     -32.391   8.360   2.528  1.00 20.00    -0.111 C 
HETATM    2  C2  UNL     1     -32.631   8.385   3.705  1.00 20.00    -0.104 C 
HETATM    3  C6  UNL     1     -32.100   8.329   1.096  1.00 20.00     0.112 C 
ENDROOT
BRANCH   2   4
HETATM    4  C7  UNL     1     -32.924   8.418   5.147  1.00 20.00     0.126 C 
BRANCH   4   5
HETATM    5  C8  UNL     1     -33.454   7.069   5.638  1.00 20.00     0.133 C 
BRANCH   5   6
HETATM    6  C5  UNL     1     -34.312   6.395   4.576  1.00 20.00     0.015 A 
HETATM    7  C3  UNL     1     -34.071   4.957   4.207  1.00 20.00     0.007 A 
HETATM    8  C4  UNL     1     -35.311   5.340   4.966  1.00 20.00     0.007 A 
ENDBRANCH   5   6
BRANCH   5   9
HETATM    9  O9  UNL     1     -34.256   7.286   6.799  1.00 20.00    -0.394 OA
HETATM   10  H21 UNL     1     -34.749   6.465   6.948  1.00 20.00     0.210 HD
ENDBRANCH   5   9
ENDBRANCH   4   5
ENDBRANCH   2   4
TORSDOF 4
ENDMDL
MODEL 2
REMARK VINA RESULT:      -4.1     11.972     13.072
REMARK  4 active torsions:
REMARK  status: ('A' for Active; 'I' for Inactive)
REMARK    1  A    between atoms: C2_2  and  C7_7 
REMARK    2  A    between atoms: C5_5  and  C8_8 
REMARK    3  A    between atoms: C7_7  and  C8_8 
REMARK    4  A    between atoms: C8_8  and  O9_9 
ROOT
HETATM    1  C1  UNL     1     -33.448  16.534  -2.582  1.00 20.00    -0.111 C 
HETATM    2  C2  UNL     1     -33.527  15.684  -3.427  1.00 20.00    -0.104 C 
HETATM    3  C6  UNL     1     -33.352  17.568  -1.552  1.00 20.00     0.112 C 
ENDROOT
BRANCH   2   4
HETATM    4  C7  UNL     1     -33.624  14.644  -4.464  1.00 20.00     0.126 C 
BRANCH   4   5
HETATM    5  C8  UNL     1     -34.048  15.238  -5.808  1.00 20.00     0.133 C 
BRANCH   5   6
HETATM    6  C5  UNL     1     -35.491  14.877  -6.139  1.00 20.00     0.015 A 
HETATM    7  C3  UNL     1     -36.581  15.904  -5.994  1.00 20.00     0.007 A 
HETATM    8  C4  UNL     1     -36.154  15.449  -7.362  1.00 20.00     0.007 A 
ENDBRANCH   5   6
BRANCH   5   9
HETATM    9  O9  UNL     1     -33.204  14.711  -6.831  1.00 20.00    -0.394 OA
HETATM   10  H21 UNL     1     -33.785  14.260  -7.462  1.00 20.00     0.210 HD
ENDBRANCH   5   9
ENDBRANCH   4   5
ENDBRANCH   2   4
TORSDOF 4
ENDMDL
MODEL 3
REMARK VINA RESULT:      -3.9      1.567      2.482
REMARK  4 active torsions:
REMARK  status: ('A' for Active; 'I' for Inactive)
REMARK    1  A    between atoms: C2_2  and  C7_7 
REMARK    2  A    between atoms: C5_5  and  C8_8 
REMARK    3  A    between atoms: C7_7  and  C8_8 
REMARK    4  A    between atoms: C8_8  and  O9_9 
ROOT
HETATM    1  C1  UNL     1     -32.398   7.248   1.934  1.00 20.00    -0.111 C 
HETATM    2  C2  UNL     1     -32.843   6.329   2.567  1.00 20.00    -0.104 C 
HETATM    3  C6  UNL     1     -31.855   8.366   1.165  1.00 20.00     0.112 C 
ENDROOT
BRANCH   2   4
HETATM    4  C7  UNL     1     -33.391   5.203   3.340  1.00 20.00     0.126 C 
BRANCH   4   5
HETATM    5  C8  UNL     1     -34.351   5.691   4.427  1.00 20.00     0.133 C 
BRANCH   5   6
HETATM    6  C5  UNL     1     -33.613   6.482   5.499  1.00 20.00     0.015 A 
HETATM    7  C3  UNL     1     -33.845   7.962   5.643  1.00 20.00     0.007 A 
HETATM    8  C4  UNL     1     -34.356   7.015   6.694  1.00 20.00     0.007 A 
ENDBRANCH   5   6
BRANCH   5   9
HETATM    9  O9  UNL     1     -34.963   4.557   5.042  1.00 20.00    -0.394 OA
HETATM   10  H21 UNL     1     -35.901   4.777   5.150  1.00 20.00     0.210 HD
ENDBRANCH   5   9
ENDBRANCH   4   5
ENDBRANCH   2   4
TORSDOF 4
ENDMDL
MODEL 4
REMARK VINA RESULT:      -3.9     11.681     12.536
REMARK  4 active torsions:
REMARK  status: ('A' for Active; 'I' for Inactive)
REMARK    1  A    between atoms: C2_2  and  C7_7 
REMARK    2  A    between atoms: C5_5  and  C8_8 
REMARK    3  A    between atoms: C7_7  and  C8_8 
REMARK    4  A    between atoms: C8_8  and  O9_9 
ROOT
HETATM    1  C1  UNL     1     -33.499  16.747  -2.236  1.00 20.00    -0.111 C 
HETATM    2  C2  UNL     1     -33.268  16.006  -3.153  1.00 20.00    -0.104 C 
HETATM    3  C6  UNL     1     -33.783  17.647  -1.120  1.00 20.00     0.112 C 
ENDROOT
BRANCH   2   4
HETATM    4  C7  UNL     1     -32.981  15.100  -4.277  1.00 20.00     0.126 C 
BRANCH   4   5
HETATM    5  C8  UNL     1     -34.266  14.679  -4.994  1.00 20.00     0.133 C 
BRANCH   5   6
HETATM    6  C5  UNL     1     -35.179  15.875  -5.235  1.00 20.00     0.015 A 
HETATM    7  C3  UNL     1     -35.673  16.183  -6.623  1.00 20.00     0.007 A 
HETATM    8  C4  UNL     1     -36.627  15.664  -5.582  1.00 20.00     0.007 A 
ENDBRANCH   5   6
BRANCH   5   9
HETATM    9  O9  UNL     1     -34.960  13.737  -4.177  1.00 20.00    -0.394 OA
HETATM   10  H21 UNL     1     -35.084  14.161  -3.314  1.00 20.00     0.210 HD
ENDBRANCH   5   9
ENDBRANCH   4   5
ENDBRANCH   2   4
TORSDOF 4
ENDMDL
MODEL 5
REMARK VINA RESULT:      -3.8      1.635      1.961
REMARK  4 active torsions:
REMARK  status: ('A' for Active; 'I' for Inactive)
REMARK    1  A    between atoms: C2_2  and  C7_7 
REMARK    2  A    between atoms: C5_5  and  C8_8 
REMARK    3  A    between atoms: C7_7  and  C8_8 
REMARK    4  A    between atoms: C8_8  and  O9_9 
ROOT
HETATM    1  C1  UNL     1     -32.608   8.929   1.671  1.00 20.00    -0.111 C 
HETATM    2  C2  UNL     1     -32.575   8.525   2.802  1.00 20.00    -0.104 C 
HETATM    3  C6  UNL     1     -32.648   9.419   0.294  1.00 20.00     0.112 C 
ENDROOT
BRANCH   2   4
HETATM    4  C7  UNL     1     -32.535   8.032   4.188  1.00 20.00     0.126 C 
BRANCH   4   5
HETATM    5  C8  UNL     1     -33.639   7.004   4.445  1.00 20.00     0.133 C 
BRANCH   5   6
HETATM    6  C5  UNL     1     -33.559   6.453   5.862  1.00 20.00     0.015 A 
HETATM    7  C3  UNL     1     -34.720   6.616   6.805  1.00 20.00     0.007 A 
HETATM    8  C4  UNL     1     -34.381   5.257   6.257  1.00 20.00     0.007 A 
ENDBRANCH   5   6
BRANCH   5   9
HETATM    9  O9  UNL     1     -33.480   5.921   3.528  1.00 20.00    -0.394 OA
HETATM   10  H21 UNL     1     -34.366   5.559   3.376  1.00 20.00     0.210 HD
ENDBRANCH   5   9
ENDBRANCH   4   5
ENDBRANCH   2   4
TORSDOF 4
ENDMDL
MODEL 6
REMARK VINA RESULT:      -3.8     12.153     12.718
REMARK  4 active torsions:
REMARK  status: ('A' for Active; 'I' for Inactive)
REMARK    1  A    between atoms: C2_2  and  C7_7 
REMARK    2  A    between atoms: C5_5  and  C8_8 
REMARK    3  A    between atoms: C7_7  and  C8_8 
REMARK    4  A    between atoms: C8_8  and  O9_9 
ROOT
HETATM    1  C1  UNL     1     -33.581  17.298  -1.375  1.00 20.00    -0.111 C 
HETATM    2  C2  UNL     1     -33.412  16.677  -2.390  1.00 20.00    -0.104 C 
HETATM    3  C6  UNL     1     -33.789  18.054  -0.141  1.00 20.00     0.112 C 
ENDROOT
BRANCH   2   4
HETATM    4  C7  UNL     1     -33.202  15.916  -3.631  1.00 20.00     0.126 C 
BRANCH   4   5
HETATM    5  C8  UNL     1     -34.321  16.179  -4.641  1.00 20.00     0.133 C 
BRANCH   5   6
HETATM    6  C5  UNL     1     -34.656  14.921  -5.432  1.00 20.00     0.015 A 
HETATM    7  C3  UNL     1     -36.010  14.279  -5.296  1.00 20.00     0.007 A 
HETATM    8  C4  UNL     1     -35.636  14.982  -6.572  1.00 20.00     0.007 A 
ENDBRANCH   5   6
BRANCH   5   9
HETATM    9  O9  UNL     1     -33.888  17.187  -5.554  1.00 20.00    -0.394 OA
HETATM   10  H21 UNL     1     -33.201  16.781  -6.105  1.00 20.00     0.210 HD
ENDBRANCH   5   9
ENDBRANCH   4   5
ENDBRANCH   2   4
TORSDOF 4
ENDMDL
MODEL 7
REMARK VINA RESULT:      -3.7      9.408      9.864
REMARK  4 active torsions:
REMARK  status: ('A' for Active; 'I' for Inactive)
REMARK    1  A    between atoms: C2_2  and  C7_7 
REMARK    2  A    between atoms: C5_5  and  C8_8 
REMARK    3  A    between atoms: C7_7  and  C8_8 
REMARK    4  A    between atoms: C8_8  and  O9_9 
ROOT
HETATM    1  C1  UNL     1     -42.401  14.677   4.064  1.00 20.00    -0.111 C 
HETATM    2  C2  UNL     1     -42.076  14.078   5.054  1.00 20.00    -0.104 C 
HETATM    3  C6  UNL     1     -42.796  15.403   2.859  1.00 20.00     0.112 C 
ENDROOT
BRANCH   2   4
HETATM    4  C7  UNL     1     -41.679  13.347   6.268  1.00 20.00     0.126 C 
BRANCH   4   5
HETATM    5  C8  UNL     1     -40.157  13.278   6.404  1.00 20.00     0.133 C 
BRANCH   5   6
HETATM    6  C5  UNL     1     -39.612  11.976   5.834  1.00 20.00     0.015 A 
HETATM    7  C3  UNL     1     -39.312  11.858   4.364  1.00 20.00     0.007 A 
HETATM    8  C4  UNL     1     -38.186  11.893   5.361  1.00 20.00     0.007 A 
ENDBRANCH   5   6
BRANCH   5   9
HETATM    9  O9  UNL     1     -39.816  13.345   7.788  1.00 20.00    -0.394 OA
HETATM   10  H21 UNL     1     -38.898  13.653   7.830  1.00 20.00     0.210 HD
ENDBRANCH   5   9
ENDBRANCH   4   5
ENDBRANCH   2   4
TORSDOF 4
ENDMDL
MODEL 8
REMARK VINA RESULT:      -3.6     16.019     16.714
REMARK  4 active torsions:
REMARK  status: ('A' for Active; 'I' for Inactive)
REMARK    1  A    between atoms: C2_2  and  C7_7 
REMARK    2  A    between atoms: C5_5  and  C8_8 
REMARK    3  A    between atoms: C7_7  and  C8_8 
REMARK    4  A    between atoms: C8_8  and  O9_9 
ROOT
HETATM    1  C1  UNL     1     -25.981  18.782  12.320  1.00 20.00    -0.111 C 
HETATM    2  C2  UNL     1     -24.825  18.453  12.326  1.00 20.00    -0.104 C 
HETATM    3  C6  UNL     1     -27.386  19.183  12.313  1.00 20.00     0.112 C 
ENDROOT
BRANCH   2   4
HETATM    4  C7  UNL     1     -23.410  18.049  12.332  1.00 20.00     0.126 C 
BRANCH   4   5
HETATM    5  C8  UNL     1     -22.675  18.580  11.100  1.00 20.00     0.133 C 
BRANCH   5   6
HETATM    6  C5  UNL     1     -23.242  17.982   9.820  1.00 20.00     0.015 A 
HETATM    7  C3  UNL     1     -23.534  18.863   8.636  1.00 20.00     0.007 A 
HETATM    8  C4  UNL     1     -22.390  17.889   8.584  1.00 20.00     0.007 A 
ENDBRANCH   5   6
BRANCH   5   9
HETATM    9  O9  UNL     1     -21.297  18.220  11.197  1.00 20.00    -0.394 OA
HETATM   10  H21 UNL     1     -20.989  18.067  10.290  1.00 20.00     0.210 HD
ENDBRANCH   5   9
ENDBRANCH   4   5
ENDBRANCH   2   4
TORSDOF 4
ENDMDL
MODEL 9
REMARK VINA RESULT:      -3.6      2.288      4.469
REMARK  4 active torsions:
REMARK  status: ('A' for Active; 'I' for Inactive)
REMARK    1  A    between atoms: C2_2  and  C7_7 
REMARK    2  A    between atoms: C5_5  and  C8_8 
REMARK    3  A    between atoms: C7_7  and  C8_8 
REMARK    4  A    between atoms: C8_8  and  O9_9 
ROOT
HETATM    1  C1  UNL     1     -34.311   5.339   4.910  1.00 20.00    -0.111 C 
HETATM    2  C2  UNL     1     -33.684   5.543   3.906  1.00 20.00    -0.104 C 
HETATM    3  C6  UNL     1     -35.073   5.089   6.132  1.00 20.00     0.112 C 
ENDROOT
BRANCH   2   4
HETATM    4  C7  UNL     1     -32.918   5.796   2.675  1.00 20.00     0.126 C 
BRANCH   4   5
HETATM    5  C8  UNL     1     -32.167   7.126   2.751  1.00 20.00     0.133 C 
BRANCH   5   6
HETATM    6  C5  UNL     1     -32.870   8.103   3.685  1.00 20.00     0.015 A 
HETATM    7  C3  UNL     1     -32.154   8.646   4.892  1.00 20.00     0.007 A 
HETATM    8  C4  UNL     1     -32.451   9.547   3.725  1.00 20.00     0.007 A 
ENDBRANCH   5   6
BRANCH   5   9
HETATM    9  O9  UNL     1     -32.119   7.702   1.446  1.00 20.00    -0.394 OA
HETATM   10  H21 UNL     1     -32.631   8.524   1.489  1.00 20.00     0.210 HD
ENDBRANCH   5   9
ENDBRANCH   4   5
ENDBRANCH   2   4
TORSDOF 4
ENDMDL
