MODEL 1
REMARK VINA RESULT:      -4.5      0.000      0.000
REMARK  6 active torsions:
REMARK  status: ('A' for Active; 'I' for Inactive)
REMARK    1  A    between atoms: C2_2  and  C5_5 
REMARK    2  A    between atoms: C5_5  and  C7_7 
REMARK    3  A    between atoms: C6_6  and  C8_8 
REMARK    4  A    between atoms: C7_7  and  C9_9 
REMARK    5  A    between atoms: C8_8  and  C9_9 
REMARK    6  A    between atoms: C9_9  and  O10_10 
ROOT
HETATM    1  C1  UNL     1     -32.589   8.826   1.982  1.00 20.00    -0.111 C 
HETATM    2  C2  UNL     1     -32.609   8.589   3.159  1.00 20.00    -0.107 C 
HETATM    3  C3  UNL     1     -32.567   9.120   0.550  1.00 20.00     0.112 C 
ENDROOT
BRANCH   2   4
HETATM    4  C5  UNL     1     -32.635   8.296   4.598  1.00 20.00     0.096 C 
BRANCH   4   5
HETATM    5  C7  UNL     1     -34.044   7.976   5.100  1.00 20.00     0.044 C 
BRANCH   5   6
HETATM    6  C9  UNL     1     -34.118   7.114   6.370  1.00 20.00     0.119 C 
BRANCH   6   7
HETATM    7  C8  UNL     1     -34.805   5.759   6.148  1.00 20.00     0.031 C 
BRANCH   7   8
HETATM    8  C6  UNL     1     -35.033   5.461   4.662  1.00 20.00    -0.002 C 
HETATM    9  C4  UNL     1     -33.972   4.516   4.118  1.00 20.00     0.005 C 
ENDBRANCH   7   8
ENDBRANCH   6   7
BRANCH   6  10
HETATM   10  O10 UNL     1     -32.782   6.898   6.827  1.00 20.00    -0.396 OA
HETATM   11  H26 UNL     1     -32.381   7.776   6.918  1.00 20.00     0.210 HD
ENDBRANCH   6  10
ENDBRANCH   5   6
ENDBRANCH   4   5
ENDBRANCH   2   4
TORSDOF 6
ENDMDL
MODEL 2
REMARK VINA RESULT:      -4.3      1.862      2.916
REMARK  6 active torsions:
REMARK  status: ('A' for Active; 'I' for Inactive)
REMARK    1  A    between atoms: C2_2  and  C5_5 
REMARK    2  A    between atoms: C5_5  and  C7_7 
REMARK    3  A    between atoms: C6_6  and  C8_8 
REMARK    4  A    between atoms: C7_7  and  C9_9 
REMARK    5  A    between atoms: C8_8  and  C9_9 
REMARK    6  A    between atoms: C9_9  and  O10_10 
ROOT
HETATM    1  C1  UNL     1     -32.941   8.552   4.771  1.00 20.00    -0.111 C 
HETATM    2  C2  UNL     1     -33.445   7.877   5.628  1.00 20.00    -0.107 C 
HETATM    3  C3  UNL     1     -32.324   9.374   3.732  1.00 20.00     0.112 C 
ENDROOT
BRANCH   2   4
HETATM    4  C5  UNL     1     -34.064   7.055   6.676  1.00 20.00     0.096 C 
BRANCH   4   5
HETATM    5  C7  UNL     1     -34.537   5.700   6.148  1.00 20.00     0.044 C 
BRANCH   5   6
HETATM    6  C9  UNL     1     -34.642   5.581   4.619  1.00 20.00     0.119 C 
BRANCH   6   7
HETATM    7  C8  UNL     1     -33.991   4.309   4.059  1.00 20.00     0.031 C 
BRANCH   7   8
HETATM    8  C6  UNL     1     -33.272   4.562   2.729  1.00 20.00    -0.002 C 
HETATM    9  C4  UNL     1     -32.690   5.966   2.673  1.00 20.00     0.005 C 
ENDBRANCH   7   8
ENDBRANCH   6   7
BRANCH   6  10
HETATM   10  O10 UNL     1     -36.029   5.595   4.276  1.00 20.00    -0.396 OA
HETATM   11  H26 UNL     1     -36.506   5.291   5.063  1.00 20.00     0.210 HD
ENDBRANCH   6  10
ENDBRANCH   5   6
ENDBRANCH   4   5
ENDBRANCH   2   4
TORSDOF 6
ENDMDL
MODEL 3
REMARK VINA RESULT:      -4.2      1.552      2.502
REMARK  6 active torsions:
REMARK  status: ('A' for Active; 'I' for Inactive)
REMARK    1  A    between atoms: C2_2  and  C5_5 
REMARK    2  A    between atoms: C5_5  and  C7_7 
REMARK    3  A    between atoms: C6_6  and  C8_8 
REMARK    4  A    between atoms: C7_7  and  C9_9 
REMARK    5  A    between atoms: C8_8  and  C9_9 
REMARK    6  A    between atoms: C9_9  and  O10_10 
ROOT
HETATM    1  C1  UNL     1     -32.655   5.754   2.582  1.00 20.00    -0.111 C 
HETATM    2  C2  UNL     1     -32.417   6.886   2.909  1.00 20.00    -0.107 C 
HETATM    3  C3  UNL     1     -32.949   4.379   2.183  1.00 20.00     0.112 C 
ENDROOT
BRANCH   2   4
HETATM    4  C5  UNL     1     -32.126   8.267   3.311  1.00 20.00     0.096 C 
BRANCH   4   5
HETATM    5  C7  UNL     1     -32.340   8.494   4.809  1.00 20.00     0.044 C 
BRANCH   5   6
HETATM    6  C9  UNL     1     -33.670   7.973   5.377  1.00 20.00     0.119 C 
BRANCH   6   7
HETATM    7  C8  UNL     1     -33.497   6.826   6.382  1.00 20.00     0.031 C 
BRANCH   7   8
HETATM    8  C6  UNL     1     -34.584   5.757   6.234  1.00 20.00    -0.002 C 
HETATM    9  C4  UNL     1     -35.258   5.837   4.873  1.00 20.00     0.005 C 
ENDBRANCH   7   8
ENDBRANCH   6   7
BRANCH   6  10
HETATM   10  O10 UNL     1     -34.329   9.069   6.015  1.00 20.00    -0.396 OA
HETATM   11  H26 UNL     1     -35.279   8.922   5.893  1.00 20.00     0.210 HD
ENDBRANCH   6  10
ENDBRANCH   5   6
ENDBRANCH   4   5
ENDBRANCH   2   4
TORSDOF 6
ENDMDL
MODEL 4
REMARK VINA RESULT:      -4.2      1.964      3.089
REMARK  6 active torsions:
REMARK  status: ('A' for Active; 'I' for Inactive)
REMARK    1  A    between atoms: C2_2  and  C5_5 
REMARK    2  A    between atoms: C5_5  and  C7_7 
REMARK    3  A    between atoms: C6_6  and  C8_8 
REMARK    4  A    between atoms: C7_7  and  C9_9 
REMARK    5  A    between atoms: C8_8  and  C9_9 
REMARK    6  A    between atoms: C9_9  and  O10_10 
ROOT
HETATM    1  C1  UNL     1     -32.232   8.191   4.014  1.00 20.00    -0.111 C 
HETATM    2  C2  UNL     1     -32.299   7.272   3.242  1.00 20.00    -0.107 C 
HETATM    3  C3  UNL     1     -32.145   9.306   4.954  1.00 20.00     0.112 C 
ENDROOT
BRANCH   2   4
HETATM    4  C5  UNL     1     -32.384   6.149   2.300  1.00 20.00     0.096 C 
BRANCH   4   5
HETATM    5  C7  UNL     1     -33.504   5.171   2.661  1.00 20.00     0.044 C 
BRANCH   5   6
HETATM    6  C9  UNL     1     -33.747   4.964   4.164  1.00 20.00     0.119 C 
BRANCH   6   7
HETATM    7  C8  UNL     1     -35.004   5.678   4.683  1.00 20.00     0.031 C 
BRANCH   7   8
HETATM    8  C6  UNL     1     -35.011   5.800   6.211  1.00 20.00    -0.002 C 
HETATM    9  C4  UNL     1     -34.167   6.977   6.677  1.00 20.00     0.005 C 
ENDBRANCH   7   8
ENDBRANCH   6   7
BRANCH   6  10
HETATM   10  O10 UNL     1     -33.871   3.560   4.396  1.00 20.00    -0.396 OA
HETATM   11  H26 UNL     1     -34.390   3.463   5.208  1.00 20.00     0.210 HD
ENDBRANCH   6  10
ENDBRANCH   5   6
ENDBRANCH   4   5
ENDBRANCH   2   4
TORSDOF 6
ENDMDL
MODEL 5
REMARK VINA RESULT:      -4.2     11.298     12.529
REMARK  6 active torsions:
REMARK  status: ('A' for Active; 'I' for Inactive)
REMARK    1  A    between atoms: C2_2  and  C5_5 
REMARK    2  A    between atoms: C5_5  and  C7_7 
REMARK    3  A    between atoms: C6_6  and  C8_8 
REMARK    4  A    between atoms: C7_7  and  C9_9 
REMARK    5  A    between atoms: C8_8  and  C9_9 
REMARK    6  A    between atoms: C9_9  and  O10_10 
ROOT
HETATM    1  C1  UNL     1     -33.524  17.033  -1.875  1.00 20.00    -0.111 C 
HETATM    2  C2  UNL     1     -33.368  16.429  -2.903  1.00 20.00    -0.107 C 
HETATM    3  C3  UNL     1     -33.709  17.767  -0.625  1.00 20.00     0.112 C 
ENDROOT
BRANCH   2   4
HETATM    4  C5  UNL     1     -33.179  15.690  -4.157  1.00 20.00     0.096 C 
BRANCH   4   5
HETATM    5  C7  UNL     1     -33.814  14.299  -4.113  1.00 20.00     0.044 C 
BRANCH   5   6
HETATM    6  C9  UNL     1     -35.301  14.234  -4.497  1.00 20.00     0.119 C 
BRANCH   6   7
HETATM    7  C8  UNL     1     -35.600  14.822  -5.883  1.00 20.00     0.031 C 
BRANCH   7   8
HETATM    8  C6  UNL     1     -36.706  15.882  -5.836  1.00 20.00    -0.002 C 
HETATM    9  C4  UNL     1     -36.130  17.276  -5.646  1.00 20.00     0.005 C 
ENDBRANCH   7   8
ENDBRANCH   6   7
BRANCH   6  10
HETATM   10  O10 UNL     1     -35.698  12.862  -4.468  1.00 20.00    -0.396 OA
HETATM   11  H26 UNL     1     -35.839  12.601  -5.391  1.00 20.00     0.210 HD
ENDBRANCH   6  10
ENDBRANCH   5   6
ENDBRANCH   4   5
ENDBRANCH   2   4
TORSDOF 6
ENDMDL
MODEL 6
REMARK VINA RESULT:      -4.1     11.765     12.389
REMARK  6 active torsions:
REMARK  status: ('A' for Active; 'I' for Inactive)
REMARK    1  A    between atoms: C2_2  and  C5_5 
REMARK    2  A    between atoms: C5_5  and  C7_7 
REMARK    3  A    between atoms: C6_6  and  C8_8 
REMARK    4  A    between atoms: C7_7  and  C9_9 
REMARK    5  A    between atoms: C8_8  and  C9_9 
REMARK    6  A    between atoms: C9_9  and  O10_10 
ROOT
HETATM    1  C1  UNL     1     -32.258  18.119  -1.100  1.00 20.00    -0.111 C 
HETATM    2  C2  UNL     1     -32.947  17.441  -1.814  1.00 20.00    -0.107 C 
HETATM    3  C3  UNL     1     -31.422  18.947  -0.232  1.00 20.00     0.112 C 
ENDROOT
BRANCH   2   4
HETATM    4  C5  UNL     1     -33.787  16.613  -2.688  1.00 20.00     0.096 C 
BRANCH   4   5
HETATM    5  C7  UNL     1     -32.968  15.868  -3.745  1.00 20.00     0.044 C 
BRANCH   5   6
HETATM    6  C9  UNL     1     -33.708  14.746  -4.490  1.00 20.00     0.119 C 
BRANCH   6   7
HETATM    7  C8  UNL     1     -34.101  15.123  -5.925  1.00 20.00     0.031 C 
BRANCH   7   8
HETATM    8  C6  UNL     1     -35.566  14.791  -6.230  1.00 20.00    -0.002 C 
HETATM    9  C4  UNL     1     -36.256  14.168  -5.026  1.00 20.00     0.005 C 
ENDBRANCH   7   8
ENDBRANCH   6   7
BRANCH   6  10
HETATM   10  O10 UNL     1     -32.851  13.603  -4.517  1.00 20.00    -0.396 OA
HETATM   11  H26 UNL     1     -32.337  13.629  -3.696  1.00 20.00     0.210 HD
ENDBRANCH   6  10
ENDBRANCH   5   6
ENDBRANCH   4   5
ENDBRANCH   2   4
TORSDOF 6
ENDMDL
MODEL 7
REMARK VINA RESULT:      -4.1      1.492      2.674
REMARK  6 active torsions:
REMARK  status: ('A' for Active; 'I' for Inactive)
REMARK    1  A    between atoms: C2_2  and  C5_5 
REMARK    2  A    between atoms: C5_5  and  C7_7 
REMARK    3  A    between atoms: C6_6  and  C8_8 
REMARK    4  A    between atoms: C7_7  and  C9_9 
REMARK    5  A    between atoms: C8_8  and  C9_9 
REMARK    6  A    between atoms: C9_9  and  O10_10 
ROOT
HETATM    1  C1  UNL     1     -32.395   7.250   1.839  1.00 20.00    -0.111 C 
HETATM    2  C2  UNL     1     -32.805   6.344   2.515  1.00 20.00    -0.107 C 
HETATM    3  C3  UNL     1     -31.897   8.348   1.013  1.00 20.00     0.112 C 
ENDROOT
BRANCH   2   4
HETATM    4  C5  UNL     1     -33.302   5.238   3.342  1.00 20.00     0.096 C 
BRANCH   4   5
HETATM    5  C7  UNL     1     -34.449   5.667   4.259  1.00 20.00     0.044 C 
BRANCH   5   6
HETATM    6  C9  UNL     1     -34.133   5.667   5.763  1.00 20.00     0.119 C 
BRANCH   6   7
HETATM    7  C8  UNL     1     -33.941   7.074   6.347  1.00 20.00     0.031 C 
BRANCH   7   8
HETATM    8  C6  UNL     1     -33.889   8.151   5.258  1.00 20.00    -0.002 C 
HETATM    9  C4  UNL     1     -32.496   8.750   5.138  1.00 20.00     0.005 C 
ENDBRANCH   7   8
ENDBRANCH   6   7
BRANCH   6  10
HETATM   10  O10 UNL     1     -35.216   5.019   6.434  1.00 20.00    -0.396 OA
HETATM   11  H26 UNL     1     -35.961   5.637   6.407  1.00 20.00     0.210 HD
ENDBRANCH   6  10
ENDBRANCH   5   6
ENDBRANCH   4   5
ENDBRANCH   2   4
TORSDOF 6
ENDMDL
MODEL 8
REMARK VINA RESULT:      -4.0     12.056     13.690
REMARK  6 active torsions:
REMARK  status: ('A' for Active; 'I' for Inactive)
REMARK    1  A    between atoms: C2_2  and  C5_5 
REMARK    2  A    between atoms: C5_5  and  C7_7 
REMARK    3  A    between atoms: C6_6  and  C8_8 
REMARK    4  A    between atoms: C7_7  and  C9_9 
REMARK    5  A    between atoms: C8_8  and  C9_9 
REMARK    6  A    between atoms: C9_9  and  O10_10 
ROOT
HETATM    1  C1  UNL     1     -33.356  16.597  -2.583  1.00 20.00    -0.111 C 
HETATM    2  C2  UNL     1     -33.432  15.742  -3.423  1.00 20.00    -0.107 C 
HETATM    3  C3  UNL     1     -33.259  17.636  -1.559  1.00 20.00     0.112 C 
ENDROOT
BRANCH   2   4
HETATM    4  C5  UNL     1     -33.528  14.695  -4.448  1.00 20.00     0.096 C 
BRANCH   4   5
HETATM    5  C7  UNL     1     -34.765  14.858  -5.332  1.00 20.00     0.044 C 
BRANCH   5   6
HETATM    6  C9  UNL     1     -34.500  15.351  -6.763  1.00 20.00     0.119 C 
BRANCH   6   7
HETATM    7  C8  UNL     1     -34.595  16.876  -6.910  1.00 20.00     0.031 C 
BRANCH   7   8
HETATM    8  C6  UNL     1     -35.583  17.494  -5.915  1.00 20.00    -0.002 C 
HETATM    9  C4  UNL     1     -34.971  18.683  -5.191  1.00 20.00     0.005 C 
ENDBRANCH   7   8
ENDBRANCH   6   7
BRANCH   6  10
HETATM   10  O10 UNL     1     -33.189  14.920  -7.136  1.00 20.00    -0.396 OA
HETATM   11  H26 UNL     1     -32.919  14.268  -6.471  1.00 20.00     0.210 HD
ENDBRANCH   6  10
ENDBRANCH   5   6
ENDBRANCH   4   5
ENDBRANCH   2   4
TORSDOF 6
ENDMDL
MODEL 9
REMARK VINA RESULT:      -3.9      1.758      2.544
REMARK  6 active torsions:
REMARK  status: ('A' for Active; 'I' for Inactive)
REMARK    1  A    between atoms: C2_2  and  C5_5 
REMARK    2  A    between atoms: C5_5  and  C7_7 
REMARK    3  A    between atoms: C6_6  and  C8_8 
REMARK    4  A    between atoms: C7_7  and  C9_9 
REMARK    5  A    between atoms: C8_8  and  C9_9 
REMARK    6  A    between atoms: C9_9  and  O10_10 
ROOT
HETATM    1  C1  UNL     1     -32.507   8.579   1.127  1.00 20.00    -0.111 C 
HETATM    2  C2  UNL     1     -32.396   7.786   2.022  1.00 20.00    -0.107 C 
HETATM    3  C3  UNL     1     -32.637   9.546   0.037  1.00 20.00     0.112 C 
ENDROOT
BRANCH   2   4
HETATM    4  C5  UNL     1     -32.261   6.818   3.117  1.00 20.00     0.096 C 
BRANCH   4   5
HETATM    5  C7  UNL     1     -33.203   5.623   2.957  1.00 20.00     0.044 C 
BRANCH   5   6
HETATM    6  C9  UNL     1     -33.709   4.994   4.264  1.00 20.00     0.119 C 
BRANCH   6   7
HETATM    7  C8  UNL     1     -35.009   5.626   4.783  1.00 20.00     0.031 C 
BRANCH   7   8
HETATM    8  C6  UNL     1     -34.900   6.054   6.250  1.00 20.00    -0.002 C 
HETATM    9  C4  UNL     1     -33.827   7.116   6.439  1.00 20.00     0.005 C 
ENDBRANCH   7   8
ENDBRANCH   6   7
BRANCH   6  10
HETATM   10  O10 UNL     1     -33.922   3.602   4.024  1.00 20.00    -0.396 OA
HETATM   11  H26 UNL     1     -34.707   3.541   3.458  1.00 20.00     0.210 HD
ENDBRANCH   6  10
ENDBRANCH   5   6
ENDBRANCH   4   5
ENDBRANCH   2   4
TORSDOF 6
ENDMDL
