MODEL 1
REMARK VINA RESULT:      -4.0      0.000      0.000
REMARK  3 active torsions:
REMARK  status: ('A' for Active; 'I' for Inactive)
REMARK    1  A    between atoms: C2_2  and  C11_11 
REMARK    2  A    between atoms: C7_7  and  C11_11 
REMARK    3  A    between atoms: C8_8  and  C12_12 
ROOT
HETATM    1  C1  UNL     1     -32.163  18.284  -0.833  1.00 20.00    -0.111 C 
HETATM    2  C2  UNL     1     -32.824  17.501  -1.459  1.00 20.00    -0.106 C 
HETATM    3  C9  UNL     1     -31.356  19.237  -0.073  1.00 20.00     0.112 C 
ENDROOT
BRANCH   2   4
HETATM    4  C11 UNL     1     -33.631  16.539  -2.215  1.00 20.00     0.106 C 
BRANCH   4   5
HETATM    5  C7  UNL     1     -33.196  16.487  -3.674  1.00 20.00     0.067 C 
HETATM    6  C3  UNL     1     -33.945  15.383  -4.407  1.00 20.00     0.132 C 
HETATM    7  C4  UNL     1     -35.026  15.794  -5.382  1.00 20.00     0.079 C 
HETATM    8  O13 UNL     1     -33.672  14.196  -4.223  1.00 20.00    -0.298 OA
HETATM    9  C5  UNL     1     -35.744  17.032  -4.869  1.00 20.00     0.012 C 
HETATM   10  C8  UNL     1     -34.795  18.233  -4.743  1.00 20.00    -0.014 C 
HETATM   11  C6  UNL     1     -33.348  17.826  -4.405  1.00 20.00     0.017 C 
BRANCH  10  12
HETATM   12  C12 UNL     1     -35.348  19.263  -3.757  1.00 20.00     0.000 C 
HETATM   13  C10 UNL     1     -36.559  18.751  -3.049  1.00 20.00     0.005 C 
ENDBRANCH  10  12
ENDBRANCH   4   5
ENDBRANCH   2   4
TORSDOF 3
ENDMDL
MODEL 2
REMARK VINA RESULT:      -3.8     12.323     13.343
REMARK  3 active torsions:
REMARK  status: ('A' for Active; 'I' for Inactive)
REMARK    1  A    between atoms: C2_2  and  C11_11 
REMARK    2  A    between atoms: C7_7  and  C11_11 
REMARK    3  A    between atoms: C8_8  and  C12_12 
ROOT
HETATM    1  C1  UNL     1     -40.131  15.134  10.359  1.00 20.00    -0.111 C 
HETATM    2  C2  UNL     1     -40.279  15.107   9.168  1.00 20.00    -0.106 C 
HETATM    3  C9  UNL     1     -39.953  15.167  11.810  1.00 20.00     0.112 C 
ENDROOT
BRANCH   2   4
HETATM    4  C11 UNL     1     -40.458  15.082   7.713  1.00 20.00     0.106 C 
BRANCH   4   5
HETATM    5  C7  UNL     1     -41.819  14.508   7.338  1.00 20.00     0.067 C 
HETATM    6  C3  UNL     1     -42.386  15.245   6.134  1.00 20.00     0.132 C 
HETATM    7  C4  UNL     1     -42.398  14.520   4.807  1.00 20.00     0.079 C 
HETATM    8  O13 UNL     1     -42.833  16.389   6.237  1.00 20.00    -0.298 OA
HETATM    9  C5  UNL     1     -41.166  13.637   4.686  1.00 20.00     0.012 C 
HETATM   10  C8  UNL     1     -41.130  12.552   5.773  1.00 20.00    -0.014 C 
HETATM   11  C6  UNL     1     -41.796  12.996   7.090  1.00 20.00     0.017 C 
BRANCH  10  12
HETATM   12  C12 UNL     1     -39.703  12.048   5.991  1.00 20.00     0.000 C 
HETATM   13  C10 UNL     1     -39.015  11.765   4.696  1.00 20.00     0.005 C 
ENDBRANCH  10  12
ENDBRANCH   4   5
ENDBRANCH   2   4
TORSDOF 3
ENDMDL
MODEL 3
REMARK VINA RESULT:      -3.8     12.299     13.584
REMARK  3 active torsions:
REMARK  status: ('A' for Active; 'I' for Inactive)
REMARK    1  A    between atoms: C2_2  and  C11_11 
REMARK    2  A    between atoms: C7_7  and  C11_11 
REMARK    3  A    between atoms: C8_8  and  C12_12 
ROOT
HETATM    1  C1  UNL     1     -39.488  12.184   5.088  1.00 20.00    -0.111 C 
HETATM    2  C2  UNL     1     -39.952  12.838   5.981  1.00 20.00    -0.106 C 
HETATM    3  C9  UNL     1     -38.920  11.387   4.001  1.00 20.00     0.112 C 
ENDROOT
BRANCH   2   4
HETATM    4  C11 UNL     1     -40.528  13.639   7.066  1.00 20.00     0.106 C 
BRANCH   4   5
HETATM    5  C7  UNL     1     -41.946  13.185   7.389  1.00 20.00     0.067 C 
HETATM    6  C3  UNL     1     -42.397  13.775   8.717  1.00 20.00     0.132 C 
HETATM    7  C4  UNL     1     -43.417  14.890   8.682  1.00 20.00     0.079 C 
HETATM    8  O13 UNL     1     -41.956  13.350   9.787  1.00 20.00    -0.298 OA
HETATM    9  C5  UNL     1     -43.182  15.770   7.464  1.00 20.00     0.012 C 
HETATM   10  C8  UNL     1     -43.349  14.989   6.152  1.00 20.00    -0.014 C 
HETATM   11  C6  UNL     1     -42.956  13.504   6.280  1.00 20.00     0.017 C 
BRANCH  10  12
HETATM   12  C12 UNL     1     -42.608  15.683   5.009  1.00 20.00     0.000 C 
HETATM   13  C10 UNL     1     -42.393  14.761   3.854  1.00 20.00     0.005 C 
ENDBRANCH  10  12
ENDBRANCH   4   5
ENDBRANCH   2   4
TORSDOF 3
ENDMDL
MODEL 4
REMARK VINA RESULT:      -3.7     11.664     13.229
REMARK  3 active torsions:
REMARK  status: ('A' for Active; 'I' for Inactive)
REMARK    1  A    between atoms: C2_2  and  C11_11 
REMARK    2  A    between atoms: C7_7  and  C11_11 
REMARK    3  A    between atoms: C8_8  and  C12_12 
ROOT
HETATM    1  C1  UNL     1     -32.249   7.804   1.272  1.00 20.00    -0.111 C 
HETATM    2  C2  UNL     1     -32.408   7.010   2.158  1.00 20.00    -0.106 C 
HETATM    3  C9  UNL     1     -32.054   8.772   0.193  1.00 20.00     0.112 C 
ENDROOT
BRANCH   2   4
HETATM    4  C11 UNL     1     -32.612   6.040   3.239  1.00 20.00     0.106 C 
BRANCH   4   5
HETATM    5  C7  UNL     1     -34.036   6.109   3.775  1.00 20.00     0.067 C 
HETATM    6  C3  UNL     1     -34.255   5.027   4.822  1.00 20.00     0.132 C 
HETATM    7  C4  UNL     1     -34.343   5.456   6.270  1.00 20.00     0.079 C 
HETATM    8  O13 UNL     1     -34.372   3.842   4.502  1.00 20.00    -0.298 OA
HETATM    9  C5  UNL     1     -33.402   6.623   6.523  1.00 20.00     0.012 C 
HETATM   10  C8  UNL     1     -33.776   7.853   5.683  1.00 20.00    -0.014 C 
HETATM   11  C6  UNL     1     -34.414   7.487   4.329  1.00 20.00     0.017 C 
BRANCH  10  12
HETATM   12  C12 UNL     1     -32.576   8.786   5.520  1.00 20.00     0.000 C 
HETATM   13  C10 UNL     1     -32.602   9.491   4.204  1.00 20.00     0.005 C 
ENDBRANCH  10  12
ENDBRANCH   4   5
ENDBRANCH   2   4
TORSDOF 3
ENDMDL
MODEL 5
REMARK VINA RESULT:      -3.6      1.556      2.299
REMARK  3 active torsions:
REMARK  status: ('A' for Active; 'I' for Inactive)
REMARK    1  A    between atoms: C2_2  and  C11_11 
REMARK    2  A    between atoms: C7_7  and  C11_11 
REMARK    3  A    between atoms: C8_8  and  C12_12 
ROOT
HETATM    1  C1  UNL     1     -33.324  17.106  -2.334  1.00 20.00    -0.111 C 
HETATM    2  C2  UNL     1     -33.710  16.483  -3.285  1.00 20.00    -0.106 C 
HETATM    3  C9  UNL     1     -32.855  17.865  -1.175  1.00 20.00     0.112 C 
ENDROOT
BRANCH   2   4
HETATM    4  C11 UNL     1     -34.178  15.729  -4.452  1.00 20.00     0.106 C 
BRANCH   4   5
HETATM    5  C7  UNL     1     -34.121  16.581  -5.713  1.00 20.00     0.067 C 
HETATM    6  C3  UNL     1     -34.495  15.746  -6.929  1.00 20.00     0.132 C 
HETATM    7  C4  UNL     1     -35.847  15.990  -7.562  1.00 20.00     0.079 C 
HETATM    8  O13 UNL     1     -33.719  14.907  -7.391  1.00 20.00    -0.298 OA
HETATM    9  C5  UNL     1     -36.869  16.327  -6.488  1.00 20.00     0.012 C 
HETATM   10  C8  UNL     1     -36.504  17.615  -5.734  1.00 20.00    -0.014 C 
HETATM   11  C6  UNL     1     -34.984  17.846  -5.635  1.00 20.00     0.017 C 
BRANCH  10  12
HETATM   12  C12 UNL     1     -37.182  17.654  -4.364  1.00 20.00     0.000 C 
HETATM   13  C10 UNL     1     -36.669  18.780  -3.528  1.00 20.00     0.005 C 
ENDBRANCH  10  12
ENDBRANCH   4   5
ENDBRANCH   2   4
TORSDOF 3
ENDMDL
MODEL 6
REMARK VINA RESULT:      -3.6     12.537     13.815
REMARK  3 active torsions:
REMARK  status: ('A' for Active; 'I' for Inactive)
REMARK    1  A    between atoms: C2_2  and  C11_11 
REMARK    2  A    between atoms: C7_7  and  C11_11 
REMARK    3  A    between atoms: C8_8  and  C12_12 
ROOT
HETATM    1  C1  UNL     1     -39.499  12.265   5.119  1.00 20.00    -0.111 C 
HETATM    2  C2  UNL     1     -39.936  12.864   6.063  1.00 20.00    -0.106 C 
HETATM    3  C9  UNL     1     -38.967  11.537   3.968  1.00 20.00     0.112 C 
ENDROOT
BRANCH   2   4
HETATM    4  C11 UNL     1     -40.477  13.590   7.217  1.00 20.00     0.106 C 
BRANCH   4   5
HETATM    5  C7  UNL     1     -41.950  13.923   7.013  1.00 20.00     0.067 C 
HETATM    6  C3  UNL     1     -42.781  13.349   8.151  1.00 20.00     0.132 C 
HETATM    7  C4  UNL     1     -43.335  14.315   9.174  1.00 20.00     0.079 C 
HETATM    8  O13 UNL     1     -43.007  12.140   8.229  1.00 20.00    -0.298 OA
HETATM    9  C5  UNL     1     -42.347  15.446   9.409  1.00 20.00     0.012 C 
HETATM   10  C8  UNL     1     -42.098  16.263   8.133  1.00 20.00    -0.014 C 
HETATM   11  C6  UNL     1     -42.217  15.424   6.846  1.00 20.00     0.017 C 
BRANCH  10  12
HETATM   12  C12 UNL     1     -40.764  17.005   8.213  1.00 20.00     0.000 C 
HETATM   13  C10 UNL     1     -40.626  18.010   7.117  1.00 20.00     0.005 C 
ENDBRANCH  10  12
ENDBRANCH   4   5
ENDBRANCH   2   4
TORSDOF 3
ENDMDL
MODEL 7
REMARK VINA RESULT:      -3.6     12.892     14.130
REMARK  3 active torsions:
REMARK  status: ('A' for Active; 'I' for Inactive)
REMARK    1  A    between atoms: C2_2  and  C11_11 
REMARK    2  A    between atoms: C7_7  and  C11_11 
REMARK    3  A    between atoms: C8_8  and  C12_12 
ROOT
HETATM    1  C1  UNL     1     -39.439  12.175   4.948  1.00 20.00    -0.111 C 
HETATM    2  C2  UNL     1     -39.865  12.760   5.905  1.00 20.00    -0.106 C 
HETATM    3  C9  UNL     1     -38.921  11.462   3.781  1.00 20.00     0.112 C 
ENDROOT
BRANCH   2   4
HETATM    4  C11 UNL     1     -40.388  13.468   7.079  1.00 20.00     0.106 C 
BRANCH   4   5
HETATM    5  C7  UNL     1     -41.856  13.829   6.891  1.00 20.00     0.067 C 
HETATM    6  C3  UNL     1     -42.739  12.837   7.634  1.00 20.00     0.132 C 
HETATM    7  C4  UNL     1     -43.417  13.310   8.901  1.00 20.00     0.079 C 
HETATM    8  O13 UNL     1     -42.908  11.692   7.212  1.00 20.00    -0.298 OA
HETATM    9  C5  UNL     1     -42.509  14.274   9.647  1.00 20.00     0.012 C 
HETATM   10  C8  UNL     1     -42.208  15.533   8.821  1.00 20.00    -0.014 C 
HETATM   11  C6  UNL     1     -42.187  15.268   7.303  1.00 20.00     0.017 C 
BRANCH  10  12
HETATM   12  C12 UNL     1     -40.923  16.207   9.304  1.00 20.00     0.000 C 
HETATM   13  C10 UNL     1     -40.206  15.367  10.309  1.00 20.00     0.005 C 
ENDBRANCH  10  12
ENDBRANCH   4   5
ENDBRANCH   2   4
TORSDOF 3
ENDMDL
MODEL 8
REMARK VINA RESULT:      -3.5     12.561     13.879
REMARK  3 active torsions:
REMARK  status: ('A' for Active; 'I' for Inactive)
REMARK    1  A    between atoms: C2_2  and  C11_11 
REMARK    2  A    between atoms: C7_7  and  C11_11 
REMARK    3  A    between atoms: C8_8  and  C12_12 
ROOT
HETATM    1  C1  UNL     1     -39.597  12.126   5.062  1.00 20.00    -0.111 C 
HETATM    2  C2  UNL     1     -40.153  12.668   5.977  1.00 20.00    -0.106 C 
HETATM    3  C9  UNL     1     -38.918  11.467   3.947  1.00 20.00     0.112 C 
ENDROOT
BRANCH   2   4
HETATM    4  C11 UNL     1     -40.841  13.329   7.091  1.00 20.00     0.106 C 
BRANCH   4   5
HETATM    5  C7  UNL     1     -41.163  14.779   6.752  1.00 20.00     0.067 C 
HETATM    6  C3  UNL     1     -42.666  15.012   6.816  1.00 20.00     0.132 C 
HETATM    7  C4  UNL     1     -43.206  15.806   7.984  1.00 20.00     0.079 C 
HETATM    8  O13 UNL     1     -43.417  14.580   5.938  1.00 20.00    -0.298 OA
HETATM    9  C5  UNL     1     -42.399  15.502   9.236  1.00 20.00     0.012 C 
HETATM   10  C8  UNL     1     -40.926  15.908   9.080  1.00 20.00    -0.014 C 
HETATM   11  C6  UNL     1     -40.418  15.791   7.630  1.00 20.00     0.017 C 
BRANCH  10  12
HETATM   12  C12 UNL     1     -40.043  15.138  10.062  1.00 20.00     0.000 C 
HETATM   13  C10 UNL     1     -40.815  14.089  10.791  1.00 20.00     0.005 C 
ENDBRANCH  10  12
ENDBRANCH   4   5
ENDBRANCH   2   4
TORSDOF 3
ENDMDL
MODEL 9
REMARK VINA RESULT:      -3.5     12.778     14.071
REMARK  3 active torsions:
REMARK  status: ('A' for Active; 'I' for Inactive)
REMARK    1  A    between atoms: C2_2  and  C11_11 
REMARK    2  A    between atoms: C7_7  and  C11_11 
REMARK    3  A    between atoms: C8_8  and  C12_12 
ROOT
HETATM    1  C1  UNL     1     -39.737  12.236   5.140  1.00 20.00    -0.111 C 
HETATM    2  C2  UNL     1     -40.348  12.762   6.030  1.00 20.00    -0.106 C 
HETATM    3  C9  UNL     1     -38.991  11.595   4.058  1.00 20.00     0.112 C 
ENDROOT
BRANCH   2   4
HETATM    4  C11 UNL     1     -41.096  13.412   7.111  1.00 20.00     0.106 C 
BRANCH   4   5
HETATM    5  C7  UNL     1     -40.751  14.892   7.203  1.00 20.00     0.067 C 
HETATM    6  C3  UNL     1     -41.947  15.737   6.790  1.00 20.00     0.132 C 
HETATM    7  C4  UNL     1     -42.699  16.472   7.877  1.00 20.00     0.079 C 
HETATM    8  O13 UNL     1     -42.285  15.831   5.608  1.00 20.00    -0.298 OA
HETATM    9  C5  UNL     1     -42.720  15.638   9.148  1.00 20.00     0.012 C 
HETATM   10  C8  UNL     1     -41.306  15.388   9.692  1.00 20.00    -0.014 C 
HETATM   11  C6  UNL     1     -40.237  15.314   8.584  1.00 20.00     0.017 C 
BRANCH  10  12
HETATM   12  C12 UNL     1     -41.282  14.155  10.597  1.00 20.00     0.000 C 
HETATM   13  C10 UNL     1     -42.600  13.453  10.605  1.00 20.00     0.005 C 
ENDBRANCH  10  12
ENDBRANCH   4   5
ENDBRANCH   2   4
TORSDOF 3
ENDMDL
