MODEL 1
REMARK VINA RESULT:      -5.1      0.000      0.000
REMARK  3 active torsions:
REMARK  status: ('A' for Active; 'I' for Inactive)
REMARK    1  A    between atoms: C2_2  and  C9_9 
REMARK    2  A    between atoms: C6_6  and  C9_9 
REMARK    3  A    between atoms: C7_7  and  O10_10 
ROOT
HETATM    1  C1  UNL     1     -32.661   8.937   1.900  1.00 20.00    -0.111 C 
HETATM    2  C2  UNL     1     -32.669   8.584   3.048  1.00 20.00    -0.107 C 
HETATM    3  C8  UNL     1     -32.650   9.368   0.504  1.00 20.00     0.112 C 
ENDROOT
BRANCH   2   4
HETATM    4  C9  UNL     1     -32.685   8.150   4.449  1.00 20.00     0.101 C 
BRANCH   4   5
HETATM    5  C6  UNL     1     -33.800   7.147   4.702  1.00 20.00     0.025 C 
HETATM    6  C4  UNL     1     -33.659   5.871   3.878  1.00 20.00     0.008 C 
HETATM    7  C3  UNL     1     -34.489   4.827   4.626  1.00 20.00     0.003 C 
HETATM    8  C5  UNL     1     -34.719   5.386   6.030  1.00 20.00     0.032 C 
HETATM    9  C7  UNL     1     -33.818   6.611   6.132  1.00 20.00     0.123 C 
BRANCH   9  10
HETATM   10  O10 UNL     1     -34.342   7.568   7.031  1.00 20.00    -0.395 OA
HETATM   11  H24 UNL     1     -35.230   7.805   6.712  1.00 20.00     0.210 HD
ENDBRANCH   9  10
ENDBRANCH   4   5
ENDBRANCH   2   4
TORSDOF 3
ENDMDL
MODEL 2
REMARK VINA RESULT:      -4.6      1.501      1.961
REMARK  3 active torsions:
REMARK  status: ('A' for Active; 'I' for Inactive)
REMARK    1  A    between atoms: C2_2  and  C9_9 
REMARK    2  A    between atoms: C6_6  and  C9_9 
REMARK    3  A    between atoms: C7_7  and  O10_10 
ROOT
HETATM    1  C1  UNL     1     -32.650   8.805   2.216  1.00 20.00    -0.111 C 
HETATM    2  C2  UNL     1     -32.689   8.644   3.405  1.00 20.00    -0.107 C 
HETATM    3  C8  UNL     1     -32.603   8.999   0.768  1.00 20.00     0.112 C 
ENDROOT
BRANCH   2   4
HETATM    4  C9  UNL     1     -32.734   8.454   4.859  1.00 20.00     0.101 C 
BRANCH   4   5
HETATM    5  C6  UNL     1     -33.137   7.032   5.216  1.00 20.00     0.025 C 
HETATM    6  C4  UNL     1     -34.150   6.961   6.355  1.00 20.00     0.008 C 
HETATM    7  C3  UNL     1     -34.814   5.592   6.205  1.00 20.00     0.003 C 
HETATM    8  C5  UNL     1     -34.491   5.110   4.791  1.00 20.00     0.032 C 
HETATM    9  C7  UNL     1     -33.866   6.308   4.087  1.00 20.00     0.123 C 
BRANCH   9  10
HETATM   10  O10 UNL     1     -32.966   5.903   3.073  1.00 20.00    -0.395 OA
HETATM   11  H24 UNL     1     -32.719   6.701   2.574  1.00 20.00     0.210 HD
ENDBRANCH   9  10
ENDBRANCH   4   5
ENDBRANCH   2   4
TORSDOF 3
ENDMDL
MODEL 3
REMARK VINA RESULT:      -4.5     11.563     12.092
REMARK  3 active torsions:
REMARK  status: ('A' for Active; 'I' for Inactive)
REMARK    1  A    between atoms: C2_2  and  C9_9 
REMARK    2  A    between atoms: C6_6  and  C9_9 
REMARK    3  A    between atoms: C7_7  and  O10_10 
ROOT
HETATM    1  C1  UNL     1     -33.404  16.149  -3.172  1.00 20.00    -0.111 C 
HETATM    2  C2  UNL     1     -33.625  17.031  -2.387  1.00 20.00    -0.107 C 
HETATM    3  C8  UNL     1     -33.134  15.077  -4.127  1.00 20.00     0.112 C 
ENDROOT
BRANCH   2   4
HETATM    4  C9  UNL     1     -33.901  18.109  -1.431  1.00 20.00     0.101 C 
BRANCH   4   5
HETATM    5  C6  UNL     1     -32.965  18.036  -0.235  1.00 20.00     0.025 C 
HETATM    6  C4  UNL     1     -31.535  18.457  -0.563  1.00 20.00     0.008 C 
HETATM    7  C3  UNL     1     -30.918  18.835   0.784  1.00 20.00     0.003 C 
HETATM    8  C5  UNL     1     -32.085  19.031   1.751  1.00 20.00     0.032 C 
HETATM    9  C7  UNL     1     -33.339  19.003   0.886  1.00 20.00     0.123 C 
BRANCH   9  10
HETATM   10  O10 UNL     1     -34.461  18.537   1.611  1.00 20.00    -0.395 OA
HETATM   11  H24 UNL     1     -34.128  18.179   2.452  1.00 20.00     0.210 HD
ENDBRANCH   9  10
ENDBRANCH   4   5
ENDBRANCH   2   4
TORSDOF 3
ENDMDL
MODEL 4
REMARK VINA RESULT:      -4.4     11.799     12.633
REMARK  3 active torsions:
REMARK  status: ('A' for Active; 'I' for Inactive)
REMARK    1  A    between atoms: C2_2  and  C9_9 
REMARK    2  A    between atoms: C6_6  and  C9_9 
REMARK    3  A    between atoms: C7_7  and  O10_10 
ROOT
HETATM    1  C1  UNL     1     -33.629  17.525  -0.975  1.00 20.00    -0.111 C 
HETATM    2  C2  UNL     1     -33.330  17.054  -2.038  1.00 20.00    -0.107 C 
HETATM    3  C8  UNL     1     -33.994  18.099   0.319  1.00 20.00     0.112 C 
ENDROOT
BRANCH   2   4
HETATM    4  C9  UNL     1     -32.958  16.478  -3.335  1.00 20.00     0.101 C 
BRANCH   4   5
HETATM    5  C6  UNL     1     -34.173  15.919  -4.057  1.00 20.00     0.025 C 
HETATM    6  C4  UNL     1     -35.013  16.993  -4.742  1.00 20.00     0.008 C 
HETATM    7  C3  UNL     1     -35.813  16.245  -5.810  1.00 20.00     0.003 C 
HETATM    8  C5  UNL     1     -35.122  14.895  -5.996  1.00 20.00     0.032 C 
HETATM    9  C7  UNL     1     -33.815  14.996  -5.220  1.00 20.00     0.123 C 
BRANCH   9  10
HETATM   10  O10 UNL     1     -33.387  13.730  -4.755  1.00 20.00    -0.395 OA
HETATM   11  H24 UNL     1     -33.414  13.759  -3.783  1.00 20.00     0.210 HD
ENDBRANCH   9  10
ENDBRANCH   4   5
ENDBRANCH   2   4
TORSDOF 3
ENDMDL
MODEL 5
REMARK VINA RESULT:      -4.2     11.792     13.346
REMARK  3 active torsions:
REMARK  status: ('A' for Active; 'I' for Inactive)
REMARK    1  A    between atoms: C2_2  and  C9_9 
REMARK    2  A    between atoms: C6_6  and  C9_9 
REMARK    3  A    between atoms: C7_7  and  O10_10 
ROOT
HETATM    1  C1  UNL     1     -33.394  16.542  -2.945  1.00 20.00    -0.111 C 
HETATM    2  C2  UNL     1     -33.708  15.566  -3.570  1.00 20.00    -0.107 C 
HETATM    3  C8  UNL     1     -33.010  17.730  -2.185  1.00 20.00     0.112 C 
ENDROOT
BRANCH   2   4
HETATM    4  C9  UNL     1     -34.093  14.371  -4.329  1.00 20.00     0.101 C 
BRANCH   4   5
HETATM    5  C6  UNL     1     -34.868  14.741  -5.583  1.00 20.00     0.025 C 
HETATM    6  C4  UNL     1     -36.101  15.594  -5.298  1.00 20.00     0.008 C 
HETATM    7  C3  UNL     1     -36.412  16.290  -6.624  1.00 20.00     0.003 C 
HETATM    8  C5  UNL     1     -35.152  16.165  -7.480  1.00 20.00     0.032 C 
HETATM    9  C7  UNL     1     -34.077  15.624  -6.545  1.00 20.00     0.123 C 
BRANCH   9  10
HETATM   10  O10 UNL     1     -33.107  14.873  -7.249  1.00 20.00    -0.395 OA
HETATM   11  H24 UNL     1     -32.807  15.420  -7.994  1.00 20.00     0.210 HD
ENDBRANCH   9  10
ENDBRANCH   4   5
ENDBRANCH   2   4
TORSDOF 3
ENDMDL
MODEL 6
REMARK VINA RESULT:      -4.1     11.761     13.089
REMARK  3 active torsions:
REMARK  status: ('A' for Active; 'I' for Inactive)
REMARK    1  A    between atoms: C2_2  and  C9_9 
REMARK    2  A    between atoms: C6_6  and  C9_9 
REMARK    3  A    between atoms: C7_7  and  O10_10 
ROOT
HETATM    1  C1  UNL     1     -33.288  16.671  -2.515  1.00 20.00    -0.111 C 
HETATM    2  C2  UNL     1     -33.572  15.828  -3.321  1.00 20.00    -0.107 C 
HETATM    3  C8  UNL     1     -32.942  17.698  -1.534  1.00 20.00     0.112 C 
ENDROOT
BRANCH   2   4
HETATM    4  C9  UNL     1     -33.921  14.794  -4.302  1.00 20.00     0.101 C 
BRANCH   4   5
HETATM    5  C6  UNL     1     -34.640  15.392  -5.500  1.00 20.00     0.025 C 
HETATM    6  C4  UNL     1     -33.778  15.435  -6.759  1.00 20.00     0.008 C 
HETATM    7  C3  UNL     1     -34.775  15.535  -7.914  1.00 20.00     0.003 C 
HETATM    8  C5  UNL     1     -36.134  15.126  -7.346  1.00 20.00     0.032 C 
HETATM    9  C7  UNL     1     -35.842  14.570  -5.957  1.00 20.00     0.123 C 
BRANCH   9  10
HETATM   10  O10 UNL     1     -36.943  14.745  -5.086  1.00 20.00    -0.395 OA
HETATM   11  H24 UNL     1     -36.852  15.626  -4.684  1.00 20.00     0.210 HD
ENDBRANCH   9  10
ENDBRANCH   4   5
ENDBRANCH   2   4
TORSDOF 3
ENDMDL
MODEL 7
REMARK VINA RESULT:      -4.1     11.595     12.614
REMARK  3 active torsions:
REMARK  status: ('A' for Active; 'I' for Inactive)
REMARK    1  A    between atoms: C2_2  and  C9_9 
REMARK    2  A    between atoms: C6_6  and  C9_9 
REMARK    3  A    between atoms: C7_7  and  O10_10 
ROOT
HETATM    1  C1  UNL     1     -33.379  16.430  -3.489  1.00 20.00    -0.111 C 
HETATM    2  C2  UNL     1     -33.131  17.569  -3.203  1.00 20.00    -0.107 C 
HETATM    3  C8  UNL     1     -33.678  15.042  -3.837  1.00 20.00     0.112 C 
ENDROOT
BRANCH   2   4
HETATM    4  C9  UNL     1     -32.831  18.963  -2.859  1.00 20.00     0.101 C 
BRANCH   4   5
HETATM    5  C6  UNL     1     -32.968  19.202  -1.364  1.00 20.00     0.025 C 
HETATM    6  C4  UNL     1     -34.343  18.829  -0.817  1.00 20.00     0.008 C 
HETATM    7  C3  UNL     1     -34.126  18.618   0.681  1.00 20.00     0.003 C 
HETATM    8  C5  UNL     1     -32.620  18.456   0.879  1.00 20.00     0.032 C 
HETATM    9  C7  UNL     1     -32.037  18.331  -0.523  1.00 20.00     0.123 C 
BRANCH   9  10
HETATM   10  O10 UNL     1     -30.705  18.806  -0.577  1.00 20.00    -0.395 OA
HETATM   11  H24 UNL     1     -30.683  19.522  -1.235  1.00 20.00     0.210 HD
ENDBRANCH   9  10
ENDBRANCH   4   5
ENDBRANCH   2   4
TORSDOF 3
ENDMDL
MODEL 8
REMARK VINA RESULT:      -4.1      1.634      2.199
REMARK  3 active torsions:
REMARK  status: ('A' for Active; 'I' for Inactive)
REMARK    1  A    between atoms: C2_2  and  C9_9 
REMARK    2  A    between atoms: C6_6  and  C9_9 
REMARK    3  A    between atoms: C7_7  and  O10_10 
ROOT
HETATM    1  C1  UNL     1     -32.617   8.378   1.397  1.00 20.00    -0.111 C 
HETATM    2  C2  UNL     1     -32.619   7.326   1.977  1.00 20.00    -0.107 C 
HETATM    3  C8  UNL     1     -32.616   9.659   0.693  1.00 20.00     0.112 C 
ENDROOT
BRANCH   2   4
HETATM    4  C9  UNL     1     -32.623   6.039   2.680  1.00 20.00     0.101 C 
BRANCH   4   5
HETATM    5  C6  UNL     1     -32.980   6.215   4.148  1.00 20.00     0.025 C 
HETATM    6  C4  UNL     1     -33.100   7.678   4.567  1.00 20.00     0.008 C 
HETATM    7  C3  UNL     1     -33.954   7.654   5.834  1.00 20.00     0.003 C 
HETATM    8  C5  UNL     1     -34.637   6.287   5.867  1.00 20.00     0.032 C 
HETATM    9  C7  UNL     1     -34.356   5.660   4.507  1.00 20.00     0.123 C 
BRANCH   9  10
HETATM   10  O10 UNL     1     -34.335   4.247   4.580  1.00 20.00    -0.395 OA
HETATM   11  H24 UNL     1     -34.528   4.006   5.502  1.00 20.00     0.210 HD
ENDBRANCH   9  10
ENDBRANCH   4   5
ENDBRANCH   2   4
TORSDOF 3
ENDMDL
MODEL 9
REMARK VINA RESULT:      -3.9      1.938      4.820
REMARK  3 active torsions:
REMARK  status: ('A' for Active; 'I' for Inactive)
REMARK    1  A    between atoms: C2_2  and  C9_9 
REMARK    2  A    between atoms: C6_6  and  C9_9 
REMARK    3  A    between atoms: C7_7  and  O10_10 
ROOT
HETATM    1  C1  UNL     1     -34.062   6.579   5.894  1.00 20.00    -0.111 C 
HETATM    2  C2  UNL     1     -33.484   7.465   5.326  1.00 20.00    -0.107 C 
HETATM    3  C8  UNL     1     -34.764   5.500   6.587  1.00 20.00     0.112 C 
ENDROOT
BRANCH   2   4
HETATM    4  C9  UNL     1     -32.779   8.545   4.626  1.00 20.00     0.101 C 
BRANCH   4   5
HETATM    5  C6  UNL     1     -33.029   8.485   3.127  1.00 20.00     0.025 C 
HETATM    6  C4  UNL     1     -32.860   9.834   2.434  1.00 20.00     0.008 C 
HETATM    7  C3  UNL     1     -32.613   9.492   0.965  1.00 20.00     0.003 C 
HETATM    8  C5  UNL     1     -32.229   8.013   0.926  1.00 20.00     0.032 C 
HETATM    9  C7  UNL     1     -32.026   7.608   2.381  1.00 20.00     0.123 C 
BRANCH   9  10
HETATM   10  O10 UNL     1     -32.299   6.234   2.581  1.00 20.00    -0.395 OA
HETATM   11  H24 UNL     1     -31.611   5.890   3.176  1.00 20.00     0.210 HD
ENDBRANCH   9  10
ENDBRANCH   4   5
ENDBRANCH   2   4
TORSDOF 3
ENDMDL
