MODEL 1
REMARK VINA RESULT:      -4.2      0.000      0.000
REMARK  3 active torsions:
REMARK  status: ('A' for Active; 'I' for Inactive)
REMARK    1  A    between atoms: C2_2  and  C9_9 
REMARK    2  A    between atoms: C7_7  and  N10_10 
REMARK    3  A    between atoms: C9_9  and  N10_10 
ROOT
HETATM    1  C1  UNL     1     -33.476  17.006  -1.915  1.00 20.00    -0.109 C 
HETATM    2  C2  UNL     1     -33.334  16.304  -2.879  1.00 20.00    -0.077 C 
HETATM    3  C8  UNL     1     -33.651  17.861  -0.742  1.00 20.00     0.112 C 
ENDROOT
BRANCH   2   4
HETATM    4  C9  UNL     1     -33.160  15.453  -4.060  1.00 20.00     0.363 C 
BRANCH   4   5
HETATM    5  N10 UNL     1     -33.751  16.069  -5.236  1.00 20.00     0.099 N 
HETATM    6  H26 UNL     1     -33.031  16.543  -5.772  1.00 20.00     0.317 HD
BRANCH   5   7
HETATM    7  C7  UNL     1     -34.374  15.071  -6.075  1.00 20.00     0.225 C 
HETATM    8  C3  UNL     1     -34.663  15.633  -7.468  1.00 20.00     0.062 C 
HETATM    9  C5  UNL     1     -35.870  16.564  -7.459  1.00 20.00     0.169 C 
HETATM   10  O11 UNL     1     -37.012  15.907  -6.912  1.00 20.00    -0.391 OA
HETATM   11  C6  UNL     1     -36.811  15.520  -5.553  1.00 20.00     0.169 C 
HETATM   12  C4  UNL     1     -35.655  14.529  -5.436  1.00 20.00     0.062 C 
ENDBRANCH   5   7
ENDBRANCH   4   5
ENDBRANCH   2   4
TORSDOF 3
ENDMDL
MODEL 2
REMARK VINA RESULT:      -4.1     12.252     13.425
REMARK  3 active torsions:
REMARK  status: ('A' for Active; 'I' for Inactive)
REMARK    1  A    between atoms: C2_2  and  C9_9 
REMARK    2  A    between atoms: C7_7  and  N10_10 
REMARK    3  A    between atoms: C9_9  and  N10_10 
ROOT
HETATM    1  C1  UNL     1     -32.608   9.054   1.794  1.00 20.00    -0.109 C 
HETATM    2  C2  UNL     1     -32.494   8.984   2.988  1.00 20.00    -0.077 C 
HETATM    3  C8  UNL     1     -32.745   9.139   0.341  1.00 20.00     0.112 C 
ENDROOT
BRANCH   2   4
HETATM    4  C9  UNL     1     -32.353   8.906   4.445  1.00 20.00     0.363 C 
BRANCH   4   5
HETATM    5  N10 UNL     1     -32.622   7.559   4.920  1.00 20.00     0.099 N 
HETATM    6  H26 UNL     1     -32.150   7.409   5.807  1.00 20.00     0.317 HD
BRANCH   5   7
HETATM    7  C7  UNL     1     -34.041   7.360   5.111  1.00 20.00     0.225 C 
HETATM    8  C3  UNL     1     -34.330   6.795   6.502  1.00 20.00     0.062 C 
HETATM    9  C5  UNL     1     -33.979   5.314   6.593  1.00 20.00     0.169 C 
HETATM   10  O11 UNL     1     -34.651   4.572   5.576  1.00 20.00    -0.391 OA
HETATM   11  C6  UNL     1     -34.265   4.983   4.265  1.00 20.00     0.169 C 
HETATM   12  C4  UNL     1     -34.623   6.448   4.027  1.00 20.00     0.062 C 
ENDBRANCH   5   7
ENDBRANCH   4   5
ENDBRANCH   2   4
TORSDOF 3
ENDMDL
MODEL 3
REMARK VINA RESULT:      -4.1      1.954      2.957
REMARK  3 active torsions:
REMARK  status: ('A' for Active; 'I' for Inactive)
REMARK    1  A    between atoms: C2_2  and  C9_9 
REMARK    2  A    between atoms: C7_7  and  N10_10 
REMARK    3  A    between atoms: C9_9  and  N10_10 
ROOT
HETATM    1  C1  UNL     1     -31.949  18.496  -0.180  1.00 20.00    -0.109 C 
HETATM    2  C2  UNL     1     -32.849  18.170  -0.905  1.00 20.00    -0.077 C 
HETATM    3  C8  UNL     1     -30.851  18.891   0.702  1.00 20.00     0.112 C 
ENDROOT
BRANCH   2   4
HETATM    4  C9  UNL     1     -33.952  17.770  -1.784  1.00 20.00     0.363 C 
BRANCH   4   5
HETATM    5  N10 UNL     1     -33.760  16.415  -2.273  1.00 20.00     0.099 N 
HETATM    6  H26 UNL     1     -34.649  15.925  -2.279  1.00 20.00     0.317 HD
BRANCH   5   7
HETATM    7  C7  UNL     1     -33.229  16.429  -3.618  1.00 20.00     0.225 C 
HETATM    8  C3  UNL     1     -34.109  17.271  -4.543  1.00 20.00     0.062 C 
HETATM    9  C5  UNL     1     -35.392  16.538  -4.918  1.00 20.00     0.169 C 
HETATM   10  O11 UNL     1     -35.098  15.265  -5.491  1.00 20.00    -0.391 OA
HETATM   11  C6  UNL     1     -34.416  14.408  -4.576  1.00 20.00     0.169 C 
HETATM   12  C4  UNL     1     -33.074  15.008  -4.168  1.00 20.00     0.062 C 
ENDBRANCH   5   7
ENDBRANCH   4   5
ENDBRANCH   2   4
TORSDOF 3
ENDMDL
MODEL 4
REMARK VINA RESULT:      -3.8     12.074     13.215
REMARK  3 active torsions:
REMARK  status: ('A' for Active; 'I' for Inactive)
REMARK    1  A    between atoms: C2_2  and  C9_9 
REMARK    2  A    between atoms: C7_7  and  N10_10 
REMARK    3  A    between atoms: C9_9  and  N10_10 
ROOT
HETATM    1  C1  UNL     1     -32.538   8.843   1.081  1.00 20.00    -0.109 C 
HETATM    2  C2  UNL     1     -32.267   8.295   2.115  1.00 20.00    -0.077 C 
HETATM    3  C8  UNL     1     -32.869   9.512  -0.177  1.00 20.00     0.112 C 
ENDROOT
BRANCH   2   4
HETATM    4  C9  UNL     1     -31.942   7.625   3.377  1.00 20.00     0.363 C 
BRANCH   4   5
HETATM    5  N10 UNL     1     -32.828   6.496   3.609  1.00 20.00     0.099 N 
HETATM    6  H26 UNL     1     -32.415   5.874   4.297  1.00 20.00     0.317 HD
BRANCH   5   7
HETATM    7  C7  UNL     1     -34.110   6.948   4.102  1.00 20.00     0.225 C 
HETATM    8  C3  UNL     1     -33.938   7.839   5.332  1.00 20.00     0.062 C 
HETATM    9  C5  UNL     1     -33.602   7.023   6.576  1.00 20.00     0.169 C 
HETATM   10  O11 UNL     1     -34.583   6.010   6.795  1.00 20.00    -0.391 OA
HETATM   11  C6  UNL     1     -34.640   5.074   5.719  1.00 20.00     0.169 C 
HETATM   12  C4  UNL     1     -35.031   5.766   4.417  1.00 20.00     0.062 C 
ENDBRANCH   5   7
ENDBRANCH   4   5
ENDBRANCH   2   4
TORSDOF 3
ENDMDL
MODEL 5
REMARK VINA RESULT:      -3.7      2.031      3.121
REMARK  3 active torsions:
REMARK  status: ('A' for Active; 'I' for Inactive)
REMARK    1  A    between atoms: C2_2  and  C9_9 
REMARK    2  A    between atoms: C7_7  and  N10_10 
REMARK    3  A    between atoms: C9_9  and  N10_10 
ROOT
HETATM    1  C1  UNL     1     -32.252  18.784  -0.890  1.00 20.00    -0.109 C 
HETATM    2  C2  UNL     1     -32.581  19.000  -2.025  1.00 20.00    -0.077 C 
HETATM    3  C8  UNL     1     -31.852  18.519   0.492  1.00 20.00     0.112 C 
ENDROOT
BRANCH   2   4
HETATM    4  C9  UNL     1     -32.989  19.263  -3.408  1.00 20.00     0.363 C 
BRANCH   4   5
HETATM    5  N10 UNL     1     -33.027  18.033  -4.180  1.00 20.00     0.099 N 
HETATM    6  H26 UNL     1     -32.166  17.513  -4.037  1.00 20.00     0.317 HD
BRANCH   5   7
HETATM    7  C7  UNL     1     -34.141  17.208  -3.771  1.00 20.00     0.225 C 
HETATM    8  C3  UNL     1     -33.665  15.814  -3.359  1.00 20.00     0.062 C 
HETATM    9  C5  UNL     1     -33.311  14.960  -4.571  1.00 20.00     0.169 C 
HETATM   10  O11 UNL     1     -34.409  14.891  -5.479  1.00 20.00    -0.391 OA
HETATM   11  C6  UNL     1     -34.760  16.174  -5.998  1.00 20.00     0.169 C 
HETATM   12  C4  UNL     1     -35.196  17.112  -4.876  1.00 20.00     0.062 C 
ENDBRANCH   5   7
ENDBRANCH   4   5
ENDBRANCH   2   4
TORSDOF 3
ENDMDL
MODEL 6
REMARK VINA RESULT:      -3.5      3.246      5.997
REMARK  3 active torsions:
REMARK  status: ('A' for Active; 'I' for Inactive)
REMARK    1  A    between atoms: C2_2  and  C9_9 
REMARK    2  A    between atoms: C7_7  and  N10_10 
REMARK    3  A    between atoms: C9_9  and  N10_10 
ROOT
HETATM    1  C1  UNL     1     -34.814  15.188  -4.908  1.00 20.00    -0.109 C 
HETATM    2  C2  UNL     1     -34.062  15.677  -4.110  1.00 20.00    -0.077 C 
HETATM    3  C8  UNL     1     -35.729  14.593  -5.882  1.00 20.00     0.112 C 
ENDROOT
BRANCH   2   4
HETATM    4  C9  UNL     1     -33.147  16.280  -3.135  1.00 20.00     0.363 C 
BRANCH   4   5
HETATM    5  N10 UNL     1     -33.869  16.738  -1.960  1.00 20.00     0.099 N 
HETATM    6  H26 UNL     1     -33.439  16.353  -1.124  1.00 20.00     0.317 HD
BRANCH   5   7
HETATM    7  C7  UNL     1     -33.840  18.180  -1.874  1.00 20.00     0.225 C 
HETATM    8  C3  UNL     1     -32.405  18.703  -1.957  1.00 20.00     0.062 C 
HETATM    9  C5  UNL     1     -31.650  18.481  -0.652  1.00 20.00     0.169 C 
HETATM   10  O11 UNL     1     -32.356  19.059   0.446  1.00 20.00    -0.391 OA
HETATM   11  C6  UNL     1     -33.639  18.464   0.634  1.00 20.00     0.169 C 
HETATM   12  C4  UNL     1     -34.520  18.674  -0.594  1.00 20.00     0.062 C 
ENDBRANCH   5   7
ENDBRANCH   4   5
ENDBRANCH   2   4
TORSDOF 3
ENDMDL
MODEL 7
REMARK VINA RESULT:      -3.5     12.476     14.645
REMARK  3 active torsions:
REMARK  status: ('A' for Active; 'I' for Inactive)
REMARK    1  A    between atoms: C2_2  and  C9_9 
REMARK    2  A    between atoms: C7_7  and  N10_10 
REMARK    3  A    between atoms: C9_9  and  N10_10 
ROOT
HETATM    1  C1  UNL     1     -39.971  12.119   5.154  1.00 20.00    -0.109 C 
HETATM    2  C2  UNL     1     -40.761  12.498   5.975  1.00 20.00    -0.077 C 
HETATM    3  C8  UNL     1     -39.007  11.658   4.155  1.00 20.00     0.112 C 
ENDROOT
BRANCH   2   4
HETATM    4  C9  UNL     1     -41.724  12.966   6.976  1.00 20.00     0.363 C 
BRANCH   4   5
HETATM    5  N10 UNL     1     -41.758  14.419   7.023  1.00 20.00     0.099 N 
HETATM    6  H26 UNL     1     -42.542  14.723   7.593  1.00 20.00     0.317 HD
BRANCH   5   7
HETATM    7  C7  UNL     1     -40.537  14.939   7.596  1.00 20.00     0.225 C 
HETATM    8  C3  UNL     1     -40.360  14.453   9.035  1.00 20.00     0.062 C 
HETATM    9  C5  UNL     1     -41.280  15.196   9.997  1.00 20.00     0.169 C 
HETATM   10  O11 UNL     1     -41.089  16.606   9.892  1.00 20.00    -0.391 OA
HETATM   11  C6  UNL     1     -41.408  17.098   8.591  1.00 20.00     0.169 C 
HETATM   12  C4  UNL     1     -40.504  16.468   7.536  1.00 20.00     0.062 C 
ENDBRANCH   5   7
ENDBRANCH   4   5
ENDBRANCH   2   4
TORSDOF 3
ENDMDL
MODEL 8
REMARK VINA RESULT:      -3.4      1.597      2.389
REMARK  3 active torsions:
REMARK  status: ('A' for Active; 'I' for Inactive)
REMARK    1  A    between atoms: C2_2  and  C9_9 
REMARK    2  A    between atoms: C7_7  and  N10_10 
REMARK    3  A    between atoms: C9_9  and  N10_10 
ROOT
HETATM    1  C1  UNL     1     -32.606  18.266  -1.921  1.00 20.00    -0.109 C 
HETATM    2  C2  UNL     1     -33.184  18.182  -2.971  1.00 20.00    -0.077 C 
HETATM    3  C8  UNL     1     -31.902  18.368  -0.644  1.00 20.00     0.112 C 
ENDROOT
BRANCH   2   4
HETATM    4  C9  UNL     1     -33.891  18.073  -4.250  1.00 20.00     0.363 C 
BRANCH   4   5
HETATM    5  N10 UNL     1     -34.902  17.030  -4.197  1.00 20.00     0.099 N 
HETATM    6  H26 UNL     1     -35.524  17.197  -3.412  1.00 20.00     0.317 HD
BRANCH   5   7
HETATM    7  C7  UNL     1     -35.683  17.015  -5.413  1.00 20.00     0.225 C 
HETATM    8  C3  UNL     1     -36.713  15.885  -5.386  1.00 20.00     0.062 C 
HETATM    9  C5  UNL     1     -36.066  14.527  -5.633  1.00 20.00     0.169 C 
HETATM   10  O11 UNL     1     -35.327  14.534  -6.854  1.00 20.00    -0.391 OA
HETATM   11  C6  UNL     1     -34.256  15.477  -6.830  1.00 20.00     0.169 C 
HETATM   12  C4  UNL     1     -34.786  16.896  -6.648  1.00 20.00     0.062 C 
ENDBRANCH   5   7
ENDBRANCH   4   5
ENDBRANCH   2   4
TORSDOF 3
ENDMDL
MODEL 9
REMARK VINA RESULT:      -3.4     13.101     15.263
REMARK  3 active torsions:
REMARK  status: ('A' for Active; 'I' for Inactive)
REMARK    1  A    between atoms: C2_2  and  C9_9 
REMARK    2  A    between atoms: C7_7  and  N10_10 
REMARK    3  A    between atoms: C9_9  and  N10_10 
ROOT
HETATM    1  C1  UNL     1     -39.654  12.252   4.959  1.00 20.00    -0.109 C 
HETATM    2  C2  UNL     1     -40.278  12.837   5.803  1.00 20.00    -0.077 C 
HETATM    3  C8  UNL     1     -38.896  11.540   3.931  1.00 20.00     0.112 C 
ENDROOT
BRANCH   2   4
HETATM    4  C9  UNL     1     -41.043  13.546   6.832  1.00 20.00     0.363 C 
BRANCH   4   5
HETATM    5  N10 UNL     1     -40.179  13.977   7.918  1.00 20.00     0.099 N 
HETATM    6  H26 UNL     1     -39.270  14.237   7.548  1.00 20.00     0.317 HD
BRANCH   5   7
HETATM    7  C7  UNL     1     -40.747  15.118   8.600  1.00 20.00     0.225 C 
HETATM    8  C3  UNL     1     -40.092  15.318   9.967  1.00 20.00     0.062 C 
HETATM    9  C5  UNL     1     -40.593  14.298  10.984  1.00 20.00     0.169 C 
HETATM   10  O11 UNL     1     -42.017  14.331  11.075  1.00 20.00    -0.391 OA
HETATM   11  C6  UNL     1     -42.643  13.987   9.839  1.00 20.00     0.169 C 
HETATM   12  C4  UNL     1     -42.265  14.979   8.743  1.00 20.00     0.062 C 
ENDBRANCH   5   7
ENDBRANCH   4   5
ENDBRANCH   2   4
TORSDOF 3
ENDMDL
