MODEL 1
REMARK VINA RESULT:      -4.1      0.000      0.000
REMARK  4 active torsions:
REMARK  status: ('A' for Active; 'I' for Inactive)
REMARK    1  A    between atoms: C2_2  and  C7_7 
REMARK    2  A    between atoms: C7_7  and  N11_11 
REMARK    3  A    between atoms: C8_8  and  C9_9 
REMARK    4  A    between atoms: C8_8  and  N11_11 
ROOT
HETATM    1  C1  UNL     1     -33.608  17.337  -1.301  1.00 20.00    -0.109 C 
HETATM    2  C2  UNL     1     -33.438  16.777  -2.349  1.00 20.00    -0.079 C 
HETATM    3  C4  UNL     1     -33.812  18.018  -0.023  1.00 20.00     0.112 C 
ENDROOT
BRANCH   2   4
HETATM    4  C7  UNL     1     -33.232  16.091  -3.622  1.00 20.00     0.327 C 
BRANCH   4   5
HETATM    5  N11 UNL     1     -33.853  16.893  -4.738  1.00 20.00    -0.064 N 
HETATM    6  C6  UNL     1     -33.510  18.357  -4.615  1.00 20.00     0.270 C 
HETATM    7  H26 UNL     1     -33.402  16.566  -5.611  1.00 20.00     0.280 HD
BRANCH   5   8
HETATM    8  C8  UNL     1     -35.312  16.657  -4.868  1.00 20.00     0.254 C 
BRANCH   8   9
HETATM    9  C9  UNL     1     -35.626  15.545  -5.874  1.00 20.00     0.114 C 
HETATM   10  C3  UNL     1     -34.509  15.341  -6.817  1.00 20.00     0.065 C 
HETATM   11  N10 UNL     1     -33.632  15.180  -7.560  1.00 20.00    -0.197 NA
HETATM   12  C5  UNL     1     -36.008  14.225  -5.206  1.00 20.00     0.027 C 
ENDBRANCH   8   9
ENDBRANCH   5   8
ENDBRANCH   4   5
ENDBRANCH   2   4
TORSDOF 4
ENDMDL
MODEL 2
REMARK VINA RESULT:      -3.9      2.246      3.516
REMARK  4 active torsions:
REMARK  status: ('A' for Active; 'I' for Inactive)
REMARK    1  A    between atoms: C2_2  and  C7_7 
REMARK    2  A    between atoms: C7_7  and  N11_11 
REMARK    3  A    between atoms: C8_8  and  C9_9 
REMARK    4  A    between atoms: C8_8  and  N11_11 
ROOT
HETATM    1  C1  UNL     1     -31.183  18.551   0.597  1.00 20.00    -0.109 C 
HETATM    2  C2  UNL     1     -31.669  18.799  -0.472  1.00 20.00    -0.079 C 
HETATM    3  C4  UNL     1     -30.588  18.248   1.898  1.00 20.00     0.112 C 
ENDROOT
BRANCH   2   4
HETATM    4  C7  UNL     1     -32.263  19.096  -1.774  1.00 20.00     0.327 C 
BRANCH   4   5
HETATM    5  N11 UNL     1     -33.580  18.375  -1.909  1.00 20.00    -0.064 N 
HETATM    6  C6  UNL     1     -34.498  18.693  -0.755  1.00 20.00     0.270 C 
HETATM    7  H26 UNL     1     -34.035  18.764  -2.753  1.00 20.00     0.280 HD
BRANCH   5   8
HETATM    8  C8  UNL     1     -33.413  16.915  -2.119  1.00 20.00     0.254 C 
BRANCH   8   9
HETATM    9  C9  UNL     1     -33.367  16.552  -3.607  1.00 20.00     0.114 C 
HETATM   10  C3  UNL     1     -33.757  15.147  -3.832  1.00 20.00     0.065 C 
HETATM   11  N10 UNL     1     -34.061  14.041  -4.010  1.00 20.00    -0.197 NA
HETATM   12  C5  UNL     1     -34.210  17.485  -4.476  1.00 20.00     0.027 C 
ENDBRANCH   8   9
ENDBRANCH   5   8
ENDBRANCH   4   5
ENDBRANCH   2   4
TORSDOF 4
ENDMDL
MODEL 3
REMARK VINA RESULT:      -3.9      1.385      1.691
REMARK  4 active torsions:
REMARK  status: ('A' for Active; 'I' for Inactive)
REMARK    1  A    between atoms: C2_2  and  C7_7 
REMARK    2  A    between atoms: C7_7  and  N11_11 
REMARK    3  A    between atoms: C8_8  and  C9_9 
REMARK    4  A    between atoms: C8_8  and  N11_11 
ROOT
HETATM    1  C1  UNL     1     -33.638  17.380  -1.221  1.00 20.00    -0.109 C 
HETATM    2  C2  UNL     1     -33.425  16.825  -2.264  1.00 20.00    -0.079 C 
HETATM    3  C4  UNL     1     -33.895  18.057   0.048  1.00 20.00     0.112 C 
ENDROOT
BRANCH   2   4
HETATM    4  C7  UNL     1     -33.161  16.148  -3.532  1.00 20.00     0.327 C 
BRANCH   4   5
HETATM    5  N11 UNL     1     -33.721  16.963  -4.670  1.00 20.00    -0.064 N 
HETATM    6  C6  UNL     1     -33.621  18.441  -4.385  1.00 20.00     0.270 C 
HETATM    7  H26 UNL     1     -33.102  16.786  -5.481  1.00 20.00     0.280 HD
BRANCH   5   8
HETATM    8  C8  UNL     1     -35.094  16.547  -5.050  1.00 20.00     0.254 C 
BRANCH   8   9
HETATM    9  C9  UNL     1     -35.095  15.243  -5.856  1.00 20.00     0.114 C 
HETATM   10  C3  UNL     1     -35.697  14.136  -5.089  1.00 20.00     0.065 C 
HETATM   11  N10 UNL     1     -36.168  13.264  -4.486  1.00 20.00    -0.197 NA
HETATM   12  C5  UNL     1     -35.777  15.382  -7.216  1.00 20.00     0.027 C 
ENDBRANCH   8   9
ENDBRANCH   5   8
ENDBRANCH   4   5
ENDBRANCH   2   4
TORSDOF 4
ENDMDL
MODEL 4
REMARK VINA RESULT:      -3.8      1.575      1.897
REMARK  4 active torsions:
REMARK  status: ('A' for Active; 'I' for Inactive)
REMARK    1  A    between atoms: C2_2  and  C7_7 
REMARK    2  A    between atoms: C7_7  and  N11_11 
REMARK    3  A    between atoms: C8_8  and  C9_9 
REMARK    4  A    between atoms: C8_8  and  N11_11 
ROOT
HETATM    1  C1  UNL     1     -32.110  18.233  -0.854  1.00 20.00    -0.109 C 
HETATM    2  C2  UNL     1     -32.977  17.971  -1.642  1.00 20.00    -0.079 C 
HETATM    3  C4  UNL     1     -31.056  18.549   0.108  1.00 20.00     0.112 C 
ENDROOT
BRANCH   2   4
HETATM    4  C7  UNL     1     -34.035  17.656  -2.599  1.00 20.00     0.327 C 
BRANCH   4   5
HETATM    5  N11 UNL     1     -33.476  17.671  -3.999  1.00 20.00    -0.064 N 
HETATM    6  C6  UNL     1     -33.056  19.063  -4.405  1.00 20.00     0.270 C 
HETATM    7  H26 UNL     1     -32.608  17.108  -3.968  1.00 20.00     0.280 HD
BRANCH   5   8
HETATM    8  C8  UNL     1     -34.389  17.041  -4.985  1.00 20.00     0.254 C 
BRANCH   8   9
HETATM    9  C9  UNL     1     -34.549  15.537  -4.737  1.00 20.00     0.114 C 
HETATM   10  C3  UNL     1     -35.271  14.881  -5.845  1.00 20.00     0.065 C 
HETATM   11  N10 UNL     1     -35.840  14.365  -6.714  1.00 20.00    -0.197 NA
HETATM   12  C5  UNL     1     -33.221  14.829  -4.474  1.00 20.00     0.027 C 
ENDBRANCH   8   9
ENDBRANCH   5   8
ENDBRANCH   4   5
ENDBRANCH   2   4
TORSDOF 4
ENDMDL
MODEL 5
REMARK VINA RESULT:      -3.8      1.627      3.038
REMARK  4 active torsions:
REMARK  status: ('A' for Active; 'I' for Inactive)
REMARK    1  A    between atoms: C2_2  and  C7_7 
REMARK    2  A    between atoms: C7_7  and  N11_11 
REMARK    3  A    between atoms: C8_8  and  C9_9 
REMARK    4  A    between atoms: C8_8  and  N11_11 
ROOT
HETATM    1  C1  UNL     1     -33.309  16.644  -2.596  1.00 20.00    -0.109 C 
HETATM    2  C2  UNL     1     -33.499  15.823  -3.451  1.00 20.00    -0.079 C 
HETATM    3  C4  UNL     1     -33.076  17.642  -1.554  1.00 20.00     0.112 C 
ENDROOT
BRANCH   2   4
HETATM    4  C7  UNL     1     -33.734  14.822  -4.489  1.00 20.00     0.327 C 
BRANCH   4   5
HETATM    5  N11 UNL     1     -35.160  14.913  -4.970  1.00 20.00    -0.064 N 
HETATM    6  C6  UNL     1     -35.941  13.676  -4.603  1.00 20.00     0.270 C 
HETATM    7  H26 UNL     1     -35.592  15.692  -4.442  1.00 20.00     0.280 HD
BRANCH   5   8
HETATM    8  C8  UNL     1     -35.255  15.241  -6.414  1.00 20.00     0.254 C 
BRANCH   8   9
HETATM    9  C9  UNL     1     -35.638  16.706  -6.645  1.00 20.00     0.114 C 
HETATM   10  C3  UNL     1     -36.247  17.301  -5.439  1.00 20.00     0.065 C 
HETATM   11  N10 UNL     1     -36.728  17.769  -4.493  1.00 20.00    -0.197 NA
HETATM   12  C5  UNL     1     -34.468  17.562  -7.128  1.00 20.00     0.027 C 
ENDBRANCH   8   9
ENDBRANCH   5   8
ENDBRANCH   4   5
ENDBRANCH   2   4
TORSDOF 4
ENDMDL
MODEL 6
REMARK VINA RESULT:      -3.8      1.663      2.583
REMARK  4 active torsions:
REMARK  status: ('A' for Active; 'I' for Inactive)
REMARK    1  A    between atoms: C2_2  and  C7_7 
REMARK    2  A    between atoms: C7_7  and  N11_11 
REMARK    3  A    between atoms: C8_8  and  C9_9 
REMARK    4  A    between atoms: C8_8  and  N11_11 
ROOT
HETATM    1  C1  UNL     1     -33.522  16.945  -1.997  1.00 20.00    -0.109 C 
HETATM    2  C2  UNL     1     -33.411  16.251  -2.970  1.00 20.00    -0.079 C 
HETATM    3  C4  UNL     1     -33.659  17.792  -0.813  1.00 20.00     0.112 C 
ENDROOT
BRANCH   2   4
HETATM    4  C7  UNL     1     -33.273  15.410  -4.156  1.00 20.00     0.327 C 
BRANCH   4   5
HETATM    5  N11 UNL     1     -34.327  15.780  -5.169  1.00 20.00    -0.064 N 
HETATM    6  C6  UNL     1     -34.054  15.132  -6.503  1.00 20.00     0.270 C 
HETATM    7  H26 UNL     1     -35.212  15.367  -4.826  1.00 20.00     0.280 HD
BRANCH   5   8
HETATM    8  C8  UNL     1     -34.525  17.247  -5.276  1.00 20.00     0.254 C 
BRANCH   8   9
HETATM    9  C9  UNL     1     -36.007  17.631  -5.205  1.00 20.00     0.114 C 
HETATM   10  C3  UNL     1     -36.878  16.445  -5.318  1.00 20.00     0.065 C 
HETATM   11  N10 UNL     1     -37.563  15.514  -5.409  1.00 20.00    -0.197 NA
HETATM   12  C5  UNL     1     -36.357  18.432  -3.952  1.00 20.00     0.027 C 
ENDBRANCH   8   9
ENDBRANCH   5   8
ENDBRANCH   4   5
ENDBRANCH   2   4
TORSDOF 4
ENDMDL
MODEL 7
REMARK VINA RESULT:      -3.6      1.551      2.128
REMARK  4 active torsions:
REMARK  status: ('A' for Active; 'I' for Inactive)
REMARK    1  A    between atoms: C2_2  and  C7_7 
REMARK    2  A    between atoms: C7_7  and  N11_11 
REMARK    3  A    between atoms: C8_8  and  C9_9 
REMARK    4  A    between atoms: C8_8  and  N11_11 
ROOT
HETATM    1  C1  UNL     1     -33.726  17.613  -1.547  1.00 20.00    -0.109 C 
HETATM    2  C2  UNL     1     -33.738  17.513  -2.743  1.00 20.00    -0.079 C 
HETATM    3  C4  UNL     1     -33.708  17.734  -0.090  1.00 20.00     0.112 C 
ENDROOT
BRANCH   2   4
HETATM    4  C7  UNL     1     -33.752  17.387  -4.198  1.00 20.00     0.327 C 
BRANCH   4   5
HETATM    5  N11 UNL     1     -33.923  15.939  -4.582  1.00 20.00    -0.064 N 
HETATM    6  C6  UNL     1     -32.695  15.134  -4.236  1.00 20.00     0.270 C 
HETATM    7  H26 UNL     1     -34.684  15.571  -3.984  1.00 20.00     0.280 HD
BRANCH   5   8
HETATM    8  C8  UNL     1     -34.337  15.768  -5.996  1.00 20.00     0.254 C 
BRANCH   8   9
HETATM    9  C9  UNL     1     -35.697  15.071  -6.114  1.00 20.00     0.114 C 
HETATM   10  C3  UNL     1     -35.836  13.989  -5.120  1.00 20.00     0.065 C 
HETATM   11  N10 UNL     1     -35.946  13.137  -4.341  1.00 20.00    -0.197 NA
HETATM   12  C5  UNL     1     -36.876  16.039  -6.017  1.00 20.00     0.027 C 
ENDBRANCH   8   9
ENDBRANCH   5   8
ENDBRANCH   4   5
ENDBRANCH   2   4
TORSDOF 4
ENDMDL
MODEL 8
REMARK VINA RESULT:      -3.5      2.171      5.552
REMARK  4 active torsions:
REMARK  status: ('A' for Active; 'I' for Inactive)
REMARK    1  A    between atoms: C2_2  and  C7_7 
REMARK    2  A    between atoms: C7_7  and  N11_11 
REMARK    3  A    between atoms: C8_8  and  C9_9 
REMARK    4  A    between atoms: C8_8  and  N11_11 
ROOT
HETATM    1  C1  UNL     1     -35.494  16.010  -5.943  1.00 20.00    -0.109 C 
HETATM    2  C2  UNL     1     -35.219  16.824  -5.104  1.00 20.00    -0.079 C 
HETATM    3  C4  UNL     1     -35.831  15.019  -6.963  1.00 20.00     0.112 C 
ENDROOT
BRANCH   2   4
HETATM    4  C7  UNL     1     -34.884  17.810  -4.080  1.00 20.00     0.327 C 
BRANCH   4   5
HETATM    5  N11 UNL     1     -33.445  17.643  -3.664  1.00 20.00    -0.064 N 
HETATM    6  C6  UNL     1     -33.150  16.215  -3.276  1.00 20.00     0.270 C 
HETATM    7  H26 UNL     1     -32.878  17.832  -4.510  1.00 20.00     0.280 HD
BRANCH   5   8
HETATM    8  C8  UNL     1     -33.036  18.615  -2.620  1.00 20.00     0.254 C 
BRANCH   8   9
HETATM    9  C9  UNL     1     -32.804  17.937  -1.265  1.00 20.00     0.114 C 
HETATM   10  C3  UNL     1     -31.558  18.410  -0.631  1.00 20.00     0.065 C 
HETATM   11  N10 UNL     1     -30.578  18.780  -0.133  1.00 20.00    -0.197 NA
HETATM   12  C5  UNL     1     -33.983  18.096  -0.307  1.00 20.00     0.027 C 
ENDBRANCH   8   9
ENDBRANCH   5   8
ENDBRANCH   4   5
ENDBRANCH   2   4
TORSDOF 4
ENDMDL
MODEL 9
REMARK VINA RESULT:      -3.4     11.904     14.305
REMARK  4 active torsions:
REMARK  status: ('A' for Active; 'I' for Inactive)
REMARK    1  A    between atoms: C2_2  and  C7_7 
REMARK    2  A    between atoms: C7_7  and  N11_11 
REMARK    3  A    between atoms: C8_8  and  C9_9 
REMARK    4  A    between atoms: C8_8  and  N11_11 
ROOT
HETATM    1  C1  UNL     1     -39.919  12.094   5.114  1.00 20.00    -0.109 C 
HETATM    2  C2  UNL     1     -40.741  12.472   5.904  1.00 20.00    -0.079 C 
HETATM    3  C4  UNL     1     -38.919  11.637   4.152  1.00 20.00     0.112 C 
ENDROOT
BRANCH   2   4
HETATM    4  C7  UNL     1     -41.743  12.932   6.862  1.00 20.00     0.327 C 
BRANCH   4   5
HETATM    5  N11 UNL     1     -41.818  14.438   6.835  1.00 20.00    -0.064 N 
HETATM    6  C6  UNL     1     -42.286  14.938   5.491  1.00 20.00     0.270 C 
HETATM    7  H26 UNL     1     -42.558  14.700   7.511  1.00 20.00     0.280 HD
BRANCH   5   8
HETATM    8  C8  UNL     1     -40.556  15.081   7.276  1.00 20.00     0.254 C 
BRANCH   8   9
HETATM    9  C9  UNL     1     -40.730  15.842   8.594  1.00 20.00     0.114 C 
HETATM   10  C3  UNL     1     -42.152  16.119   8.873  1.00 20.00     0.065 C 
HETATM   11  N10 UNL     1     -43.270  16.340   9.092  1.00 20.00    -0.197 NA
HETATM   12  C5  UNL     1     -40.082  15.134   9.783  1.00 20.00     0.027 C 
ENDBRANCH   8   9
ENDBRANCH   5   8
ENDBRANCH   4   5
ENDBRANCH   2   4
TORSDOF 4
ENDMDL
