MODEL 1
REMARK VINA RESULT:      -4.8      0.000      0.000
REMARK  2 active torsions:
REMARK  status: ('A' for Active; 'I' for Inactive)
REMARK    1  A    between atoms: C2_2  and  C11_11 
REMARK    2  A    between atoms: C7_7  and  C11_11 
ROOT
HETATM    1  C1  UNL     1     -32.583   8.689   0.764  1.00 20.00    -0.111 C 
HETATM    2  C2  UNL     1     -32.298   8.043   1.736  1.00 20.00    -0.106 C 
HETATM    3  C9  UNL     1     -32.929   9.476  -0.420  1.00 20.00     0.112 C 
ENDROOT
BRANCH   2   4
HETATM    4  C11 UNL     1     -31.960   7.256   2.924  1.00 20.00     0.106 C 
BRANCH   4   5
HETATM    5  C7  UNL     1     -33.186   7.043   3.808  1.00 20.00     0.067 C 
HETATM    6  C3  UNL     1     -33.036   7.744   5.154  1.00 20.00     0.132 C 
HETATM    7  C4  UNL     1     -34.126   7.481   6.170  1.00 20.00     0.079 C 
HETATM    8  O12 UNL     1     -32.139   8.554   5.386  1.00 20.00    -0.298 OA
HETATM    9  C5  UNL     1     -34.357   5.985   6.335  1.00 20.00     0.011 C 
HETATM   10  C8  UNL     1     -34.589   5.258   5.004  1.00 20.00    -0.017 C 
HETATM   11  C6  UNL     1     -33.434   5.547   4.031  1.00 20.00     0.017 C 
HETATM   12  C10 UNL     1     -35.952   5.597   4.395  1.00 20.00     0.010 C 
ENDBRANCH   4   5
ENDBRANCH   2   4
TORSDOF 2
ENDMDL
MODEL 2
REMARK VINA RESULT:      -4.5     11.374     12.835
REMARK  2 active torsions:
REMARK  status: ('A' for Active; 'I' for Inactive)
REMARK    1  A    between atoms: C2_2  and  C11_11 
REMARK    2  A    between atoms: C7_7  and  C11_11 
ROOT
HETATM    1  C1  UNL     1     -33.618  17.459  -1.138  1.00 20.00    -0.111 C 
HETATM    2  C2  UNL     1     -33.413  16.954  -2.209  1.00 20.00    -0.106 C 
HETATM    3  C9  UNL     1     -33.869  18.074   0.165  1.00 20.00     0.112 C 
ENDROOT
BRANCH   2   4
HETATM    4  C11 UNL     1     -33.155  16.344  -3.516  1.00 20.00     0.106 C 
BRANCH   4   5
HETATM    5  C7  UNL     1     -34.454  16.146  -4.294  1.00 20.00     0.067 C 
HETATM    6  C3  UNL     1     -34.688  14.677  -4.631  1.00 20.00     0.132 C 
HETATM    7  C4  UNL     1     -35.868  14.378  -5.528  1.00 20.00     0.079 C 
HETATM    8  O12 UNL     1     -34.024  13.767  -4.135  1.00 20.00    -0.298 OA
HETATM    9  C5  UNL     1     -35.825  15.244  -6.780  1.00 20.00     0.011 C 
HETATM   10  C8  UNL     1     -35.668  16.739  -6.476  1.00 20.00    -0.017 C 
HETATM   11  C6  UNL     1     -34.438  16.974  -5.584  1.00 20.00     0.017 C 
HETATM   12  C10 UNL     1     -36.940  17.339  -5.870  1.00 20.00     0.010 C 
ENDBRANCH   4   5
ENDBRANCH   2   4
TORSDOF 2
ENDMDL
MODEL 3
REMARK VINA RESULT:      -4.3     11.784     13.436
REMARK  2 active torsions:
REMARK  status: ('A' for Active; 'I' for Inactive)
REMARK    1  A    between atoms: C2_2  and  C11_11 
REMARK    2  A    between atoms: C7_7  and  C11_11 
ROOT
HETATM    1  C1  UNL     1     -33.518  16.960  -1.965  1.00 20.00    -0.111 C 
HETATM    2  C2  UNL     1     -33.476  16.361  -3.005  1.00 20.00    -0.106 C 
HETATM    3  C9  UNL     1     -33.569  17.688  -0.697  1.00 20.00     0.112 C 
ENDROOT
BRANCH   2   4
HETATM    4  C11 UNL     1     -33.434  15.631  -4.275  1.00 20.00     0.106 C 
BRANCH   4   5
HETATM    5  C7  UNL     1     -34.765  15.740  -5.015  1.00 20.00     0.067 C 
HETATM    6  C3  UNL     1     -34.620  15.370  -6.487  1.00 20.00     0.132 C 
HETATM    7  C4  UNL     1     -35.843  15.584  -7.352  1.00 20.00     0.079 C 
HETATM    8  O12 UNL     1     -33.608  14.838  -6.943  1.00 20.00    -0.298 OA
HETATM    9  C5  UNL     1     -36.386  16.995  -7.177  1.00 20.00     0.011 C 
HETATM   10  C8  UNL     1     -36.617  17.376  -5.708  1.00 20.00    -0.017 C 
HETATM   11  C6  UNL     1     -35.331  17.160  -4.894  1.00 20.00     0.017 C 
HETATM   12  C10 UNL     1     -37.811  16.633  -5.104  1.00 20.00     0.010 C 
ENDBRANCH   4   5
ENDBRANCH   2   4
TORSDOF 2
ENDMDL
MODEL 4
REMARK VINA RESULT:      -4.1     10.176     11.515
REMARK  2 active torsions:
REMARK  status: ('A' for Active; 'I' for Inactive)
REMARK    1  A    between atoms: C2_2  and  C11_11 
REMARK    2  A    between atoms: C7_7  and  C11_11 
ROOT
HETATM    1  C1  UNL     1     -39.881  12.079   5.346  1.00 20.00    -0.111 C 
HETATM    2  C2  UNL     1     -40.862  12.350   5.985  1.00 20.00    -0.106 C 
HETATM    3  C9  UNL     1     -38.687  11.751   4.568  1.00 20.00     0.112 C 
ENDROOT
BRANCH   2   4
HETATM    4  C11 UNL     1     -42.063  12.673   6.759  1.00 20.00     0.106 C 
BRANCH   4   5
HETATM    5  C7  UNL     1     -41.926  14.032   7.442  1.00 20.00     0.067 C 
HETATM    6  C3  UNL     1     -42.208  15.176   6.475  1.00 20.00     0.132 C 
HETATM    7  C4  UNL     1     -41.959  16.573   7.002  1.00 20.00     0.079 C 
HETATM    8  O12 UNL     1     -42.700  15.000   5.360  1.00 20.00    -0.298 OA
HETATM    9  C5  UNL     1     -40.566  16.678   7.609  1.00 20.00     0.011 C 
HETATM   10  C8  UNL     1     -40.275  15.585   8.646  1.00 20.00    -0.017 C 
HETATM   11  C6  UNL     1     -40.523  14.194   8.037  1.00 20.00     0.017 C 
HETATM   12  C10 UNL     1     -41.066  15.796   9.939  1.00 20.00     0.010 C 
ENDBRANCH   4   5
ENDBRANCH   2   4
TORSDOF 2
ENDMDL
MODEL 5
REMARK VINA RESULT:      -4.1     10.331     11.551
REMARK  2 active torsions:
REMARK  status: ('A' for Active; 'I' for Inactive)
REMARK    1  A    between atoms: C2_2  and  C11_11 
REMARK    2  A    between atoms: C7_7  and  C11_11 
ROOT
HETATM    1  C1  UNL     1     -39.801  12.067   4.911  1.00 20.00    -0.111 C 
HETATM    2  C2  UNL     1     -40.611  12.465   5.704  1.00 20.00    -0.106 C 
HETATM    3  C9  UNL     1     -38.813  11.582   3.947  1.00 20.00     0.112 C 
ENDROOT
BRANCH   2   4
HETATM    4  C11 UNL     1     -41.601  12.959   6.664  1.00 20.00     0.106 C 
BRANCH   4   5
HETATM    5  C7  UNL     1     -41.376  14.438   6.972  1.00 20.00     0.067 C 
HETATM    6  C3  UNL     1     -40.661  14.630   8.305  1.00 20.00     0.132 C 
HETATM    7  C4  UNL     1     -40.517  16.058   8.785  1.00 20.00     0.079 C 
HETATM    8  O12 UNL     1     -40.142  13.701   8.923  1.00 20.00    -0.298 OA
HETATM    9  C5  UNL     1     -41.860  16.774   8.756  1.00 20.00     0.011 C 
HETATM   10  C8  UNL     1     -42.574  16.666   7.402  1.00 20.00    -0.017 C 
HETATM   11  C6  UNL     1     -42.711  15.191   6.989  1.00 20.00     0.017 C 
HETATM   12  C10 UNL     1     -41.886  17.504   6.322  1.00 20.00     0.010 C 
ENDBRANCH   4   5
ENDBRANCH   2   4
TORSDOF 2
ENDMDL
MODEL 6
REMARK VINA RESULT:      -3.9      1.495      2.291
REMARK  2 active torsions:
REMARK  status: ('A' for Active; 'I' for Inactive)
REMARK    1  A    between atoms: C2_2  and  C11_11 
REMARK    2  A    between atoms: C7_7  and  C11_11 
ROOT
HETATM    1  C1  UNL     1     -32.615   8.727   1.053  1.00 20.00    -0.111 C 
HETATM    2  C2  UNL     1     -32.106   8.245   2.029  1.00 20.00    -0.106 C 
HETATM    3  C9  UNL     1     -33.235   9.313  -0.135  1.00 20.00     0.112 C 
ENDROOT
BRANCH   2   4
HETATM    4  C11 UNL     1     -31.477   7.664   3.218  1.00 20.00     0.106 C 
BRANCH   4   5
HETATM    5  C7  UNL     1     -32.505   6.937   4.082  1.00 20.00     0.067 C 
HETATM    6  C3  UNL     1     -33.094   5.731   3.358  1.00 20.00     0.132 C 
HETATM    7  C4  UNL     1     -34.231   5.021   4.059  1.00 20.00     0.079 C 
HETATM    8  O12 UNL     1     -32.624   5.289   2.309  1.00 20.00    -0.298 OA
HETATM    9  C5  UNL     1     -35.310   6.012   4.474  1.00 20.00     0.011 C 
HETATM   10  C8  UNL     1     -34.762   7.202   5.273  1.00 20.00    -0.017 C 
HETATM   11  C6  UNL     1     -33.631   7.892   4.493  1.00 20.00     0.017 C 
HETATM   12  C10 UNL     1     -34.323   6.794   6.682  1.00 20.00     0.010 C 
ENDBRANCH   4   5
ENDBRANCH   2   4
TORSDOF 2
ENDMDL
MODEL 7
REMARK VINA RESULT:      -3.9     10.497     11.777
REMARK  2 active torsions:
REMARK  status: ('A' for Active; 'I' for Inactive)
REMARK    1  A    between atoms: C2_2  and  C11_11 
REMARK    2  A    between atoms: C7_7  and  C11_11 
ROOT
HETATM    1  C1  UNL     1     -39.903  12.056   5.145  1.00 20.00    -0.111 C 
HETATM    2  C2  UNL     1     -40.811  12.349   5.875  1.00 20.00    -0.106 C 
HETATM    3  C9  UNL     1     -38.796  11.699   4.258  1.00 20.00     0.112 C 
ENDROOT
BRANCH   2   4
HETATM    4  C11 UNL     1     -41.923  12.713   6.757  1.00 20.00     0.106 C 
BRANCH   4   5
HETATM    5  C7  UNL     1     -41.637  14.023   7.487  1.00 20.00     0.067 C 
HETATM    6  C3  UNL     1     -42.157  13.991   8.920  1.00 20.00     0.132 C 
HETATM    7  C4  UNL     1     -42.062  15.289   9.693  1.00 20.00     0.079 C 
HETATM    8  O12 UNL     1     -42.546  12.959   9.465  1.00 20.00    -0.298 OA
HETATM    9  C5  UNL     1     -42.671  16.435   8.897  1.00 20.00     0.011 C 
HETATM   10  C8  UNL     1     -42.114  16.545   7.472  1.00 20.00    -0.017 C 
HETATM   11  C6  UNL     1     -42.265  15.203   6.737  1.00 20.00     0.017 C 
HETATM   12  C10 UNL     1     -40.668  17.047   7.458  1.00 20.00     0.010 C 
ENDBRANCH   4   5
ENDBRANCH   2   4
TORSDOF 2
ENDMDL
MODEL 8
REMARK VINA RESULT:      -3.7      9.641     10.610
REMARK  2 active torsions:
REMARK  status: ('A' for Active; 'I' for Inactive)
REMARK    1  A    between atoms: C2_2  and  C11_11 
REMARK    2  A    between atoms: C7_7  and  C11_11 
ROOT
HETATM    1  C1  UNL     1     -39.070  11.851   4.135  1.00 20.00    -0.111 C 
HETATM    2  C2  UNL     1     -39.381  12.124   5.263  1.00 20.00    -0.106 C 
HETATM    3  C9  UNL     1     -38.691  11.520   2.761  1.00 20.00     0.112 C 
ENDROOT
BRANCH   2   4
HETATM    4  C11 UNL     1     -39.769  12.459   6.635  1.00 20.00     0.106 C 
BRANCH   4   5
HETATM    5  C7  UNL     1     -40.645  13.709   6.668  1.00 20.00     0.067 C 
HETATM    6  C3  UNL     1     -40.845  14.217   8.092  1.00 20.00     0.132 C 
HETATM    7  C4  UNL     1     -41.817  15.364   8.261  1.00 20.00     0.079 C 
HETATM    8  O12 UNL     1     -40.193  13.795   9.047  1.00 20.00    -0.298 OA
HETATM    9  C5  UNL     1     -43.144  15.050   7.583  1.00 20.00     0.011 C 
HETATM   10  C8  UNL     1     -42.986  14.609   6.122  1.00 20.00    -0.017 C 
HETATM   11  C6  UNL     1     -42.008  13.426   6.025  1.00 20.00     0.017 C 
HETATM   12  C10 UNL     1     -42.574  15.770   5.213  1.00 20.00     0.010 C 
ENDBRANCH   4   5
ENDBRANCH   2   4
TORSDOF 2
ENDMDL
MODEL 9
REMARK VINA RESULT:      -3.6     13.173     14.477
REMARK  2 active torsions:
REMARK  status: ('A' for Active; 'I' for Inactive)
REMARK    1  A    between atoms: C2_2  and  C11_11 
REMARK    2  A    between atoms: C7_7  and  C11_11 
ROOT
HETATM    1  C1  UNL     1     -23.132  -3.804   8.749  1.00 20.00    -0.111 C 
HETATM    2  C2  UNL     1     -23.680  -3.680   9.811  1.00 20.00    -0.106 C 
HETATM    3  C9  UNL     1     -22.464  -3.956   7.456  1.00 20.00     0.112 C 
ENDROOT
BRANCH   2   4
HETATM    4  C11 UNL     1     -24.345  -3.520  11.106  1.00 20.00     0.106 C 
BRANCH   4   5
HETATM    5  C7  UNL     1     -25.542  -2.579  10.995  1.00 20.00     0.067 C 
HETATM    6  C3  UNL     1     -25.323  -1.296  11.789  1.00 20.00     0.132 C 
HETATM    7  C4  UNL     1     -26.503  -0.353  11.873  1.00 20.00     0.079 C 
HETATM    8  O12 UNL     1     -24.229  -0.984  12.261  1.00 20.00    -0.298 OA
HETATM    9  C5  UNL     1     -27.752  -1.094  12.332  1.00 20.00     0.011 C 
HETATM   10  C8  UNL     1     -28.047  -2.351  11.504  1.00 20.00    -0.017 C 
HETATM   11  C6  UNL     1     -26.818  -3.275  11.482  1.00 20.00     0.017 C 
HETATM   12  C10 UNL     1     -28.533  -2.008  10.093  1.00 20.00     0.010 C 
ENDBRANCH   4   5
ENDBRANCH   2   4
TORSDOF 2
ENDMDL
