MODEL 1
REMARK VINA RESULT:      -4.5      0.000      0.000
REMARK  4 active torsions:
REMARK  status: ('A' for Active; 'I' for Inactive)
REMARK    1  A    between atoms: C2_2  and  C5_5 
REMARK    2  A    between atoms: C2_2  and  C9_9 
REMARK    3  A    between atoms: C7_7  and  C9_9 
REMARK    4  A    between atoms: C8_8  and  C9_9 
ROOT
HETATM    1  C1  UNL     1     -32.432   8.474   1.321  1.00 20.00     0.059 C 
HETATM    2  C7  UNL     1     -32.091   7.229   2.027  1.00 20.00     0.136 C 
HETATM    3  N10 UNL     1     -32.700   9.455   0.762  1.00 20.00    -0.197 NA
ENDROOT
BRANCH   2   4
HETATM    4  C9  UNL     1     -32.475   7.247   3.517  1.00 20.00     0.068 C 
BRANCH   4   5
HETATM    5  C2  UNL     1     -33.469   6.127   3.814  1.00 20.00     0.136 C 
HETATM    6  O11 UNL     1     -33.493   5.053   3.225  1.00 20.00    -0.297 OA
BRANCH   5   7
HETATM    7  C5  UNL     1     -34.473   6.407   4.884  1.00 20.00     0.056 A 
HETATM    8  C3  UNL     1     -34.909   5.283   5.763  1.00 20.00     0.013 A 
HETATM    9  C4  UNL     1     -34.025   6.366   6.306  1.00 20.00     0.013 A 
ENDBRANCH   5   7
ENDBRANCH   4   5
BRANCH   4  10
HETATM   10  C8  UNL     1     -33.005   8.622   3.963  1.00 20.00     0.008 C 
HETATM   11  C6  UNL     1     -32.112   9.278   5.009  1.00 20.00     0.006 C 
ENDBRANCH   4  10
ENDBRANCH   2   4
TORSDOF 4
ENDMDL
MODEL 2
REMARK VINA RESULT:      -4.4      9.811     10.444
REMARK  4 active torsions:
REMARK  status: ('A' for Active; 'I' for Inactive)
REMARK    1  A    between atoms: C2_2  and  C5_5 
REMARK    2  A    between atoms: C2_2  and  C9_9 
REMARK    3  A    between atoms: C7_7  and  C9_9 
REMARK    4  A    between atoms: C8_8  and  C9_9 
ROOT
HETATM    1  C1  UNL     1     -42.146  14.558   4.414  1.00 20.00     0.059 C 
HETATM    2  C7  UNL     1     -41.989  14.714   5.869  1.00 20.00     0.136 C 
HETATM    3  N10 UNL     1     -42.271  14.436   3.267  1.00 20.00    -0.197 NA
ENDROOT
BRANCH   2   4
HETATM    4  C9  UNL     1     -40.788  13.943   6.440  1.00 20.00     0.068 C 
BRANCH   4   5
HETATM    5  C2  UNL     1     -41.061  12.442   6.396  1.00 20.00     0.136 C 
HETATM    6  O11 UNL     1     -42.082  11.915   6.819  1.00 20.00    -0.297 OA
BRANCH   5   7
HETATM    7  C5  UNL     1     -39.980  11.595   5.808  1.00 20.00     0.056 A 
HETATM    8  C3  UNL     1     -39.483  11.920   4.440  1.00 20.00     0.013 A 
HETATM    9  C4  UNL     1     -38.623  12.191   5.638  1.00 20.00     0.013 A 
ENDBRANCH   5   7
ENDBRANCH   4   5
BRANCH   4  10
HETATM   10  C8  UNL     1     -40.412  14.419   7.856  1.00 20.00     0.008 C 
HETATM   11  C6  UNL     1     -40.475  15.935   7.995  1.00 20.00     0.006 C 
ENDBRANCH   4  10
ENDBRANCH   2   4
TORSDOF 4
ENDMDL
MODEL 3
REMARK VINA RESULT:      -4.3      1.539      2.264
REMARK  4 active torsions:
REMARK  status: ('A' for Active; 'I' for Inactive)
REMARK    1  A    between atoms: C2_2  and  C5_5 
REMARK    2  A    between atoms: C2_2  and  C9_9 
REMARK    3  A    between atoms: C7_7  and  C9_9 
REMARK    4  A    between atoms: C8_8  and  C9_9 
ROOT
HETATM    1  C1  UNL     1     -32.693   9.196   1.725  1.00 20.00     0.059 C 
HETATM    2  C7  UNL     1     -32.642   8.825   3.148  1.00 20.00     0.136 C 
HETATM    3  N10 UNL     1     -32.732   9.491   0.603  1.00 20.00    -0.197 NA
ENDROOT
BRANCH   2   4
HETATM    4  C9  UNL     1     -33.186   7.414   3.431  1.00 20.00     0.068 C 
BRANCH   4   5
HETATM    5  C2  UNL     1     -33.532   7.275   4.911  1.00 20.00     0.136 C 
HETATM    6  O11 UNL     1     -32.894   7.792   5.820  1.00 20.00    -0.297 OA
BRANCH   5   7
HETATM    7  C5  UNL     1     -34.722   6.429   5.230  1.00 20.00     0.056 A 
HETATM    8  C3  UNL     1     -34.569   4.945   5.203  1.00 20.00     0.013 A 
HETATM    9  C4  UNL     1     -34.726   5.663   6.510  1.00 20.00     0.013 A 
ENDBRANCH   5   7
ENDBRANCH   4   5
BRANCH   4  10
HETATM   10  C8  UNL     1     -32.217   6.313   2.959  1.00 20.00     0.008 C 
HETATM   11  C6  UNL     1     -32.937   5.164   2.264  1.00 20.00     0.006 C 
ENDBRANCH   4  10
ENDBRANCH   2   4
TORSDOF 4
ENDMDL
MODEL 4
REMARK VINA RESULT:      -4.2      9.967     10.829
REMARK  4 active torsions:
REMARK  status: ('A' for Active; 'I' for Inactive)
REMARK    1  A    between atoms: C2_2  and  C5_5 
REMARK    2  A    between atoms: C2_2  and  C9_9 
REMARK    3  A    between atoms: C7_7  and  C9_9 
REMARK    4  A    between atoms: C8_8  and  C9_9 
ROOT
HETATM    1  C1  UNL     1     -40.289  15.010   8.876  1.00 20.00     0.059 C 
HETATM    2  C7  UNL     1     -40.430  14.765   7.432  1.00 20.00     0.136 C 
HETATM    3  N10 UNL     1     -40.177  15.205  10.014  1.00 20.00    -0.197 NA
ENDROOT
BRANCH   2   4
HETATM    4  C9  UNL     1     -41.080  13.411   7.102  1.00 20.00     0.068 C 
BRANCH   4   5
HETATM    5  C2  UNL     1     -40.768  13.018   5.661  1.00 20.00     0.136 C 
HETATM    6  O11 UNL     1     -41.203  13.606   4.677  1.00 20.00    -0.297 OA
BRANCH   5   7
HETATM    7  C5  UNL     1     -39.889  11.824   5.481  1.00 20.00     0.056 A 
HETATM    8  C3  UNL     1     -39.141  11.676   4.198  1.00 20.00     0.013 A 
HETATM    9  C4  UNL     1     -38.411  12.026   5.460  1.00 20.00     0.013 A 
ENDBRANCH   5   7
ENDBRANCH   4   5
BRANCH   4  10
HETATM   10  C8  UNL     1     -42.594  13.409   7.386  1.00 20.00     0.008 C 
HETATM   11  C6  UNL     1     -43.202  12.015   7.290  1.00 20.00     0.006 C 
ENDBRANCH   4  10
ENDBRANCH   2   4
TORSDOF 4
ENDMDL
MODEL 5
REMARK VINA RESULT:      -4.2     10.078     10.867
REMARK  4 active torsions:
REMARK  status: ('A' for Active; 'I' for Inactive)
REMARK    1  A    between atoms: C2_2  and  C5_5 
REMARK    2  A    between atoms: C2_2  and  C9_9 
REMARK    3  A    between atoms: C7_7  and  C9_9 
REMARK    4  A    between atoms: C8_8  and  C9_9 
ROOT
HETATM    1  C1  UNL     1     -42.993  12.570   8.366  1.00 20.00     0.059 C 
HETATM    2  C7  UNL     1     -42.679  12.496   6.931  1.00 20.00     0.136 C 
HETATM    3  N10 UNL     1     -43.242  12.627   9.498  1.00 20.00    -0.197 NA
ENDROOT
BRANCH   2   4
HETATM    4  C9  UNL     1     -41.673  13.564   6.469  1.00 20.00     0.068 C 
BRANCH   4   5
HETATM    5  C2  UNL     1     -40.939  13.086   5.219  1.00 20.00     0.136 C 
HETATM    6  O11 UNL     1     -41.067  13.591   4.110  1.00 20.00    -0.297 OA
BRANCH   5   7
HETATM    7  C5  UNL     1     -40.033  11.912   5.398  1.00 20.00     0.056 A 
HETATM    8  C3  UNL     1     -39.176  11.492   4.252  1.00 20.00     0.013 A 
HETATM    9  C4  UNL     1     -38.562  12.151   5.451  1.00 20.00     0.013 A 
ENDBRANCH   5   7
ENDBRANCH   4   5
BRANCH   4  10
HETATM   10  C8  UNL     1     -40.699  13.968   7.591  1.00 20.00     0.008 C 
HETATM   11  C6  UNL     1     -40.375  15.457   7.574  1.00 20.00     0.006 C 
ENDBRANCH   4  10
ENDBRANCH   2   4
TORSDOF 4
ENDMDL
MODEL 6
REMARK VINA RESULT:      -3.9     10.030     10.677
REMARK  4 active torsions:
REMARK  status: ('A' for Active; 'I' for Inactive)
REMARK    1  A    between atoms: C2_2  and  C5_5 
REMARK    2  A    between atoms: C2_2  and  C9_9 
REMARK    3  A    between atoms: C7_7  and  C9_9 
REMARK    4  A    between atoms: C8_8  and  C9_9 
ROOT
HETATM    1  C1  UNL     1     -39.322  11.923   4.829  1.00 20.00     0.059 C 
HETATM    2  C7  UNL     1     -39.795  12.267   6.180  1.00 20.00     0.136 C 
HETATM    3  N10 UNL     1     -38.948  11.650   3.765  1.00 20.00    -0.197 NA
ENDROOT
BRANCH   2   4
HETATM    4  C9  UNL     1     -40.714  13.500   6.210  1.00 20.00     0.068 C 
BRANCH   4   5
HETATM    5  C2  UNL     1     -41.591  13.467   7.459  1.00 20.00     0.136 C 
HETATM    6  O11 UNL     1     -42.389  12.574   7.717  1.00 20.00    -0.297 OA
BRANCH   5   7
HETATM    7  C5  UNL     1     -41.452  14.627   8.389  1.00 20.00     0.056 A 
HETATM    8  C3  UNL     1     -40.242  14.704   9.258  1.00 20.00     0.013 A 
HETATM    9  C4  UNL     1     -40.401  15.646   8.103  1.00 20.00     0.013 A 
ENDBRANCH   5   7
ENDBRANCH   4   5
BRANCH   4  10
HETATM   10  C8  UNL     1     -41.547  13.634   4.922  1.00 20.00     0.008 C 
HETATM   11  C6  UNL     1     -42.380  14.911   4.898  1.00 20.00     0.006 C 
ENDBRANCH   4  10
ENDBRANCH   2   4
TORSDOF 4
ENDMDL
MODEL 7
REMARK VINA RESULT:      -3.9     10.149     10.939
REMARK  4 active torsions:
REMARK  status: ('A' for Active; 'I' for Inactive)
REMARK    1  A    between atoms: C2_2  and  C5_5 
REMARK    2  A    between atoms: C2_2  and  C9_9 
REMARK    3  A    between atoms: C7_7  and  C9_9 
REMARK    4  A    between atoms: C8_8  and  C9_9 
ROOT
HETATM    1  C1  UNL     1     -39.432  11.977   4.788  1.00 20.00     0.059 C 
HETATM    2  C7  UNL     1     -39.610  12.243   6.224  1.00 20.00     0.136 C 
HETATM    3  N10 UNL     1     -39.290  11.766   3.656  1.00 20.00    -0.197 NA
ENDROOT
BRANCH   2   4
HETATM    4  C9  UNL     1     -40.788  13.185   6.530  1.00 20.00     0.068 C 
BRANCH   4   5
HETATM    5  C2  UNL     1     -40.458  14.060   7.735  1.00 20.00     0.136 C 
HETATM    6  O11 UNL     1     -40.304  13.635   8.874  1.00 20.00    -0.297 OA
BRANCH   5   7
HETATM    7  C5  UNL     1     -40.344  15.526   7.471  1.00 20.00     0.056 A 
HETATM    8  C3  UNL     1     -41.596  16.330   7.363  1.00 20.00     0.013 A 
HETATM    9  C4  UNL     1     -40.709  16.475   8.563  1.00 20.00     0.013 A 
ENDBRANCH   5   7
ENDBRANCH   4   5
BRANCH   4  10
HETATM   10  C8  UNL     1     -42.110  12.418   6.717  1.00 20.00     0.008 C 
HETATM   11  C6  UNL     1     -43.329  13.270   6.384  1.00 20.00     0.006 C 
ENDBRANCH   4  10
ENDBRANCH   2   4
TORSDOF 4
ENDMDL
MODEL 8
REMARK VINA RESULT:      -3.9     11.255     12.397
REMARK  4 active torsions:
REMARK  status: ('A' for Active; 'I' for Inactive)
REMARK    1  A    between atoms: C2_2  and  C5_5 
REMARK    2  A    between atoms: C2_2  and  C9_9 
REMARK    3  A    between atoms: C7_7  and  C9_9 
REMARK    4  A    between atoms: C8_8  and  C9_9 
ROOT
HETATM    1  C1  UNL     1     -34.019  14.657  -4.030  1.00 20.00     0.059 C 
HETATM    2  C7  UNL     1     -33.140  15.809  -3.772  1.00 20.00     0.136 C 
HETATM    3  N10 UNL     1     -34.710  13.748  -4.233  1.00 20.00    -0.197 NA
ENDROOT
BRANCH   2   4
HETATM    4  C9  UNL     1     -33.833  17.166  -3.981  1.00 20.00     0.068 C 
BRANCH   4   5
HETATM    5  C2  UNL     1     -34.292  17.731  -2.640  1.00 20.00     0.136 C 
HETATM    6  O11 UNL     1     -35.224  18.515  -2.505  1.00 20.00    -0.297 OA
BRANCH   5   7
HETATM    7  C5  UNL     1     -33.517  17.291  -1.441  1.00 20.00     0.056 A 
HETATM    8  C3  UNL     1     -32.434  18.179  -0.928  1.00 20.00     0.013 A 
HETATM    9  C4  UNL     1     -33.712  18.027  -0.159  1.00 20.00     0.013 A 
ENDBRANCH   5   7
ENDBRANCH   4   5
BRANCH   4  10
HETATM   10  C8  UNL     1     -34.988  17.077  -4.996  1.00 20.00     0.008 C 
HETATM   11  C6  UNL     1     -34.591  17.589  -6.375  1.00 20.00     0.006 C 
ENDBRANCH   4  10
ENDBRANCH   2   4
TORSDOF 4
ENDMDL
MODEL 9
REMARK VINA RESULT:      -3.9     11.532     12.829
REMARK  4 active torsions:
REMARK  status: ('A' for Active; 'I' for Inactive)
REMARK    1  A    between atoms: C2_2  and  C5_5 
REMARK    2  A    between atoms: C2_2  and  C9_9 
REMARK    3  A    between atoms: C7_7  and  C9_9 
REMARK    4  A    between atoms: C8_8  and  C9_9 
ROOT
HETATM    1  C1  UNL     1     -35.445  15.179  -7.436  1.00 20.00     0.059 C 
HETATM    2  C7  UNL     1     -34.412  16.046  -6.849  1.00 20.00     0.136 C 
HETATM    3  N10 UNL     1     -36.260  14.496  -7.901  1.00 20.00    -0.197 NA
ENDROOT
BRANCH   2   4
HETATM    4  C9  UNL     1     -34.747  16.518  -5.424  1.00 20.00     0.068 C 
BRANCH   4   5
HETATM    5  C2  UNL     1     -34.110  15.582  -4.400  1.00 20.00     0.136 C 
HETATM    6  O11 UNL     1     -34.392  14.395  -4.283  1.00 20.00    -0.297 OA
BRANCH   5   7
HETATM    7  C5  UNL     1     -33.098  16.195  -3.489  1.00 20.00     0.056 A 
HETATM    8  C3  UNL     1     -33.152  17.667  -3.251  1.00 20.00     0.013 A 
HETATM    9  C4  UNL     1     -33.554  16.713  -2.167  1.00 20.00     0.013 A 
ENDBRANCH   5   7
ENDBRANCH   4   5
BRANCH   4  10
HETATM   10  C8  UNL     1     -36.263  16.668  -5.204  1.00 20.00     0.008 C 
HETATM   11  C6  UNL     1     -36.628  17.998  -4.555  1.00 20.00     0.006 C 
ENDBRANCH   4  10
ENDBRANCH   2   4
TORSDOF 4
ENDMDL
