MODEL 1
REMARK VINA RESULT:      -4.5      0.000      0.000
REMARK  2 active torsions:
REMARK  status: ('A' for Active; 'I' for Inactive)
REMARK    1  A    between atoms: C2_2  and  C11_11 
REMARK    2  A    between atoms: C7_7  and  C11_11 
ROOT
HETATM    1  C1  UNL     1     -33.625  17.461  -1.135  1.00 20.00    -0.111 C 
HETATM    2  C2  UNL     1     -33.414  16.959  -2.205  1.00 20.00    -0.106 C 
HETATM    3  C9  UNL     1     -33.881  18.072   0.168  1.00 20.00     0.112 C 
ENDROOT
BRANCH   2   4
HETATM    4  C11 UNL     1     -33.149  16.347  -3.510  1.00 20.00     0.106 C 
BRANCH   4   5
HETATM    5  C7  UNL     1     -34.442  16.149  -4.296  1.00 20.00     0.067 C 
HETATM    6  C3  UNL     1     -34.686  14.680  -4.621  1.00 20.00     0.132 C 
HETATM    7  C4  UNL     1     -35.877  14.388  -5.507  1.00 20.00     0.079 C 
HETATM    8  O12 UNL     1     -34.022  13.769  -4.130  1.00 20.00    -0.298 OA
HETATM    9  C5  UNL     1     -35.828  15.238  -6.768  1.00 20.00     0.011 C 
HETATM   10  C8  UNL     1     -35.677  16.730  -6.441  1.00 20.00    -0.017 C 
HETATM   11  C6  UNL     1     -34.416  16.964  -5.594  1.00 20.00     0.017 C 
HETATM   12  C10 UNL     1     -35.623  17.558  -7.725  1.00 20.00     0.010 C 
ENDBRANCH   4   5
ENDBRANCH   2   4
TORSDOF 2
ENDMDL
MODEL 2
REMARK VINA RESULT:      -4.4     13.952     17.801
REMARK  2 active torsions:
REMARK  status: ('A' for Active; 'I' for Inactive)
REMARK    1  A    between atoms: C2_2  and  C11_11 
REMARK    2  A    between atoms: C7_7  and  C11_11 
ROOT
HETATM    1  C1  UNL     1     -26.081  19.205   7.077  1.00 20.00    -0.111 C 
HETATM    2  C2  UNL     1     -25.015  19.234   7.630  1.00 20.00    -0.106 C 
HETATM    3  C9  UNL     1     -27.379  19.170   6.405  1.00 20.00     0.112 C 
ENDROOT
BRANCH   2   4
HETATM    4  C11 UNL     1     -23.716  19.263   8.308  1.00 20.00     0.106 C 
BRANCH   4   5
HETATM    5  C7  UNL     1     -23.879  19.076   9.814  1.00 20.00     0.067 C 
HETATM    6  C3  UNL     1     -23.354  17.720  10.274  1.00 20.00     0.132 C 
HETATM    7  C4  UNL     1     -23.583  17.382  11.731  1.00 20.00     0.079 C 
HETATM    8  O12 UNL     1     -22.704  16.974   9.545  1.00 20.00    -0.298 OA
HETATM    9  C5  UNL     1     -25.047  17.569  12.100  1.00 20.00     0.011 C 
HETATM   10  C8  UNL     1     -25.554  18.968  11.723  1.00 20.00    -0.017 C 
HETATM   11  C6  UNL     1     -25.350  19.221  10.222  1.00 20.00     0.017 C 
HETATM   12  C10 UNL     1     -27.028  19.124  12.098  1.00 20.00     0.010 C 
ENDBRANCH   4   5
ENDBRANCH   2   4
TORSDOF 2
ENDMDL
MODEL 3
REMARK VINA RESULT:      -4.2      1.459      1.799
REMARK  2 active torsions:
REMARK  status: ('A' for Active; 'I' for Inactive)
REMARK    1  A    between atoms: C2_2  and  C11_11 
REMARK    2  A    between atoms: C7_7  and  C11_11 
ROOT
HETATM    1  C1  UNL     1     -33.310  17.014  -2.044  1.00 20.00    -0.111 C 
HETATM    2  C2  UNL     1     -33.319  16.369  -3.056  1.00 20.00    -0.106 C 
HETATM    3  C9  UNL     1     -33.300  17.799  -0.810  1.00 20.00     0.112 C 
ENDROOT
BRANCH   2   4
HETATM    4  C11 UNL     1     -33.324  15.577  -4.290  1.00 20.00     0.106 C 
BRANCH   4   5
HETATM    5  C7  UNL     1     -34.697  15.609  -4.956  1.00 20.00     0.067 C 
HETATM    6  C3  UNL     1     -34.611  15.277  -6.442  1.00 20.00     0.132 C 
HETATM    7  C4  UNL     1     -35.900  15.404  -7.223  1.00 20.00     0.079 C 
HETATM    8  O12 UNL     1     -33.589  14.844  -6.970  1.00 20.00    -0.298 OA
HETATM    9  C5  UNL     1     -36.535  16.767  -6.991  1.00 20.00     0.011 C 
HETATM   10  C8  UNL     1     -36.709  17.065  -5.495  1.00 20.00    -0.017 C 
HETATM   11  C6  UNL     1     -35.355  16.981  -4.774  1.00 20.00     0.017 C 
HETATM   12  C10 UNL     1     -37.341  18.442  -5.293  1.00 20.00     0.010 C 
ENDBRANCH   4   5
ENDBRANCH   2   4
TORSDOF 2
ENDMDL
MODEL 4
REMARK VINA RESULT:      -4.2     11.463     14.297
REMARK  2 active torsions:
REMARK  status: ('A' for Active; 'I' for Inactive)
REMARK    1  A    between atoms: C2_2  and  C11_11 
REMARK    2  A    between atoms: C7_7  and  C11_11 
ROOT
HETATM    1  C1  UNL     1     -39.853  12.132   5.086  1.00 20.00    -0.111 C 
HETATM    2  C2  UNL     1     -40.621  12.547   5.911  1.00 20.00    -0.106 C 
HETATM    3  C9  UNL     1     -38.918  11.627   4.082  1.00 20.00     0.112 C 
ENDROOT
BRANCH   2   4
HETATM    4  C11 UNL     1     -41.553  13.059   6.919  1.00 20.00     0.106 C 
BRANCH   4   5
HETATM    5  C7  UNL     1     -40.905  14.158   7.757  1.00 20.00     0.067 C 
HETATM    6  C3  UNL     1     -41.436  14.165   9.187  1.00 20.00     0.132 C 
HETATM    7  C4  UNL     1     -40.951  15.296  10.067  1.00 20.00     0.079 C 
HETATM    8  O12 UNL     1     -42.141  13.266   9.640  1.00 20.00    -0.298 OA
HETATM    9  C5  UNL     1     -41.170  16.638   9.383  1.00 20.00     0.011 C 
HETATM   10  C8  UNL     1     -40.554  16.666   7.977  1.00 20.00    -0.017 C 
HETATM   11  C6  UNL     1     -41.135  15.533   7.118  1.00 20.00     0.017 C 
HETATM   12  C10 UNL     1     -40.796  18.022   7.313  1.00 20.00     0.010 C 
ENDBRANCH   4   5
ENDBRANCH   2   4
TORSDOF 2
ENDMDL
MODEL 5
REMARK VINA RESULT:      -4.2     11.144     12.920
REMARK  2 active torsions:
REMARK  status: ('A' for Active; 'I' for Inactive)
REMARK    1  A    between atoms: C2_2  and  C11_11 
REMARK    2  A    between atoms: C7_7  and  C11_11 
ROOT
HETATM    1  C1  UNL     1     -32.590   8.718   0.584  1.00 20.00    -0.111 C 
HETATM    2  C2  UNL     1     -32.319   8.124   1.592  1.00 20.00    -0.106 C 
HETATM    3  C9  UNL     1     -32.919   9.442  -0.643  1.00 20.00     0.112 C 
ENDROOT
BRANCH   2   4
HETATM    4  C11 UNL     1     -31.994   7.404   2.826  1.00 20.00     0.106 C 
BRANCH   4   5
HETATM    5  C7  UNL     1     -33.145   7.479   3.825  1.00 20.00     0.067 C 
HETATM    6  C3  UNL     1     -32.857   8.474   4.944  1.00 20.00     0.132 C 
HETATM    7  C4  UNL     1     -33.880   8.533   6.056  1.00 20.00     0.079 C 
HETATM    8  O12 UNL     1     -31.905   9.251   4.917  1.00 20.00    -0.298 OA
HETATM    9  C5  UNL     1     -34.157   7.140   6.604  1.00 20.00     0.011 C 
HETATM   10  C8  UNL     1     -34.540   6.157   5.488  1.00 20.00    -0.017 C 
HETATM   11  C6  UNL     1     -33.432   6.099   4.427  1.00 20.00     0.017 C 
HETATM   12  C10 UNL     1     -34.805   4.767   6.066  1.00 20.00     0.010 C 
ENDBRANCH   4   5
ENDBRANCH   2   4
TORSDOF 2
ENDMDL
MODEL 6
REMARK VINA RESULT:      -4.0     11.751     13.241
REMARK  2 active torsions:
REMARK  status: ('A' for Active; 'I' for Inactive)
REMARK    1  A    between atoms: C2_2  and  C11_11 
REMARK    2  A    between atoms: C7_7  and  C11_11 
ROOT
HETATM    1  C1  UNL     1     -32.682   9.171   1.664  1.00 20.00    -0.111 C 
HETATM    2  C2  UNL     1     -32.727   8.931   2.839  1.00 20.00    -0.106 C 
HETATM    3  C9  UNL     1     -32.628   9.464   0.232  1.00 20.00     0.112 C 
ENDROOT
BRANCH   2   4
HETATM    4  C11 UNL     1     -32.789   8.637   4.274  1.00 20.00     0.106 C 
BRANCH   4   5
HETATM    5  C7  UNL     1     -33.761   7.496   4.559  1.00 20.00     0.067 C 
HETATM    6  C3  UNL     1     -33.936   7.264   6.056  1.00 20.00     0.132 C 
HETATM    7  C4  UNL     1     -34.783   6.073   6.446  1.00 20.00     0.079 C 
HETATM    8  O12 UNL     1     -33.501   8.038   6.906  1.00 20.00    -0.298 OA
HETATM    9  C5  UNL     1     -34.297   4.816   5.738  1.00 20.00     0.011 C 
HETATM   10  C8  UNL     1     -34.209   5.017   4.219  1.00 20.00    -0.017 C 
HETATM   11  C6  UNL     1     -33.286   6.201   3.891  1.00 20.00     0.017 C 
HETATM   12  C10 UNL     1     -33.712   3.743   3.537  1.00 20.00     0.010 C 
ENDBRANCH   4   5
ENDBRANCH   2   4
TORSDOF 2
ENDMDL
MODEL 7
REMARK VINA RESULT:      -3.7      2.126      4.103
REMARK  2 active torsions:
REMARK  status: ('A' for Active; 'I' for Inactive)
REMARK    1  A    between atoms: C2_2  and  C11_11 
REMARK    2  A    between atoms: C7_7  and  C11_11 
ROOT
HETATM    1  C1  UNL     1     -38.249  17.382  -4.545  1.00 20.00    -0.111 C 
HETATM    2  C2  UNL     1     -37.393  17.338  -5.386  1.00 20.00    -0.106 C 
HETATM    3  C9  UNL     1     -39.292  17.435  -3.521  1.00 20.00     0.112 C 
ENDROOT
BRANCH   2   4
HETATM    4  C11 UNL     1     -36.354  17.283  -6.418  1.00 20.00     0.106 C 
BRANCH   4   5
HETATM    5  C7  UNL     1     -35.056  16.707  -5.859  1.00 20.00     0.067 C 
HETATM    6  C3  UNL     1     -35.023  15.186  -5.965  1.00 20.00     0.132 C 
HETATM    7  C4  UNL     1     -33.833  14.504  -5.325  1.00 20.00     0.079 C 
HETATM    8  O12 UNL     1     -35.853  14.543  -6.604  1.00 20.00    -0.298 OA
HETATM    9  C5  UNL     1     -33.661  14.969  -3.886  1.00 20.00     0.011 C 
HETATM   10  C8  UNL     1     -33.600  16.499  -3.786  1.00 20.00    -0.017 C 
HETATM   11  C6  UNL     1     -34.864  17.123  -4.397  1.00 20.00     0.017 C 
HETATM   12  C10 UNL     1     -33.434  16.936  -2.331  1.00 20.00     0.010 C 
ENDBRANCH   4   5
ENDBRANCH   2   4
TORSDOF 2
ENDMDL
MODEL 8
REMARK VINA RESULT:      -3.6     11.579     14.124
REMARK  2 active torsions:
REMARK  status: ('A' for Active; 'I' for Inactive)
REMARK    1  A    between atoms: C2_2  and  C11_11 
REMARK    2  A    between atoms: C7_7  and  C11_11 
ROOT
HETATM    1  C1  UNL     1     -39.786  12.183   5.670  1.00 20.00    -0.111 C 
HETATM    2  C2  UNL     1     -40.879  12.397   6.118  1.00 20.00    -0.106 C 
HETATM    3  C9  UNL     1     -38.455  11.923   5.123  1.00 20.00     0.112 C 
ENDROOT
BRANCH   2   4
HETATM    4  C11 UNL     1     -42.216  12.661   6.659  1.00 20.00     0.106 C 
BRANCH   4   5
HETATM    5  C7  UNL     1     -42.258  14.002   7.386  1.00 20.00     0.067 C 
HETATM    6  C3  UNL     1     -42.128  15.173   6.418  1.00 20.00     0.132 C 
HETATM    7  C4  UNL     1     -42.032  16.545   7.049  1.00 20.00     0.079 C 
HETATM    8  O12 UNL     1     -42.186  15.039   5.197  1.00 20.00    -0.298 OA
HETATM    9  C5  UNL     1     -40.940  16.572   8.109  1.00 20.00     0.011 C 
HETATM   10  C8  UNL     1     -41.123  15.449   9.140  1.00 20.00    -0.017 C 
HETATM   11  C6  UNL     1     -41.149  14.082   8.440  1.00 20.00     0.017 C 
HETATM   12  C10 UNL     1     -40.010  15.496  10.187  1.00 20.00     0.010 C 
ENDBRANCH   4   5
ENDBRANCH   2   4
TORSDOF 2
ENDMDL
MODEL 9
REMARK VINA RESULT:      -3.6     12.334     15.441
REMARK  2 active torsions:
REMARK  status: ('A' for Active; 'I' for Inactive)
REMARK    1  A    between atoms: C2_2  and  C11_11 
REMARK    2  A    between atoms: C7_7  and  C11_11 
ROOT
HETATM    1  C1  UNL     1     -39.841  12.589   5.516  1.00 20.00    -0.111 C 
HETATM    2  C2  UNL     1     -40.230  13.473   6.229  1.00 20.00    -0.106 C 
HETATM    3  C9  UNL     1     -39.368  11.512   4.647  1.00 20.00     0.112 C 
ENDROOT
BRANCH   2   4
HETATM    4  C11 UNL     1     -40.705  14.547   7.106  1.00 20.00     0.106 C 
BRANCH   4   5
HETATM    5  C7  UNL     1     -40.940  14.034   8.524  1.00 20.00     0.067 C 
HETATM    6  C3  UNL     1     -42.426  13.954   8.857  1.00 20.00     0.132 C 
HETATM    7  C4  UNL     1     -42.765  13.577  10.282  1.00 20.00     0.079 C 
HETATM    8  O12 UNL     1     -43.307  14.095   8.011  1.00 20.00    -0.298 OA
HETATM    9  C5  UNL     1     -42.019  14.469  11.264  1.00 20.00     0.011 C 
HETATM   10  C8  UNL     1     -40.509  14.478  10.990  1.00 20.00    -0.017 C 
HETATM   11  C6  UNL     1     -40.233  14.930   9.548  1.00 20.00     0.017 C 
HETATM   12  C10 UNL     1     -39.789  15.388  11.985  1.00 20.00     0.010 C 
ENDBRANCH   4   5
ENDBRANCH   2   4
TORSDOF 2
ENDMDL
