MODEL 1
REMARK VINA RESULT:      -4.3      0.000      0.000
REMARK  4 active torsions:
REMARK  status: ('A' for Active; 'I' for Inactive)
REMARK    1  A    between atoms: C1_1  and  C3_3 
REMARK    2  A    between atoms: C4_4  and  C10_10 
REMARK    3  A    between atoms: C8_8  and  C10_10 
REMARK    4  A    between atoms: C9_9  and  C10_10 
ROOT
HETATM    1  C2  UNL     1     -33.566   5.022   2.446  1.00 20.00     0.018 A 
HETATM    2  C3  UNL     1     -33.543   5.023   3.953  1.00 20.00     0.060 A 
HETATM    3  C4  UNL     1     -32.602   5.913   3.176  1.00 20.00     0.002 A 
ENDROOT
BRANCH   3   4
HETATM    4  C10 UNL     1     -32.774   7.434   3.125  1.00 20.00    -0.010 C 
BRANCH   4   5
HETATM    5  C8  UNL     1     -32.249   8.020   1.797  1.00 20.00     0.000 C 
HETATM    6  C6  UNL     1     -32.845   9.374   1.443  1.00 20.00     0.005 C 
ENDBRANCH   4   5
BRANCH   4   7
HETATM    7  C9  UNL     1     -32.054   8.127   4.301  1.00 20.00     0.000 C 
HETATM    8  C7  UNL     1     -32.996   8.827   5.272  1.00 20.00     0.005 C 
ENDBRANCH   4   7
ENDBRANCH   3   4
BRANCH   2   9
HETATM    9  C1  UNL     1     -34.680   5.588   4.689  1.00 20.00     0.127 C 
HETATM   10  C5  UNL     1     -34.542   5.673   6.185  1.00 20.00     0.091 C 
HETATM   11  O11 UNL     1     -35.695   5.974   4.112  1.00 20.00    -0.298 OA
ENDBRANCH   2   9
TORSDOF 4
ENDMDL
MODEL 2
REMARK VINA RESULT:      -3.9      1.635      4.457
REMARK  4 active torsions:
REMARK  status: ('A' for Active; 'I' for Inactive)
REMARK    1  A    between atoms: C1_1  and  C3_3 
REMARK    2  A    between atoms: C4_4  and  C10_10 
REMARK    3  A    between atoms: C8_8  and  C10_10 
REMARK    4  A    between atoms: C9_9  and  C10_10 
ROOT
HETATM    1  C2  UNL     1     -33.226   8.681   4.980  1.00 20.00     0.018 A 
HETATM    2  C3  UNL     1     -32.158   8.308   3.983  1.00 20.00     0.060 A 
HETATM    3  C4  UNL     1     -32.909   7.234   4.734  1.00 20.00     0.002 A 
ENDROOT
BRANCH   3   4
HETATM    4  C10 UNL     1     -33.937   6.328   4.049  1.00 20.00    -0.010 C 
BRANCH   4   5
HETATM    5  C8  UNL     1     -35.159   6.071   4.956  1.00 20.00     0.000 C 
HETATM    6  C6  UNL     1     -34.805   5.486   6.315  1.00 20.00     0.005 C 
ENDBRANCH   4   5
BRANCH   4   7
HETATM    7  C9  UNL     1     -33.319   4.975   3.639  1.00 20.00     0.000 C 
HETATM    8  C7  UNL     1     -32.992   4.872   2.156  1.00 20.00     0.005 C 
ENDBRANCH   4   7
ENDBRANCH   3   4
BRANCH   2   9
HETATM    9  C1  UNL     1     -32.395   8.537   2.554  1.00 20.00     0.127 C 
HETATM   10  C5  UNL     1     -33.181   9.767   2.187  1.00 20.00     0.091 C 
HETATM   11  O11 UNL     1     -31.973   7.762   1.698  1.00 20.00    -0.298 OA
ENDBRANCH   2   9
TORSDOF 4
ENDMDL
MODEL 3
REMARK VINA RESULT:      -3.7      1.086      2.646
REMARK  4 active torsions:
REMARK  status: ('A' for Active; 'I' for Inactive)
REMARK    1  A    between atoms: C1_1  and  C3_3 
REMARK    2  A    between atoms: C4_4  and  C10_10 
REMARK    3  A    between atoms: C8_8  and  C10_10 
REMARK    4  A    between atoms: C9_9  and  C10_10 
ROOT
HETATM    1  C2  UNL     1     -33.007   7.316   6.039  1.00 20.00     0.018 A 
HETATM    2  C3  UNL     1     -34.485   7.220   5.758  1.00 20.00     0.060 A 
HETATM    3  C4  UNL     1     -33.634   8.229   5.024  1.00 20.00     0.002 A 
ENDROOT
BRANCH   3   4
HETATM    4  C10 UNL     1     -33.290   8.079   3.540  1.00 20.00    -0.010 C 
BRANCH   4   5
HETATM    5  C8  UNL     1     -32.184   7.026   3.318  1.00 20.00     0.000 C 
HETATM    6  C6  UNL     1     -32.638   5.813   2.519  1.00 20.00     0.005 C 
ENDBRANCH   4   5
BRANCH   4   7
HETATM    7  C9  UNL     1     -32.840   9.420   2.923  1.00 20.00     0.000 C 
HETATM    8  C7  UNL     1     -32.864   9.434   1.400  1.00 20.00     0.005 C 
ENDBRANCH   4   7
ENDBRANCH   3   4
BRANCH   2   9
HETATM    9  C1  UNL     1     -35.012   6.035   5.071  1.00 20.00     0.127 C 
HETATM   10  C5  UNL     1     -34.377   4.715   5.417  1.00 20.00     0.091 C 
HETATM   11  O11 UNL     1     -35.927   6.117   4.254  1.00 20.00    -0.298 OA
ENDBRANCH   2   9
TORSDOF 4
ENDMDL
MODEL 4
REMARK VINA RESULT:      -3.6      1.620      4.436
REMARK  4 active torsions:
REMARK  status: ('A' for Active; 'I' for Inactive)
REMARK    1  A    between atoms: C1_1  and  C3_3 
REMARK    2  A    between atoms: C4_4  and  C10_10 
REMARK    3  A    between atoms: C8_8  and  C10_10 
REMARK    4  A    between atoms: C9_9  and  C10_10 
ROOT
HETATM    1  C2  UNL     1     -33.222   8.636   5.148  1.00 20.00     0.018 A 
HETATM    2  C3  UNL     1     -32.230   8.408   4.035  1.00 20.00     0.060 A 
HETATM    3  C4  UNL     1     -32.878   7.234   4.732  1.00 20.00     0.002 A 
ENDROOT
BRANCH   3   4
HETATM    4  C10 UNL     1     -33.929   6.358   4.045  1.00 20.00    -0.010 C 
BRANCH   4   5
HETATM    5  C8  UNL     1     -35.146   6.109   4.962  1.00 20.00     0.000 C 
HETATM    6  C6  UNL     1     -34.792   5.473   6.298  1.00 20.00     0.005 C 
ENDBRANCH   4   5
BRANCH   4   7
HETATM    7  C9  UNL     1     -33.340   4.999   3.611  1.00 20.00     0.000 C 
HETATM    8  C7  UNL     1     -32.948   4.942   2.141  1.00 20.00     0.005 C 
ENDBRANCH   4   7
ENDBRANCH   3   4
BRANCH   2   9
HETATM    9  C1  UNL     1     -32.597   8.764   2.660  1.00 20.00     0.127 C 
HETATM   10  C5  UNL     1     -31.928   7.987   1.559  1.00 20.00     0.091 C 
HETATM   11  O11 UNL     1     -33.412   9.653   2.419  1.00 20.00    -0.298 OA
ENDBRANCH   2   9
TORSDOF 4
ENDMDL
MODEL 5
REMARK VINA RESULT:      -3.5      9.600     11.112
REMARK  4 active torsions:
REMARK  status: ('A' for Active; 'I' for Inactive)
REMARK    1  A    between atoms: C1_1  and  C3_3 
REMARK    2  A    between atoms: C4_4  and  C10_10 
REMARK    3  A    between atoms: C8_8  and  C10_10 
REMARK    4  A    between atoms: C9_9  and  C10_10 
ROOT
HETATM    1  C2  UNL     1     -42.024  12.726   7.040  1.00 20.00     0.018 A 
HETATM    2  C3  UNL     1     -41.179  12.768   5.792  1.00 20.00     0.060 A 
HETATM    3  C4  UNL     1     -41.468  14.036   6.559  1.00 20.00     0.002 A 
ENDROOT
BRANCH   3   4
HETATM    4  C10 UNL     1     -40.392  14.758   7.375  1.00 20.00    -0.010 C 
BRANCH   4   5
HETATM    5  C8  UNL     1     -40.371  14.274   8.840  1.00 20.00     0.000 C 
HETATM    6  C6  UNL     1     -40.250  15.397   9.859  1.00 20.00     0.005 C 
ENDBRANCH   4   5
BRANCH   4   7
HETATM    7  C9  UNL     1     -40.593  16.288   7.353  1.00 20.00     0.000 C 
HETATM    8  C7  UNL     1     -41.879  16.729   6.666  1.00 20.00     0.005 C 
ENDBRANCH   4   7
ENDBRANCH   3   4
BRANCH   2   9
HETATM    9  C1  UNL     1     -39.842  12.165   5.808  1.00 20.00     0.127 C 
HETATM   10  C5  UNL     1     -39.150  12.019   4.480  1.00 20.00     0.091 C 
HETATM   11  O11 UNL     1     -39.312  11.799   6.855  1.00 20.00    -0.298 OA
ENDBRANCH   2   9
TORSDOF 4
ENDMDL
MODEL 6
REMARK VINA RESULT:      -3.5     11.424     12.610
REMARK  4 active torsions:
REMARK  status: ('A' for Active; 'I' for Inactive)
REMARK    1  A    between atoms: C1_1  and  C3_3 
REMARK    2  A    between atoms: C4_4  and  C10_10 
REMARK    3  A    between atoms: C8_8  and  C10_10 
REMARK    4  A    between atoms: C9_9  and  C10_10 
ROOT
HETATM    1  C2  UNL     1     -32.631  15.362  -4.156  1.00 20.00     0.018 A 
HETATM    2  C3  UNL     1     -34.012  14.755  -4.135  1.00 20.00     0.060 A 
HETATM    3  C4  UNL     1     -33.678  15.921  -3.235  1.00 20.00     0.002 A 
ENDROOT
BRANCH   3   4
HETATM    4  C10 UNL     1     -34.242  17.324  -3.475  1.00 20.00    -0.010 C 
BRANCH   4   5
HETATM    5  C8  UNL     1     -33.302  18.169  -4.361  1.00 20.00     0.000 C 
HETATM    6  C6  UNL     1     -34.012  18.901  -5.490  1.00 20.00     0.005 C 
ENDBRANCH   4   5
BRANCH   4   7
HETATM    7  C9  UNL     1     -34.490  18.071  -2.148  1.00 20.00     0.000 C 
HETATM    8  C7  UNL     1     -33.685  17.527  -0.976  1.00 20.00     0.005 C 
ENDBRANCH   4   7
ENDBRANCH   3   4
BRANCH   2   9
HETATM    9  C1  UNL     1     -34.891  14.927  -5.296  1.00 20.00     0.127 C 
HETATM   10  C5  UNL     1     -34.229  15.278  -6.601  1.00 20.00     0.091 C 
HETATM   11  O11 UNL     1     -36.110  14.789  -5.208  1.00 20.00    -0.298 OA
ENDBRANCH   2   9
TORSDOF 4
ENDMDL
MODEL 7
REMARK VINA RESULT:      -3.4     11.472     13.386
REMARK  4 active torsions:
REMARK  status: ('A' for Active; 'I' for Inactive)
REMARK    1  A    between atoms: C1_1  and  C3_3 
REMARK    2  A    between atoms: C4_4  and  C10_10 
REMARK    3  A    between atoms: C8_8  and  C10_10 
REMARK    4  A    between atoms: C9_9  and  C10_10 
ROOT
HETATM    1  C2  UNL     1     -34.275  19.261  -4.176  1.00 20.00     0.018 A 
HETATM    2  C3  UNL     1     -35.060  18.336  -5.072  1.00 20.00     0.060 A 
HETATM    3  C4  UNL     1     -33.763  17.876  -4.450  1.00 20.00     0.002 A 
ENDROOT
BRANCH   3   4
HETATM    4  C10 UNL     1     -33.721  16.836  -3.327  1.00 20.00    -0.010 C 
BRANCH   4   5
HETATM    5  C8  UNL     1     -32.920  17.348  -2.111  1.00 20.00     0.000 C 
HETATM    6  C6  UNL     1     -33.769  17.593  -0.872  1.00 20.00     0.005 C 
ENDBRANCH   4   5
BRANCH   4   7
HETATM    7  C9  UNL     1     -33.110  15.504  -3.808  1.00 20.00     0.000 C 
HETATM    8  C7  UNL     1     -34.145  14.469  -4.227  1.00 20.00     0.005 C 
ENDBRANCH   4   7
ENDBRANCH   3   4
BRANCH   2   9
HETATM    9  C1  UNL     1     -36.348  17.807  -4.609  1.00 20.00     0.127 C 
HETATM   10  C5  UNL     1     -37.038  18.571  -3.512  1.00 20.00     0.091 C 
HETATM   11  O11 UNL     1     -36.839  16.790  -5.095  1.00 20.00    -0.298 OA
ENDBRANCH   2   9
TORSDOF 4
ENDMDL
MODEL 8
REMARK VINA RESULT:      -3.4     11.761     13.092
REMARK  4 active torsions:
REMARK  status: ('A' for Active; 'I' for Inactive)
REMARK    1  A    between atoms: C1_1  and  C3_3 
REMARK    2  A    between atoms: C4_4  and  C10_10 
REMARK    3  A    between atoms: C8_8  and  C10_10 
REMARK    4  A    between atoms: C9_9  and  C10_10 
ROOT
HETATM    1  C2  UNL     1     -32.878  14.868  -4.252  1.00 20.00     0.018 A 
HETATM    2  C3  UNL     1     -34.273  14.670  -4.790  1.00 20.00     0.060 A 
HETATM    3  C4  UNL     1     -33.988  15.772  -3.796  1.00 20.00     0.002 A 
ENDROOT
BRANCH   3   4
HETATM    4  C10 UNL     1     -33.987  17.250  -4.195  1.00 20.00    -0.010 C 
BRANCH   4   5
HETATM    5  C8  UNL     1     -33.020  18.073  -3.319  1.00 20.00     0.000 C 
HETATM    6  C6  UNL     1     -32.990  17.641  -1.860  1.00 20.00     0.005 C 
ENDBRANCH   4   5
BRANCH   4   7
HETATM    7  C9  UNL     1     -35.400  17.864  -4.102  1.00 20.00     0.000 C 
HETATM    8  C7  UNL     1     -35.788  18.700  -5.314  1.00 20.00     0.005 C 
ENDBRANCH   4   7
ENDBRANCH   3   4
BRANCH   2   9
HETATM    9  C1  UNL     1     -34.553  14.978  -6.196  1.00 20.00     0.127 C 
HETATM   10  C5  UNL     1     -35.995  15.200  -6.566  1.00 20.00     0.091 C 
HETATM   11  O11 UNL     1     -33.654  15.052  -7.032  1.00 20.00    -0.298 OA
ENDBRANCH   2   9
TORSDOF 4
ENDMDL
MODEL 9
REMARK VINA RESULT:      -3.4     11.342     13.131
REMARK  4 active torsions:
REMARK  status: ('A' for Active; 'I' for Inactive)
REMARK    1  A    between atoms: C1_1  and  C3_3 
REMARK    2  A    between atoms: C4_4  and  C10_10 
REMARK    3  A    between atoms: C8_8  and  C10_10 
REMARK    4  A    between atoms: C9_9  and  C10_10 
ROOT
HETATM    1  C2  UNL     1     -34.060  14.518  -3.853  1.00 20.00     0.018 A 
HETATM    2  C3  UNL     1     -33.040  15.615  -4.021  1.00 20.00     0.060 A 
HETATM    3  C4  UNL     1     -33.925  15.213  -5.178  1.00 20.00     0.002 A 
ENDROOT
BRANCH   3   4
HETATM    4  C10 UNL     1     -35.053  16.112  -5.691  1.00 20.00    -0.010 C 
BRANCH   4   5
HETATM    5  C8  UNL     1     -36.421  15.400  -5.623  1.00 20.00     0.000 C 
HETATM    6  C6  UNL     1     -37.586  16.331  -5.323  1.00 20.00     0.005 C 
ENDBRANCH   4   5
BRANCH   4   7
HETATM    7  C9  UNL     1     -34.796  16.573  -7.141  1.00 20.00     0.000 C 
HETATM    8  C7  UNL     1     -33.854  15.664  -7.918  1.00 20.00     0.005 C 
ENDBRANCH   4   7
ENDBRANCH   3   4
BRANCH   2   9
HETATM    9  C1  UNL     1     -33.238  16.894  -3.330  1.00 20.00     0.127 C 
HETATM   10  C5  UNL     1     -33.620  16.824  -1.876  1.00 20.00     0.091 C 
HETATM   11  O11 UNL     1     -33.096  17.969  -3.909  1.00 20.00    -0.298 OA
ENDBRANCH   2   9
TORSDOF 4
ENDMDL
