MODEL 1
REMARK VINA RESULT:      -4.1      0.000      0.000
REMARK  3 active torsions:
REMARK  status: ('A' for Active; 'I' for Inactive)
REMARK    1  A    between atoms: C2_2  and  C10_10 
REMARK    2  A    between atoms: C7_7  and  N11_11 
REMARK    3  A    between atoms: C10_10  and  N11_11 
ROOT
HETATM    1  C1  UNL     1     -33.610  17.457  -1.166  1.00 20.00    -0.109 C 
HETATM    2  C2  UNL     1     -33.484  16.934  -2.241  1.00 20.00    -0.077 C 
HETATM    3  C8  UNL     1     -33.764  18.092   0.141  1.00 20.00     0.112 C 
ENDROOT
BRANCH   2   4
HETATM    4  C10 UNL     1     -33.337  16.295  -3.551  1.00 20.00     0.363 C 
BRANCH   4   5
HETATM    5  N11 UNL     1     -34.557  16.419  -4.329  1.00 20.00     0.103 N 
HETATM    6  H28 UNL     1     -34.467  17.189  -4.986  1.00 20.00     0.318 HD
BRANCH   5   7
HETATM    7  C7  UNL     1     -34.813  15.201  -5.075  1.00 20.00     0.155 C 
HETATM    8  C5  UNL     1     -33.990  15.177  -6.368  1.00 20.00     0.041 C 
HETATM    9  C3  UNL     1     -34.753  16.088  -7.329  1.00 20.00     0.003 C 
HETATM   10  C4  UNL     1     -36.203  16.097  -6.844  1.00 20.00     0.003 C 
HETATM   11  C6  UNL     1     -36.246  15.189  -5.616  1.00 20.00     0.041 C 
HETATM   12  C9  UNL     1     -34.523  13.996  -4.185  1.00 20.00     0.049 C 
ENDBRANCH   5   7
ENDBRANCH   4   5
ENDBRANCH   2   4
TORSDOF 3
ENDMDL
MODEL 2
REMARK VINA RESULT:      -4.1     11.135     12.887
REMARK  3 active torsions:
REMARK  status: ('A' for Active; 'I' for Inactive)
REMARK    1  A    between atoms: C2_2  and  C10_10 
REMARK    2  A    between atoms: C7_7  and  N11_11 
REMARK    3  A    between atoms: C10_10  and  N11_11 
ROOT
HETATM    1  C1  UNL     1     -32.499   8.745   1.391  1.00 20.00    -0.109 C 
HETATM    2  C2  UNL     1     -32.316   8.477   2.548  1.00 20.00    -0.077 C 
HETATM    3  C8  UNL     1     -32.723   9.072  -0.016  1.00 20.00     0.112 C 
ENDROOT
BRANCH   2   4
HETATM    4  C10 UNL     1     -32.096   8.154   3.961  1.00 20.00     0.363 C 
BRANCH   4   5
HETATM    5  N11 UNL     1     -32.780   6.925   4.325  1.00 20.00     0.103 N 
HETATM    6  H28 UNL     1     -32.143   6.316   4.831  1.00 20.00     0.318 HD
BRANCH   5   7
HETATM    7  C7  UNL     1     -33.923   7.211   5.172  1.00 20.00     0.155 C 
HETATM    8  C5  UNL     1     -33.824   6.434   6.490  1.00 20.00     0.041 C 
HETATM    9  C3  UNL     1     -34.266   5.014   6.137  1.00 20.00     0.003 C 
HETATM   10  C4  UNL     1     -35.152   5.141   4.898  1.00 20.00     0.003 C 
HETATM   11  C6  UNL     1     -35.205   6.632   4.564  1.00 20.00     0.041 C 
HETATM   12  C9  UNL     1     -34.020   8.716   5.397  1.00 20.00     0.049 C 
ENDBRANCH   5   7
ENDBRANCH   4   5
ENDBRANCH   2   4
TORSDOF 3
ENDMDL
MODEL 3
REMARK VINA RESULT:      -3.9      1.493      5.545
REMARK  3 active torsions:
REMARK  status: ('A' for Active; 'I' for Inactive)
REMARK    1  A    between atoms: C2_2  and  C10_10 
REMARK    2  A    between atoms: C7_7  and  N11_11 
REMARK    3  A    between atoms: C10_10  and  N11_11 
ROOT
HETATM    1  C1  UNL     1     -34.646  15.343  -4.987  1.00 20.00    -0.109 C 
HETATM    2  C2  UNL     1     -33.915  15.828  -4.166  1.00 20.00    -0.077 C 
HETATM    3  C8  UNL     1     -35.536  14.752  -5.985  1.00 20.00     0.112 C 
ENDROOT
BRANCH   2   4
HETATM    4  C10 UNL     1     -33.018  16.422  -3.171  1.00 20.00     0.363 C 
BRANCH   4   5
HETATM    5  N11 UNL     1     -33.711  16.637  -1.912  1.00 20.00     0.103 N 
HETATM    6  H28 UNL     1     -33.180  16.218  -1.153  1.00 20.00     0.318 HD
BRANCH   5   7
HETATM    7  C7  UNL     1     -33.856  18.057  -1.646  1.00 20.00     0.155 C 
HETATM    8  C5  UNL     1     -32.541  18.794  -1.923  1.00 20.00     0.041 C 
HETATM    9  C3  UNL     1     -31.674  18.513  -0.695  1.00 20.00     0.003 C 
HETATM   10  C4  UNL     1     -32.642  18.199   0.445  1.00 20.00     0.003 C 
HETATM   11  C6  UNL     1     -34.046  18.309  -0.147  1.00 20.00     0.041 C 
HETATM   12  C9  UNL     1     -35.011  18.609  -2.476  1.00 20.00     0.049 C 
ENDBRANCH   5   7
ENDBRANCH   4   5
ENDBRANCH   2   4
TORSDOF 3
ENDMDL
MODEL 4
REMARK VINA RESULT:      -3.9     12.352     14.361
REMARK  3 active torsions:
REMARK  status: ('A' for Active; 'I' for Inactive)
REMARK    1  A    between atoms: C2_2  and  C10_10 
REMARK    2  A    between atoms: C7_7  and  N11_11 
REMARK    3  A    between atoms: C10_10  and  N11_11 
ROOT
HETATM    1  C1  UNL     1     -42.405   3.071  -3.266  1.00 20.00    -0.109 C 
HETATM    2  C2  UNL     1     -42.668   3.834  -2.376  1.00 20.00    -0.077 C 
HETATM    3  C8  UNL     1     -42.085   2.143  -4.349  1.00 20.00     0.112 C 
ENDROOT
BRANCH   2   4
HETATM    4  C10 UNL     1     -42.984   4.769  -1.293  1.00 20.00     0.363 C 
BRANCH   4   5
HETATM    5  N11 UNL     1     -41.772   5.340  -0.731  1.00 20.00     0.103 N 
HETATM    6  H28 UNL     1     -41.342   5.965  -1.408  1.00 20.00     0.318 HD
BRANCH   5   7
HETATM    7  C7  UNL     1     -42.075   6.096   0.471  1.00 20.00     0.155 C 
HETATM    8  C5  UNL     1     -43.152   7.150   0.188  1.00 20.00     0.041 C 
HETATM    9  C3  UNL     1     -42.407   8.289  -0.507  1.00 20.00     0.003 C 
HETATM   10  C4  UNL     1     -40.947   8.172  -0.066  1.00 20.00     0.003 C 
HETATM   11  C6  UNL     1     -40.882   6.969   0.874  1.00 20.00     0.041 C 
HETATM   12  C9  UNL     1     -42.487   5.134   1.580  1.00 20.00     0.049 C 
ENDBRANCH   5   7
ENDBRANCH   4   5
ENDBRANCH   2   4
TORSDOF 3
ENDMDL
MODEL 5
REMARK VINA RESULT:      -3.8     11.669     14.610
REMARK  3 active torsions:
REMARK  status: ('A' for Active; 'I' for Inactive)
REMARK    1  A    between atoms: C2_2  and  C10_10 
REMARK    2  A    between atoms: C7_7  and  N11_11 
REMARK    3  A    between atoms: C10_10  and  N11_11 
ROOT
HETATM    1  C1  UNL     1     -39.665  12.232   5.024  1.00 20.00    -0.109 C 
HETATM    2  C2  UNL     1     -40.274  12.786   5.899  1.00 20.00    -0.077 C 
HETATM    3  C8  UNL     1     -38.925  11.557   3.959  1.00 20.00     0.112 C 
ENDROOT
BRANCH   2   4
HETATM    4  C10 UNL     1     -41.018  13.468   6.962  1.00 20.00     0.363 C 
BRANCH   4   5
HETATM    5  N11 UNL     1     -40.115  14.003   7.967  1.00 20.00     0.103 N 
HETATM    6  H28 UNL     1     -39.253  14.308   7.524  1.00 20.00     0.318 HD
BRANCH   5   7
HETATM    7  C7  UNL     1     -40.718  15.139   8.640  1.00 20.00     0.155 C 
HETATM    8  C5  UNL     1     -40.051  15.376   9.999  1.00 20.00     0.041 C 
HETATM    9  C3  UNL     1     -40.668  14.326  10.922  1.00 20.00     0.003 C 
HETATM   10  C4  UNL     1     -42.023  13.967  10.311  1.00 20.00     0.003 C 
HETATM   11  C6  UNL     1     -42.159  14.820   9.051  1.00 20.00     0.041 C 
HETATM   12  C9  UNL     1     -40.634  16.363   7.735  1.00 20.00     0.049 C 
ENDBRANCH   5   7
ENDBRANCH   4   5
ENDBRANCH   2   4
TORSDOF 3
ENDMDL
MODEL 6
REMARK VINA RESULT:      -3.8      1.196      1.921
REMARK  3 active torsions:
REMARK  status: ('A' for Active; 'I' for Inactive)
REMARK    1  A    between atoms: C2_2  and  C10_10 
REMARK    2  A    between atoms: C7_7  and  N11_11 
REMARK    3  A    between atoms: C10_10  and  N11_11 
ROOT
HETATM    1  C1  UNL     1     -33.574  17.499  -1.157  1.00 20.00    -0.109 C 
HETATM    2  C2  UNL     1     -33.534  17.093  -2.287  1.00 20.00    -0.077 C 
HETATM    3  C8  UNL     1     -33.623  17.993   0.218  1.00 20.00     0.112 C 
ENDROOT
BRANCH   2   4
HETATM    4  C10 UNL     1     -33.477  16.596  -3.665  1.00 20.00     0.363 C 
BRANCH   4   5
HETATM    5  N11 UNL     1     -34.710  15.916  -4.022  1.00 20.00     0.103 N 
HETATM    6  H28 UNL     1     -35.329  15.885  -3.216  1.00 20.00     0.318 HD
BRANCH   5   7
HETATM    7  C7  UNL     1     -35.385  16.617  -5.099  1.00 20.00     0.155 C 
HETATM    8  C5  UNL     1     -36.464  15.729  -5.728  1.00 20.00     0.041 C 
HETATM    9  C3  UNL     1     -35.696  14.776  -6.643  1.00 20.00     0.003 C 
HETATM   10  C4  UNL     1     -34.390  15.488  -6.997  1.00 20.00     0.003 C 
HETATM   11  C6  UNL     1     -34.434  16.836  -6.280  1.00 20.00     0.041 C 
HETATM   12  C9  UNL     1     -35.955  17.928  -4.567  1.00 20.00     0.049 C 
ENDBRANCH   5   7
ENDBRANCH   4   5
ENDBRANCH   2   4
TORSDOF 3
ENDMDL
MODEL 7
REMARK VINA RESULT:      -3.6      3.437      5.028
REMARK  3 active torsions:
REMARK  status: ('A' for Active; 'I' for Inactive)
REMARK    1  A    between atoms: C2_2  and  C10_10 
REMARK    2  A    between atoms: C7_7  and  N11_11 
REMARK    3  A    between atoms: C10_10  and  N11_11 
ROOT
HETATM    1  C1  UNL     1     -30.502  18.736   1.857  1.00 20.00    -0.109 C 
HETATM    2  C2  UNL     1     -30.897  18.599   0.731  1.00 20.00    -0.077 C 
HETATM    3  C8  UNL     1     -30.020  18.904   3.227  1.00 20.00     0.112 C 
ENDROOT
BRANCH   2   4
HETATM    4  C10 UNL     1     -31.377  18.424  -0.643  1.00 20.00     0.363 C 
BRANCH   4   5
HETATM    5  N11 UNL     1     -32.543  19.254  -0.894  1.00 20.00     0.103 N 
HETATM    6  H28 UNL     1     -32.462  19.689  -1.809  1.00 20.00     0.318 HD
BRANCH   5   7
HETATM    7  C7  UNL     1     -33.753  18.454  -0.866  1.00 20.00     0.155 C 
HETATM    8  C5  UNL     1     -33.533  17.118  -1.585  1.00 20.00     0.041 C 
HETATM    9  C3  UNL     1     -33.628  17.459  -3.073  1.00 20.00     0.003 C 
HETATM   10  C4  UNL     1     -34.470  18.732  -3.163  1.00 20.00     0.003 C 
HETATM   11  C6  UNL     1     -34.845  19.096  -1.728  1.00 20.00     0.041 C 
HETATM   12  C9  UNL     1     -34.197  18.263   0.580  1.00 20.00     0.049 C 
ENDBRANCH   5   7
ENDBRANCH   4   5
ENDBRANCH   2   4
TORSDOF 3
ENDMDL
MODEL 8
REMARK VINA RESULT:      -3.6     10.868     13.639
REMARK  3 active torsions:
REMARK  status: ('A' for Active; 'I' for Inactive)
REMARK    1  A    between atoms: C2_2  and  C10_10 
REMARK    2  A    between atoms: C7_7  and  N11_11 
REMARK    3  A    between atoms: C10_10  and  N11_11 
ROOT
HETATM    1  C1  UNL     1     -39.454  12.225   4.997  1.00 20.00    -0.109 C 
HETATM    2  C2  UNL     1     -39.871  12.781   5.978  1.00 20.00    -0.077 C 
HETATM    3  C8  UNL     1     -38.948  11.550   3.804  1.00 20.00     0.112 C 
ENDROOT
BRANCH   2   4
HETATM    4  C10 UNL     1     -40.377  13.465   7.171  1.00 20.00     0.363 C 
BRANCH   4   5
HETATM    5  N11 UNL     1     -40.003  14.869   7.162  1.00 20.00     0.103 N 
HETATM    6  H28 UNL     1     -40.220  15.275   6.256  1.00 20.00     0.318 HD
BRANCH   5   7
HETATM    7  C7  UNL     1     -40.732  15.596   8.184  1.00 20.00     0.155 C 
HETATM    8  C5  UNL     1     -42.235  15.309   8.083  1.00 20.00     0.041 C 
HETATM    9  C3  UNL     1     -42.718  16.179   6.923  1.00 20.00     0.003 C 
HETATM   10  C4  UNL     1     -41.720  17.332   6.813  1.00 20.00     0.003 C 
HETATM   11  C6  UNL     1     -40.684  17.104   7.913  1.00 20.00     0.041 C 
HETATM   12  C9  UNL     1     -40.168  15.239   9.556  1.00 20.00     0.049 C 
ENDBRANCH   5   7
ENDBRANCH   4   5
ENDBRANCH   2   4
TORSDOF 3
ENDMDL
MODEL 9
REMARK VINA RESULT:      -3.6     23.939     25.491
REMARK  3 active torsions:
REMARK  status: ('A' for Active; 'I' for Inactive)
REMARK    1  A    between atoms: C2_2  and  C10_10 
REMARK    2  A    between atoms: C7_7  and  N11_11 
REMARK    3  A    between atoms: C10_10  and  N11_11 
ROOT
HETATM    1  C1  UNL     1     -22.915  -3.955   8.470  1.00 20.00    -0.109 C 
HETATM    2  C2  UNL     1     -23.668  -3.519   9.299  1.00 20.00    -0.077 C 
HETATM    3  C8  UNL     1     -21.999  -4.486   7.462  1.00 20.00     0.112 C 
ENDROOT
BRANCH   2   4
HETATM    4  C10 UNL     1     -24.582  -2.981  10.310  1.00 20.00     0.363 C 
BRANCH   4   5
HETATM    5  N11 UNL     1     -25.844  -2.585   9.710  1.00 20.00     0.103 N 
HETATM    6  H28 UNL     1     -26.068  -3.209   8.940  1.00 20.00     0.318 HD
BRANCH   5   7
HETATM    7  C7  UNL     1     -26.915  -2.650  10.687  1.00 20.00     0.155 C 
HETATM    8  C5  UNL     1     -28.178  -1.967  10.150  1.00 20.00     0.041 C 
HETATM    9  C3  UNL     1     -27.917  -0.472  10.331  1.00 20.00     0.003 C 
HETATM   10  C4  UNL     1     -26.893  -0.354  11.460  1.00 20.00     0.003 C 
HETATM   11  C6  UNL     1     -26.587  -1.783  11.907  1.00 20.00     0.041 C 
HETATM   12  C9  UNL     1     -27.164  -4.106  11.066  1.00 20.00     0.049 C 
ENDBRANCH   5   7
ENDBRANCH   4   5
ENDBRANCH   2   4
TORSDOF 3
ENDMDL
