MODEL 1
REMARK VINA RESULT:      -4.6      0.000      0.000
REMARK  4 active torsions:
REMARK  status: ('A' for Active; 'I' for Inactive)
REMARK    1  A    between atoms: C2_2  and  C6_6 
REMARK    2  A    between atoms: C3_3  and  C6_6 
REMARK    3  A    between atoms: C3_3  and  C7_7 
REMARK    4  A    between atoms: C7_7  and  C8_8 
ROOT
HETATM    1  C1  UNL     1     -32.450   7.913   3.688  1.00 20.00    -0.111 C 
HETATM    2  C2  UNL     1     -32.731   6.800   3.337  1.00 20.00    -0.100 C 
HETATM    3  C4  UNL     1     -32.106   9.269   4.114  1.00 20.00     0.112 C 
ENDROOT
BRANCH   2   4
HETATM    4  C6  UNL     1     -33.080   5.439   2.914  1.00 20.00     0.172 C 
BRANCH   4   5
HETATM    5  C3  UNL     1     -33.924   4.707   3.942  1.00 20.00     0.137 C 
HETATM    6  O9  UNL     1     -33.756   3.520   4.212  1.00 20.00    -0.297 OA
BRANCH   5   7
HETATM    7  C7  UNL     1     -34.997   5.547   4.621  1.00 20.00     0.079 C 
BRANCH   7   8
HETATM    8  C8  UNL     1     -34.840   5.585   6.138  1.00 20.00     0.003 C 
HETATM    9  C5  UNL     1     -34.209   6.889   6.600  1.00 20.00     0.005 C 
ENDBRANCH   7   8
ENDBRANCH   5   7
ENDBRANCH   4   5
ENDBRANCH   2   4
TORSDOF 4
ENDMDL
MODEL 2
REMARK VINA RESULT:      -4.5      1.325      2.674
REMARK  4 active torsions:
REMARK  status: ('A' for Active; 'I' for Inactive)
REMARK    1  A    between atoms: C2_2  and  C6_6 
REMARK    2  A    between atoms: C3_3  and  C6_6 
REMARK    3  A    between atoms: C3_3  and  C7_7 
REMARK    4  A    between atoms: C7_7  and  C8_8 
ROOT
HETATM    1  C1  UNL     1     -32.987   8.470   4.185  1.00 20.00    -0.111 C 
HETATM    2  C2  UNL     1     -33.464   7.930   5.145  1.00 20.00    -0.100 C 
HETATM    3  C4  UNL     1     -32.404   9.128   3.017  1.00 20.00     0.112 C 
ENDROOT
BRANCH   2   4
HETATM    4  C6  UNL     1     -34.055   7.269   6.315  1.00 20.00     0.172 C 
BRANCH   4   5
HETATM    5  C3  UNL     1     -34.466   5.836   6.029  1.00 20.00     0.137 C 
HETATM    6  O9  UNL     1     -34.481   4.966   6.898  1.00 20.00    -0.297 OA
BRANCH   5   7
HETATM    7  C7  UNL     1     -34.861   5.546   4.588  1.00 20.00     0.079 C 
BRANCH   7   8
HETATM    8  C8  UNL     1     -33.947   4.521   3.924  1.00 20.00     0.003 C 
HETATM    9  C5  UNL     1     -33.134   5.144   2.800  1.00 20.00     0.005 C 
ENDBRANCH   7   8
ENDBRANCH   5   7
ENDBRANCH   4   5
ENDBRANCH   2   4
TORSDOF 4
ENDMDL
MODEL 3
REMARK VINA RESULT:      -4.3      2.246      3.477
REMARK  4 active torsions:
REMARK  status: ('A' for Active; 'I' for Inactive)
REMARK    1  A    between atoms: C2_2  and  C6_6 
REMARK    2  A    between atoms: C3_3  and  C6_6 
REMARK    3  A    between atoms: C3_3  and  C7_7 
REMARK    4  A    between atoms: C7_7  and  C8_8 
ROOT
HETATM    1  C1  UNL     1     -32.755   5.555   2.672  1.00 20.00    -0.111 C 
HETATM    2  C2  UNL     1     -32.499   6.688   2.976  1.00 20.00    -0.100 C 
HETATM    3  C4  UNL     1     -33.065   4.174   2.304  1.00 20.00     0.112 C 
ENDROOT
BRANCH   2   4
HETATM    4  C6  UNL     1     -32.192   8.076   3.340  1.00 20.00     0.172 C 
BRANCH   4   5
HETATM    5  C3  UNL     1     -32.761   8.464   4.693  1.00 20.00     0.137 C 
HETATM    6  O9  UNL     1     -32.211   9.276   5.434  1.00 20.00    -0.297 OA
BRANCH   5   7
HETATM    7  C7  UNL     1     -34.065   7.778   5.072  1.00 20.00     0.079 C 
BRANCH   7   8
HETATM    8  C8  UNL     1     -33.935   6.920   6.326  1.00 20.00     0.003 C 
HETATM    9  C5  UNL     1     -34.560   5.548   6.130  1.00 20.00     0.005 C 
ENDBRANCH   7   8
ENDBRANCH   5   7
ENDBRANCH   4   5
ENDBRANCH   2   4
TORSDOF 4
ENDMDL
MODEL 4
REMARK VINA RESULT:      -4.3      2.687      3.239
REMARK  4 active torsions:
REMARK  status: ('A' for Active; 'I' for Inactive)
REMARK    1  A    between atoms: C2_2  and  C6_6 
REMARK    2  A    between atoms: C3_3  and  C6_6 
REMARK    3  A    between atoms: C3_3  and  C7_7 
REMARK    4  A    between atoms: C7_7  and  C8_8 
ROOT
HETATM    1  C1  UNL     1     -32.474   8.521   1.215  1.00 20.00    -0.111 C 
HETATM    2  C2  UNL     1     -32.370   8.008   2.296  1.00 20.00    -0.100 C 
HETATM    3  C4  UNL     1     -32.603   9.149  -0.099  1.00 20.00     0.112 C 
ENDROOT
BRANCH   2   4
HETATM    4  C6  UNL     1     -32.238   7.373   3.612  1.00 20.00     0.172 C 
BRANCH   4   5
HETATM    5  C3  UNL     1     -32.750   8.254   4.738  1.00 20.00     0.137 C 
HETATM    6  O9  UNL     1     -32.142   9.249   5.129  1.00 20.00    -0.297 OA
BRANCH   5   7
HETATM    7  C7  UNL     1     -34.072   7.821   5.353  1.00 20.00     0.079 C 
BRANCH   7   8
HETATM    8  C8  UNL     1     -33.906   6.703   6.377  1.00 20.00     0.003 C 
HETATM    9  C5  UNL     1     -34.630   5.439   5.945  1.00 20.00     0.005 C 
ENDBRANCH   7   8
ENDBRANCH   5   7
ENDBRANCH   4   5
ENDBRANCH   2   4
TORSDOF 4
ENDMDL
MODEL 5
REMARK VINA RESULT:      -4.3      2.303      4.349
REMARK  4 active torsions:
REMARK  status: ('A' for Active; 'I' for Inactive)
REMARK    1  A    between atoms: C2_2  and  C6_6 
REMARK    2  A    between atoms: C3_3  and  C6_6 
REMARK    3  A    between atoms: C3_3  and  C7_7 
REMARK    4  A    between atoms: C7_7  and  C8_8 
ROOT
HETATM    1  C1  UNL     1     -34.107   6.581   6.008  1.00 20.00    -0.111 C 
HETATM    2  C2  UNL     1     -33.568   7.558   5.563  1.00 20.00    -0.100 C 
HETATM    3  C4  UNL     1     -34.763   5.394   6.553  1.00 20.00     0.112 C 
ENDROOT
BRANCH   2   4
HETATM    4  C6  UNL     1     -32.907   8.746   5.012  1.00 20.00     0.172 C 
BRANCH   4   5
HETATM    5  C3  UNL     1     -32.548   8.586   3.546  1.00 20.00     0.137 C 
HETATM    6  O9  UNL     1     -32.798   9.448   2.705  1.00 20.00    -0.297 OA
BRANCH   5   7
HETATM    7  C7  UNL     1     -31.852   7.282   3.184  1.00 20.00     0.079 C 
BRANCH   7   8
HETATM    8  C8  UNL     1     -32.652   6.445   2.191  1.00 20.00     0.003 C 
HETATM    9  C5  UNL     1     -33.029   5.094   2.777  1.00 20.00     0.005 C 
ENDBRANCH   7   8
ENDBRANCH   5   7
ENDBRANCH   4   5
ENDBRANCH   2   4
TORSDOF 4
ENDMDL
MODEL 6
REMARK VINA RESULT:      -4.1     12.802     13.333
REMARK  4 active torsions:
REMARK  status: ('A' for Active; 'I' for Inactive)
REMARK    1  A    between atoms: C2_2  and  C6_6 
REMARK    2  A    between atoms: C3_3  and  C6_6 
REMARK    3  A    between atoms: C3_3  and  C7_7 
REMARK    4  A    between atoms: C7_7  and  C8_8 
ROOT
HETATM    1  C1  UNL     1     -29.820  18.589   2.807  1.00 20.00    -0.111 C 
HETATM    2  C2  UNL     1     -30.805  18.586   2.119  1.00 20.00    -0.100 C 
HETATM    3  C4  UNL     1     -28.620  18.594   3.641  1.00 20.00     0.112 C 
ENDROOT
BRANCH   2   4
HETATM    4  C6  UNL     1     -32.013  18.580   1.287  1.00 20.00     0.172 C 
BRANCH   4   5
HETATM    5  C3  UNL     1     -31.698  18.611  -0.198  1.00 20.00     0.137 C 
HETATM    6  O9  UNL     1     -30.548  18.580  -0.631  1.00 20.00    -0.297 OA
BRANCH   5   7
HETATM    7  C7  UNL     1     -32.907  18.683  -1.119  1.00 20.00     0.079 C 
BRANCH   7   8
HETATM    8  C8  UNL     1     -33.660  17.359  -1.204  1.00 20.00     0.003 C 
HETATM    9  C5  UNL     1     -33.360  16.629  -2.503  1.00 20.00     0.005 C 
ENDBRANCH   7   8
ENDBRANCH   5   7
ENDBRANCH   4   5
ENDBRANCH   2   4
TORSDOF 4
ENDMDL
MODEL 7
REMARK VINA RESULT:      -4.1     12.786     13.242
REMARK  4 active torsions:
REMARK  status: ('A' for Active; 'I' for Inactive)
REMARK    1  A    between atoms: C2_2  and  C6_6 
REMARK    2  A    between atoms: C3_3  and  C6_6 
REMARK    3  A    between atoms: C3_3  and  C7_7 
REMARK    4  A    between atoms: C7_7  and  C8_8 
ROOT
HETATM    1  C1  UNL     1     -33.314  16.619  -2.521  1.00 20.00    -0.111 C 
HETATM    2  C2  UNL     1     -33.283  17.342  -1.563  1.00 20.00    -0.100 C 
HETATM    3  C4  UNL     1     -33.350  15.736  -3.686  1.00 20.00     0.112 C 
ENDROOT
BRANCH   2   4
HETATM    4  C6  UNL     1     -33.248  18.233  -0.397  1.00 20.00     0.172 C 
BRANCH   4   5
HETATM    5  C3  UNL     1     -31.834  18.524   0.073  1.00 20.00     0.137 C 
HETATM    6  O9  UNL     1     -30.913  18.759  -0.707  1.00 20.00    -0.297 OA
BRANCH   5   7
HETATM    7  C7  UNL     1     -31.633  18.508   1.581  1.00 20.00     0.079 C 
BRANCH   7   8
HETATM    8  C8  UNL     1     -30.194  18.815   1.984  1.00 20.00     0.003 C 
HETATM    9  C5  UNL     1     -30.046  18.909   3.494  1.00 20.00     0.005 C 
ENDBRANCH   7   8
ENDBRANCH   5   7
ENDBRANCH   4   5
ENDBRANCH   2   4
TORSDOF 4
ENDMDL
MODEL 8
REMARK VINA RESULT:      -4.0      1.539      1.842
REMARK  4 active torsions:
REMARK  status: ('A' for Active; 'I' for Inactive)
REMARK    1  A    between atoms: C2_2  and  C6_6 
REMARK    2  A    between atoms: C3_3  and  C6_6 
REMARK    3  A    between atoms: C3_3  and  C7_7 
REMARK    4  A    between atoms: C7_7  and  C8_8 
ROOT
HETATM    1  C1  UNL     1     -32.559   6.903   2.356  1.00 20.00    -0.111 C 
HETATM    2  C2  UNL     1     -33.070   5.999   2.960  1.00 20.00    -0.100 C 
HETATM    3  C4  UNL     1     -31.934   8.002   1.621  1.00 20.00     0.112 C 
ENDROOT
BRANCH   2   4
HETATM    4  C6  UNL     1     -33.700   4.900   3.700  1.00 20.00     0.172 C 
BRANCH   4   5
HETATM    5  C3  UNL     1     -34.773   5.383   4.659  1.00 20.00     0.137 C 
HETATM    6  O9  UNL     1     -35.890   5.733   4.282  1.00 20.00    -0.297 OA
BRANCH   5   7
HETATM    7  C7  UNL     1     -34.372   5.405   6.127  1.00 20.00     0.079 C 
BRANCH   7   8
HETATM    8  C8  UNL     1     -34.351   6.814   6.709  1.00 20.00     0.003 C 
HETATM    9  C5  UNL     1     -33.482   7.747   5.880  1.00 20.00     0.005 C 
ENDBRANCH   7   8
ENDBRANCH   5   7
ENDBRANCH   4   5
ENDBRANCH   2   4
TORSDOF 4
ENDMDL
MODEL 9
REMARK VINA RESULT:      -3.9      2.007      3.701
REMARK  4 active torsions:
REMARK  status: ('A' for Active; 'I' for Inactive)
REMARK    1  A    between atoms: C2_2  and  C6_6 
REMARK    2  A    between atoms: C3_3  and  C6_6 
REMARK    3  A    between atoms: C3_3  and  C7_7 
REMARK    4  A    between atoms: C7_7  and  C8_8 
ROOT
HETATM    1  C1  UNL     1     -34.275   5.341   4.797  1.00 20.00    -0.111 C 
HETATM    2  C2  UNL     1     -33.654   5.529   3.786  1.00 20.00    -0.100 C 
HETATM    3  C4  UNL     1     -35.033   5.112   6.026  1.00 20.00     0.112 C 
ENDROOT
BRANCH   2   4
HETATM    4  C6  UNL     1     -32.890   5.761   2.555  1.00 20.00     0.172 C 
BRANCH   4   5
HETATM    5  C3  UNL     1     -32.271   7.147   2.507  1.00 20.00     0.137 C 
HETATM    6  O9  UNL     1     -32.170   7.791   1.464  1.00 20.00    -0.297 OA
BRANCH   5   7
HETATM    7  C7  UNL     1     -31.781   7.689   3.842  1.00 20.00     0.079 C 
BRANCH   7   8
HETATM    8  C8  UNL     1     -32.534   8.941   4.279  1.00 20.00     0.003 C 
HETATM    9  C5  UNL     1     -33.421   8.666   5.483  1.00 20.00     0.005 C 
ENDBRANCH   7   8
ENDBRANCH   5   7
ENDBRANCH   4   5
ENDBRANCH   2   4
TORSDOF 4
ENDMDL
