MODEL 1
REMARK VINA RESULT:      -4.4      0.000      0.000
REMARK  4 active torsions:
REMARK  status: ('A' for Active; 'I' for Inactive)
REMARK    1  A    between atoms: C2_2  and  C7_7 
REMARK    2  A    between atoms: C3_3  and  C8_8 
REMARK    3  A    between atoms: C3_3  and  C9_9 
REMARK    4  A    between atoms: C7_7  and  C8_8 
ROOT
HETATM    1  C1  UNL     1     -32.513   8.584   1.350  1.00 20.00    -0.111 C 
HETATM    2  C2  UNL     1     -32.370   8.139   2.456  1.00 20.00    -0.107 C 
HETATM    3  C4  UNL     1     -32.684   9.129   0.004  1.00 20.00     0.112 C 
ENDROOT
BRANCH   2   4
HETATM    4  C7  UNL     1     -32.194   7.599   3.812  1.00 20.00     0.101 C 
BRANCH   4   5
HETATM    5  C8  UNL     1     -33.126   8.272   4.817  1.00 20.00     0.090 C 
BRANCH   5   6
HETATM    6  C3  UNL     1     -33.904   7.290   5.686  1.00 20.00     0.131 C 
HETATM    7  O10 UNL     1     -34.213   7.545   6.849  1.00 20.00    -0.298 OA
BRANCH   6   8
HETATM    8  C9  UNL     1     -34.279   5.964   5.028  1.00 20.00     0.047 C 
HETATM    9  C5  UNL     1     -34.385   4.878   6.092  1.00 20.00     0.017 C 
HETATM   10  C6  UNL     1     -35.582   6.093   4.245  1.00 20.00     0.017 C 
ENDBRANCH   6   8
ENDBRANCH   5   6
ENDBRANCH   4   5
ENDBRANCH   2   4
TORSDOF 4
ENDMDL
MODEL 2
REMARK VINA RESULT:      -4.3      2.027      2.760
REMARK  4 active torsions:
REMARK  status: ('A' for Active; 'I' for Inactive)
REMARK    1  A    between atoms: C2_2  and  C7_7 
REMARK    2  A    between atoms: C3_3  and  C8_8 
REMARK    3  A    between atoms: C3_3  and  C9_9 
REMARK    4  A    between atoms: C7_7  and  C8_8 
ROOT
HETATM    1  C1  UNL     1     -32.501   7.834   3.695  1.00 20.00    -0.111 C 
HETATM    2  C2  UNL     1     -32.780   6.725   3.327  1.00 20.00    -0.107 C 
HETATM    3  C4  UNL     1     -32.160   9.182   4.146  1.00 20.00     0.112 C 
ENDROOT
BRANCH   2   4
HETATM    4  C7  UNL     1     -33.123   5.367   2.881  1.00 20.00     0.101 C 
BRANCH   4   5
HETATM    5  C8  UNL     1     -33.923   4.608   3.937  1.00 20.00     0.090 C 
BRANCH   5   6
HETATM    6  C3  UNL     1     -34.928   5.477   4.686  1.00 20.00     0.131 C 
HETATM    7  O10 UNL     1     -35.902   5.981   4.129  1.00 20.00    -0.298 OA
BRANCH   6   8
HETATM    8  C9  UNL     1     -34.656   5.686   6.174  1.00 20.00     0.047 C 
HETATM    9  C5  UNL     1     -33.509   4.784   6.614  1.00 20.00     0.017 C 
HETATM   10  C6  UNL     1     -34.348   7.150   6.472  1.00 20.00     0.017 C 
ENDBRANCH   6   8
ENDBRANCH   5   6
ENDBRANCH   4   5
ENDBRANCH   2   4
TORSDOF 4
ENDMDL
MODEL 3
REMARK VINA RESULT:      -4.2      0.987      1.446
REMARK  4 active torsions:
REMARK  status: ('A' for Active; 'I' for Inactive)
REMARK    1  A    between atoms: C2_2  and  C7_7 
REMARK    2  A    between atoms: C3_3  and  C8_8 
REMARK    3  A    between atoms: C3_3  and  C9_9 
REMARK    4  A    between atoms: C7_7  and  C8_8 
ROOT
HETATM    1  C1  UNL     1     -32.581   8.819   2.117  1.00 20.00    -0.111 C 
HETATM    2  C2  UNL     1     -32.565   8.584   3.294  1.00 20.00    -0.107 C 
HETATM    3  C4  UNL     1     -32.601   9.110   0.684  1.00 20.00     0.112 C 
ENDROOT
BRANCH   2   4
HETATM    4  C7  UNL     1     -32.545   8.300   4.737  1.00 20.00     0.101 C 
BRANCH   4   5
HETATM    5  C8  UNL     1     -33.928   7.911   5.257  1.00 20.00     0.090 C 
BRANCH   5   6
HETATM    6  C3  UNL     1     -34.022   6.463   5.723  1.00 20.00     0.131 C 
HETATM    7  O10 UNL     1     -33.592   6.096   6.816  1.00 20.00    -0.298 OA
BRANCH   6   8
HETATM    8  C9  UNL     1     -34.685   5.487   4.753  1.00 20.00     0.047 C 
HETATM    9  C5  UNL     1     -35.912   6.143   4.130  1.00 20.00     0.017 C 
HETATM   10  C6  UNL     1     -33.701   5.033   3.679  1.00 20.00     0.017 C 
ENDBRANCH   6   8
ENDBRANCH   5   6
ENDBRANCH   4   5
ENDBRANCH   2   4
TORSDOF 4
ENDMDL
MODEL 4
REMARK VINA RESULT:      -4.1     11.265     12.095
REMARK  4 active torsions:
REMARK  status: ('A' for Active; 'I' for Inactive)
REMARK    1  A    between atoms: C2_2  and  C7_7 
REMARK    2  A    between atoms: C3_3  and  C8_8 
REMARK    3  A    between atoms: C3_3  and  C9_9 
REMARK    4  A    between atoms: C7_7  and  C8_8 
ROOT
HETATM    1  C1  UNL     1     -33.561  15.777  -3.511  1.00 20.00    -0.111 C 
HETATM    2  C2  UNL     1     -33.253  16.808  -2.977  1.00 20.00    -0.107 C 
HETATM    3  C4  UNL     1     -33.933  14.523  -4.164  1.00 20.00     0.112 C 
ENDROOT
BRANCH   2   4
HETATM    4  C7  UNL     1     -32.874  18.071  -2.327  1.00 20.00     0.101 C 
BRANCH   4   5
HETATM    5  C8  UNL     1     -32.917  17.959  -0.804  1.00 20.00     0.090 C 
BRANCH   5   6
HETATM    6  C3  UNL     1     -31.721  18.602  -0.109  1.00 20.00     0.131 C 
HETATM    7  O10 UNL     1     -30.594  18.592  -0.600  1.00 20.00    -0.298 OA
BRANCH   6   8
HETATM    8  C9  UNL     1     -32.004  19.263   1.239  1.00 20.00     0.047 C 
HETATM    9  C5  UNL     1     -33.505  19.261   1.502  1.00 20.00     0.017 C 
HETATM   10  C6  UNL     1     -31.250  18.557   2.362  1.00 20.00     0.017 C 
ENDBRANCH   6   8
ENDBRANCH   5   6
ENDBRANCH   4   5
ENDBRANCH   2   4
TORSDOF 4
ENDMDL
MODEL 5
REMARK VINA RESULT:      -4.1      1.637      1.959
REMARK  4 active torsions:
REMARK  status: ('A' for Active; 'I' for Inactive)
REMARK    1  A    between atoms: C2_2  and  C7_7 
REMARK    2  A    between atoms: C3_3  and  C8_8 
REMARK    3  A    between atoms: C3_3  and  C9_9 
REMARK    4  A    between atoms: C7_7  and  C8_8 
ROOT
HETATM    1  C1  UNL     1     -32.794   9.177   1.079  1.00 20.00    -0.111 C 
HETATM    2  C2  UNL     1     -32.737   9.210   2.278  1.00 20.00    -0.107 C 
HETATM    3  C4  UNL     1     -32.865   9.134  -0.381  1.00 20.00     0.112 C 
ENDROOT
BRANCH   2   4
HETATM    4  C7  UNL     1     -32.670   9.245   3.746  1.00 20.00     0.101 C 
BRANCH   4   5
HETATM    5  C8  UNL     1     -32.197   7.913   4.324  1.00 20.00     0.090 C 
BRANCH   5   6
HETATM    6  C3  UNL     1     -33.117   6.742   3.996  1.00 20.00     0.131 C 
HETATM    7  O10 UNL     1     -32.901   5.984   3.052  1.00 20.00    -0.298 OA
BRANCH   6   8
HETATM    8  C9  UNL     1     -34.327   6.562   4.910  1.00 20.00     0.047 C 
HETATM    9  C5  UNL     1     -34.802   5.115   4.847  1.00 20.00     0.017 C 
HETATM   10  C6  UNL     1     -33.993   6.967   6.343  1.00 20.00     0.017 C 
ENDBRANCH   6   8
ENDBRANCH   5   6
ENDBRANCH   4   5
ENDBRANCH   2   4
TORSDOF 4
ENDMDL
MODEL 6
REMARK VINA RESULT:      -4.1     11.634     13.225
REMARK  4 active torsions:
REMARK  status: ('A' for Active; 'I' for Inactive)
REMARK    1  A    between atoms: C2_2  and  C7_7 
REMARK    2  A    between atoms: C3_3  and  C8_8 
REMARK    3  A    between atoms: C3_3  and  C9_9 
REMARK    4  A    between atoms: C7_7  and  C8_8 
ROOT
HETATM    1  C1  UNL     1     -33.323  16.529  -2.706  1.00 20.00    -0.111 C 
HETATM    2  C2  UNL     1     -33.596  15.633  -3.458  1.00 20.00    -0.107 C 
HETATM    3  C4  UNL     1     -32.988  17.617  -1.789  1.00 20.00     0.112 C 
ENDROOT
BRANCH   2   4
HETATM    4  C7  UNL     1     -33.928  14.534  -4.376  1.00 20.00     0.101 C 
BRANCH   4   5
HETATM    5  C8  UNL     1     -33.909  14.986  -5.834  1.00 20.00     0.090 C 
BRANCH   5   6
HETATM    6  C3  UNL     1     -35.297  15.190  -6.431  1.00 20.00     0.131 C 
HETATM    7  O10 UNL     1     -35.972  14.253  -6.855  1.00 20.00    -0.298 OA
BRANCH   6   8
HETATM    8  C9  UNL     1     -35.805  16.630  -6.474  1.00 20.00     0.047 C 
HETATM    9  C5  UNL     1     -36.714  16.885  -5.278  1.00 20.00     0.017 C 
HETATM   10  C6  UNL     1     -34.642  17.618  -6.500  1.00 20.00     0.017 C 
ENDBRANCH   6   8
ENDBRANCH   5   6
ENDBRANCH   4   5
ENDBRANCH   2   4
TORSDOF 4
ENDMDL
MODEL 7
REMARK VINA RESULT:      -4.0     11.636     13.081
REMARK  4 active torsions:
REMARK  status: ('A' for Active; 'I' for Inactive)
REMARK    1  A    between atoms: C2_2  and  C7_7 
REMARK    2  A    between atoms: C3_3  and  C8_8 
REMARK    3  A    between atoms: C3_3  and  C9_9 
REMARK    4  A    between atoms: C7_7  and  C8_8 
ROOT
HETATM    1  C1  UNL     1     -33.459  16.915  -2.207  1.00 20.00    -0.111 C 
HETATM    2  C2  UNL     1     -33.310  16.117  -3.091  1.00 20.00    -0.107 C 
HETATM    3  C4  UNL     1     -33.638  17.890  -1.131  1.00 20.00     0.112 C 
ENDROOT
BRANCH   2   4
HETATM    4  C7  UNL     1     -33.124  15.143  -4.176  1.00 20.00     0.101 C 
BRANCH   4   5
HETATM    5  C8  UNL     1     -34.427  14.424  -4.522  1.00 20.00     0.090 C 
BRANCH   5   6
HETATM    6  C3  UNL     1     -35.040  14.871  -5.845  1.00 20.00     0.131 C 
HETATM    7  O10 UNL     1     -35.951  14.249  -6.388  1.00 20.00    -0.298 OA
BRANCH   6   8
HETATM    8  C9  UNL     1     -34.456  16.141  -6.460  1.00 20.00     0.047 C 
HETATM    9  C5  UNL     1     -34.094  15.881  -7.918  1.00 20.00     0.017 C 
HETATM   10  C6  UNL     1     -35.433  17.306  -6.337  1.00 20.00     0.017 C 
ENDBRANCH   6   8
ENDBRANCH   5   6
ENDBRANCH   4   5
ENDBRANCH   2   4
TORSDOF 4
ENDMDL
MODEL 8
REMARK VINA RESULT:      -4.0      1.782      2.351
REMARK  4 active torsions:
REMARK  status: ('A' for Active; 'I' for Inactive)
REMARK    1  A    between atoms: C2_2  and  C7_7 
REMARK    2  A    between atoms: C3_3  and  C8_8 
REMARK    3  A    between atoms: C3_3  and  C9_9 
REMARK    4  A    between atoms: C7_7  and  C8_8 
ROOT
HETATM    1  C1  UNL     1     -32.512   8.578   1.187  1.00 20.00    -0.111 C 
HETATM    2  C2  UNL     1     -32.397   7.792   2.087  1.00 20.00    -0.107 C 
HETATM    3  C4  UNL     1     -32.655   9.534   0.089  1.00 20.00     0.112 C 
ENDROOT
BRANCH   2   4
HETATM    4  C7  UNL     1     -32.260   6.828   3.189  1.00 20.00     0.101 C 
BRANCH   4   5
HETATM    5  C8  UNL     1     -32.947   5.502   2.870  1.00 20.00     0.090 C 
BRANCH   5   6
HETATM    6  C3  UNL     1     -33.820   4.976   4.004  1.00 20.00     0.131 C 
HETATM    7  O10 UNL     1     -33.904   3.777   4.266  1.00 20.00    -0.298 OA
BRANCH   6   8
HETATM    8  C9  UNL     1     -34.590   6.027   4.801  1.00 20.00     0.047 C 
HETATM    9  C5  UNL     1     -35.982   6.201   4.206  1.00 20.00     0.017 C 
HETATM   10  C6  UNL     1     -34.668   5.644   6.276  1.00 20.00     0.017 C 
ENDBRANCH   6   8
ENDBRANCH   5   6
ENDBRANCH   4   5
ENDBRANCH   2   4
TORSDOF 4
ENDMDL
MODEL 9
REMARK VINA RESULT:      -4.0     11.673     12.503
REMARK  4 active torsions:
REMARK  status: ('A' for Active; 'I' for Inactive)
REMARK    1  A    between atoms: C2_2  and  C7_7 
REMARK    2  A    between atoms: C3_3  and  C8_8 
REMARK    3  A    between atoms: C3_3  and  C9_9 
REMARK    4  A    between atoms: C7_7  and  C8_8 
ROOT
HETATM    1  C1  UNL     1     -28.671  18.634   3.731  1.00 20.00    -0.111 C 
HETATM    2  C2  UNL     1     -29.703  18.916   3.185  1.00 20.00    -0.107 C 
HETATM    3  C4  UNL     1     -27.413  18.291   4.393  1.00 20.00     0.112 C 
ENDROOT
BRANCH   2   4
HETATM    4  C7  UNL     1     -30.964  19.260   2.513  1.00 20.00     0.101 C 
BRANCH   4   5
HETATM    5  C8  UNL     1     -31.455  18.128   1.614  1.00 20.00     0.090 C 
BRANCH   5   6
HETATM    6  C3  UNL     1     -31.574  18.519   0.145  1.00 20.00     0.131 C 
HETATM    7  O10 UNL     1     -30.587  18.708  -0.565  1.00 20.00    -0.298 OA
BRANCH   6   8
HETATM    8  C9  UNL     1     -32.994  18.664  -0.399  1.00 20.00     0.047 C 
HETATM    9  C5  UNL     1     -33.271  17.551  -1.403  1.00 20.00     0.017 C 
HETATM   10  C6  UNL     1     -34.016  18.648   0.734  1.00 20.00     0.017 C 
ENDBRANCH   6   8
ENDBRANCH   5   6
ENDBRANCH   4   5
ENDBRANCH   2   4
TORSDOF 4
ENDMDL
