MODEL 1
REMARK VINA RESULT:      -4.3      0.000      0.000
REMARK  3 active torsions:
REMARK  status: ('A' for Active; 'I' for Inactive)
REMARK    1  A    between atoms: C2_2  and  C7_7 
REMARK    2  A    between atoms: C3_3  and  C8_8 
REMARK    3  A    between atoms: C7_7  and  C8_8 
ROOT
HETATM    1  C1  UNL     1     -32.937   8.198   5.294  1.00 20.00    -0.111 C 
HETATM    2  C2  UNL     1     -33.611   7.293   5.705  1.00 20.00    -0.106 C 
HETATM    3  C4  UNL     1     -32.118   9.303   4.797  1.00 20.00     0.112 C 
ENDROOT
BRANCH   2   4
HETATM    4  C7  UNL     1     -34.432   6.181   6.208  1.00 20.00     0.105 C 
BRANCH   4   5
HETATM    5  C8  UNL     1     -35.054   5.333   5.090  1.00 20.00     0.062 C 
HETATM    6  C6  UNL     1     -35.908   6.174   4.140  1.00 20.00     0.018 C 
BRANCH   5   7
HETATM    7  C3  UNL     1     -33.998   4.530   4.327  1.00 20.00     0.127 C 
HETATM    8  C5  UNL     1     -33.415   5.168   3.090  1.00 20.00     0.091 C 
HETATM    9  O9  UNL     1     -33.615   3.421   4.699  1.00 20.00    -0.298 OA
ENDBRANCH   5   7
ENDBRANCH   4   5
ENDBRANCH   2   4
TORSDOF 3
ENDMDL
MODEL 2
REMARK VINA RESULT:      -4.2      2.621      3.381
REMARK  3 active torsions:
REMARK  status: ('A' for Active; 'I' for Inactive)
REMARK    1  A    between atoms: C2_2  and  C7_7 
REMARK    2  A    between atoms: C3_3  and  C8_8 
REMARK    3  A    between atoms: C7_7  and  C8_8 
ROOT
HETATM    1  C1  UNL     1     -32.617   8.782   1.716  1.00 20.00    -0.111 C 
HETATM    2  C2  UNL     1     -32.644   8.306   2.818  1.00 20.00    -0.106 C 
HETATM    3  C4  UNL     1     -32.588   9.362   0.374  1.00 20.00     0.112 C 
ENDROOT
BRANCH   2   4
HETATM    4  C7  UNL     1     -32.674   7.726   4.170  1.00 20.00     0.105 C 
BRANCH   4   5
HETATM    5  C8  UNL     1     -33.877   6.803   4.406  1.00 20.00     0.062 C 
HETATM    6  C6  UNL     1     -33.706   5.449   3.713  1.00 20.00     0.018 C 
BRANCH   5   7
HETATM    7  C3  UNL     1     -34.182   6.631   5.895  1.00 20.00     0.127 C 
HETATM    8  C5  UNL     1     -34.533   5.241   6.367  1.00 20.00     0.091 C 
HETATM    9  O9  UNL     1     -34.132   7.568   6.692  1.00 20.00    -0.298 OA
ENDBRANCH   5   7
ENDBRANCH   4   5
ENDBRANCH   2   4
TORSDOF 3
ENDMDL
MODEL 3
REMARK VINA RESULT:      -4.0      3.116      4.311
REMARK  3 active torsions:
REMARK  status: ('A' for Active; 'I' for Inactive)
REMARK    1  A    between atoms: C2_2  and  C7_7 
REMARK    2  A    between atoms: C3_3  and  C8_8 
REMARK    3  A    between atoms: C7_7  and  C8_8 
ROOT
HETATM    1  C1  UNL     1     -34.097   6.590   5.736  1.00 20.00    -0.111 C 
HETATM    2  C2  UNL     1     -33.525   7.430   5.096  1.00 20.00    -0.106 C 
HETATM    3  C4  UNL     1     -34.793   5.565   6.511  1.00 20.00     0.112 C 
ENDROOT
BRANCH   2   4
HETATM    4  C7  UNL     1     -32.821   8.460   4.316  1.00 20.00     0.105 C 
BRANCH   4   5
HETATM    5  C8  UNL     1     -32.170   7.913   3.039  1.00 20.00     0.062 C 
HETATM    6  C6  UNL     1     -32.555   6.456   2.777  1.00 20.00     0.018 C 
BRANCH   5   7
HETATM    7  C3  UNL     1     -32.466   8.794   1.824  1.00 20.00     0.127 C 
HETATM    8  C5  UNL     1     -32.079   8.249   0.471  1.00 20.00     0.091 C 
HETATM    9  O9  UNL     1     -33.012   9.893   1.922  1.00 20.00    -0.298 OA
ENDBRANCH   5   7
ENDBRANCH   4   5
ENDBRANCH   2   4
TORSDOF 3
ENDMDL
MODEL 4
REMARK VINA RESULT:      -4.0     12.709     13.766
REMARK  3 active torsions:
REMARK  status: ('A' for Active; 'I' for Inactive)
REMARK    1  A    between atoms: C2_2  and  C7_7 
REMARK    2  A    between atoms: C3_3  and  C8_8 
REMARK    3  A    between atoms: C7_7  and  C8_8 
ROOT
HETATM    1  C1  UNL     1     -33.322  16.488  -3.147  1.00 20.00    -0.111 C 
HETATM    2  C2  UNL     1     -33.074  17.553  -2.650  1.00 20.00    -0.106 C 
HETATM    3  C4  UNL     1     -33.627  15.193  -3.753  1.00 20.00     0.112 C 
ENDROOT
BRANCH   2   4
HETATM    4  C7  UNL     1     -32.767  18.858  -2.044  1.00 20.00     0.105 C 
BRANCH   4   5
HETATM    5  C8  UNL     1     -32.876  18.855  -0.513  1.00 20.00     0.062 C 
HETATM    6  C6  UNL     1     -33.910  17.845  -0.013  1.00 20.00     0.018 C 
BRANCH   5   7
HETATM    7  C3  UNL     1     -31.518  18.640   0.157  1.00 20.00     0.127 C 
HETATM    8  C5  UNL     1     -31.514  18.461   1.655  1.00 20.00     0.091 C 
HETATM    9  O9  UNL     1     -30.466  18.593  -0.481  1.00 20.00    -0.298 OA
ENDBRANCH   5   7
ENDBRANCH   4   5
ENDBRANCH   2   4
TORSDOF 3
ENDMDL
MODEL 5
REMARK VINA RESULT:      -4.0     12.761     13.539
REMARK  3 active torsions:
REMARK  status: ('A' for Active; 'I' for Inactive)
REMARK    1  A    between atoms: C2_2  and  C7_7 
REMARK    2  A    between atoms: C3_3  and  C8_8 
REMARK    3  A    between atoms: C7_7  and  C8_8 
ROOT
HETATM    1  C1  UNL     1     -33.398  16.563  -2.632  1.00 20.00    -0.111 C 
HETATM    2  C2  UNL     1     -33.443  15.799  -3.557  1.00 20.00    -0.106 C 
HETATM    3  C4  UNL     1     -33.345  17.497  -1.509  1.00 20.00     0.112 C 
ENDROOT
BRANCH   2   4
HETATM    4  C7  UNL     1     -33.501  14.860  -4.688  1.00 20.00     0.105 C 
BRANCH   4   5
HETATM    5  C8  UNL     1     -34.398  15.347  -5.835  1.00 20.00     0.062 C 
HETATM    6  C6  UNL     1     -33.631  15.461  -7.154  1.00 20.00     0.018 C 
BRANCH   5   7
HETATM    7  C3  UNL     1     -35.648  14.479  -5.991  1.00 20.00     0.127 C 
HETATM    8  C5  UNL     1     -36.164  13.792  -4.750  1.00 20.00     0.091 C 
HETATM    9  O9  UNL     1     -36.230  14.347  -7.067  1.00 20.00    -0.298 OA
ENDBRANCH   5   7
ENDBRANCH   4   5
ENDBRANCH   2   4
TORSDOF 3
ENDMDL
MODEL 6
REMARK VINA RESULT:      -4.0      2.083      2.675
REMARK  3 active torsions:
REMARK  status: ('A' for Active; 'I' for Inactive)
REMARK    1  A    between atoms: C2_2  and  C7_7 
REMARK    2  A    between atoms: C3_3  and  C8_8 
REMARK    3  A    between atoms: C7_7  and  C8_8 
ROOT
HETATM    1  C1  UNL     1     -32.472   8.313   2.382  1.00 20.00    -0.111 C 
HETATM    2  C2  UNL     1     -32.906   8.259   3.501  1.00 20.00    -0.106 C 
HETATM    3  C4  UNL     1     -31.948   8.377   1.019  1.00 20.00     0.112 C 
ENDROOT
BRANCH   2   4
HETATM    4  C7  UNL     1     -33.437   8.197   4.871  1.00 20.00     0.105 C 
BRANCH   4   5
HETATM    5  C8  UNL     1     -33.634   6.762   5.380  1.00 20.00     0.062 C 
HETATM    6  C6  UNL     1     -34.246   6.729   6.782  1.00 20.00     0.018 C 
BRANCH   5   7
HETATM    7  C3  UNL     1     -34.446   5.914   4.399  1.00 20.00     0.127 C 
HETATM    8  C5  UNL     1     -33.674   4.984   3.496  1.00 20.00     0.091 C 
HETATM    9  O9  UNL     1     -35.675   5.961   4.345  1.00 20.00    -0.298 OA
ENDBRANCH   5   7
ENDBRANCH   4   5
ENDBRANCH   2   4
TORSDOF 3
ENDMDL
MODEL 7
REMARK VINA RESULT:      -3.8     13.086     13.339
REMARK  3 active torsions:
REMARK  status: ('A' for Active; 'I' for Inactive)
REMARK    1  A    between atoms: C2_2  and  C7_7 
REMARK    2  A    between atoms: C3_3  and  C8_8 
REMARK    3  A    between atoms: C7_7  and  C8_8 
ROOT
HETATM    1  C1  UNL     1     -30.450  18.646   1.682  1.00 20.00    -0.111 C 
HETATM    2  C2  UNL     1     -31.067  18.587   0.653  1.00 20.00    -0.106 C 
HETATM    3  C4  UNL     1     -29.702  18.718   2.936  1.00 20.00     0.112 C 
ENDROOT
BRANCH   2   4
HETATM    4  C7  UNL     1     -31.821  18.511  -0.608  1.00 20.00     0.105 C 
BRANCH   4   5
HETATM    5  C8  UNL     1     -33.217  17.894  -0.443  1.00 20.00     0.062 C 
HETATM    6  C6  UNL     1     -34.097  18.711   0.506  1.00 20.00     0.018 C 
BRANCH   5   7
HETATM    7  C3  UNL     1     -33.907  17.673  -1.790  1.00 20.00     0.127 C 
HETATM    8  C5  UNL     1     -33.324  16.613  -2.692  1.00 20.00     0.091 C 
HETATM    9  O9  UNL     1     -34.904  18.308  -2.134  1.00 20.00    -0.298 OA
ENDBRANCH   5   7
ENDBRANCH   4   5
ENDBRANCH   2   4
TORSDOF 3
ENDMDL
MODEL 8
REMARK VINA RESULT:      -3.8     13.090     13.900
REMARK  3 active torsions:
REMARK  status: ('A' for Active; 'I' for Inactive)
REMARK    1  A    between atoms: C2_2  and  C7_7 
REMARK    2  A    between atoms: C3_3  and  C8_8 
REMARK    3  A    between atoms: C7_7  and  C8_8 
ROOT
HETATM    1  C1  UNL     1     -33.282  16.922  -2.250  1.00 20.00    -0.111 C 
HETATM    2  C2  UNL     1     -33.511  16.223  -3.200  1.00 20.00    -0.106 C 
HETATM    3  C4  UNL     1     -33.007  17.771  -1.092  1.00 20.00     0.112 C 
ENDROOT
BRANCH   2   4
HETATM    4  C7  UNL     1     -33.789  15.366  -4.362  1.00 20.00     0.105 C 
BRANCH   4   5
HETATM    5  C8  UNL     1     -34.970  15.858  -5.210  1.00 20.00     0.062 C 
HETATM    6  C6  UNL     1     -34.953  17.377  -5.390  1.00 20.00     0.018 C 
BRANCH   5   7
HETATM    7  C3  UNL     1     -35.044  15.138  -6.558  1.00 20.00     0.127 C 
HETATM    8  C5  UNL     1     -34.008  15.510  -7.591  1.00 20.00     0.091 C 
HETATM    9  O9  UNL     1     -35.892  14.280  -6.803  1.00 20.00    -0.298 OA
ENDBRANCH   5   7
ENDBRANCH   4   5
ENDBRANCH   2   4
TORSDOF 3
ENDMDL
MODEL 9
REMARK VINA RESULT:      -3.8      2.651      3.528
REMARK  3 active torsions:
REMARK  status: ('A' for Active; 'I' for Inactive)
REMARK    1  A    between atoms: C2_2  and  C7_7 
REMARK    2  A    between atoms: C3_3  and  C8_8 
REMARK    3  A    between atoms: C7_7  and  C8_8 
ROOT
HETATM    1  C1  UNL     1     -32.505   8.302   1.351  1.00 20.00    -0.111 C 
HETATM    2  C2  UNL     1     -32.532   7.484   2.230  1.00 20.00    -0.106 C 
HETATM    3  C4  UNL     1     -32.477   9.298   0.281  1.00 20.00     0.112 C 
ENDROOT
BRANCH   2   4
HETATM    4  C7  UNL     1     -32.563   6.485   3.308  1.00 20.00     0.105 C 
BRANCH   4   5
HETATM    5  C8  UNL     1     -33.840   6.549   4.157  1.00 20.00     0.062 C 
HETATM    6  C6  UNL     1     -34.394   5.156   4.465  1.00 20.00     0.018 C 
BRANCH   5   7
HETATM    7  C3  UNL     1     -33.637   7.363   5.436  1.00 20.00     0.127 C 
HETATM    8  C5  UNL     1     -32.861   8.651   5.311  1.00 20.00     0.091 C 
HETATM    9  O9  UNL     1     -34.092   7.009   6.524  1.00 20.00    -0.298 OA
ENDBRANCH   5   7
ENDBRANCH   4   5
ENDBRANCH   2   4
TORSDOF 3
ENDMDL
