MODEL 1
REMARK VINA RESULT:      -4.4      0.000      0.000
REMARK  4 active torsions:
REMARK  status: ('A' for Active; 'I' for Inactive)
REMARK    1  A    between atoms: C2_2  and  C6_6 
REMARK    2  A    between atoms: C6_6  and  C7_7 
REMARK    3  A    between atoms: C7_7  and  C8_8 
REMARK    4  A    between atoms: C8_8  and  O9_9 
ROOT
HETATM    1  C1  UNL     1     -32.704   8.873   2.121  1.00 20.00    -0.111 C 
HETATM    2  C2  UNL     1     -32.669   8.387   3.218  1.00 20.00    -0.107 C 
HETATM    3  C3  UNL     1     -32.749   9.462   0.783  1.00 20.00     0.112 C 
ENDROOT
BRANCH   2   4
HETATM    4  C6  UNL     1     -32.622   7.793   4.562  1.00 20.00     0.100 C 
BRANCH   4   5
HETATM    5  C7  UNL     1     -33.896   7.008   4.933  1.00 20.00     0.021 C 
HETATM    6  C4  UNL     1     -34.220   7.163   6.428  1.00 20.00     0.013 C 
BRANCH   5   7
HETATM    7  C8  UNL     1     -33.860   5.515   4.529  1.00 20.00     0.118 C 
HETATM    8  C5  UNL     1     -33.526   5.291   3.058  1.00 20.00     0.040 C 
BRANCH   7   9
HETATM    9  O9  UNL     1     -35.148   4.949   4.778  1.00 20.00    -0.396 OA
HETATM   10  H23 UNL     1     -35.692   5.661   5.143  1.00 20.00     0.210 HD
ENDBRANCH   7   9
ENDBRANCH   5   7
ENDBRANCH   4   5
ENDBRANCH   2   4
TORSDOF 4
ENDMDL
MODEL 2
REMARK VINA RESULT:      -4.4      1.086      1.364
REMARK  4 active torsions:
REMARK  status: ('A' for Active; 'I' for Inactive)
REMARK    1  A    between atoms: C2_2  and  C6_6 
REMARK    2  A    between atoms: C6_6  and  C7_7 
REMARK    3  A    between atoms: C7_7  and  C8_8 
REMARK    4  A    between atoms: C8_8  and  O9_9 
ROOT
HETATM    1  C1  UNL     1     -32.588   8.673   1.530  1.00 20.00    -0.111 C 
HETATM    2  C2  UNL     1     -32.549   8.044   2.552  1.00 20.00    -0.107 C 
HETATM    3  C3  UNL     1     -32.633   9.437   0.283  1.00 20.00     0.112 C 
ENDROOT
BRANCH   2   4
HETATM    4  C6  UNL     1     -32.502   7.278   3.806  1.00 20.00     0.100 C 
BRANCH   4   5
HETATM    5  C7  UNL     1     -33.828   7.301   4.592  1.00 20.00     0.021 C 
HETATM    6  C4  UNL     1     -33.615   7.853   6.010  1.00 20.00     0.013 C 
BRANCH   5   7
HETATM    7  C8  UNL     1     -34.561   5.939   4.635  1.00 20.00     0.118 C 
HETATM    8  C5  UNL     1     -34.645   5.338   6.033  1.00 20.00     0.040 C 
BRANCH   7   9
HETATM    9  O9  UNL     1     -33.853   5.018   3.803  1.00 20.00    -0.396 OA
HETATM   10  H23 UNL     1     -33.017   4.832   4.254  1.00 20.00     0.210 HD
ENDBRANCH   7   9
ENDBRANCH   5   7
ENDBRANCH   4   5
ENDBRANCH   2   4
TORSDOF 4
ENDMDL
MODEL 3
REMARK VINA RESULT:      -4.3     11.607     12.461
REMARK  4 active torsions:
REMARK  status: ('A' for Active; 'I' for Inactive)
REMARK    1  A    between atoms: C2_2  and  C6_6 
REMARK    2  A    between atoms: C6_6  and  C7_7 
REMARK    3  A    between atoms: C7_7  and  C8_8 
REMARK    4  A    between atoms: C8_8  and  O9_9 
ROOT
HETATM    1  C1  UNL     1     -33.433  16.884  -2.047  1.00 20.00    -0.111 C 
HETATM    2  C2  UNL     1     -33.435  16.104  -2.961  1.00 20.00    -0.107 C 
HETATM    3  C3  UNL     1     -33.430  17.830  -0.933  1.00 20.00     0.112 C 
ENDROOT
BRANCH   2   4
HETATM    4  C6  UNL     1     -33.439  15.151  -4.081  1.00 20.00     0.100 C 
BRANCH   4   5
HETATM    5  C7  UNL     1     -34.683  15.269  -4.983  1.00 20.00     0.021 C 
HETATM    6  C4  UNL     1     -35.576  14.024  -4.851  1.00 20.00     0.013 C 
BRANCH   5   7
HETATM    7  C8  UNL     1     -34.362  15.561  -6.468  1.00 20.00     0.118 C 
HETATM    8  C5  UNL     1     -35.544  15.331  -7.403  1.00 20.00     0.040 C 
BRANCH   7   9
HETATM    9  O9  UNL     1     -33.302  14.695  -6.880  1.00 20.00    -0.396 OA
HETATM   10  H23 UNL     1     -32.933  15.082  -7.687  1.00 20.00     0.210 HD
ENDBRANCH   7   9
ENDBRANCH   5   7
ENDBRANCH   4   5
ENDBRANCH   2   4
TORSDOF 4
ENDMDL
MODEL 4
REMARK VINA RESULT:      -4.3      0.679      1.935
REMARK  4 active torsions:
REMARK  status: ('A' for Active; 'I' for Inactive)
REMARK    1  A    between atoms: C2_2  and  C6_6 
REMARK    2  A    between atoms: C6_6  and  C7_7 
REMARK    3  A    between atoms: C7_7  and  C8_8 
REMARK    4  A    between atoms: C8_8  and  O9_9 
ROOT
HETATM    1  C1  UNL     1     -32.624   8.683   1.637  1.00 20.00    -0.111 C 
HETATM    2  C2  UNL     1     -32.635   8.237   2.752  1.00 20.00    -0.107 C 
HETATM    3  C3  UNL     1     -32.608   9.224   0.279  1.00 20.00     0.112 C 
ENDROOT
BRANCH   2   4
HETATM    4  C6  UNL     1     -32.650   7.695   4.118  1.00 20.00     0.100 C 
BRANCH   4   5
HETATM    5  C7  UNL     1     -33.171   6.246   4.200  1.00 20.00     0.021 C 
HETATM    6  C4  UNL     1     -33.216   5.600   2.806  1.00 20.00     0.013 C 
BRANCH   5   7
HETATM    7  C8  UNL     1     -34.534   6.104   4.917  1.00 20.00     0.118 C 
HETATM    8  C5  UNL     1     -34.477   6.440   6.403  1.00 20.00     0.040 C 
BRANCH   7   9
HETATM    9  O9  UNL     1     -34.971   4.749   4.791  1.00 20.00    -0.396 OA
HETATM   10  H23 UNL     1     -34.770   4.482   3.882  1.00 20.00     0.210 HD
ENDBRANCH   7   9
ENDBRANCH   5   7
ENDBRANCH   4   5
ENDBRANCH   2   4
TORSDOF 4
ENDMDL
MODEL 5
REMARK VINA RESULT:      -4.1     11.309     12.126
REMARK  4 active torsions:
REMARK  status: ('A' for Active; 'I' for Inactive)
REMARK    1  A    between atoms: C2_2  and  C6_6 
REMARK    2  A    between atoms: C6_6  and  C7_7 
REMARK    3  A    between atoms: C7_7  and  C8_8 
REMARK    4  A    between atoms: C8_8  and  O9_9 
ROOT
HETATM    1  C1  UNL     1     -33.477  16.609  -2.476  1.00 20.00    -0.111 C 
HETATM    2  C2  UNL     1     -33.412  15.808  -3.369  1.00 20.00    -0.107 C 
HETATM    3  C3  UNL     1     -33.556  17.587  -1.391  1.00 20.00     0.112 C 
ENDROOT
BRANCH   2   4
HETATM    4  C6  UNL     1     -33.331  14.826  -4.459  1.00 20.00     0.100 C 
BRANCH   4   5
HETATM    5  C7  UNL     1     -34.287  15.126  -5.631  1.00 20.00     0.021 C 
HETATM    6  C4  UNL     1     -34.492  16.640  -5.797  1.00 20.00     0.013 C 
BRANCH   5   7
HETATM    7  C8  UNL     1     -35.645  14.392  -5.543  1.00 20.00     0.118 C 
HETATM    8  C5  UNL     1     -36.827  15.326  -5.309  1.00 20.00     0.040 C 
BRANCH   7   9
HETATM    9  O9  UNL     1     -35.591  13.471  -4.452  1.00 20.00    -0.396 OA
HETATM   10  H23 UNL     1     -34.779  12.956  -4.571  1.00 20.00     0.210 HD
ENDBRANCH   7   9
ENDBRANCH   5   7
ENDBRANCH   4   5
ENDBRANCH   2   4
TORSDOF 4
ENDMDL
MODEL 6
REMARK VINA RESULT:      -4.1     11.648     12.453
REMARK  4 active torsions:
REMARK  status: ('A' for Active; 'I' for Inactive)
REMARK    1  A    between atoms: C2_2  and  C6_6 
REMARK    2  A    between atoms: C6_6  and  C7_7 
REMARK    3  A    between atoms: C7_7  and  C8_8 
REMARK    4  A    between atoms: C8_8  and  O9_9 
ROOT
HETATM    1  C1  UNL     1     -33.620  17.326  -1.327  1.00 20.00    -0.111 C 
HETATM    2  C2  UNL     1     -33.546  16.649  -2.315  1.00 20.00    -0.107 C 
HETATM    3  C3  UNL     1     -33.706  18.150  -0.121  1.00 20.00     0.112 C 
ENDROOT
BRANCH   2   4
HETATM    4  C6  UNL     1     -33.460  15.818  -3.526  1.00 20.00     0.100 C 
BRANCH   4   5
HETATM    5  C7  UNL     1     -34.016  16.508  -4.787  1.00 20.00     0.021 C 
HETATM    6  C4  UNL     1     -35.176  17.452  -4.430  1.00 20.00     0.013 C 
BRANCH   5   7
HETATM    7  C8  UNL     1     -34.427  15.531  -5.913  1.00 20.00     0.118 C 
HETATM    8  C5  UNL     1     -35.573  14.603  -5.525  1.00 20.00     0.040 C 
BRANCH   7   9
HETATM    9  O9  UNL     1     -33.298  14.720  -6.242  1.00 20.00    -0.396 OA
HETATM   10  H23 UNL     1     -32.560  15.329  -6.390  1.00 20.00     0.210 HD
ENDBRANCH   7   9
ENDBRANCH   5   7
ENDBRANCH   4   5
ENDBRANCH   2   4
TORSDOF 4
ENDMDL
MODEL 7
REMARK VINA RESULT:      -3.9     11.613     12.578
REMARK  4 active torsions:
REMARK  status: ('A' for Active; 'I' for Inactive)
REMARK    1  A    between atoms: C2_2  and  C6_6 
REMARK    2  A    between atoms: C6_6  and  C7_7 
REMARK    3  A    between atoms: C7_7  and  C8_8 
REMARK    4  A    between atoms: C8_8  and  O9_9 
ROOT
HETATM    1  C1  UNL     1     -31.958  18.452  -0.429  1.00 20.00    -0.111 C 
HETATM    2  C2  UNL     1     -32.691  17.803  -1.124  1.00 20.00    -0.107 C 
HETATM    3  C3  UNL     1     -31.065  19.241   0.418  1.00 20.00     0.112 C 
ENDROOT
BRANCH   2   4
HETATM    4  C6  UNL     1     -33.590  17.008  -1.974  1.00 20.00     0.100 C 
BRANCH   4   5
HETATM    5  C7  UNL     1     -33.232  17.067  -3.472  1.00 20.00     0.021 C 
HETATM    6  C4  UNL     1     -33.291  18.511  -3.994  1.00 20.00     0.013 C 
BRANCH   5   7
HETATM    7  C8  UNL     1     -34.077  16.125  -4.362  1.00 20.00     0.118 C 
HETATM    8  C5  UNL     1     -33.641  14.665  -4.288  1.00 20.00     0.040 C 
BRANCH   7   9
HETATM    9  O9  UNL     1     -33.950  16.552  -5.719  1.00 20.00    -0.396 OA
HETATM   10  H23 UNL     1     -34.850  16.719  -6.037  1.00 20.00     0.210 HD
ENDBRANCH   7   9
ENDBRANCH   5   7
ENDBRANCH   4   5
ENDBRANCH   2   4
TORSDOF 4
ENDMDL
MODEL 8
REMARK VINA RESULT:      -3.9     12.050     12.647
REMARK  4 active torsions:
REMARK  status: ('A' for Active; 'I' for Inactive)
REMARK    1  A    between atoms: C2_2  and  C6_6 
REMARK    2  A    between atoms: C6_6  and  C7_7 
REMARK    3  A    between atoms: C7_7  and  C8_8 
REMARK    4  A    between atoms: C8_8  and  O9_9 
ROOT
HETATM    1  C1  UNL     1     -30.394  18.729   2.235  1.00 20.00    -0.111 C 
HETATM    2  C2  UNL     1     -30.768  18.582   1.104  1.00 20.00    -0.107 C 
HETATM    3  C3  UNL     1     -29.938  18.911   3.613  1.00 20.00     0.112 C 
ENDROOT
BRANCH   2   4
HETATM    4  C6  UNL     1     -31.224  18.399  -0.282  1.00 20.00     0.100 C 
BRANCH   4   5
HETATM    5  C7  UNL     1     -32.682  18.843  -0.514  1.00 20.00     0.021 C 
HETATM    6  C4  UNL     1     -33.620  18.211   0.527  1.00 20.00     0.013 C 
BRANCH   5   7
HETATM    7  C8  UNL     1     -33.200  18.589  -1.949  1.00 20.00     0.118 C 
HETATM    8  C5  UNL     1     -33.230  17.114  -2.333  1.00 20.00     0.040 C 
BRANCH   7   9
HETATM    9  O9  UNL     1     -32.336  19.263  -2.867  1.00 20.00    -0.396 OA
HETATM   10  H23 UNL     1     -32.908  19.636  -3.554  1.00 20.00     0.210 HD
ENDBRANCH   7   9
ENDBRANCH   5   7
ENDBRANCH   4   5
ENDBRANCH   2   4
TORSDOF 4
ENDMDL
MODEL 9
REMARK VINA RESULT:      -3.8      1.631      2.722
REMARK  4 active torsions:
REMARK  status: ('A' for Active; 'I' for Inactive)
REMARK    1  A    between atoms: C2_2  and  C6_6 
REMARK    2  A    between atoms: C6_6  and  C7_7 
REMARK    3  A    between atoms: C7_7  and  C8_8 
REMARK    4  A    between atoms: C8_8  and  O9_9 
ROOT
HETATM    1  C1  UNL     1     -32.635   6.673   2.705  1.00 20.00    -0.111 C 
HETATM    2  C2  UNL     1     -33.156   5.780   3.316  1.00 20.00    -0.107 C 
HETATM    3  C3  UNL     1     -32.000   7.758   1.959  1.00 20.00     0.112 C 
ENDROOT
BRANCH   2   4
HETATM    4  C6  UNL     1     -33.793   4.687   4.066  1.00 20.00     0.100 C 
BRANCH   4   5
HETATM    5  C7  UNL     1     -34.988   5.145   4.925  1.00 20.00     0.021 C 
HETATM    6  C4  UNL     1     -35.843   6.176   4.170  1.00 20.00     0.013 C 
BRANCH   5   7
HETATM    7  C8  UNL     1     -34.596   5.673   6.325  1.00 20.00     0.118 C 
HETATM    8  C5  UNL     1     -34.128   7.124   6.319  1.00 20.00     0.040 C 
BRANCH   7   9
HETATM    9  O9  UNL     1     -33.526   4.869   6.827  1.00 20.00    -0.396 OA
HETATM   10  H23 UNL     1     -33.939   4.123   7.285  1.00 20.00     0.210 HD
ENDBRANCH   7   9
ENDBRANCH   5   7
ENDBRANCH   4   5
ENDBRANCH   2   4
TORSDOF 4
ENDMDL
