MODEL 1
REMARK VINA RESULT:      -4.4      0.000      0.000
REMARK  4 active torsions:
REMARK  status: ('A' for Active; 'I' for Inactive)
REMARK    1  A    between atoms: C2_2  and  C7_7 
REMARK    2  A    between atoms: C5_5  and  C8_8 
REMARK    3  A    between atoms: C7_7  and  C8_8 
REMARK    4  A    between atoms: C8_8  and  O9_9 
ROOT
HETATM    1  C1  UNL     1     -32.506   8.614   2.183  1.00 20.00    -0.111 C 
HETATM    2  C2  UNL     1     -32.495   8.432   3.371  1.00 20.00    -0.104 C 
HETATM    3  C6  UNL     1     -32.521   8.837   0.738  1.00 20.00     0.112 C 
ENDROOT
BRANCH   2   4
HETATM    4  C7  UNL     1     -32.478   8.208   4.826  1.00 20.00     0.126 C 
BRANCH   4   5
HETATM    5  C8  UNL     1     -33.784   7.570   5.305  1.00 20.00     0.133 C 
BRANCH   5   6
HETATM    6  C5  UNL     1     -34.096   6.301   4.522  1.00 20.00     0.015 A 
HETATM    7  C3  UNL     1     -34.564   5.064   5.239  1.00 20.00     0.007 A 
HETATM    8  C4  UNL     1     -35.518   5.836   4.371  1.00 20.00     0.007 A 
ENDBRANCH   5   6
BRANCH   5   9
HETATM    9  O9  UNL     1     -33.649   7.230   6.684  1.00 20.00    -0.394 OA
HETATM   10  H21 UNL     1     -33.934   6.308   6.769  1.00 20.00     0.210 HD
ENDBRANCH   5   9
ENDBRANCH   4   5
ENDBRANCH   2   4
TORSDOF 4
ENDMDL
MODEL 2
REMARK VINA RESULT:      -4.3      1.481      1.583
REMARK  4 active torsions:
REMARK  status: ('A' for Active; 'I' for Inactive)
REMARK    1  A    between atoms: C2_2  and  C7_7 
REMARK    2  A    between atoms: C5_5  and  C8_8 
REMARK    3  A    between atoms: C7_7  and  C8_8 
REMARK    4  A    between atoms: C8_8  and  O9_9 
ROOT
HETATM    1  C1  UNL     1     -32.710   9.158   1.716  1.00 20.00    -0.111 C 
HETATM    2  C2  UNL     1     -32.674   8.865   2.881  1.00 20.00    -0.104 C 
HETATM    3  C6  UNL     1     -32.753   9.517   0.300  1.00 20.00     0.112 C 
ENDROOT
BRANCH   2   4
HETATM    4  C7  UNL     1     -32.631   8.502   4.307  1.00 20.00     0.126 C 
BRANCH   4   5
HETATM    5  C8  UNL     1     -32.928   7.016   4.512  1.00 20.00     0.133 C 
BRANCH   5   6
HETATM    6  C5  UNL     1     -34.326   6.808   5.081  1.00 20.00     0.015 A 
HETATM    7  C3  UNL     1     -35.052   5.511   4.853  1.00 20.00     0.007 A 
HETATM    8  C4  UNL     1     -34.544   5.855   6.224  1.00 20.00     0.007 A 
ENDBRANCH   5   6
BRANCH   5   9
HETATM    9  O9  UNL     1     -32.849   6.353   3.252  1.00 20.00    -0.394 OA
HETATM   10  H21 UNL     1     -32.197   6.840   2.725  1.00 20.00     0.210 HD
ENDBRANCH   5   9
ENDBRANCH   4   5
ENDBRANCH   2   4
TORSDOF 4
ENDMDL
MODEL 3
REMARK VINA RESULT:      -4.1     11.450     12.171
REMARK  4 active torsions:
REMARK  status: ('A' for Active; 'I' for Inactive)
REMARK    1  A    between atoms: C2_2  and  C7_7 
REMARK    2  A    between atoms: C5_5  and  C8_8 
REMARK    3  A    between atoms: C7_7  and  C8_8 
REMARK    4  A    between atoms: C8_8  and  O9_9 
ROOT
HETATM    1  C1  UNL     1     -33.567  17.166  -1.613  1.00 20.00    -0.111 C 
HETATM    2  C2  UNL     1     -33.266  16.591  -2.624  1.00 20.00    -0.104 C 
HETATM    3  C6  UNL     1     -33.934  17.866  -0.383  1.00 20.00     0.112 C 
ENDROOT
BRANCH   2   4
HETATM    4  C7  UNL     1     -32.894  15.886  -3.861  1.00 20.00     0.126 C 
BRANCH   4   5
HETATM    5  C8  UNL     1     -33.993  14.916  -4.301  1.00 20.00     0.133 C 
BRANCH   5   6
HETATM    6  C5  UNL     1     -34.682  15.405  -5.568  1.00 20.00     0.015 A 
HETATM    7  C3  UNL     1     -35.817  14.618  -6.165  1.00 20.00     0.007 A 
HETATM    8  C4  UNL     1     -36.085  15.943  -5.508  1.00 20.00     0.007 A 
ENDBRANCH   5   6
BRANCH   5   9
HETATM    9  O9  UNL     1     -33.404  13.644  -4.566  1.00 20.00    -0.394 OA
HETATM   10  H21 UNL     1     -32.638  13.810  -5.136  1.00 20.00     0.210 HD
ENDBRANCH   5   9
ENDBRANCH   4   5
ENDBRANCH   2   4
TORSDOF 4
ENDMDL
MODEL 4
REMARK VINA RESULT:      -3.9     11.754     13.058
REMARK  4 active torsions:
REMARK  status: ('A' for Active; 'I' for Inactive)
REMARK    1  A    between atoms: C2_2  and  C7_7 
REMARK    2  A    between atoms: C5_5  and  C8_8 
REMARK    3  A    between atoms: C7_7  and  C8_8 
REMARK    4  A    between atoms: C8_8  and  O9_9 
ROOT
HETATM    1  C1  UNL     1     -33.464  16.622  -2.488  1.00 20.00    -0.111 C 
HETATM    2  C2  UNL     1     -33.370  15.769  -3.329  1.00 20.00    -0.104 C 
HETATM    3  C6  UNL     1     -33.579  17.659  -1.464  1.00 20.00     0.112 C 
ENDROOT
BRANCH   2   4
HETATM    4  C7  UNL     1     -33.253  14.723  -4.358  1.00 20.00     0.126 C 
BRANCH   4   5
HETATM    5  C8  UNL     1     -34.118  15.044  -5.579  1.00 20.00     0.133 C 
BRANCH   5   6
HETATM    6  C5  UNL     1     -34.523  16.513  -5.595  1.00 20.00     0.015 A 
HETATM    7  C3  UNL     1     -34.990  17.156  -6.871  1.00 20.00     0.007 A 
HETATM    8  C4  UNL     1     -35.967  16.898  -5.759  1.00 20.00     0.007 A 
ENDBRANCH   5   6
BRANCH   5   9
HETATM    9  O9  UNL     1     -33.366  14.769  -6.760  1.00 20.00    -0.394 OA
HETATM   10  H21 UNL     1     -33.944  14.981  -7.509  1.00 20.00     0.210 HD
ENDBRANCH   5   9
ENDBRANCH   4   5
ENDBRANCH   2   4
TORSDOF 4
ENDMDL
MODEL 5
REMARK VINA RESULT:      -3.9     11.780     12.416
REMARK  4 active torsions:
REMARK  status: ('A' for Active; 'I' for Inactive)
REMARK    1  A    between atoms: C2_2  and  C7_7 
REMARK    2  A    between atoms: C5_5  and  C8_8 
REMARK    3  A    between atoms: C7_7  and  C8_8 
REMARK    4  A    between atoms: C8_8  and  O9_9 
ROOT
HETATM    1  C1  UNL     1     -29.608  18.671   2.946  1.00 20.00    -0.111 C 
HETATM    2  C2  UNL     1     -30.624  18.755   2.310  1.00 20.00    -0.104 C 
HETATM    3  C6  UNL     1     -28.373  18.568   3.721  1.00 20.00     0.112 C 
ENDROOT
BRANCH   2   4
HETATM    4  C7  UNL     1     -31.867  18.861   1.528  1.00 20.00     0.126 C 
BRANCH   4   5
HETATM    5  C8  UNL     1     -31.709  18.227   0.144  1.00 20.00     0.133 C 
BRANCH   5   6
HETATM    6  C5  UNL     1     -32.944  18.468  -0.715  1.00 20.00     0.015 A 
HETATM    7  C3  UNL     1     -32.860  18.348  -2.212  1.00 20.00     0.007 A 
HETATM    8  C4  UNL     1     -33.614  17.319  -1.417  1.00 20.00     0.007 A 
ENDBRANCH   5   6
BRANCH   5   9
HETATM    9  O9  UNL     1     -30.583  18.815  -0.505  1.00 20.00    -0.394 OA
HETATM   10  H21 UNL     1     -30.790  19.755  -0.616  1.00 20.00     0.210 HD
ENDBRANCH   5   9
ENDBRANCH   4   5
ENDBRANCH   2   4
TORSDOF 4
ENDMDL
MODEL 6
REMARK VINA RESULT:      -3.7      9.182     10.195
REMARK  4 active torsions:
REMARK  status: ('A' for Active; 'I' for Inactive)
REMARK    1  A    between atoms: C2_2  and  C7_7 
REMARK    2  A    between atoms: C5_5  and  C8_8 
REMARK    3  A    between atoms: C7_7  and  C8_8 
REMARK    4  A    between atoms: C8_8  and  O9_9 
ROOT
HETATM    1  C1  UNL     1     -40.691  14.507   8.789  1.00 20.00    -0.111 C 
HETATM    2  C2  UNL     1     -41.138  13.991   7.800  1.00 20.00    -0.104 C 
HETATM    3  C6  UNL     1     -40.148  15.135   9.992  1.00 20.00     0.112 C 
ENDROOT
BRANCH   2   4
HETATM    4  C7  UNL     1     -41.683  13.357   6.589  1.00 20.00     0.126 C 
BRANCH   4   5
HETATM    5  C8  UNL     1     -40.660  13.359   5.451  1.00 20.00     0.133 C 
BRANCH   5   6
HETATM    6  C5  UNL     1     -39.927  12.027   5.367  1.00 20.00     0.015 A 
HETATM    7  C3  UNL     1     -39.157  11.662   4.128  1.00 20.00     0.007 A 
HETATM    8  C4  UNL     1     -38.424  11.986   5.400  1.00 20.00     0.007 A 
ENDBRANCH   5   6
BRANCH   5   9
HETATM    9  O9  UNL     1     -41.344  13.578   4.218  1.00 20.00    -0.394 OA
HETATM   10  H21 UNL     1     -41.569  14.520   4.192  1.00 20.00     0.210 HD
ENDBRANCH   5   9
ENDBRANCH   4   5
ENDBRANCH   2   4
TORSDOF 4
ENDMDL
MODEL 7
REMARK VINA RESULT:      -3.7      1.908      2.459
REMARK  4 active torsions:
REMARK  status: ('A' for Active; 'I' for Inactive)
REMARK    1  A    between atoms: C2_2  and  C7_7 
REMARK    2  A    between atoms: C5_5  and  C8_8 
REMARK    3  A    between atoms: C7_7  and  C8_8 
REMARK    4  A    between atoms: C8_8  and  O9_9 
ROOT
HETATM    1  C1  UNL     1     -32.720   5.593   2.525  1.00 20.00    -0.111 C 
HETATM    2  C2  UNL     1     -32.577   6.716   2.930  1.00 20.00    -0.104 C 
HETATM    3  C6  UNL     1     -32.893   4.228   2.033  1.00 20.00     0.112 C 
ENDROOT
BRANCH   2   4
HETATM    4  C7  UNL     1     -32.404   8.091   3.424  1.00 20.00     0.126 C 
BRANCH   4   5
HETATM    5  C8  UNL     1     -33.124   8.297   4.759  1.00 20.00     0.133 C 
BRANCH   5   6
HETATM    6  C5  UNL     1     -33.397   6.966   5.447  1.00 20.00     0.015 A 
HETATM    7  C3  UNL     1     -34.251   6.914   6.685  1.00 20.00     0.007 A 
HETATM    8  C4  UNL     1     -34.769   6.352   5.391  1.00 20.00     0.007 A 
ENDBRANCH   5   6
BRANCH   5   9
HETATM    9  O9  UNL     1     -32.296   9.086   5.611  1.00 20.00    -0.394 OA
HETATM   10  H21 UNL     1     -32.750   9.935   5.726  1.00 20.00     0.210 HD
ENDBRANCH   5   9
ENDBRANCH   4   5
ENDBRANCH   2   4
TORSDOF 4
ENDMDL
MODEL 8
REMARK VINA RESULT:      -3.7      1.606      3.349
REMARK  4 active torsions:
REMARK  status: ('A' for Active; 'I' for Inactive)
REMARK    1  A    between atoms: C2_2  and  C7_7 
REMARK    2  A    between atoms: C5_5  and  C8_8 
REMARK    3  A    between atoms: C7_7  and  C8_8 
REMARK    4  A    between atoms: C8_8  and  O9_9 
ROOT
HETATM    1  C1  UNL     1     -33.486   4.888   2.954  1.00 20.00    -0.111 C 
HETATM    2  C2  UNL     1     -33.998   5.297   3.961  1.00 20.00    -0.104 C 
HETATM    3  C6  UNL     1     -32.864   4.390   1.728  1.00 20.00     0.112 C 
ENDROOT
BRANCH   2   4
HETATM    4  C7  UNL     1     -34.624   5.800   5.195  1.00 20.00     0.126 C 
BRANCH   4   5
HETATM    5  C8  UNL     1     -33.765   6.882   5.853  1.00 20.00     0.133 C 
BRANCH   5   6
HETATM    6  C5  UNL     1     -33.520   8.045   4.900  1.00 20.00     0.015 A 
HETATM    7  C3  UNL     1     -32.502   9.099   5.237  1.00 20.00     0.007 A 
HETATM    8  C4  UNL     1     -32.237   8.128   4.120  1.00 20.00     0.007 A 
ENDBRANCH   5   6
BRANCH   5   9
HETATM    9  O9  UNL     1     -34.448   7.374   7.004  1.00 20.00    -0.394 OA
HETATM   10  H21 UNL     1     -33.770   7.742   7.590  1.00 20.00     0.210 HD
ENDBRANCH   5   9
ENDBRANCH   4   5
ENDBRANCH   2   4
TORSDOF 4
ENDMDL
MODEL 9
REMARK VINA RESULT:      -3.6      2.096      2.998
REMARK  4 active torsions:
REMARK  status: ('A' for Active; 'I' for Inactive)
REMARK    1  A    between atoms: C2_2  and  C7_7 
REMARK    2  A    between atoms: C5_5  and  C8_8 
REMARK    3  A    between atoms: C7_7  and  C8_8 
REMARK    4  A    between atoms: C8_8  and  O9_9 
ROOT
HETATM    1  C1  UNL     1     -32.801   8.585   5.241  1.00 20.00    -0.111 C 
HETATM    2  C2  UNL     1     -33.547   7.675   5.488  1.00 20.00    -0.104 C 
HETATM    3  C6  UNL     1     -31.895   9.693   4.943  1.00 20.00     0.112 C 
ENDROOT
BRANCH   2   4
HETATM    4  C7  UNL     1     -34.459   6.559   5.786  1.00 20.00     0.126 C 
BRANCH   4   5
HETATM    5  C8  UNL     1     -34.701   5.693   4.549  1.00 20.00     0.133 C 
BRANCH   5   6
HETATM    6  C5  UNL     1     -33.385   5.263   3.912  1.00 20.00     0.015 A 
HETATM    7  C3  UNL     1     -33.381   4.555   2.585  1.00 20.00     0.007 A 
HETATM    8  C4  UNL     1     -32.873   5.966   2.685  1.00 20.00     0.007 A 
ENDBRANCH   5   6
BRANCH   5   9
HETATM    9  O9  UNL     1     -35.418   4.523   4.940  1.00 20.00    -0.394 OA
HETATM   10  H21 UNL     1     -35.819   4.721   5.799  1.00 20.00     0.210 HD
ENDBRANCH   5   9
ENDBRANCH   4   5
ENDBRANCH   2   4
TORSDOF 4
ENDMDL
