MODEL 1
REMARK VINA RESULT:      -3.5      0.000      0.000
REMARK  3 active torsions:
REMARK  status: ('A' for Active; 'I' for Inactive)
REMARK    1  A    between atoms: C1_1  and  C3_3 
REMARK    2  A    between atoms: C2_2  and  C4_4 
REMARK    3  A    between atoms: C4_4  and  S7_7 
ROOT
HETATM    1  C1  UNL     1     -33.324   7.453   4.611  1.00 20.00     0.081 C 
HETATM    2  C2  UNL     1     -33.726   7.283   5.879  1.00 20.00    -0.010 C 
ENDROOT
BRANCH   1   3
HETATM    3  C3  UNL     1     -32.559   8.706   4.162  1.00 20.00     0.198 C 
HETATM    4  O5  UNL     1     -32.018   9.403   5.065  1.00 20.00    -0.645 OA
HETATM    5  O6  UNL     1     -32.564   8.890   2.909  1.00 20.00    -0.645 OA
ENDBRANCH   1   3
BRANCH   2   6
HETATM    6  C4  UNL     1     -34.485   6.080   6.347  1.00 20.00     0.098 C 
BRANCH   6   7
HETATM    7  S7  UNL     1     -34.690   4.902   4.983  1.00 20.00    -0.178 SA
HETATM    8  H12 UNL     1     -33.490   4.320   5.115  1.00 20.00     0.101 HD
ENDBRANCH   6   7
ENDBRANCH   2   6
TORSDOF 3
ENDMDL
MODEL 2
REMARK VINA RESULT:      -3.5      0.037      1.221
REMARK  3 active torsions:
REMARK  status: ('A' for Active; 'I' for Inactive)
REMARK    1  A    between atoms: C1_1  and  C3_3 
REMARK    2  A    between atoms: C2_2  and  C4_4 
REMARK    3  A    between atoms: C4_4  and  S7_7 
ROOT
HETATM    1  C1  UNL     1     -33.317   7.450   4.591  1.00 20.00     0.081 C 
HETATM    2  C2  UNL     1     -33.719   7.302   5.861  1.00 20.00    -0.010 C 
ENDROOT
BRANCH   1   3
HETATM    3  C3  UNL     1     -32.566   8.702   4.117  1.00 20.00     0.198 C 
HETATM    4  O5  UNL     1     -32.553   8.928   2.874  1.00 20.00    -0.645 OA
HETATM    5  O6  UNL     1     -32.041   9.373   5.054  1.00 20.00    -0.645 OA
ENDBRANCH   1   3
BRANCH   2   6
HETATM    6  C4  UNL     1     -34.465   6.100   6.353  1.00 20.00     0.098 C 
BRANCH   6   7
HETATM    7  S7  UNL     1     -34.716   4.923   4.997  1.00 20.00    -0.178 SA
HETATM    8  H12 UNL     1     -34.690   3.820   5.759  1.00 20.00     0.101 HD
ENDBRANCH   6   7
ENDBRANCH   2   6
TORSDOF 3
ENDMDL
MODEL 3
REMARK VINA RESULT:      -3.5      3.332      3.891
REMARK  3 active torsions:
REMARK  status: ('A' for Active; 'I' for Inactive)
REMARK    1  A    between atoms: C1_1  and  C3_3 
REMARK    2  A    between atoms: C2_2  and  C4_4 
REMARK    3  A    between atoms: C4_4  and  S7_7 
ROOT
HETATM    1  C1  UNL     1     -33.942   6.676   4.794  1.00 20.00     0.081 C 
HETATM    2  C2  UNL     1     -33.244   7.608   5.459  1.00 20.00    -0.010 C 
ENDROOT
BRANCH   1   3
HETATM    3  C3  UNL     1     -34.633   5.510   5.516  1.00 20.00     0.198 C 
HETATM    4  O5  UNL     1     -34.956   5.693   6.723  1.00 20.00    -0.645 OA
HETATM    5  O6  UNL     1     -34.800   4.484   4.793  1.00 20.00    -0.645 OA
ENDBRANCH   1   3
BRANCH   2   6
HETATM    6  C4  UNL     1     -32.547   8.749   4.785  1.00 20.00     0.098 C 
BRANCH   6   7
HETATM    7  S7  UNL     1     -32.266   8.364   3.035  1.00 20.00    -0.178 SA
HETATM    8  H12 UNL     1     -31.289   7.470   3.241  1.00 20.00     0.101 HD
ENDBRANCH   6   7
ENDBRANCH   2   6
TORSDOF 3
ENDMDL
MODEL 4
REMARK VINA RESULT:      -3.5      3.328      4.052
REMARK  3 active torsions:
REMARK  status: ('A' for Active; 'I' for Inactive)
REMARK    1  A    between atoms: C1_1  and  C3_3 
REMARK    2  A    between atoms: C2_2  and  C4_4 
REMARK    3  A    between atoms: C4_4  and  S7_7 
ROOT
HETATM    1  C1  UNL     1     -33.903   6.673   4.766  1.00 20.00     0.081 C 
HETATM    2  C2  UNL     1     -33.272   7.632   5.458  1.00 20.00    -0.010 C 
ENDROOT
BRANCH   1   3
HETATM    3  C3  UNL     1     -34.627   5.512   5.462  1.00 20.00     0.198 C 
HETATM    4  O5  UNL     1     -34.843   4.475   4.774  1.00 20.00    -0.645 OA
HETATM    5  O6  UNL     1     -34.924   5.742   6.671  1.00 20.00    -0.645 OA
ENDBRANCH   1   3
BRANCH   2   6
HETATM    6  C4  UNL     1     -32.545   8.771   4.810  1.00 20.00     0.098 C 
BRANCH   6   7
HETATM    7  S7  UNL     1     -32.298   8.431   3.047  1.00 20.00    -0.178 SA
HETATM    8  H12 UNL     1     -31.102   9.030   2.952  1.00 20.00     0.101 HD
ENDBRANCH   6   7
ENDBRANCH   2   6
TORSDOF 3
ENDMDL
MODEL 5
REMARK VINA RESULT:      -3.2     11.923     12.282
REMARK  3 active torsions:
REMARK  status: ('A' for Active; 'I' for Inactive)
REMARK    1  A    between atoms: C1_1  and  C3_3 
REMARK    2  A    between atoms: C2_2  and  C4_4 
REMARK    3  A    between atoms: C4_4  and  S7_7 
ROOT
HETATM    1  C1  UNL     1     -32.603  18.266  -1.816  1.00 20.00     0.081 C 
HETATM    2  C2  UNL     1     -33.115  17.086  -2.197  1.00 20.00    -0.010 C 
ENDROOT
BRANCH   1   3
HETATM    3  C3  UNL     1     -31.903  18.449  -0.463  1.00 20.00     0.198 C 
HETATM    4  O5  UNL     1     -30.660  18.671  -0.484  1.00 20.00    -0.645 OA
HETATM    5  O6  UNL     1     -32.679  18.353   0.534  1.00 20.00    -0.645 OA
ENDBRANCH   1   3
BRANCH   2   6
HETATM    6  C4  UNL     1     -33.815  16.877  -3.504  1.00 20.00     0.098 C 
BRANCH   6   7
HETATM    7  S7  UNL     1     -33.476  15.211  -4.135  1.00 20.00    -0.178 SA
HETATM    8  H12 UNL     1     -33.432  14.611  -2.937  1.00 20.00     0.101 HD
ENDBRANCH   6   7
ENDBRANCH   2   6
TORSDOF 3
ENDMDL
MODEL 6
REMARK VINA RESULT:      -3.1      3.464      4.112
REMARK  3 active torsions:
REMARK  status: ('A' for Active; 'I' for Inactive)
REMARK    1  A    between atoms: C1_1  and  C3_3 
REMARK    2  A    between atoms: C2_2  and  C4_4 
REMARK    3  A    between atoms: C4_4  and  S7_7 
ROOT
HETATM    1  C1  UNL     1     -33.870   6.597   4.950  1.00 20.00     0.081 C 
HETATM    2  C2  UNL     1     -33.127   6.627   3.834  1.00 20.00    -0.010 C 
ENDROOT
BRANCH   1   3
HETATM    3  C3  UNL     1     -34.563   5.314   5.430  1.00 20.00     0.198 C 
HETATM    4  O5  UNL     1     -35.069   5.334   6.587  1.00 20.00    -0.645 OA
HETATM    5  O6  UNL     1     -34.543   4.371   4.585  1.00 20.00    -0.645 OA
ENDBRANCH   1   3
BRANCH   2   6
HETATM    6  C4  UNL     1     -32.449   7.864   3.330  1.00 20.00     0.098 C 
BRANCH   6   7
HETATM    7  S7  UNL     1     -32.233   9.052   4.683  1.00 20.00    -0.178 SA
HETATM    8  H12 UNL     1     -30.899   9.144   4.582  1.00 20.00     0.101 HD
ENDBRANCH   6   7
ENDBRANCH   2   6
TORSDOF 3
ENDMDL
MODEL 7
REMARK VINA RESULT:      -3.1     11.726     12.115
REMARK  3 active torsions:
REMARK  status: ('A' for Active; 'I' for Inactive)
REMARK    1  A    between atoms: C1_1  and  C3_3 
REMARK    2  A    between atoms: C2_2  and  C4_4 
REMARK    3  A    between atoms: C4_4  and  S7_7 
ROOT
HETATM    1  C1  UNL     1     -33.089  15.768  -3.767  1.00 20.00     0.081 C 
HETATM    2  C2  UNL     1     -33.586  16.363  -2.673  1.00 20.00    -0.010 C 
ENDROOT
BRANCH   1   3
HETATM    3  C3  UNL     1     -33.872  14.695  -4.536  1.00 20.00     0.198 C 
HETATM    4  O5  UNL     1     -34.398  13.770  -3.855  1.00 20.00    -0.645 OA
HETATM    5  O6  UNL     1     -33.897  14.875  -5.789  1.00 20.00    -0.645 OA
ENDBRANCH   1   3
BRANCH   2   6
HETATM    6  C4  UNL     1     -32.842  17.403  -1.893  1.00 20.00     0.098 C 
BRANCH   6   7
HETATM    7  S7  UNL     1     -33.868  18.010  -0.526  1.00 20.00    -0.178 SA
HETATM    8  H12 UNL     1     -32.850  18.365   0.270  1.00 20.00     0.101 HD
ENDBRANCH   6   7
ENDBRANCH   2   6
TORSDOF 3
ENDMDL
MODEL 8
REMARK VINA RESULT:      -3.1     12.016     12.265
REMARK  3 active torsions:
REMARK  status: ('A' for Active; 'I' for Inactive)
REMARK    1  A    between atoms: C1_1  and  C3_3 
REMARK    2  A    between atoms: C2_2  and  C4_4 
REMARK    3  A    between atoms: C4_4  and  S7_7 
ROOT
HETATM    1  C1  UNL     1     -31.348  18.515   1.712  1.00 20.00     0.081 C 
HETATM    2  C2  UNL     1     -30.150  18.867   2.203  1.00 20.00    -0.010 C 
ENDROOT
BRANCH   1   3
HETATM    3  C3  UNL     1     -31.630  18.484   0.204  1.00 20.00     0.198 C 
HETATM    4  O5  UNL     1     -32.819  18.248  -0.153  1.00 20.00    -0.645 OA
HETATM    5  O6  UNL     1     -30.611  18.705  -0.515  1.00 20.00    -0.645 OA
ENDBRANCH   1   3
BRANCH   2   6
HETATM    6  C4  UNL     1     -29.846  18.921   3.668  1.00 20.00     0.098 C 
BRANCH   6   7
HETATM    7  S7  UNL     1     -28.074  18.657   3.948  1.00 20.00    -0.178 SA
HETATM    8  H12 UNL     1     -27.653  19.613   3.107  1.00 20.00     0.101 HD
ENDBRANCH   6   7
ENDBRANCH   2   6
TORSDOF 3
ENDMDL
MODEL 9
REMARK VINA RESULT:      -3.1     15.479     15.889
REMARK  3 active torsions:
REMARK  status: ('A' for Active; 'I' for Inactive)
REMARK    1  A    between atoms: C1_1  and  C3_3 
REMARK    2  A    between atoms: C2_2  and  C4_4 
REMARK    3  A    between atoms: C4_4  and  S7_7 
ROOT
HETATM    1  C1  UNL     1     -22.936  17.658   9.977  1.00 20.00     0.081 C 
HETATM    2  C2  UNL     1     -22.422  18.395  10.973  1.00 20.00    -0.010 C 
ENDROOT
BRANCH   1   3
HETATM    3  C3  UNL     1     -22.277  17.590   8.593  1.00 20.00     0.198 C 
HETATM    4  O5  UNL     1     -22.770  18.318   7.686  1.00 20.00    -0.645 OA
HETATM    5  O6  UNL     1     -21.294  16.793   8.529  1.00 20.00    -0.645 OA
ENDBRANCH   1   3
BRANCH   2   6
HETATM    6  C4  UNL     1     -23.047  18.494  12.330  1.00 20.00     0.098 C 
BRANCH   6   7
HETATM    7  S7  UNL     1     -24.853  18.413  12.193  1.00 20.00    -0.178 SA
HETATM    8  H12 UNL     1     -25.039  17.583  13.230  1.00 20.00     0.101 HD
ENDBRANCH   6   7
ENDBRANCH   2   6
TORSDOF 3
ENDMDL
