MODEL 1
REMARK VINA RESULT:      -4.1      0.000      0.000
REMARK  3 active torsions:
REMARK  status: ('A' for Active; 'I' for Inactive)
REMARK    1  A    between atoms: C6_6  and  N10_10 
REMARK    2  A    between atoms: C7_7  and  C8_8 
REMARK    3  A    between atoms: C8_8  and  N10_10 
ROOT
HETATM    1  C1  UNL     1     -33.279  17.375  -1.590  1.00 20.00     0.013 C 
HETATM    2  C2  UNL     1     -33.433  16.718  -2.584  1.00 20.00    -0.087 C 
HETATM    3  C6  UNL     1     -33.615  15.914  -3.794  1.00 20.00     0.364 C 
ENDROOT
BRANCH   3   4
HETATM    4  N10 UNL     1     -34.845  16.290  -4.481  1.00 20.00     0.117 N 
HETATM    5  H22 UNL     1     -35.605  16.336  -3.799  1.00 20.00     0.319 HD
BRANCH   4   6
HETATM    6  C8  UNL     1     -35.181  15.330  -5.517  1.00 20.00     0.241 C 
HETATM    7  C3  UNL     1     -35.564  14.050  -4.887  1.00 20.00     0.101 C 
HETATM    8  N9  UNL     1     -35.867  13.044  -4.392  1.00 20.00    -0.195 NA
HETATM    9  C5  UNL     1     -36.379  15.871  -6.312  1.00 20.00     0.066 C 
BRANCH   6  10
HETATM   10  C7  UNL     1     -33.986  15.129  -6.477  1.00 20.00     0.052 C 
HETATM   11  C4  UNL     1     -34.093  15.886  -7.799  1.00 20.00     0.009 C 
ENDBRANCH   6  10
ENDBRANCH   4   6
ENDBRANCH   3   4
TORSDOF 3
ENDMDL
MODEL 2
REMARK VINA RESULT:      -4.1      1.531      2.469
REMARK  3 active torsions:
REMARK  status: ('A' for Active; 'I' for Inactive)
REMARK    1  A    between atoms: C6_6  and  N10_10 
REMARK    2  A    between atoms: C7_7  and  C8_8 
REMARK    3  A    between atoms: C8_8  and  N10_10 
ROOT
HETATM    1  C1  UNL     1     -33.615  17.487  -1.364  1.00 20.00     0.013 C 
HETATM    2  C2  UNL     1     -33.408  16.792  -2.321  1.00 20.00    -0.087 C 
HETATM    3  C6  UNL     1     -33.153  15.940  -3.485  1.00 20.00     0.364 C 
ENDROOT
BRANCH   3   4
HETATM    4  N10 UNL     1     -33.703  16.543  -4.694  1.00 20.00     0.117 N 
HETATM    5  H22 UNL     1     -34.203  17.397  -4.441  1.00 20.00     0.319 HD
BRANCH   4   6
HETATM    6  C8  UNL     1     -34.610  15.632  -5.367  1.00 20.00     0.241 C 
HETATM    7  C3  UNL     1     -34.095  15.347  -6.722  1.00 20.00     0.101 C 
HETATM    8  N9  UNL     1     -33.690  15.121  -7.786  1.00 20.00    -0.195 NA
HETATM    9  C5  UNL     1     -34.663  14.319  -4.569  1.00 20.00     0.066 C 
BRANCH   6  10
HETATM   10  C7  UNL     1     -36.031  16.237  -5.440  1.00 20.00     0.052 C 
HETATM   11  C4  UNL     1     -36.153  17.651  -4.876  1.00 20.00     0.009 C 
ENDBRANCH   6  10
ENDBRANCH   4   6
ENDBRANCH   3   4
TORSDOF 3
ENDMDL
MODEL 3
REMARK VINA RESULT:      -4.0      2.868      5.887
REMARK  3 active torsions:
REMARK  status: ('A' for Active; 'I' for Inactive)
REMARK    1  A    between atoms: C6_6  and  N10_10 
REMARK    2  A    between atoms: C7_7  and  C8_8 
REMARK    3  A    between atoms: C8_8  and  N10_10 
ROOT
HETATM    1  C1  UNL     1     -33.988  14.422  -4.110  1.00 20.00     0.013 C 
HETATM    2  C2  UNL     1     -33.625  15.521  -3.792  1.00 20.00    -0.087 C 
HETATM    3  C6  UNL     1     -33.182  16.864  -3.411  1.00 20.00     0.364 C 
ENDROOT
BRANCH   3   4
HETATM    4  N10 UNL     1     -33.234  17.031  -1.963  1.00 20.00     0.117 N 
HETATM    5  H22 UNL     1     -34.151  16.732  -1.627  1.00 20.00     0.319 HD
BRANCH   4   6
HETATM    6  C8  UNL     1     -33.006  18.413  -1.586  1.00 20.00     0.241 C 
HETATM    7  C3  UNL     1     -31.719  18.515  -0.868  1.00 20.00     0.101 C 
HETATM    8  N9  UNL     1     -30.707  18.597  -0.305  1.00 20.00    -0.195 NA
HETATM    9  C5  UNL     1     -32.929  19.260  -2.866  1.00 20.00     0.066 C 
BRANCH   6  10
HETATM   10  C7  UNL     1     -34.165  18.933  -0.705  1.00 20.00     0.052 C 
HETATM   11  C4  UNL     1     -34.137  18.444   0.742  1.00 20.00     0.009 C 
ENDBRANCH   6  10
ENDBRANCH   4   6
ENDBRANCH   3   4
TORSDOF 3
ENDMDL
MODEL 4
REMARK VINA RESULT:      -4.0     12.061     13.242
REMARK  3 active torsions:
REMARK  status: ('A' for Active; 'I' for Inactive)
REMARK    1  A    between atoms: C6_6  and  N10_10 
REMARK    2  A    between atoms: C7_7  and  C8_8 
REMARK    3  A    between atoms: C8_8  and  N10_10 
ROOT
HETATM    1  C1  UNL     1     -40.107  15.434   9.776  1.00 20.00     0.013 C 
HETATM    2  C2  UNL     1     -40.347  15.167   8.631  1.00 20.00    -0.087 C 
HETATM    3  C6  UNL     1     -40.644  14.847   7.232  1.00 20.00     0.364 C 
ENDROOT
BRANCH   3   4
HETATM    4  N10 UNL     1     -39.883  13.680   6.800  1.00 20.00     0.117 N 
HETATM    5  H22 UNL     1     -39.078  13.993   6.254  1.00 20.00     0.319 HD
BRANCH   4   6
HETATM    6  C8  UNL     1     -40.700  12.792   5.993  1.00 20.00     0.241 C 
HETATM    7  C3  UNL     1     -41.884  12.378   6.774  1.00 20.00     0.101 C 
HETATM    8  N9  UNL     1     -42.816  12.054   7.386  1.00 20.00    -0.195 NA
HETATM    9  C5  UNL     1     -41.169  13.559   4.748  1.00 20.00     0.066 C 
BRANCH   6  10
HETATM   10  C7  UNL     1     -39.881  11.558   5.549  1.00 20.00     0.052 C 
HETATM   11  C4  UNL     1     -39.097  11.744   4.252  1.00 20.00     0.009 C 
ENDBRANCH   6  10
ENDBRANCH   4   6
ENDBRANCH   3   4
TORSDOF 3
ENDMDL
MODEL 5
REMARK VINA RESULT:      -3.9     11.419     12.982
REMARK  3 active torsions:
REMARK  status: ('A' for Active; 'I' for Inactive)
REMARK    1  A    between atoms: C6_6  and  N10_10 
REMARK    2  A    between atoms: C7_7  and  C8_8 
REMARK    3  A    between atoms: C8_8  and  N10_10 
ROOT
HETATM    1  C1  UNL     1     -38.854  11.572   3.679  1.00 20.00     0.013 C 
HETATM    2  C2  UNL     1     -39.267  11.802   4.783  1.00 20.00    -0.087 C 
HETATM    3  C6  UNL     1     -39.771  12.076   6.130  1.00 20.00     0.364 C 
ENDROOT
BRANCH   3   4
HETATM    4  N10 UNL     1     -39.930  13.511   6.338  1.00 20.00     0.117 N 
HETATM    5  H22 UNL     1     -39.521  13.763   7.239  1.00 20.00     0.319 HD
BRANCH   4   6
HETATM    6  C8  UNL     1     -41.330  13.892   6.317  1.00 20.00     0.241 C 
HETATM    7  C3  UNL     1     -41.747  14.134   4.920  1.00 20.00     0.101 C 
HETATM    8  N9  UNL     1     -42.076  14.323   3.823  1.00 20.00    -0.195 NA
HETATM    9  C5  UNL     1     -42.159  12.730   6.888  1.00 20.00     0.066 C 
BRANCH   6  10
HETATM   10  C7  UNL     1     -41.562  15.152   7.182  1.00 20.00     0.052 C 
HETATM   11  C4  UNL     1     -40.435  15.470   8.163  1.00 20.00     0.009 C 
ENDBRANCH   6  10
ENDBRANCH   4   6
ENDBRANCH   3   4
TORSDOF 3
ENDMDL
MODEL 6
REMARK VINA RESULT:      -3.8      1.287      1.505
REMARK  3 active torsions:
REMARK  status: ('A' for Active; 'I' for Inactive)
REMARK    1  A    between atoms: C6_6  and  N10_10 
REMARK    2  A    between atoms: C7_7  and  C8_8 
REMARK    3  A    between atoms: C8_8  and  N10_10 
ROOT
HETATM    1  C1  UNL     1     -33.627  17.365  -1.091  1.00 20.00     0.013 C 
HETATM    2  C2  UNL     1     -33.486  16.908  -2.192  1.00 20.00    -0.087 C 
HETATM    3  C6  UNL     1     -33.308  16.353  -3.536  1.00 20.00     0.364 C 
ENDROOT
BRANCH   3   4
HETATM    4  N10 UNL     1     -34.499  15.622  -3.953  1.00 20.00     0.117 N 
HETATM    5  H22 UNL     1     -34.319  14.620  -3.869  1.00 20.00     0.319 HD
BRANCH   4   6
HETATM    6  C8  UNL     1     -34.854  15.938  -5.324  1.00 20.00     0.241 C 
HETATM    7  C3  UNL     1     -36.301  15.707  -5.516  1.00 20.00     0.101 C 
HETATM    8  N9  UNL     1     -37.438  15.528  -5.668  1.00 20.00    -0.195 NA
HETATM    9  C5  UNL     1     -34.550  17.423  -5.576  1.00 20.00     0.066 C 
BRANCH   6  10
HETATM   10  C7  UNL     1     -34.029  15.077  -6.309  1.00 20.00     0.052 C 
HETATM   11  C4  UNL     1     -33.929  15.644  -7.723  1.00 20.00     0.009 C 
ENDBRANCH   6  10
ENDBRANCH   4   6
ENDBRANCH   3   4
TORSDOF 3
ENDMDL
MODEL 7
REMARK VINA RESULT:      -3.8     11.216     12.424
REMARK  3 active torsions:
REMARK  status: ('A' for Active; 'I' for Inactive)
REMARK    1  A    between atoms: C6_6  and  N10_10 
REMARK    2  A    between atoms: C7_7  and  C8_8 
REMARK    3  A    between atoms: C8_8  and  N10_10 
ROOT
HETATM    1  C1  UNL     1     -34.702   5.333   6.390  1.00 20.00     0.013 C 
HETATM    2  C2  UNL     1     -34.328   6.414   6.026  1.00 20.00    -0.087 C 
HETATM    3  C6  UNL     1     -33.871   7.734   5.587  1.00 20.00     0.364 C 
ENDROOT
BRANCH   3   4
HETATM    4  N10 UNL     1     -33.979   7.861   4.138  1.00 20.00     0.117 N 
HETATM    5  H22 UNL     1     -34.369   6.996   3.758  1.00 20.00     0.319 HD
BRANCH   4   6
HETATM    6  C8  UNL     1     -32.683   8.113   3.536  1.00 20.00     0.241 C 
HETATM    7  C3  UNL     1     -32.845   9.060   2.413  1.00 20.00     0.101 C 
HETATM    8  N9  UNL     1     -32.971   9.805   1.532  1.00 20.00    -0.195 NA
HETATM    9  C5  UNL     1     -31.770   8.750   4.595  1.00 20.00     0.066 C 
BRANCH   6  10
HETATM   10  C7  UNL     1     -32.046   6.791   3.047  1.00 20.00     0.052 C 
HETATM   11  C4  UNL     1     -33.045   5.684   2.718  1.00 20.00     0.009 C 
ENDBRANCH   6  10
ENDBRANCH   4   6
ENDBRANCH   3   4
TORSDOF 3
ENDMDL
MODEL 8
REMARK VINA RESULT:      -3.8     12.326     13.800
REMARK  3 active torsions:
REMARK  status: ('A' for Active; 'I' for Inactive)
REMARK    1  A    between atoms: C6_6  and  N10_10 
REMARK    2  A    between atoms: C7_7  and  C8_8 
REMARK    3  A    between atoms: C8_8  and  N10_10 
ROOT
HETATM    1  C1  UNL     1     -38.888  11.571   3.729  1.00 20.00     0.013 C 
HETATM    2  C2  UNL     1     -39.202  11.826   4.860  1.00 20.00    -0.087 C 
HETATM    3  C6  UNL     1     -39.584  12.131   6.241  1.00 20.00     0.364 C 
ENDROOT
BRANCH   3   4
HETATM    4  N10 UNL     1     -39.812  13.562   6.407  1.00 20.00     0.117 N 
HETATM    5  H22 UNL     1     -39.068  13.951   6.989  1.00 20.00     0.319 HD
BRANCH   4   6
HETATM    6  C8  UNL     1     -41.098  13.818   7.029  1.00 20.00     0.241 C 
HETATM    7  C3  UNL     1     -40.915  13.941   8.490  1.00 20.00     0.101 C 
HETATM    8  N9  UNL     1     -40.771  14.039   9.638  1.00 20.00    -0.195 NA
HETATM    9  C5  UNL     1     -41.646  15.146   6.484  1.00 20.00     0.066 C 
BRANCH   6  10
HETATM   10  C7  UNL     1     -42.095  12.684   6.698  1.00 20.00     0.052 C 
HETATM   11  C4  UNL     1     -43.215  12.498   7.720  1.00 20.00     0.009 C 
ENDBRANCH   6  10
ENDBRANCH   4   6
ENDBRANCH   3   4
TORSDOF 3
ENDMDL
MODEL 9
REMARK VINA RESULT:      -3.7     12.075     13.607
REMARK  3 active torsions:
REMARK  status: ('A' for Active; 'I' for Inactive)
REMARK    1  A    between atoms: C6_6  and  N10_10 
REMARK    2  A    between atoms: C7_7  and  C8_8 
REMARK    3  A    between atoms: C8_8  and  N10_10 
ROOT
HETATM    1  C1  UNL     1     -38.928  11.640   4.026  1.00 20.00     0.013 C 
HETATM    2  C2  UNL     1     -39.631  11.963   4.944  1.00 20.00    -0.087 C 
HETATM    3  C6  UNL     1     -40.492  12.352   6.063  1.00 20.00     0.364 C 
ENDROOT
BRANCH   3   4
HETATM    4  N10 UNL     1     -39.956  13.528   6.740  1.00 20.00     0.117 N 
HETATM    5  H22 UNL     1     -39.433  13.226   7.564  1.00 20.00     0.319 HD
BRANCH   4   6
HETATM    6  C8  UNL     1     -41.019  14.429   7.145  1.00 20.00     0.241 C 
HETATM    7  C3  UNL     1     -41.799  13.804   8.233  1.00 20.00     0.101 C 
HETATM    8  N9  UNL     1     -42.410  13.314   9.089  1.00 20.00    -0.195 NA
HETATM    9  C5  UNL     1     -40.384  15.726   7.670  1.00 20.00     0.066 C 
BRANCH   6  10
HETATM   10  C7  UNL     1     -41.932  14.763   5.942  1.00 20.00     0.052 C 
HETATM   11  C4  UNL     1     -42.527  16.170   5.963  1.00 20.00     0.009 C 
ENDBRANCH   6  10
ENDBRANCH   4   6
ENDBRANCH   3   4
TORSDOF 3
ENDMDL
