MODEL 1
REMARK VINA RESULT:      -4.1      0.000      0.000
REMARK  2 active torsions:
REMARK  status: ('A' for Active; 'I' for Inactive)
REMARK    1  A    between atoms: C1_1  and  C3_3 
REMARK    2  A    between atoms: C2_2  and  C4_4 
ROOT
HETATM    1  C1  UNL     1     -33.766   7.214   6.249  1.00 20.00    -0.015 C 
HETATM    2  C2  UNL     1     -34.375   6.020   6.239  1.00 20.00    -0.015 C 
ENDROOT
BRANCH   1   3
HETATM    3  C3  UNL     1     -33.718   8.129   5.071  1.00 20.00     0.141 C 
HETATM    4 CL5  UNL     1     -32.132   8.008   4.277  1.00 20.00    -0.126 Cl
ENDBRANCH   1   3
BRANCH   2   5
HETATM    5  C4  UNL     1     -35.079   5.460   5.048  1.00 20.00     0.141 C 
HETATM    6 CL6  UNL     1     -33.973   4.420   4.125  1.00 20.00    -0.126 Cl
ENDBRANCH   2   5
TORSDOF 2
ENDMDL
MODEL 2
REMARK VINA RESULT:      -4.1      0.060      2.993
REMARK  2 active torsions:
REMARK  status: ('A' for Active; 'I' for Inactive)
REMARK    1  A    between atoms: C1_1  and  C3_3 
REMARK    2  A    between atoms: C2_2  and  C4_4 
ROOT
HETATM    1  C1  UNL     1     -34.376   6.054   6.218  1.00 20.00    -0.015 C 
HETATM    2  C2  UNL     1     -33.753   7.241   6.245  1.00 20.00    -0.015 C 
ENDROOT
BRANCH   1   3
HETATM    3  C3  UNL     1     -35.079   5.516   5.016  1.00 20.00     0.141 C 
HETATM    4 CL5  UNL     1     -34.007   4.406   4.137  1.00 20.00    -0.126 Cl
ENDBRANCH   1   3
BRANCH   2   5
HETATM    5  C4  UNL     1     -33.687   8.168   5.076  1.00 20.00     0.141 C 
HETATM    6 CL6  UNL     1     -32.156   7.937   4.206  1.00 20.00    -0.126 Cl
ENDBRANCH   2   5
TORSDOF 2
ENDMDL
MODEL 3
REMARK VINA RESULT:      -3.7      1.802      2.327
REMARK  2 active torsions:
REMARK  status: ('A' for Active; 'I' for Inactive)
REMARK    1  A    between atoms: C1_1  and  C3_3 
REMARK    2  A    between atoms: C2_2  and  C4_4 
ROOT
HETATM    1  C1  UNL     1     -33.310   8.313   4.264  1.00 20.00    -0.015 C 
HETATM    2  C2  UNL     1     -33.915   7.983   5.414  1.00 20.00    -0.015 C 
ENDROOT
BRANCH   1   3
HETATM    3  C3  UNL     1     -32.168   7.549   3.681  1.00 20.00     0.141 C 
HETATM    4 CL5  UNL     1     -32.774   6.112   2.831  1.00 20.00    -0.126 Cl
ENDBRANCH   1   3
BRANCH   2   5
HETATM    5  C4  UNL     1     -33.519   6.814   6.252  1.00 20.00     0.141 C 
HETATM    6 CL6  UNL     1     -34.752   5.540   6.137  1.00 20.00    -0.126 Cl
ENDBRANCH   2   5
TORSDOF 2
ENDMDL
MODEL 4
REMARK VINA RESULT:      -3.7      1.789      2.926
REMARK  2 active torsions:
REMARK  status: ('A' for Active; 'I' for Inactive)
REMARK    1  A    between atoms: C1_1  and  C3_3 
REMARK    2  A    between atoms: C2_2  and  C4_4 
ROOT
HETATM    1  C1  UNL     1     -33.932   7.957   5.430  1.00 20.00    -0.015 C 
HETATM    2  C2  UNL     1     -33.330   8.284   4.277  1.00 20.00    -0.015 C 
ENDROOT
BRANCH   1   3
HETATM    3  C3  UNL     1     -33.521   6.800   6.278  1.00 20.00     0.141 C 
HETATM    4 CL5  UNL     1     -34.695   5.477   6.103  1.00 20.00    -0.126 Cl
ENDBRANCH   1   3
BRANCH   2   5
HETATM    5  C4  UNL     1     -32.177   7.530   3.703  1.00 20.00     0.141 C 
HETATM    6 CL6  UNL     1     -32.764   6.099   2.830  1.00 20.00    -0.126 Cl
ENDBRANCH   2   5
TORSDOF 2
ENDMDL
MODEL 5
REMARK VINA RESULT:      -3.7      1.184      1.613
REMARK  2 active torsions:
REMARK  status: ('A' for Active; 'I' for Inactive)
REMARK    1  A    between atoms: C1_1  and  C3_3 
REMARK    2  A    between atoms: C2_2  and  C4_4 
ROOT
HETATM    1  C1  UNL     1     -34.846   6.254   5.780  1.00 20.00    -0.015 C 
HETATM    2  C2  UNL     1     -34.958   5.206   4.950  1.00 20.00    -0.015 C 
ENDROOT
BRANCH   1   3
HETATM    3  C3  UNL     1     -33.539   6.834   6.208  1.00 20.00     0.141 C 
HETATM    4 CL5  UNL     1     -33.081   8.159   5.116  1.00 20.00    -0.126 Cl
ENDBRANCH   1   3
BRANCH   2   5
HETATM    5  C4  UNL     1     -33.789   4.493   4.355  1.00 20.00     0.141 C 
HETATM    6 CL6  UNL     1     -33.207   5.373   2.926  1.00 20.00    -0.126 Cl
ENDBRANCH   2   5
TORSDOF 2
ENDMDL
MODEL 6
REMARK VINA RESULT:      -3.7      1.193      2.987
REMARK  2 active torsions:
REMARK  status: ('A' for Active; 'I' for Inactive)
REMARK    1  A    between atoms: C1_1  and  C3_3 
REMARK    2  A    between atoms: C2_2  and  C4_4 
ROOT
HETATM    1  C1  UNL     1     -34.965   5.245   4.900  1.00 20.00    -0.015 C 
HETATM    2  C2  UNL     1     -34.816   6.290   5.726  1.00 20.00    -0.015 C 
ENDROOT
BRANCH   1   3
HETATM    3  C3  UNL     1     -33.822   4.489   4.307  1.00 20.00     0.141 C 
HETATM    4 CL5  UNL     1     -33.199   5.353   2.885  1.00 20.00    -0.126 Cl
ENDBRANCH   1   3
BRANCH   2   5
HETATM    5  C4  UNL     1     -33.489   6.826   6.152  1.00 20.00     0.141 C 
HETATM    6 CL6  UNL     1     -33.044   8.216   5.139  1.00 20.00    -0.126 Cl
ENDBRANCH   2   5
TORSDOF 2
ENDMDL
MODEL 7
REMARK VINA RESULT:      -3.6      1.759      2.031
REMARK  2 active torsions:
REMARK  status: ('A' for Active; 'I' for Inactive)
REMARK    1  A    between atoms: C1_1  and  C3_3 
REMARK    2  A    between atoms: C2_2  and  C4_4 
ROOT
HETATM    1  C1  UNL     1     -32.716   8.242   4.841  1.00 20.00    -0.015 C 
HETATM    2  C2  UNL     1     -33.700   7.615   5.503  1.00 20.00    -0.015 C 
ENDROOT
BRANCH   1   3
HETATM    3  C3  UNL     1     -32.228   7.823   3.493  1.00 20.00     0.141 C 
HETATM    4 CL5  UNL     1     -32.678   9.044   2.283  1.00 20.00    -0.126 Cl
ENDBRANCH   1   3
BRANCH   2   5
HETATM    5  C4  UNL     1     -34.425   6.423   4.973  1.00 20.00     0.141 C 
HETATM    6 CL6  UNL     1     -34.603   5.205   6.254  1.00 20.00    -0.126 Cl
ENDBRANCH   2   5
TORSDOF 2
ENDMDL
MODEL 8
REMARK VINA RESULT:      -3.3      2.251      3.639
REMARK  2 active torsions:
REMARK  status: ('A' for Active; 'I' for Inactive)
REMARK    1  A    between atoms: C1_1  and  C3_3 
REMARK    2  A    between atoms: C2_2  and  C4_4 
ROOT
HETATM    1  C1  UNL     1     -33.972   5.214   3.731  1.00 20.00    -0.015 C 
HETATM    2  C2  UNL     1     -32.924   5.752   3.090  1.00 20.00    -0.015 C 
ENDROOT
BRANCH   1   3
HETATM    3  C3  UNL     1     -34.809   5.957   4.719  1.00 20.00     0.141 C 
HETATM    4 CL5  UNL     1     -34.466   5.372   6.361  1.00 20.00    -0.126 Cl
ENDBRANCH   1   3
BRANCH   2   5
HETATM    5  C4  UNL     1     -32.467   7.159   3.289  1.00 20.00     0.141 C 
HETATM    6 CL6  UNL     1     -32.136   7.916   1.716  1.00 20.00    -0.126 Cl
ENDBRANCH   2   5
TORSDOF 2
ENDMDL
MODEL 9
REMARK VINA RESULT:      -3.3      2.228      2.523
REMARK  2 active torsions:
REMARK  status: ('A' for Active; 'I' for Inactive)
REMARK    1  A    between atoms: C1_1  and  C3_3 
REMARK    2  A    between atoms: C2_2  and  C4_4 
ROOT
HETATM    1  C1  UNL     1     -32.956   5.732   3.128  1.00 20.00    -0.015 C 
HETATM    2  C2  UNL     1     -34.011   5.202   3.765  1.00 20.00    -0.015 C 
ENDROOT
BRANCH   1   3
HETATM    3  C3  UNL     1     -32.485   7.133   3.332  1.00 20.00     0.141 C 
HETATM    4 CL5  UNL     1     -32.154   7.893   1.760  1.00 20.00    -0.126 Cl
ENDBRANCH   1   3
BRANCH   2   5
HETATM    5  C4  UNL     1     -34.842   5.950   4.753  1.00 20.00     0.141 C 
HETATM    6 CL6  UNL     1     -34.453   5.413   6.401  1.00 20.00    -0.126 Cl
ENDBRANCH   2   5
TORSDOF 2
ENDMDL
