MODEL 1
REMARK VINA RESULT:      -4.0      0.000      0.000
REMARK  1 active torsions:
REMARK  status: ('A' for Active; 'I' for Inactive)
REMARK    1  A    between atoms: C3_3  and  C8_8 
ROOT
HETATM    1  C1  UNL     1     -33.578  15.265  -3.910  1.00 20.00     0.087 C 
HETATM    2  C2  UNL     1     -33.564  16.642  -3.560  1.00 20.00     0.090 C 
HETATM    3  C3  UNL     1     -33.530  17.042  -2.282  1.00 20.00    -0.011 C 
HETATM    4  N9  UNL     1     -33.589  14.141  -4.199  1.00 20.00    -0.192 NA
ENDROOT
BRANCH   3   5
HETATM    5  C8  UNL     1     -33.514  18.501  -1.856  1.00 20.00     0.013 C 
HETATM    6  C4  UNL     1     -34.433  18.686  -0.654  1.00 20.00     0.035 C 
HETATM    7  C6  UNL     1     -33.799  18.206   0.647  1.00 20.00     0.168 C 
HETATM    8  O10 UNL     1     -32.514  18.794   0.833  1.00 20.00    -0.391 OA
HETATM    9  C7  UNL     1     -31.600  18.416  -0.194  1.00 20.00     0.168 C 
HETATM   10  C5  UNL     1     -32.078  18.914  -1.554  1.00 20.00     0.035 C 
ENDBRANCH   3   5
TORSDOF 1
ENDMDL
MODEL 2
REMARK VINA RESULT:      -4.0      1.076      1.563
REMARK  1 active torsions:
REMARK  status: ('A' for Active; 'I' for Inactive)
REMARK    1  A    between atoms: C3_3  and  C8_8 
ROOT
HETATM    1  C1  UNL     1     -34.046  14.977  -3.989  1.00 20.00     0.087 C 
HETATM    2  C2  UNL     1     -33.660  16.315  -3.711  1.00 20.00     0.090 C 
HETATM    3  C3  UNL     1     -33.290  16.698  -2.481  1.00 20.00    -0.011 C 
HETATM    4  N9  UNL     1     -34.361  13.885  -4.221  1.00 20.00    -0.192 NA
ENDROOT
BRANCH   3   5
HETATM    5  C8  UNL     1     -32.869  18.116  -2.132  1.00 20.00     0.013 C 
HETATM    6  C4  UNL     1     -33.997  19.079  -2.484  1.00 20.00     0.035 C 
HETATM    7  C6  UNL     1     -35.123  19.063  -1.457  1.00 20.00     0.168 C 
HETATM    8  O10 UNL     1     -34.612  19.263  -0.141  1.00 20.00    -0.391 OA
HETATM    9  C7  UNL     1     -33.727  18.217   0.252  1.00 20.00     0.168 C 
HETATM   10  C5  UNL     1     -32.501  18.175  -0.654  1.00 20.00     0.035 C 
ENDBRANCH   3   5
TORSDOF 1
ENDMDL
MODEL 3
REMARK VINA RESULT:      -4.0      3.840      5.922
REMARK  1 active torsions:
REMARK  status: ('A' for Active; 'I' for Inactive)
REMARK    1  A    between atoms: C3_3  and  C8_8 
ROOT
HETATM    1  C1  UNL     1     -33.457  17.529  -2.244  1.00 20.00     0.087 C 
HETATM    2  C2  UNL     1     -33.334  16.288  -2.925  1.00 20.00     0.090 C 
HETATM    3  C3  UNL     1     -33.858  16.101  -4.144  1.00 20.00    -0.011 C 
HETATM    4  N9  UNL     1     -33.554  18.541  -1.685  1.00 20.00    -0.192 NA
ENDROOT
BRANCH   3   5
HETATM    5  C8  UNL     1     -33.755  14.795  -4.913  1.00 20.00     0.013 C 
HETATM    6  C4  UNL     1     -34.920  13.890  -4.531  1.00 20.00     0.035 C 
HETATM    7  C6  UNL     1     -36.223  14.294  -5.213  1.00 20.00     0.168 C 
HETATM    8  O10 UNL     1     -36.045  14.405  -6.622  1.00 20.00    -0.391 OA
HETATM    9  C7  UNL     1     -35.108  15.425  -6.963  1.00 20.00     0.168 C 
HETATM   10  C5  UNL     1     -33.726  15.099  -6.407  1.00 20.00     0.035 C 
ENDBRANCH   3   5
TORSDOF 1
ENDMDL
MODEL 4
REMARK VINA RESULT:      -3.9      3.361      5.127
REMARK  1 active torsions:
REMARK  status: ('A' for Active; 'I' for Inactive)
REMARK    1  A    between atoms: C3_3  and  C8_8 
ROOT
HETATM    1  C1  UNL     1     -33.631  17.876  -0.446  1.00 20.00     0.087 C 
HETATM    2  C2  UNL     1     -33.225  17.672  -1.791  1.00 20.00     0.090 C 
HETATM    3  C3  UNL     1     -33.603  16.588  -2.482  1.00 20.00    -0.011 C 
HETATM    4  N9  UNL     1     -33.961  18.047   0.654  1.00 20.00    -0.192 NA
ENDROOT
BRANCH   3   5
HETATM    5  C8  UNL     1     -33.195  16.324  -3.922  1.00 20.00     0.013 C 
HETATM    6  C4  UNL     1     -33.242  14.825  -4.193  1.00 20.00     0.035 C 
HETATM    7  C6  UNL     1     -34.662  14.312  -4.405  1.00 20.00     0.168 C 
HETATM    8  O10 UNL     1     -35.335  15.078  -5.401  1.00 20.00    -0.391 OA
HETATM    9  C7  UNL     1     -35.480  16.443  -5.017  1.00 20.00     0.168 C 
HETATM   10  C5  UNL     1     -34.117  17.107  -4.851  1.00 20.00     0.035 C 
ENDBRANCH   3   5
TORSDOF 1
ENDMDL
MODEL 5
REMARK VINA RESULT:      -3.6      1.849      2.731
REMARK  1 active torsions:
REMARK  status: ('A' for Active; 'I' for Inactive)
REMARK    1  A    between atoms: C3_3  and  C8_8 
ROOT
HETATM    1  C1  UNL     1     -35.064  14.050  -4.443  1.00 20.00     0.087 C 
HETATM    2  C2  UNL     1     -34.267  15.226  -4.421  1.00 20.00     0.090 C 
HETATM    3  C3  UNL     1     -33.866  15.782  -3.270  1.00 20.00    -0.011 C 
HETATM    4  N9  UNL     1     -35.715  13.090  -4.465  1.00 20.00    -0.192 NA
ENDROOT
BRANCH   3   5
HETATM    5  C8  UNL     1     -33.014  17.038  -3.193  1.00 20.00     0.013 C 
HETATM    6  C4  UNL     1     -33.618  18.112  -4.089  1.00 20.00     0.035 C 
HETATM    7  C6  UNL     1     -34.830  18.788  -3.459  1.00 20.00     0.168 C 
HETATM    8  O10 UNL     1     -34.525  19.263  -2.151  1.00 20.00    -0.391 OA
HETATM    9  C7  UNL     1     -34.181  18.200  -1.264  1.00 20.00     0.168 C 
HETATM   10  C5  UNL     1     -32.920  17.486  -1.739  1.00 20.00     0.035 C 
ENDBRANCH   3   5
TORSDOF 1
ENDMDL
MODEL 6
REMARK VINA RESULT:      -3.5     10.816     11.960
REMARK  1 active torsions:
REMARK  status: ('A' for Active; 'I' for Inactive)
REMARK    1  A    between atoms: C3_3  and  C8_8 
ROOT
HETATM    1  C1  UNL     1     -39.395  11.823   4.694  1.00 20.00     0.087 C 
HETATM    2  C2  UNL     1     -40.077  12.116   5.904  1.00 20.00     0.090 C 
HETATM    3  C3  UNL     1     -40.803  13.232   6.049  1.00 20.00    -0.011 C 
HETATM    4  N9  UNL     1     -38.837  11.579   3.705  1.00 20.00    -0.192 NA
ENDROOT
BRANCH   3   5
HETATM    5  C8  UNL     1     -41.550  13.592   7.323  1.00 20.00     0.013 C 
HETATM    6  C4  UNL     1     -40.608  14.323   8.271  1.00 20.00     0.035 C 
HETATM    7  C6  UNL     1     -40.395  15.780   7.878  1.00 20.00     0.168 C 
HETATM    8  O10 UNL     1     -41.642  16.449   7.709  1.00 20.00    -0.391 OA
HETATM    9  C7  UNL     1     -42.413  15.881   6.653  1.00 20.00     0.168 C 
HETATM   10  C5  UNL     1     -42.771  14.431   6.962  1.00 20.00     0.035 C 
ENDBRANCH   3   5
TORSDOF 1
ENDMDL
MODEL 7
REMARK VINA RESULT:      -3.4     23.744     24.318
REMARK  1 active torsions:
REMARK  status: ('A' for Active; 'I' for Inactive)
REMARK    1  A    between atoms: C3_3  and  C8_8 
ROOT
HETATM    1  C1  UNL     1     -23.581  -3.238   8.805  1.00 20.00     0.087 C 
HETATM    2  C2  UNL     1     -24.298  -2.930   9.992  1.00 20.00     0.090 C 
HETATM    3  C3  UNL     1     -25.635  -2.854  10.004  1.00 20.00    -0.011 C 
HETATM    4  N9  UNL     1     -22.991  -3.490   7.838  1.00 20.00    -0.192 NA
ENDROOT
BRANCH   3   5
HETATM    5  C8  UNL     1     -26.449  -2.527  11.246  1.00 20.00     0.013 C 
HETATM    6  C4  UNL     1     -26.645  -1.019  11.338  1.00 20.00     0.035 C 
HETATM    7  C6  UNL     1     -27.724  -0.510  10.388  1.00 20.00     0.168 C 
HETATM    8  O10 UNL     1     -28.936  -1.239  10.557  1.00 20.00    -0.391 OA
HETATM    9  C7  UNL     1     -28.776  -2.621  10.241  1.00 20.00     0.168 C 
HETATM   10  C5  UNL     1     -27.773  -3.279  11.184  1.00 20.00     0.035 C 
ENDBRANCH   3   5
TORSDOF 1
ENDMDL
MODEL 8
REMARK VINA RESULT:      -3.3     11.562     12.824
REMARK  1 active torsions:
REMARK  status: ('A' for Active; 'I' for Inactive)
REMARK    1  A    between atoms: C3_3  and  C8_8 
ROOT
HETATM    1  C1  UNL     1     -39.211  12.141   5.599  1.00 20.00     0.087 C 
HETATM    2  C2  UNL     1     -40.587  12.179   5.948  1.00 20.00     0.090 C 
HETATM    3  C3  UNL     1     -41.293  13.316   5.897  1.00 20.00    -0.011 C 
HETATM    4  N9  UNL     1     -38.086  12.106   5.314  1.00 20.00    -0.192 NA
ENDROOT
BRANCH   3   5
HETATM    5  C8  UNL     1     -42.766  13.409   6.261  1.00 20.00     0.013 C 
HETATM    6  C4  UNL     1     -42.989  12.778   7.630  1.00 20.00     0.035 C 
HETATM    7  C6  UNL     1     -42.556  13.689   8.773  1.00 20.00     0.168 C 
HETATM    8  O10 UNL     1     -43.155  14.977   8.651  1.00 20.00    -0.391 OA
HETATM    9  C7  UNL     1     -42.745  15.645   7.459  1.00 20.00     0.168 C 
HETATM   10  C5  UNL     1     -43.195  14.872   6.223  1.00 20.00     0.035 C 
ENDBRANCH   3   5
TORSDOF 1
ENDMDL
MODEL 9
REMARK VINA RESULT:      -3.1     11.398     12.508
REMARK  1 active torsions:
REMARK  status: ('A' for Active; 'I' for Inactive)
REMARK    1  A    between atoms: C3_3  and  C8_8 
ROOT
HETATM    1  C1  UNL     1     -39.974  12.226   5.007  1.00 20.00     0.087 C 
HETATM    2  C2  UNL     1     -40.765  13.272   5.551  1.00 20.00     0.090 C 
HETATM    3  C3  UNL     1     -40.414  13.904   6.679  1.00 20.00    -0.011 C 
HETATM    4  N9  UNL     1     -39.329  11.372   4.558  1.00 20.00    -0.192 NA
ENDROOT
BRANCH   3   5
HETATM    5  C8  UNL     1     -41.227  15.028   7.302  1.00 20.00     0.013 C 
HETATM    6  C4  UNL     1     -42.554  14.473   7.805  1.00 20.00     0.035 C 
HETATM    7  C6  UNL     1     -42.413  13.721   9.124  1.00 20.00     0.168 C 
HETATM    8  O10 UNL     1     -41.742  14.520  10.094  1.00 20.00    -0.391 OA
HETATM    9  C7  UNL     1     -40.410  14.837   9.696  1.00 20.00     0.168 C 
HETATM   10  C5  UNL     1     -40.410  15.671   8.419  1.00 20.00     0.035 C 
ENDBRANCH   3   5
TORSDOF 1
ENDMDL
