MODEL 1
REMARK VINA RESULT:      -4.6      0.000      0.000
REMARK  3 active torsions:
REMARK  status: ('A' for Active; 'I' for Inactive)
REMARK    1  A    between atoms: C2_2  and  C9_9 
REMARK    2  A    between atoms: C6_6  and  C9_9 
REMARK    3  A    between atoms: C7_7  and  O10_10 
ROOT
HETATM    1  C3  UNL     1     -35.158   5.151   5.276  1.00 20.00     0.003 C 
HETATM    2  C4  UNL     1     -34.632   5.998   4.116  1.00 20.00     0.008 C 
HETATM    3  C5  UNL     1     -34.308   5.510   6.497  1.00 20.00     0.032 C 
HETATM    4  C6  UNL     1     -33.326   6.613   4.624  1.00 20.00     0.022 C 
HETATM    5  C7  UNL     1     -33.591   6.801   6.118  1.00 20.00     0.122 C 
ENDROOT
BRANCH   4   6
HETATM    6  C9  UNL     1     -32.947   7.883   3.880  1.00 20.00     0.010 C 
HETATM    7  C8  UNL     1     -32.121   8.811   4.776  1.00 20.00     0.014 C 
BRANCH   6   8
HETATM    8  C2  UNL     1     -32.172   7.552   2.628  1.00 20.00    -0.032 C 
HETATM    9  C1  UNL     1     -32.260   8.247   1.487  1.00 20.00     0.007 C 
ENDBRANCH   6   8
ENDBRANCH   4   6
BRANCH   5  10
HETATM   10  O10 UNL     1     -34.451   7.912   6.346  1.00 20.00    -0.395 OA
HETATM   11  H26 UNL     1     -34.633   7.933   7.299  1.00 20.00     0.210 HD
ENDBRANCH   5  10
TORSDOF 3
ENDMDL
MODEL 2
REMARK VINA RESULT:      -4.5      1.309      1.821
REMARK  3 active torsions:
REMARK  status: ('A' for Active; 'I' for Inactive)
REMARK    1  A    between atoms: C2_2  and  C9_9 
REMARK    2  A    between atoms: C6_6  and  C9_9 
REMARK    3  A    between atoms: C7_7  and  O10_10 
ROOT
HETATM    1  C3  UNL     1     -34.394   5.620   6.470  1.00 20.00     0.003 C 
HETATM    2  C4  UNL     1     -33.647   6.917   6.150  1.00 20.00     0.008 C 
HETATM    3  C5  UNL     1     -35.069   5.176   5.170  1.00 20.00     0.032 C 
HETATM    4  C6  UNL     1     -34.132   7.330   4.760  1.00 20.00     0.022 C 
HETATM    5  C7  UNL     1     -34.394   5.990   4.072  1.00 20.00     0.122 C 
ENDROOT
BRANCH   4   6
HETATM    6  C9  UNL     1     -33.145   8.233   4.038  1.00 20.00     0.010 C 
HETATM    7  C8  UNL     1     -32.178   8.885   5.030  1.00 20.00     0.014 C 
BRANCH   6   8
HETATM    8  C2  UNL     1     -32.372   7.453   3.003  1.00 20.00    -0.032 C 
HETATM    9  C1  UNL     1     -32.099   7.904   1.773  1.00 20.00     0.007 C 
ENDBRANCH   6   8
ENDBRANCH   4   6
BRANCH   5  10
HETATM   10  O10 UNL     1     -33.173   5.365   3.693  1.00 20.00    -0.395 OA
HETATM   11  H26 UNL     1     -33.026   4.638   4.318  1.00 20.00     0.210 HD
ENDBRANCH   5  10
TORSDOF 3
ENDMDL
MODEL 3
REMARK VINA RESULT:      -4.4      1.330      3.712
REMARK  3 active torsions:
REMARK  status: ('A' for Active; 'I' for Inactive)
REMARK    1  A    between atoms: C2_2  and  C9_9 
REMARK    2  A    between atoms: C6_6  and  C9_9 
REMARK    3  A    between atoms: C7_7  and  O10_10 
ROOT
HETATM    1  C3  UNL     1     -32.161   7.618   2.270  1.00 20.00     0.003 C 
HETATM    2  C4  UNL     1     -32.649   6.543   3.243  1.00 20.00     0.008 C 
HETATM    3  C5  UNL     1     -32.521   8.968   2.897  1.00 20.00     0.032 C 
HETATM    4  C6  UNL     1     -33.515   7.284   4.263  1.00 20.00     0.022 C 
HETATM    5  C7  UNL     1     -32.845   8.656   4.353  1.00 20.00     0.122 C 
ENDROOT
BRANCH   4   6
HETATM    6  C9  UNL     1     -33.628   6.544   5.586  1.00 20.00     0.010 C 
HETATM    7  C8  UNL     1     -34.144   7.474   6.687  1.00 20.00     0.014 C 
BRANCH   6   8
HETATM    8  C2  UNL     1     -34.541   5.351   5.449  1.00 20.00    -0.032 C 
HETATM    9  C1  UNL     1     -35.616   5.317   4.652  1.00 20.00     0.007 C 
ENDBRANCH   6   8
ENDBRANCH   4   6
BRANCH   5  10
HETATM   10  O10 UNL     1     -31.641   8.586   5.109  1.00 20.00    -0.395 OA
HETATM   11  H26 UNL     1     -31.659   9.330   5.731  1.00 20.00     0.210 HD
ENDBRANCH   5  10
TORSDOF 3
ENDMDL
MODEL 4
REMARK VINA RESULT:      -4.2      1.720      3.896
REMARK  3 active torsions:
REMARK  status: ('A' for Active; 'I' for Inactive)
REMARK    1  A    between atoms: C2_2  and  C9_9 
REMARK    2  A    between atoms: C6_6  and  C9_9 
REMARK    3  A    between atoms: C7_7  and  O10_10 
ROOT
HETATM    1  C3  UNL     1     -33.057   9.203   5.353  1.00 20.00     0.003 C 
HETATM    2  C4  UNL     1     -33.999   8.014   5.151  1.00 20.00     0.008 C 
HETATM    3  C5  UNL     1     -31.769   8.871   4.594  1.00 20.00     0.032 C 
HETATM    4  C6  UNL     1     -33.138   6.919   4.519  1.00 20.00     0.022 C 
HETATM    5  C7  UNL     1     -32.135   7.710   3.676  1.00 20.00     0.122 C 
ENDROOT
BRANCH   4   6
HETATM    6  C9  UNL     1     -33.958   5.902   3.742  1.00 20.00     0.010 C 
HETATM    7  C8  UNL     1     -33.062   5.073   2.818  1.00 20.00     0.014 C 
BRANCH   6   8
HETATM    8  C2  UNL     1     -34.706   4.993   4.686  1.00 20.00    -0.032 C 
HETATM    9  C1  UNL     1     -34.517   4.968   6.011  1.00 20.00     0.007 C 
ENDBRANCH   6   8
ENDBRANCH   4   6
BRANCH   5  10
HETATM   10  O10 UNL     1     -32.747   8.208   2.492  1.00 20.00    -0.395 OA
HETATM   11  H26 UNL     1     -33.706   8.161   2.633  1.00 20.00     0.210 HD
ENDBRANCH   5  10
TORSDOF 3
ENDMDL
MODEL 5
REMARK VINA RESULT:      -4.2     11.996     12.727
REMARK  3 active torsions:
REMARK  status: ('A' for Active; 'I' for Inactive)
REMARK    1  A    between atoms: C2_2  and  C9_9 
REMARK    2  A    between atoms: C6_6  and  C9_9 
REMARK    3  A    between atoms: C7_7  and  O10_10 
ROOT
HETATM    1  C3  UNL     1     -31.025  18.542   1.079  1.00 20.00     0.003 C 
HETATM    2  C4  UNL     1     -31.415  18.281  -0.377  1.00 20.00     0.008 C 
HETATM    3  C5  UNL     1     -32.211  19.263   1.725  1.00 20.00     0.032 C 
HETATM    4  C6  UNL     1     -32.691  19.095  -0.605  1.00 20.00     0.022 C 
HETATM    5  C7  UNL     1     -33.375  19.057   0.762  1.00 20.00     0.122 C 
ENDROOT
BRANCH   4   6
HETATM    6  C9  UNL     1     -33.532  18.559  -1.752  1.00 20.00     0.010 C 
HETATM    7  C8  UNL     1     -33.173  19.263  -3.064  1.00 20.00     0.014 C 
BRANCH   6   8
HETATM    8  C2  UNL     1     -33.342  17.070  -1.898  1.00 20.00    -0.032 C 
HETATM    9  C1  UNL     1     -33.355  16.423  -3.070  1.00 20.00     0.007 C 
ENDBRANCH   6   8
ENDBRANCH   4   6
BRANCH   5  10
HETATM   10  O10 UNL     1     -33.973  17.787   0.996  1.00 20.00    -0.395 OA
HETATM   11  H26 UNL     1     -33.363  17.122   0.640  1.00 20.00     0.210 HD
ENDBRANCH   5  10
TORSDOF 3
ENDMDL
MODEL 6
REMARK VINA RESULT:      -4.1     12.368     13.372
REMARK  3 active torsions:
REMARK  status: ('A' for Active; 'I' for Inactive)
REMARK    1  A    between atoms: C2_2  and  C9_9 
REMARK    2  A    between atoms: C6_6  and  C9_9 
REMARK    3  A    between atoms: C7_7  and  O10_10 
ROOT
HETATM    1  C3  UNL     1     -33.688  15.777  -3.956  1.00 20.00     0.003 C 
HETATM    2  C4  UNL     1     -33.259  16.423  -2.637  1.00 20.00     0.008 C 
HETATM    3  C5  UNL     1     -34.470  16.843  -4.728  1.00 20.00     0.032 C 
HETATM    4  C6  UNL     1     -34.031  17.742  -2.563  1.00 20.00     0.022 C 
HETATM    5  C7  UNL     1     -34.146  18.159  -4.030  1.00 20.00     0.122 C 
ENDROOT
BRANCH   4   6
HETATM    6  C9  UNL     1     -33.361  18.766  -1.662  1.00 20.00     0.010 C 
HETATM    7  C8  UNL     1     -34.305  19.201  -0.538  1.00 20.00     0.014 C 
BRANCH   6   8
HETATM    8  C2  UNL     1     -32.088  18.204  -1.076  1.00 20.00    -0.032 C 
HETATM    9  C1  UNL     1     -31.350  18.826  -0.149  1.00 20.00     0.007 C 
ENDBRANCH   6   8
ENDBRANCH   4   6
BRANCH   5  10
HETATM   10  O10 UNL     1     -32.907  18.666  -4.513  1.00 20.00    -0.395 OA
HETATM   11  H26 UNL     1     -32.430  17.915  -4.900  1.00 20.00     0.210 HD
ENDBRANCH   5  10
TORSDOF 3
ENDMDL
MODEL 7
REMARK VINA RESULT:      -4.0      1.781      2.689
REMARK  3 active torsions:
REMARK  status: ('A' for Active; 'I' for Inactive)
REMARK    1  A    between atoms: C2_2  and  C9_9 
REMARK    2  A    between atoms: C6_6  and  C9_9 
REMARK    3  A    between atoms: C7_7  and  O10_10 
ROOT
HETATM    1  C3  UNL     1     -33.266   4.765   2.685  1.00 20.00     0.003 C 
HETATM    2  C4  UNL     1     -33.301   6.232   3.116  1.00 20.00     0.008 C 
HETATM    3  C5  UNL     1     -33.700   3.943   3.903  1.00 20.00     0.032 C 
HETATM    4  C6  UNL     1     -33.485   6.203   4.635  1.00 20.00     0.022 C 
HETATM    5  C7  UNL     1     -34.333   4.949   4.857  1.00 20.00     0.122 C 
ENDROOT
BRANCH   4   6
HETATM    6  C9  UNL     1     -34.093   7.486   5.178  1.00 20.00     0.010 C 
HETATM    7  C8  UNL     1     -34.036   7.509   6.708  1.00 20.00     0.014 C 
BRANCH   6   8
HETATM    8  C2  UNL     1     -33.377   8.690   4.617  1.00 20.00    -0.032 C 
HETATM    9  C1  UNL     1     -32.111   9.012   4.909  1.00 20.00     0.007 C 
ENDBRANCH   6   8
ENDBRANCH   4   6
BRANCH   5  10
HETATM   10  O10 UNL     1     -35.687   5.178   4.484  1.00 20.00    -0.395 OA
HETATM   11  H26 UNL     1     -35.714   5.171   3.515  1.00 20.00     0.210 HD
ENDBRANCH   5  10
TORSDOF 3
ENDMDL
MODEL 8
REMARK VINA RESULT:      -4.0      1.445      3.193
REMARK  3 active torsions:
REMARK  status: ('A' for Active; 'I' for Inactive)
REMARK    1  A    between atoms: C2_2  and  C9_9 
REMARK    2  A    between atoms: C6_6  and  C9_9 
REMARK    3  A    between atoms: C7_7  and  O10_10 
ROOT
HETATM    1  C3  UNL     1     -32.300   9.008   4.642  1.00 20.00     0.003 C 
HETATM    2  C4  UNL     1     -32.451   7.667   3.923  1.00 20.00     0.008 C 
HETATM    3  C5  UNL     1     -33.384   9.047   5.723  1.00 20.00     0.032 C 
HETATM    4  C6  UNL     1     -33.779   7.090   4.418  1.00 20.00     0.022 C 
HETATM    5  C7  UNL     1     -33.866   7.607   5.855  1.00 20.00     0.122 C 
ENDROOT
BRANCH   4   6
HETATM    6  C9  UNL     1     -33.850   5.578   4.281  1.00 20.00     0.010 C 
HETATM    7  C8  UNL     1     -35.158   5.040   4.868  1.00 20.00     0.014 C 
BRANCH   6   8
HETATM    8  C2  UNL     1     -33.729   5.171   2.833  1.00 20.00    -0.032 C 
HETATM    9  C1  UNL     1     -32.663   4.550   2.315  1.00 20.00     0.007 C 
ENDBRANCH   6   8
ENDBRANCH   4   6
BRANCH   5  10
HETATM   10  O10 UNL     1     -32.989   6.883   6.710  1.00 20.00    -0.395 OA
HETATM   11  H26 UNL     1     -32.105   6.936   6.312  1.00 20.00     0.210 HD
ENDBRANCH   5  10
TORSDOF 3
ENDMDL
MODEL 9
REMARK VINA RESULT:      -4.0     12.250     13.074
REMARK  3 active torsions:
REMARK  status: ('A' for Active; 'I' for Inactive)
REMARK    1  A    between atoms: C2_2  and  C9_9 
REMARK    2  A    between atoms: C6_6  and  C9_9 
REMARK    3  A    between atoms: C7_7  and  O10_10 
ROOT
HETATM    1  C3  UNL     1     -34.295  19.081  -0.017  1.00 20.00     0.003 C 
HETATM    2  C4  UNL     1     -34.628  18.524  -1.402  1.00 20.00     0.008 C 
HETATM    3  C5  UNL     1     -32.884  18.592   0.321  1.00 20.00     0.032 C 
HETATM    4  C6  UNL     1     -33.523  17.511  -1.706  1.00 20.00     0.022 C 
HETATM    5  C7  UNL     1     -32.303  18.107  -1.003  1.00 20.00     0.122 C 
ENDROOT
BRANCH   4   6
HETATM    6  C9  UNL     1     -33.342  17.268  -3.196  1.00 20.00     0.010 C 
HETATM    7  C8  UNL     1     -33.379  15.770  -3.512  1.00 20.00     0.014 C 
BRANCH   6   8
HETATM    8  C2  UNL     1     -34.411  17.987  -3.983  1.00 20.00    -0.032 C 
HETATM    9  C1  UNL     1     -35.127  17.423  -4.963  1.00 20.00     0.007 C 
ENDBRANCH   6   8
ENDBRANCH   4   6
BRANCH   5  10
HETATM   10  O10 UNL     1     -31.784  19.212  -1.734  1.00 20.00    -0.395 OA
HETATM   11  H26 UNL     1     -32.381  19.960  -1.570  1.00 20.00     0.210 HD
ENDBRANCH   5  10
TORSDOF 3
ENDMDL
