MODEL 1
REMARK VINA RESULT:      -3.6      0.000      0.000
REMARK  1 active torsions:
REMARK  status: ('A' for Active; 'I' for Inactive)
REMARK    1  A    between atoms: C1_1  and  C6_6 
ROOT
HETATM    1  C2  UNL     1     -32.937  17.018  -2.258  1.00 20.00     0.021 C 
HETATM    2  C3  UNL     1     -34.224  18.709  -0.769  1.00 20.00     0.027 A 
HETATM    3  C4  UNL     1     -33.852  16.436  -3.319  1.00 20.00     0.075 C 
HETATM    4  C5  UNL     1     -33.776  19.127  -3.293  1.00 20.00     0.084 C 
HETATM    5  C6  UNL     1     -32.827  19.263  -0.879  1.00 20.00     0.097 A 
HETATM    6  C7  UNL     1     -33.409  18.429  -2.009  1.00 20.00    -0.017 A 
HETATM    7  S10 UNL     1     -34.094  17.794  -4.491  1.00 20.00    -0.168 SA
ENDROOT
BRANCH   5   8
HETATM    8  C1  UNL     1     -31.803  18.682  -0.031  1.00 20.00     0.177 C 
HETATM    9  O8  UNL     1     -30.631  18.720  -0.498  1.00 20.00    -0.648 OA
HETATM   10  O9  UNL     1     -32.225  18.216   1.065  1.00 20.00    -0.648 OA
ENDBRANCH   5   8
TORSDOF 1
ENDMDL
MODEL 2
REMARK VINA RESULT:      -3.6      0.014      1.023
REMARK  1 active torsions:
REMARK  status: ('A' for Active; 'I' for Inactive)
REMARK    1  A    between atoms: C1_1  and  C6_6 
ROOT
HETATM    1  C2  UNL     1     -32.938  17.018  -2.249  1.00 20.00     0.021 C 
HETATM    2  C3  UNL     1     -34.231  18.703  -0.758  1.00 20.00     0.027 A 
HETATM    3  C4  UNL     1     -33.851  16.432  -3.309  1.00 20.00     0.075 C 
HETATM    4  C5  UNL     1     -33.788  19.123  -3.282  1.00 20.00     0.084 C 
HETATM    5  C6  UNL     1     -32.837  19.263  -0.869  1.00 20.00     0.097 A 
HETATM    6  C7  UNL     1     -33.416  18.426  -1.999  1.00 20.00    -0.017 A 
HETATM    7  S10 UNL     1     -34.100  17.788  -4.480  1.00 20.00    -0.168 SA
ENDROOT
BRANCH   5   8
HETATM    8  C1  UNL     1     -31.810  18.687  -0.023  1.00 20.00     0.177 C 
HETATM    9  O8  UNL     1     -32.216  18.223   1.078  1.00 20.00    -0.648 OA
HETATM   10  O9  UNL     1     -30.643  18.728  -0.505  1.00 20.00    -0.648 OA
ENDBRANCH   5   8
TORSDOF 1
ENDMDL
MODEL 3
REMARK VINA RESULT:      -3.6     11.872     12.726
REMARK  1 active torsions:
REMARK  status: ('A' for Active; 'I' for Inactive)
REMARK    1  A    between atoms: C1_1  and  C6_6 
ROOT
HETATM    1  C2  UNL     1     -40.562  14.608   7.213  1.00 20.00     0.021 C 
HETATM    2  C3  UNL     1     -41.127  13.331   5.026  1.00 20.00     0.027 A 
HETATM    3  C4  UNL     1     -41.535  15.752   7.429  1.00 20.00     0.075 C 
HETATM    4  C5  UNL     1     -42.718  13.360   7.079  1.00 20.00     0.084 C 
HETATM    5  C6  UNL     1     -40.627  12.278   5.981  1.00 20.00     0.097 A 
HETATM    6  C7  UNL     1     -41.331  13.517   6.510  1.00 20.00    -0.017 A 
HETATM    7  S10 UNL     1     -43.078  14.940   7.909  1.00 20.00    -0.168 SA
ENDROOT
BRANCH   5   8
HETATM    8  C1  UNL     1     -39.194  12.154   6.157  1.00 20.00     0.177 C 
HETATM    9  O8  UNL     1     -38.816  11.866   7.326  1.00 20.00    -0.648 OA
HETATM   10  O9  UNL     1     -38.513  12.351   5.111  1.00 20.00    -0.648 OA
ENDBRANCH   5   8
TORSDOF 1
ENDMDL
MODEL 4
REMARK VINA RESULT:      -3.4      3.021      3.932
REMARK  1 active torsions:
REMARK  status: ('A' for Active; 'I' for Inactive)
REMARK    1  A    between atoms: C1_1  and  C6_6 
ROOT
HETATM    1  C2  UNL     1     -31.682  18.348  -0.816  1.00 20.00     0.021 C 
HETATM    2  C3  UNL     1     -33.963  19.260  -1.649  1.00 20.00     0.027 A 
HETATM    3  C4  UNL     1     -31.158  19.188   0.334  1.00 20.00     0.075 C 
HETATM    4  C5  UNL     1     -33.647  18.235   0.716  1.00 20.00     0.084 C 
HETATM    5  C6  UNL     1     -34.055  17.765  -1.805  1.00 20.00     0.097 A 
HETATM    6  C7  UNL     1     -33.186  18.366  -0.713  1.00 20.00    -0.017 A 
HETATM    7  S10 UNL     1     -32.222  18.744   1.729  1.00 20.00    -0.168 SA
ENDROOT
BRANCH   5   8
HETATM    8  C1  UNL     1     -33.417  17.168  -2.962  1.00 20.00     0.177 C 
HETATM    9  O8  UNL     1     -33.051  17.981  -3.856  1.00 20.00    -0.648 OA
HETATM   10  O9  UNL     1     -33.312  15.910  -2.919  1.00 20.00    -0.648 OA
ENDBRANCH   5   8
TORSDOF 1
ENDMDL
MODEL 5
REMARK VINA RESULT:      -3.4     24.153     24.928
REMARK  1 active torsions:
REMARK  status: ('A' for Active; 'I' for Inactive)
REMARK    1  A    between atoms: C1_1  and  C6_6 
ROOT
HETATM    1  C2  UNL     1     -25.328  -1.489  11.756  1.00 20.00     0.021 C 
HETATM    2  C3  UNL     1     -27.167  -3.217  11.154  1.00 20.00     0.027 A 
HETATM    3  C4  UNL     1     -24.109  -2.184  12.332  1.00 20.00     0.075 C 
HETATM    4  C5  UNL     1     -24.878  -3.128   9.931  1.00 20.00     0.084 C 
HETATM    5  C6  UNL     1     -27.275  -2.143  10.102  1.00 20.00     0.097 A 
HETATM    6  C7  UNL     1     -25.935  -2.440  10.756  1.00 20.00    -0.017 A 
HETATM    7  S10 UNL     1     -23.347  -2.998  10.907  1.00 20.00    -0.168 SA
ENDROOT
BRANCH   5   8
HETATM    8  C1  UNL     1     -27.974  -0.923  10.455  1.00 20.00     0.177 C 
HETATM    9  O8  UNL     1     -27.649   0.097   9.787  1.00 20.00    -0.648 OA
HETATM   10  O9  UNL     1     -28.817  -1.046  11.387  1.00 20.00    -0.648 OA
ENDBRANCH   5   8
TORSDOF 1
ENDMDL
MODEL 6
REMARK VINA RESULT:      -3.3      4.710      5.836
REMARK  1 active torsions:
REMARK  status: ('A' for Active; 'I' for Inactive)
REMARK    1  A    between atoms: C1_1  and  C6_6 
ROOT
HETATM    1  C2  UNL     1     -34.102  15.501  -4.113  1.00 20.00     0.021 C 
HETATM    2  C3  UNL     1     -34.591  16.710  -6.356  1.00 20.00     0.027 A 
HETATM    3  C4  UNL     1     -32.889  16.106  -3.433  1.00 20.00     0.075 C 
HETATM    4  C5  UNL     1     -34.803  17.894  -4.054  1.00 20.00     0.084 C 
HETATM    5  C6  UNL     1     -35.943  16.346  -5.801  1.00 20.00     0.097 A 
HETATM    6  C7  UNL     1     -34.780  16.621  -4.861  1.00 20.00    -0.017 A 
HETATM    7  S10 UNL     1     -33.472  17.708  -2.826  1.00 20.00    -0.168 SA
ENDROOT
BRANCH   5   8
HETATM    8  C1  UNL     1     -36.398  14.980  -5.976  1.00 20.00     0.177 C 
HETATM    9  O8  UNL     1     -35.889  14.363  -6.952  1.00 20.00    -0.648 OA
HETATM   10  O9  UNL     1     -37.244  14.591  -5.123  1.00 20.00    -0.648 OA
ENDBRANCH   5   8
TORSDOF 1
ENDMDL
MODEL 7
REMARK VINA RESULT:      -3.3      4.728      5.941
REMARK  1 active torsions:
REMARK  status: ('A' for Active; 'I' for Inactive)
REMARK    1  A    between atoms: C1_1  and  C6_6 
ROOT
HETATM    1  C2  UNL     1     -34.104  15.484  -4.137  1.00 20.00     0.021 C 
HETATM    2  C3  UNL     1     -34.562  16.653  -6.408  1.00 20.00     0.027 A 
HETATM    3  C4  UNL     1     -32.877  16.077  -3.470  1.00 20.00     0.075 C 
HETATM    4  C5  UNL     1     -34.748  17.894  -4.135  1.00 20.00     0.084 C 
HETATM    5  C6  UNL     1     -35.923  16.333  -5.847  1.00 20.00     0.097 A 
HETATM    6  C7  UNL     1     -34.755  16.603  -4.912  1.00 20.00    -0.017 A 
HETATM    7  S10 UNL     1     -33.423  17.705  -2.901  1.00 20.00    -0.168 SA
ENDROOT
BRANCH   5   8
HETATM    8  C1  UNL     1     -36.410  14.975  -5.991  1.00 20.00     0.177 C 
HETATM    9  O8  UNL     1     -37.264  14.615  -5.135  1.00 20.00    -0.648 OA
HETATM   10  O9  UNL     1     -35.911  14.334  -6.958  1.00 20.00    -0.648 OA
ENDBRANCH   5   8
TORSDOF 1
ENDMDL
MODEL 8
REMARK VINA RESULT:      -3.3      4.696      5.978
REMARK  1 active torsions:
REMARK  status: ('A' for Active; 'I' for Inactive)
REMARK    1  A    between atoms: C1_1  and  C6_6 
ROOT
HETATM    1  C2  UNL     1     -34.900  17.161  -4.832  1.00 20.00     0.021 C 
HETATM    2  C3  UNL     1     -35.034  14.578  -4.626  1.00 20.00     0.027 A 
HETATM    3  C4  UNL     1     -34.990  17.811  -3.465  1.00 20.00     0.075 C 
HETATM    4  C5  UNL     1     -33.051  15.955  -3.671  1.00 20.00     0.084 C 
HETATM    5  C6  UNL     1     -34.089  14.834  -5.771  1.00 20.00     0.097 A 
HETATM    6  C7  UNL     1     -34.203  15.838  -4.635  1.00 20.00    -0.017 A 
HETATM    7  S10 UNL     1     -33.390  17.456  -2.697  1.00 20.00    -0.168 SA
ENDROOT
BRANCH   5   8
HETATM    8  C1  UNL     1     -34.666  15.162  -7.060  1.00 20.00     0.177 C 
HETATM    9  O8  UNL     1     -33.937  15.864  -7.814  1.00 20.00    -0.648 OA
HETATM   10  O9  UNL     1     -35.825  14.699  -7.255  1.00 20.00    -0.648 OA
ENDBRANCH   5   8
TORSDOF 1
ENDMDL
MODEL 9
REMARK VINA RESULT:      -3.2      3.190      4.179
REMARK  1 active torsions:
REMARK  status: ('A' for Active; 'I' for Inactive)
REMARK    1  A    between atoms: C1_1  and  C6_6 
ROOT
HETATM    1  C2  UNL     1     -33.437  16.935  -1.774  1.00 20.00     0.021 C 
HETATM    2  C3  UNL     1     -33.210  17.548  -4.285  1.00 20.00     0.027 A 
HETATM    3  C4  UNL     1     -33.363  18.180  -0.911  1.00 20.00     0.075 C 
HETATM    4  C5  UNL     1     -35.236  18.294  -2.841  1.00 20.00     0.084 C 
HETATM    5  C6  UNL     1     -34.170  16.388  -4.247  1.00 20.00     0.097 A 
HETATM    6  C7  UNL     1     -34.086  17.348  -3.071  1.00 20.00    -0.017 A 
HETATM    7  S10 UNL     1     -34.944  19.012  -1.194  1.00 20.00    -0.168 SA
ENDROOT
BRANCH   5   8
HETATM    8  C1  UNL     1     -33.613  15.057  -4.110  1.00 20.00     0.177 C 
HETATM    9  O8  UNL     1     -32.356  14.986  -4.199  1.00 20.00    -0.648 OA
HETATM   10  O9  UNL     1     -34.464  14.144  -3.917  1.00 20.00    -0.648 OA
ENDBRANCH   5   8
TORSDOF 1
ENDMDL
