MODEL 1
REMARK VINA RESULT:      -4.3      0.000      0.000
REMARK  3 active torsions:
REMARK  status: ('A' for Active; 'I' for Inactive)
REMARK    1  A    between atoms: C2_2  and  C8_8 
REMARK    2  A    between atoms: C5_5  and  N9_9 
REMARK    3  A    between atoms: C8_8  and  N9_9 
ROOT
HETATM    1  C1  UNL     1     -32.490   8.804   2.143  1.00 20.00    -0.109 C 
HETATM    2  C2  UNL     1     -32.490   8.799   3.344  1.00 20.00    -0.077 C 
HETATM    3  C6  UNL     1     -32.488   8.809   0.681  1.00 20.00     0.112 C 
ENDROOT
BRANCH   2   4
HETATM    4  C8  UNL     1     -32.484   8.797   4.810  1.00 20.00     0.363 C 
BRANCH   4   5
HETATM    5  N9  UNL     1     -32.841   7.488   5.328  1.00 20.00     0.099 N 
HETATM    6  H22 UNL     1     -33.017   7.551   6.327  1.00 20.00     0.317 HD
BRANCH   5   7
HETATM    7  C5  UNL     1     -34.050   6.984   4.669  1.00 20.00     0.225 A 
HETATM    8  C3  UNL     1     -34.059   5.619   4.030  1.00 20.00     0.042 A 
HETATM    9  C4  UNL     1     -34.889   5.876   5.259  1.00 20.00     0.016 A 
HETATM   10  C7  UNL     1     -34.544   5.212   6.548  1.00 20.00     0.012 C 
ENDBRANCH   5   7
ENDBRANCH   4   5
ENDBRANCH   2   4
TORSDOF 3
ENDMDL
MODEL 2
REMARK VINA RESULT:      -4.1      0.764      1.380
REMARK  3 active torsions:
REMARK  status: ('A' for Active; 'I' for Inactive)
REMARK    1  A    between atoms: C2_2  and  C8_8 
REMARK    2  A    between atoms: C5_5  and  N9_9 
REMARK    3  A    between atoms: C8_8  and  N9_9 
ROOT
HETATM    1  C1  UNL     1     -32.507   8.767   2.131  1.00 20.00    -0.109 C 
HETATM    2  C2  UNL     1     -32.472   8.697   3.329  1.00 20.00    -0.077 C 
HETATM    3  C6  UNL     1     -32.549   8.853   0.672  1.00 20.00     0.112 C 
ENDROOT
BRANCH   2   4
HETATM    4  C8  UNL     1     -32.434   8.618   4.793  1.00 20.00     0.363 C 
BRANCH   4   5
HETATM    5  N9  UNL     1     -33.698   8.134   5.319  1.00 20.00     0.099 N 
HETATM    6  H22 UNL     1     -34.416   8.201   4.603  1.00 20.00     0.317 HD
BRANCH   5   7
HETATM    7  C5  UNL     1     -33.581   6.732   5.735  1.00 20.00     0.225 A 
HETATM    8  C3  UNL     1     -34.615   6.117   6.642  1.00 20.00     0.042 A 
HETATM    9  C4  UNL     1     -34.501   5.656   5.214  1.00 20.00     0.016 A 
HETATM   10  C7  UNL     1     -35.597   5.942   4.245  1.00 20.00     0.012 C 
ENDBRANCH   5   7
ENDBRANCH   4   5
ENDBRANCH   2   4
TORSDOF 3
ENDMDL
MODEL 3
REMARK VINA RESULT:      -4.0      1.126      1.437
REMARK  3 active torsions:
REMARK  status: ('A' for Active; 'I' for Inactive)
REMARK    1  A    between atoms: C2_2  and  C8_8 
REMARK    2  A    between atoms: C5_5  and  N9_9 
REMARK    3  A    between atoms: C8_8  and  N9_9 
ROOT
HETATM    1  C1  UNL     1     -32.454   8.102   2.917  1.00 20.00    -0.109 C 
HETATM    2  C2  UNL     1     -32.829   8.143   4.057  1.00 20.00    -0.077 C 
HETATM    3  C6  UNL     1     -31.995   8.051   1.530  1.00 20.00     0.112 C 
ENDROOT
BRANCH   2   4
HETATM    4  C8  UNL     1     -33.283   8.198   5.450  1.00 20.00     0.363 C 
BRANCH   4   5
HETATM    5  N9  UNL     1     -33.180   6.893   6.081  1.00 20.00     0.099 N 
HETATM    6  H22 UNL     1     -32.878   7.002   7.045  1.00 20.00     0.317 HD
BRANCH   5   7
HETATM    7  C5  UNL     1     -34.478   6.211   6.070  1.00 20.00     0.225 A 
HETATM    8  C3  UNL     1     -35.358   6.265   4.847  1.00 20.00     0.042 A 
HETATM    9  C4  UNL     1     -34.727   4.962   5.260  1.00 20.00     0.016 A 
HETATM   10  C7  UNL     1     -33.673   4.338   4.409  1.00 20.00     0.012 C 
ENDBRANCH   5   7
ENDBRANCH   4   5
ENDBRANCH   2   4
TORSDOF 3
ENDMDL
MODEL 4
REMARK VINA RESULT:      -3.8     11.624     13.172
REMARK  3 active torsions:
REMARK  status: ('A' for Active; 'I' for Inactive)
REMARK    1  A    between atoms: C2_2  and  C8_8 
REMARK    2  A    between atoms: C5_5  and  N9_9 
REMARK    3  A    between atoms: C8_8  and  N9_9 
ROOT
HETATM    1  C1  UNL     1     -33.401  16.510  -2.616  1.00 20.00    -0.109 C 
HETATM    2  C2  UNL     1     -33.522  15.675  -3.470  1.00 20.00    -0.077 C 
HETATM    3  C6  UNL     1     -33.253  17.525  -1.573  1.00 20.00     0.112 C 
ENDROOT
BRANCH   2   4
HETATM    4  C8  UNL     1     -33.677  14.655  -4.512  1.00 20.00     0.363 C 
BRANCH   4   5
HETATM    5  N9  UNL     1     -33.144  15.123  -5.780  1.00 20.00     0.099 N 
HETATM    6  H22 UNL     1     -32.416  14.489  -6.100  1.00 20.00     0.317 HD
BRANCH   5   7
HETATM    7  C5  UNL     1     -34.201  15.175  -6.796  1.00 20.00     0.225 A 
HETATM    8  C3  UNL     1     -35.638  15.373  -6.392  1.00 20.00     0.042 A 
HETATM    9  C4  UNL     1     -34.917  16.454  -7.150  1.00 20.00     0.016 A 
HETATM   10  C7  UNL     1     -34.607  17.754  -6.488  1.00 20.00     0.012 C 
ENDBRANCH   5   7
ENDBRANCH   4   5
ENDBRANCH   2   4
TORSDOF 3
ENDMDL
MODEL 5
REMARK VINA RESULT:      -3.8      1.302      4.411
REMARK  3 active torsions:
REMARK  status: ('A' for Active; 'I' for Inactive)
REMARK    1  A    between atoms: C2_2  and  C8_8 
REMARK    2  A    between atoms: C5_5  and  N9_9 
REMARK    3  A    between atoms: C8_8  and  N9_9 
ROOT
HETATM    1  C1  UNL     1     -34.050   6.577   5.946  1.00 20.00    -0.109 C 
HETATM    2  C2  UNL     1     -33.436   7.552   5.611  1.00 20.00    -0.077 C 
HETATM    3  C6  UNL     1     -34.798   5.389   6.356  1.00 20.00     0.112 C 
ENDROOT
BRANCH   2   4
HETATM    4  C8  UNL     1     -32.680   8.740   5.202  1.00 20.00     0.363 C 
BRANCH   4   5
HETATM    5  N9  UNL     1     -32.757   8.935   3.765  1.00 20.00     0.099 N 
HETATM    6  H22 UNL     1     -32.384   9.850   3.522  1.00 20.00     0.317 HD
BRANCH   5   7
HETATM    7  C5  UNL     1     -31.979   7.910   3.062  1.00 20.00     0.225 A 
HETATM    8  C3  UNL     1     -32.675   6.802   2.316  1.00 20.00     0.042 A 
HETATM    9  C4  UNL     1     -31.902   7.845   1.556  1.00 20.00     0.016 A 
HETATM   10  C7  UNL     1     -32.618   8.815   0.677  1.00 20.00     0.012 C 
ENDBRANCH   5   7
ENDBRANCH   4   5
ENDBRANCH   2   4
TORSDOF 3
ENDMDL
MODEL 6
REMARK VINA RESULT:      -3.8     11.624     12.368
REMARK  3 active torsions:
REMARK  status: ('A' for Active; 'I' for Inactive)
REMARK    1  A    between atoms: C2_2  and  C8_8 
REMARK    2  A    between atoms: C5_5  and  N9_9 
REMARK    3  A    between atoms: C8_8  and  N9_9 
ROOT
HETATM    1  C1  UNL     1     -28.739  18.910   3.770  1.00 20.00    -0.109 C 
HETATM    2  C2  UNL     1     -29.932  18.970   3.657  1.00 20.00    -0.077 C 
HETATM    3  C6  UNL     1     -27.284  18.837   3.908  1.00 20.00     0.112 C 
ENDROOT
BRANCH   2   4
HETATM    4  C8  UNL     1     -31.390  19.047   3.513  1.00 20.00     0.363 C 
BRANCH   4   5
HETATM    5  N9  UNL     1     -31.833  18.324   2.334  1.00 20.00     0.099 N 
HETATM    6  H22 UNL     1     -32.819  18.093   2.425  1.00 20.00     0.317 HD
BRANCH   5   7
HETATM    7  C5  UNL     1     -31.651  19.140   1.129  1.00 20.00     0.225 A 
HETATM    8  C3  UNL     1     -31.114  18.523  -0.136  1.00 20.00     0.042 A 
HETATM    9  C4  UNL     1     -32.540  19.000  -0.082  1.00 20.00     0.016 A 
HETATM   10  C7  UNL     1     -33.661  18.018  -0.142  1.00 20.00     0.012 C 
ENDBRANCH   5   7
ENDBRANCH   4   5
ENDBRANCH   2   4
TORSDOF 3
ENDMDL
MODEL 7
REMARK VINA RESULT:      -3.8      1.624      2.419
REMARK  3 active torsions:
REMARK  status: ('A' for Active; 'I' for Inactive)
REMARK    1  A    between atoms: C2_2  and  C8_8 
REMARK    2  A    between atoms: C5_5  and  N9_9 
REMARK    3  A    between atoms: C8_8  and  N9_9 
ROOT
HETATM    1  C1  UNL     1     -32.659   5.773   2.563  1.00 20.00    -0.109 C 
HETATM    2  C2  UNL     1     -32.559   6.813   3.155  1.00 20.00    -0.077 C 
HETATM    3  C6  UNL     1     -32.782   4.506   1.843  1.00 20.00     0.112 C 
ENDROOT
BRANCH   2   4
HETATM    4  C8  UNL     1     -32.438   8.079   3.884  1.00 20.00     0.363 C 
BRANCH   4   5
HETATM    5  N9  UNL     1     -33.481   8.203   4.887  1.00 20.00     0.099 N 
HETATM    6  H22 UNL     1     -34.393   8.179   4.437  1.00 20.00     0.317 HD
BRANCH   5   7
HETATM    7  C5  UNL     1     -33.404   7.100   5.850  1.00 20.00     0.225 A 
HETATM    8  C3  UNL     1     -34.465   6.934   6.907  1.00 20.00     0.042 A 
HETATM    9  C4  UNL     1     -34.343   5.919   5.803  1.00 20.00     0.016 A 
HETATM   10  C7  UNL     1     -35.418   5.794   4.778  1.00 20.00     0.012 C 
ENDBRANCH   5   7
ENDBRANCH   4   5
ENDBRANCH   2   4
TORSDOF 3
ENDMDL
MODEL 8
REMARK VINA RESULT:      -3.7     11.610     12.603
REMARK  3 active torsions:
REMARK  status: ('A' for Active; 'I' for Inactive)
REMARK    1  A    between atoms: C2_2  and  C8_8 
REMARK    2  A    between atoms: C5_5  and  N9_9 
REMARK    3  A    between atoms: C8_8  and  N9_9 
ROOT
HETATM    1  C1  UNL     1     -33.640  17.463  -0.972  1.00 20.00    -0.109 C 
HETATM    2  C2  UNL     1     -33.472  16.907  -2.022  1.00 20.00    -0.077 C 
HETATM    3  C6  UNL     1     -33.842  18.142   0.308  1.00 20.00     0.112 C 
ENDROOT
BRANCH   2   4
HETATM    4  C8  UNL     1     -33.264  16.221  -3.301  1.00 20.00     0.363 C 
BRANCH   4   5
HETATM    5  N9  UNL     1     -34.502  16.148  -4.058  1.00 20.00     0.099 N 
HETATM    6  H22 UNL     1     -34.609  16.989  -4.620  1.00 20.00     0.317 HD
BRANCH   5   7
HETATM    7  C5  UNL     1     -34.494  14.985  -4.951  1.00 20.00     0.225 A 
HETATM    8  C3  UNL     1     -35.731  14.606  -5.721  1.00 20.00     0.042 A 
HETATM    9  C4  UNL     1     -34.521  15.120  -6.453  1.00 20.00     0.016 A 
HETATM   10  C7  UNL     1     -34.566  16.445  -7.136  1.00 20.00     0.012 C 
ENDBRANCH   5   7
ENDBRANCH   4   5
ENDBRANCH   2   4
TORSDOF 3
ENDMDL
MODEL 9
REMARK VINA RESULT:      -3.6      1.724      2.799
REMARK  3 active torsions:
REMARK  status: ('A' for Active; 'I' for Inactive)
REMARK    1  A    between atoms: C2_2  and  C8_8 
REMARK    2  A    between atoms: C5_5  and  N9_9 
REMARK    3  A    between atoms: C8_8  and  N9_9 
ROOT
HETATM    1  C1  UNL     1     -32.689   6.649   2.621  1.00 20.00    -0.109 C 
HETATM    2  C2  UNL     1     -33.271   5.797   3.235  1.00 20.00    -0.077 C 
HETATM    3  C6  UNL     1     -31.978   7.686   1.875  1.00 20.00     0.112 C 
ENDROOT
BRANCH   2   4
HETATM    4  C8  UNL     1     -33.986   4.762   3.989  1.00 20.00     0.363 C 
BRANCH   4   5
HETATM    5  N9  UNL     1     -35.166   5.312   4.633  1.00 20.00     0.099 N 
HETATM    6  H22 UNL     1     -35.952   4.679   4.507  1.00 20.00     0.317 HD
BRANCH   5   7
HETATM    7  C5  UNL     1     -34.934   5.490   6.070  1.00 20.00     0.225 A 
HETATM    8  C3  UNL     1     -33.532   5.477   6.624  1.00 20.00     0.042 A 
HETATM    9  C4  UNL     1     -34.332   6.751   6.640  1.00 20.00     0.016 A 
HETATM   10  C7  UNL     1     -33.925   7.901   5.782  1.00 20.00     0.012 C 
ENDBRANCH   5   7
ENDBRANCH   4   5
ENDBRANCH   2   4
TORSDOF 3
ENDMDL
