MODEL 1
REMARK VINA RESULT:      -4.3      0.000      0.000
REMARK  3 active torsions:
REMARK  status: ('A' for Active; 'I' for Inactive)
REMARK    1  A    between atoms: C4_4  and  N10_10 
REMARK    2  A    between atoms: C7_7  and  C8_8 
REMARK    3  A    between atoms: C7_7  and  N10_10 
ROOT
HETATM    1  C1  UNL     1     -32.324   8.312   1.532  1.00 20.00     0.065 C 
HETATM    2  C6  UNL     1     -32.707   6.136   2.633  1.00 20.00     0.027 C 
HETATM    3  C8  UNL     1     -32.011   7.493   2.719  1.00 20.00     0.116 C 
HETATM    4  N9  UNL     1     -32.569   8.956   0.597  1.00 20.00    -0.197 NA
ENDROOT
BRANCH   3   5
HETATM    5  C7  UNL     1     -32.349   8.236   4.018  1.00 20.00     0.288 C 
BRANCH   5   6
HETATM    6  N10 UNL     1     -33.620   7.805   4.576  1.00 20.00     0.089 N 
HETATM    7  H24 UNL     1     -34.201   8.617   4.770  1.00 20.00     0.316 HD
BRANCH   6   8
HETATM    8  C4  UNL     1     -33.412   7.067   5.825  1.00 20.00     0.224 A 
HETATM    9  C2  UNL     1     -34.509   6.981   6.854  1.00 20.00     0.042 A 
HETATM   10  C3  UNL     1     -34.087   5.747   6.104  1.00 20.00     0.016 A 
HETATM   11  C5  UNL     1     -35.019   5.105   5.134  1.00 20.00     0.012 C 
ENDBRANCH   6   8
ENDBRANCH   5   6
ENDBRANCH   3   5
TORSDOF 3
ENDMDL
MODEL 2
REMARK VINA RESULT:      -4.3      1.597      2.456
REMARK  3 active torsions:
REMARK  status: ('A' for Active; 'I' for Inactive)
REMARK    1  A    between atoms: C4_4  and  N10_10 
REMARK    2  A    between atoms: C7_7  and  C8_8 
REMARK    3  A    between atoms: C7_7  and  N10_10 
ROOT
HETATM    1  C1  UNL     1     -32.246   8.175   4.066  1.00 20.00     0.065 C 
HETATM    2  C6  UNL     1     -32.170   7.908   1.613  1.00 20.00     0.027 C 
HETATM    3  C8  UNL     1     -32.081   7.205   2.967  1.00 20.00     0.116 C 
HETATM    4  N9  UNL     1     -32.374   8.939   4.931  1.00 20.00    -0.197 NA
ENDROOT
BRANCH   3   5
HETATM    5  C7  UNL     1     -33.082   6.047   3.085  1.00 20.00     0.288 C 
BRANCH   5   6
HETATM    6  N10 UNL     1     -34.329   6.467   3.702  1.00 20.00     0.089 N 
HETATM    7  H24 UNL     1     -34.169   7.301   4.260  1.00 20.00     0.316 HD
BRANCH   6   8
HETATM    8  C4  UNL     1     -34.854   5.411   4.573  1.00 20.00     0.224 A 
HETATM    9  C2  UNL     1     -33.919   4.566   5.398  1.00 20.00     0.042 A 
HETATM   10  C3  UNL     1     -34.853   5.531   6.077  1.00 20.00     0.016 A 
HETATM   11  C5  UNL     1     -34.311   6.726   6.783  1.00 20.00     0.012 C 
ENDBRANCH   6   8
ENDBRANCH   5   6
ENDBRANCH   3   5
TORSDOF 3
ENDMDL
MODEL 3
REMARK VINA RESULT:      -4.1      2.089      4.023
REMARK  3 active torsions:
REMARK  status: ('A' for Active; 'I' for Inactive)
REMARK    1  A    between atoms: C4_4  and  N10_10 
REMARK    2  A    between atoms: C7_7  and  C8_8 
REMARK    3  A    between atoms: C7_7  and  N10_10 
ROOT
HETATM    1  C1  UNL     1     -34.178   4.641   4.662  1.00 20.00     0.065 C 
HETATM    2  C6  UNL     1     -35.937   6.323   4.246  1.00 20.00     0.027 C 
HETATM    3  C8  UNL     1     -35.158   5.540   5.302  1.00 20.00     0.116 C 
HETATM    4  N9  UNL     1     -33.409   3.932   4.159  1.00 20.00    -0.197 NA
ENDROOT
BRANCH   3   5
HETATM    5  C7  UNL     1     -34.488   6.462   6.329  1.00 20.00     0.288 C 
BRANCH   5   6
HETATM    6  N10 UNL     1     -33.186   6.924   5.877  1.00 20.00     0.089 N 
HETATM    7  H24 UNL     1     -32.574   7.057   6.678  1.00 20.00     0.316 HD
BRANCH   6   8
HETATM    8  C4  UNL     1     -33.310   8.198   5.162  1.00 20.00     0.224 A 
HETATM    9  C2  UNL     1     -32.092   9.042   4.890  1.00 20.00     0.042 A 
HETATM   10  C3  UNL     1     -32.816   8.381   3.749  1.00 20.00     0.016 A 
HETATM   11  C5  UNL     1     -32.160   7.284   2.982  1.00 20.00     0.012 C 
ENDBRANCH   6   8
ENDBRANCH   5   6
ENDBRANCH   3   5
TORSDOF 3
ENDMDL
MODEL 4
REMARK VINA RESULT:      -4.1     11.241     12.470
REMARK  3 active torsions:
REMARK  status: ('A' for Active; 'I' for Inactive)
REMARK    1  A    between atoms: C4_4  and  N10_10 
REMARK    2  A    between atoms: C7_7  and  C8_8 
REMARK    3  A    between atoms: C7_7  and  N10_10 
ROOT
HETATM    1  C1  UNL     1     -31.668  18.576  -0.723  1.00 20.00     0.065 C 
HETATM    2  C6  UNL     1     -33.958  17.787  -0.243  1.00 20.00     0.027 C 
HETATM    3  C8  UNL     1     -33.046  18.497  -1.243  1.00 20.00     0.116 C 
HETATM    4  N9  UNL     1     -30.584  18.639  -0.313  1.00 20.00    -0.197 NA
ENDROOT
BRANCH   3   5
HETATM    5  C7  UNL     1     -33.086  17.841  -2.630  1.00 20.00     0.288 C 
BRANCH   5   6
HETATM    6  N10 UNL     1     -33.725  16.536  -2.597  1.00 20.00     0.089 N 
HETATM    7  H24 UNL     1     -33.472  16.054  -1.738  1.00 20.00     0.316 HD
BRANCH   6   8
HETATM    8  C4  UNL     1     -33.296  15.722  -3.738  1.00 20.00     0.224 A 
HETATM    9  C2  UNL     1     -34.029  14.453  -4.089  1.00 20.00     0.042 A 
HETATM   10  C3  UNL     1     -34.095  15.638  -5.014  1.00 20.00     0.016 A 
HETATM   11  C5  UNL     1     -35.380  16.369  -5.203  1.00 20.00     0.012 C 
ENDBRANCH   6   8
ENDBRANCH   5   6
ENDBRANCH   3   5
TORSDOF 3
ENDMDL
MODEL 5
REMARK VINA RESULT:      -4.0      1.496      1.854
REMARK  3 active torsions:
REMARK  status: ('A' for Active; 'I' for Inactive)
REMARK    1  A    between atoms: C4_4  and  N10_10 
REMARK    2  A    between atoms: C7_7  and  C8_8 
REMARK    3  A    between atoms: C7_7  and  N10_10 
ROOT
HETATM    1  C1  UNL     1     -32.718   6.052   2.575  1.00 20.00     0.065 C 
HETATM    2  C6  UNL     1     -31.923   8.125   1.496  1.00 20.00     0.027 C 
HETATM    3  C8  UNL     1     -32.744   7.526   2.637  1.00 20.00     0.116 C 
HETATM    4  N9  UNL     1     -32.699   4.892   2.526  1.00 20.00    -0.197 NA
ENDROOT
BRANCH   3   5
HETATM    5  C7  UNL     1     -32.290   8.039   4.010  1.00 20.00     0.288 C 
BRANCH   5   6
HETATM    6  N10 UNL     1     -33.396   8.139   4.947  1.00 20.00     0.089 N 
HETATM    7  H24 UNL     1     -33.318   9.003   5.476  1.00 20.00     0.316 HD
BRANCH   6   8
HETATM    8  C4  UNL     1     -33.384   7.011   5.882  1.00 20.00     0.224 A 
HETATM    9  C2  UNL     1     -34.483   6.851   6.901  1.00 20.00     0.042 A 
HETATM   10  C3  UNL     1     -34.356   5.862   5.774  1.00 20.00     0.016 A 
HETATM   11  C5  UNL     1     -35.401   5.796   4.714  1.00 20.00     0.012 C 
ENDBRANCH   6   8
ENDBRANCH   5   6
ENDBRANCH   3   5
TORSDOF 3
ENDMDL
MODEL 6
REMARK VINA RESULT:      -3.9     11.579     13.153
REMARK  3 active torsions:
REMARK  status: ('A' for Active; 'I' for Inactive)
REMARK    1  A    between atoms: C4_4  and  N10_10 
REMARK    2  A    between atoms: C7_7  and  C8_8 
REMARK    3  A    between atoms: C7_7  and  N10_10 
ROOT
HETATM    1  C1  UNL     1     -36.600  15.849  -5.800  1.00 20.00     0.065 C 
HETATM    2  C6  UNL     1     -34.744  16.680  -7.200  1.00 20.00     0.027 C 
HETATM    3  C8  UNL     1     -35.945  17.058  -6.334  1.00 20.00     0.116 C 
HETATM    4  N9  UNL     1     -37.117  14.898  -5.381  1.00 20.00    -0.197 NA
ENDROOT
BRANCH   3   5
HETATM    5  C7  UNL     1     -35.565  18.033  -5.211  1.00 20.00     0.288 C 
BRANCH   5   6
HETATM    6  N10 UNL     1     -35.358  17.351  -3.945  1.00 20.00     0.089 N 
HETATM    7  H24 UNL     1     -35.844  17.850  -3.205  1.00 20.00     0.316 HD
BRANCH   6   8
HETATM    8  C4  UNL     1     -33.931  17.293  -3.616  1.00 20.00     0.224 A 
HETATM    9  C2  UNL     1     -33.470  16.676  -2.321  1.00 20.00     0.042 A 
HETATM   10  C3  UNL     1     -33.152  16.002  -3.628  1.00 20.00     0.016 A 
HETATM   11  C5  UNL     1     -33.778  14.693  -3.968  1.00 20.00     0.012 C 
ENDBRANCH   6   8
ENDBRANCH   5   6
ENDBRANCH   3   5
TORSDOF 3
ENDMDL
MODEL 7
REMARK VINA RESULT:      -3.9     11.477     12.651
REMARK  3 active torsions:
REMARK  status: ('A' for Active; 'I' for Inactive)
REMARK    1  A    between atoms: C4_4  and  N10_10 
REMARK    2  A    between atoms: C7_7  and  C8_8 
REMARK    3  A    between atoms: C7_7  and  N10_10 
ROOT
HETATM    1  C1  UNL     1     -35.274  14.905  -6.403  1.00 20.00     0.065 C 
HETATM    2  C6  UNL     1     -34.209  14.383  -4.237  1.00 20.00     0.027 C 
HETATM    3  C8  UNL     1     -34.312  15.381  -5.389  1.00 20.00     0.116 C 
HETATM    4  N9  UNL     1     -36.028  14.530  -7.201  1.00 20.00    -0.197 NA
ENDROOT
BRANCH   3   5
HETATM    5  C7  UNL     1     -34.663  16.794  -4.903  1.00 20.00     0.288 C 
BRANCH   5   6
HETATM    6  N10 UNL     1     -34.523  16.923  -3.462  1.00 20.00     0.089 N 
HETATM    7  H24 UNL     1     -35.194  17.603  -3.113  1.00 20.00     0.316 HD
BRANCH   6   8
HETATM    8  C4  UNL     1     -33.172  17.371  -3.112  1.00 20.00     0.224 A 
HETATM    9  C2  UNL     1     -32.907  18.820  -2.793  1.00 20.00     0.042 A 
HETATM   10  C3  UNL     1     -32.796  17.781  -1.710  1.00 20.00     0.016 A 
HETATM   11  C5  UNL     1     -33.772  17.766  -0.583  1.00 20.00     0.012 C 
ENDBRANCH   6   8
ENDBRANCH   5   6
ENDBRANCH   3   5
TORSDOF 3
ENDMDL
MODEL 8
REMARK VINA RESULT:      -3.9     11.594     12.978
REMARK  3 active torsions:
REMARK  status: ('A' for Active; 'I' for Inactive)
REMARK    1  A    between atoms: C4_4  and  N10_10 
REMARK    2  A    between atoms: C7_7  and  C8_8 
REMARK    3  A    between atoms: C7_7  and  N10_10 
ROOT
HETATM    1  C1  UNL     1     -35.745  14.053  -5.237  1.00 20.00     0.065 C 
HETATM    2  C6  UNL     1     -34.140  15.201  -6.721  1.00 20.00     0.027 C 
HETATM    3  C8  UNL     1     -35.605  15.053  -6.313  1.00 20.00     0.116 C 
HETATM    4  N9  UNL     1     -35.855  13.265  -4.392  1.00 20.00    -0.197 NA
ENDROOT
BRANCH   3   5
HETATM    5  C7  UNL     1     -36.233  16.396  -5.917  1.00 20.00     0.288 C 
BRANCH   5   6
HETATM    6  N10 UNL     1     -36.072  16.675  -4.499  1.00 20.00     0.089 N 
HETATM    7  H24 UNL     1     -36.962  16.966  -4.105  1.00 20.00     0.316 HD
BRANCH   6   8
HETATM    8  C4  UNL     1     -35.093  17.747  -4.292  1.00 20.00     0.224 A 
HETATM    9  C2  UNL     1     -34.831  18.285  -2.910  1.00 20.00     0.042 A 
HETATM   10  C3  UNL     1     -33.761  17.506  -3.626  1.00 20.00     0.016 A 
HETATM   11  C5  UNL     1     -33.349  16.164  -3.125  1.00 20.00     0.012 C 
ENDBRANCH   6   8
ENDBRANCH   5   6
ENDBRANCH   3   5
TORSDOF 3
ENDMDL
MODEL 9
REMARK VINA RESULT:      -3.8     15.180     16.168
REMARK  3 active torsions:
REMARK  status: ('A' for Active; 'I' for Inactive)
REMARK    1  A    between atoms: C4_4  and  N10_10 
REMARK    2  A    between atoms: C7_7  and  C8_8 
REMARK    3  A    between atoms: C7_7  and  N10_10 
ROOT
HETATM    1  C1  UNL     1     -23.499  18.983   8.153  1.00 20.00     0.065 C 
HETATM    2  C6  UNL     1     -21.905  17.130   8.496  1.00 20.00     0.027 C 
HETATM    3  C8  UNL     1     -22.155  18.629   8.649  1.00 20.00     0.116 C 
HETATM    4  N9  UNL     1     -24.555  19.263   7.761  1.00 20.00    -0.197 NA
ENDROOT
BRANCH   3   5
HETATM    5  C7  UNL     1     -21.945  19.107  10.092  1.00 20.00     0.288 C 
BRANCH   5   6
HETATM    6  N10 UNL     1     -21.920  18.000  11.033  1.00 20.00     0.089 N 
HETATM    7  H24 UNL     1     -22.126  17.132  10.545  1.00 20.00     0.316 HD
BRANCH   6   8
HETATM    8  C4  UNL     1     -22.920  18.196  12.087  1.00 20.00     0.224 A 
HETATM    9  C2  UNL     1     -24.301  18.691  11.747  1.00 20.00     0.042 A 
HETATM   10  C3  UNL     1     -24.111  17.285  12.248  1.00 20.00     0.016 A 
HETATM   11  C5  UNL     1     -24.361  16.127  11.344  1.00 20.00     0.012 C 
ENDBRANCH   6   8
ENDBRANCH   5   6
ENDBRANCH   3   5
TORSDOF 3
ENDMDL
