MODEL 1
REMARK VINA RESULT:      -3.8      0.000      0.000
REMARK  1 active torsions:
REMARK  status: ('A' for Active; 'I' for Inactive)
REMARK    1  A    between atoms: C8_8  and  N10_10 
ROOT
HETATM    1  C1  UNL     1     -36.808  16.243  -7.078  1.00 20.00     0.130 C 
HETATM    2  C2  UNL     1     -35.845  15.097  -6.875  1.00 20.00     0.108 C 
HETATM    3  C3  UNL     1     -36.613  17.449  -6.189  1.00 20.00     0.108 C 
HETATM    4  C5  UNL     1     -34.412  15.611  -6.758  1.00 20.00     0.280 C 
HETATM    5  C6  UNL     1     -35.135  17.827  -6.112  1.00 20.00     0.280 C 
HETATM    6  N10 UNL     1     -34.237  16.709  -5.798  1.00 20.00     0.094 N 
HETATM    7  O11 UNL     1     -37.767  16.153  -7.842  1.00 20.00    -0.298 OA
ENDROOT
BRANCH   6   8
HETATM    8  C8  UNL     1     -34.362  16.264  -4.413  1.00 20.00     0.227 A 
HETATM    9  C4  UNL     1     -33.586  15.070  -3.923  1.00 20.00     0.042 A 
HETATM   10  C7  UNL     1     -33.221  16.449  -3.447  1.00 20.00     0.017 A 
HETATM   11  C9  UNL     1     -33.488  16.851  -2.038  1.00 20.00     0.012 C 
ENDBRANCH   6   8
TORSDOF 1
ENDMDL
MODEL 2
REMARK VINA RESULT:      -3.8     12.277     13.756
REMARK  1 active torsions:
REMARK  status: ('A' for Active; 'I' for Inactive)
REMARK    1  A    between atoms: C8_8  and  N10_10 
ROOT
HETATM    1  C1  UNL     1     -41.887  15.953   6.670  1.00 20.00     0.130 C 
HETATM    2  C2  UNL     1     -40.779  15.481   7.582  1.00 20.00     0.108 C 
HETATM    3  C3  UNL     1     -42.230  15.051   5.508  1.00 20.00     0.108 C 
HETATM    4  C5  UNL     1     -40.951  14.001   7.917  1.00 20.00     0.280 C 
HETATM    5  C6  UNL     1     -42.319  13.596   5.964  1.00 20.00     0.280 C 
HETATM    6  N10 UNL     1     -41.169  13.135   6.751  1.00 20.00     0.094 N 
HETATM    7  O11 UNL     1     -42.401  17.063   6.799  1.00 20.00    -0.298 OA
ENDROOT
BRANCH   6   8
HETATM    8  C8  UNL     1     -39.965  12.977   5.941  1.00 20.00     0.227 A 
HETATM    9  C4  UNL     1     -38.811  12.151   6.445  1.00 20.00     0.042 A 
HETATM   10  C7  UNL     1     -39.647  11.651   5.299  1.00 20.00     0.017 A 
HETATM   11  C9  UNL     1     -39.079  11.601   3.923  1.00 20.00     0.012 C 
ENDBRANCH   6   8
TORSDOF 1
ENDMDL
MODEL 3
REMARK VINA RESULT:      -3.7      1.702      2.373
REMARK  1 active torsions:
REMARK  status: ('A' for Active; 'I' for Inactive)
REMARK    1  A    between atoms: C8_8  and  N10_10 
ROOT
HETATM    1  C1  UNL     1     -35.389  14.923  -5.618  1.00 20.00     0.130 C 
HETATM    2  C2  UNL     1     -34.499  14.455  -4.491  1.00 20.00     0.108 C 
HETATM    3  C3  UNL     1     -35.693  16.402  -5.664  1.00 20.00     0.108 C 
HETATM    4  C5  UNL     1     -33.298  15.385  -4.331  1.00 20.00     0.280 C 
HETATM    5  C6  UNL     1     -34.423  17.219  -5.436  1.00 20.00     0.280 C 
HETATM    6  N10 UNL     1     -33.640  16.812  -4.263  1.00 20.00     0.094 N 
HETATM    7  O11 UNL     1     -35.930  14.129  -6.386  1.00 20.00    -0.298 OA
ENDROOT
BRANCH   6   8
HETATM    8  C8  UNL     1     -34.290  17.170  -3.006  1.00 20.00     0.227 A 
HETATM    9  C4  UNL     1     -33.555  17.024  -1.699  1.00 20.00     0.042 A 
HETATM   10  C7  UNL     1     -33.853  18.394  -2.244  1.00 20.00     0.017 A 
HETATM   11  C9  UNL     1     -34.863  19.263  -1.576  1.00 20.00     0.012 C 
ENDBRANCH   6   8
TORSDOF 1
ENDMDL
MODEL 4
REMARK VINA RESULT:      -3.6     11.295     13.101
REMARK  1 active torsions:
REMARK  status: ('A' for Active; 'I' for Inactive)
REMARK    1  A    between atoms: C8_8  and  N10_10 
ROOT
HETATM    1  C1  UNL     1     -34.001   6.868   5.298  1.00 20.00     0.130 C 
HETATM    2  C2  UNL     1     -33.444   8.270   5.220  1.00 20.00     0.108 C 
HETATM    3  C3  UNL     1     -33.998   6.073   4.014  1.00 20.00     0.108 C 
HETATM    4  C5  UNL     1     -32.137   8.288   4.431  1.00 20.00     0.280 C 
HETATM    5  C6  UNL     1     -32.657   6.218   3.295  1.00 20.00     0.280 C 
HETATM    6  N10 UNL     1     -32.201   7.603   3.133  1.00 20.00     0.094 N 
HETATM    7  O11 UNL     1     -34.533   6.440   6.320  1.00 20.00    -0.298 OA
ENDROOT
BRANCH   6   8
HETATM    8  C8  UNL     1     -32.992   8.341   2.152  1.00 20.00     0.227 A 
HETATM    9  C4  UNL     1     -32.821   9.830   2.001  1.00 20.00     0.042 A 
HETATM   10  C7  UNL     1     -32.339   8.906   0.917  1.00 20.00     0.017 A 
HETATM   11  C9  UNL     1     -33.044   8.855  -0.394  1.00 20.00     0.012 C 
ENDBRANCH   6   8
TORSDOF 1
ENDMDL
MODEL 5
REMARK VINA RESULT:      -3.5     25.381     26.587
REMARK  1 active torsions:
REMARK  status: ('A' for Active; 'I' for Inactive)
REMARK    1  A    between atoms: C8_8  and  N10_10 
ROOT
HETATM    1  C1  UNL     1     -27.663  -1.054  11.557  1.00 20.00     0.130 C 
HETATM    2  C2  UNL     1     -26.352  -1.168  12.300  1.00 20.00     0.108 C 
HETATM    3  C3  UNL     1     -27.747  -1.772  10.231  1.00 20.00     0.108 C 
HETATM    4  C5  UNL     1     -25.851  -2.610  12.292  1.00 20.00     0.280 C 
HETATM    5  C6  UNL     1     -27.165  -3.180  10.343  1.00 20.00     0.280 C 
HETATM    6  N10 UNL     1     -25.837  -3.241  10.966  1.00 20.00     0.094 N 
HETATM    7  O11 UNL     1     -28.569  -0.325  11.954  1.00 20.00    -0.298 OA
ENDROOT
BRANCH   6   8
HETATM    8  C8  UNL     1     -24.790  -2.702  10.103  1.00 20.00     0.227 A 
HETATM    9  C4  UNL     1     -23.354  -2.703  10.557  1.00 20.00     0.042 A 
HETATM   10  C7  UNL     1     -23.792  -3.623   9.451  1.00 20.00     0.017 A 
HETATM   11  C9  UNL     1     -23.347  -3.377   8.050  1.00 20.00     0.012 C 
ENDBRANCH   6   8
TORSDOF 1
ENDMDL
MODEL 6
REMARK VINA RESULT:      -3.4     13.550     15.183
REMARK  1 active torsions:
REMARK  status: ('A' for Active; 'I' for Inactive)
REMARK    1  A    between atoms: C8_8  and  N10_10 
ROOT
HETATM    1  C1  UNL     1     -41.695  15.396   9.758  1.00 20.00     0.130 C 
HETATM    2  C2  UNL     1     -42.671  14.561   8.962  1.00 20.00     0.108 C 
HETATM    3  C3  UNL     1     -40.289  15.485   9.213  1.00 20.00     0.108 C 
HETATM    4  C5  UNL     1     -42.554  14.870   7.471  1.00 20.00     0.280 C 
HETATM    5  C6  UNL     1     -40.310  15.741   7.708  1.00 20.00     0.280 C 
HETATM    6  N10 UNL     1     -41.182  14.836   6.949  1.00 20.00     0.094 N 
HETATM    7  O11 UNL     1     -41.997  15.879  10.847  1.00 20.00    -0.298 OA
ENDROOT
BRANCH   6   8
HETATM    8  C8  UNL     1     -40.647  13.479   6.875  1.00 20.00     0.227 A 
HETATM    9  C4  UNL     1     -41.482  12.362   6.306  1.00 20.00     0.042 A 
HETATM   10  C7  UNL     1     -40.292  12.872   5.542  1.00 20.00     0.017 A 
HETATM   11  C9  UNL     1     -39.072  12.028   5.403  1.00 20.00     0.012 C 
ENDBRANCH   6   8
TORSDOF 1
ENDMDL
MODEL 7
REMARK VINA RESULT:      -3.1      3.061      4.934
REMARK  1 active torsions:
REMARK  status: ('A' for Active; 'I' for Inactive)
REMARK    1  A    between atoms: C8_8  and  N10_10 
ROOT
HETATM    1  C1  UNL     1     -33.881  18.532  -1.596  1.00 20.00     0.130 C 
HETATM    2  C2  UNL     1     -34.348  19.251  -2.841  1.00 20.00     0.108 C 
HETATM    3  C3  UNL     1     -33.731  17.033  -1.704  1.00 20.00     0.108 C 
HETATM    4  C5  UNL     1     -33.595  18.744  -4.070  1.00 20.00     0.280 C 
HETATM    5  C6  UNL     1     -33.014  16.655  -2.999  1.00 20.00     0.280 C 
HETATM    6  N10 UNL     1     -33.567  17.282  -4.205  1.00 20.00     0.094 N 
HETATM    7  O11 UNL     1     -33.743  19.119  -0.525  1.00 20.00    -0.298 OA
ENDROOT
BRANCH   6   8
HETATM    8  C8  UNL     1     -34.868  16.731  -4.574  1.00 20.00     0.227 A 
HETATM    9  C4  UNL     1     -35.517  17.119  -5.877  1.00 20.00     0.042 A 
HETATM   10  C7  UNL     1     -34.980  15.727  -5.692  1.00 20.00     0.017 A 
HETATM   11  C9  UNL     1     -35.915  14.573  -5.573  1.00 20.00     0.012 C 
ENDBRANCH   6   8
TORSDOF 1
ENDMDL
MODEL 8
REMARK VINA RESULT:      -3.1     25.351     26.624
REMARK  1 active torsions:
REMARK  status: ('A' for Active; 'I' for Inactive)
REMARK    1  A    between atoms: C8_8  and  N10_10 
ROOT
HETATM    1  C1  UNL     1     -25.105  -1.398  11.794  1.00 20.00     0.130 C 
HETATM    2  C2  UNL     1     -26.337  -0.603  12.158  1.00 20.00     0.108 C 
HETATM    3  C3  UNL     1     -25.341  -2.773  11.216  1.00 20.00     0.108 C 
HETATM    4  C5  UNL     1     -27.381  -0.686  11.046  1.00 20.00     0.280 C 
HETATM    5  C6  UNL     1     -26.442  -2.730  10.157  1.00 20.00     0.280 C 
HETATM    6  N10 UNL     1     -27.670  -2.050  10.586  1.00 20.00     0.094 N 
HETATM    7  O11 UNL     1     -23.975  -0.996  12.061  1.00 20.00    -0.298 OA
ENDROOT
BRANCH   6   8
HETATM    8  C8  UNL     1     -28.422  -2.823  11.570  1.00 20.00     0.227 A 
HETATM    9  C4  UNL     1     -29.659  -2.246  12.208  1.00 20.00     0.042 A 
HETATM   10  C7  UNL     1     -29.780  -3.378  11.226  1.00 20.00     0.017 A 
HETATM   11  C9  UNL     1     -30.176  -4.737  11.694  1.00 20.00     0.012 C 
ENDBRANCH   6   8
TORSDOF 1
ENDMDL
MODEL 9
REMARK VINA RESULT:      -2.9     12.320     13.249
REMARK  1 active torsions:
REMARK  status: ('A' for Active; 'I' for Inactive)
REMARK    1  A    between atoms: C8_8  and  N10_10 
ROOT
HETATM    1  C1  UNL     1     -42.782  16.808   4.493  1.00 20.00     0.130 C 
HETATM    2  C2  UNL     1     -42.371  16.622   5.935  1.00 20.00     0.108 C 
HETATM    3  C3  UNL     1     -42.608  15.611   3.587  1.00 20.00     0.108 C 
HETATM    4  C5  UNL     1     -42.895  15.295   6.479  1.00 20.00     0.280 C 
HETATM    5  C6  UNL     1     -43.120  14.343   4.267  1.00 20.00     0.280 C 
HETATM    6  N10 UNL     1     -42.609  14.134   5.626  1.00 20.00     0.094 N 
HETATM    7  O11 UNL     1     -43.128  17.903   4.056  1.00 20.00    -0.298 OA
ENDROOT
BRANCH   6   8
HETATM    8  C8  UNL     1     -41.196  13.766   5.641  1.00 20.00     0.227 A 
HETATM    9  C4  UNL     1     -40.473  13.573   6.948  1.00 20.00     0.042 A 
HETATM   10  C7  UNL     1     -40.772  12.386   6.074  1.00 20.00     0.017 A 
HETATM   11  C9  UNL     1     -39.668  11.683   5.362  1.00 20.00     0.012 C 
ENDBRANCH   6   8
TORSDOF 1
ENDMDL
