MODEL 1
REMARK VINA RESULT:      -4.5      0.000      0.000
REMARK  2 active torsions:
REMARK  status: ('A' for Active; 'I' for Inactive)
REMARK    1  A    between atoms: C4_4  and  N9_9 
REMARK    2  A    between atoms: C7_7  and  N9_9 
ROOT
HETATM    1  C1  UNL     1     -32.466   7.730   3.300  1.00 20.00     0.094 C 
HETATM    2  C6  UNL     1     -32.039   9.374   5.087  1.00 20.00     0.059 C 
HETATM    3  C7  UNL     1     -32.938   8.250   4.589  1.00 20.00     0.322 C 
HETATM    4  N8  UNL     1     -32.096   7.321   2.279  1.00 20.00    -0.195 NA
ENDROOT
BRANCH   3   5
HETATM    5  N9  UNL     1     -33.002   7.173   5.564  1.00 20.00     0.106 N 
HETATM    6  H21 UNL     1     -32.431   6.393   5.248  1.00 20.00     0.318 HD
BRANCH   5   7
HETATM    7  C4  UNL     1     -34.382   6.710   5.732  1.00 20.00     0.226 A 
HETATM    8  C2  UNL     1     -34.668   5.484   6.560  1.00 20.00     0.042 A 
HETATM    9  C3  UNL     1     -34.878   5.446   5.071  1.00 20.00     0.016 A 
HETATM   10  C5  UNL     1     -33.999   4.603   4.213  1.00 20.00     0.012 C 
ENDBRANCH   5   7
ENDBRANCH   3   5
TORSDOF 2
ENDMDL
MODEL 2
REMARK VINA RESULT:      -3.9     12.302     13.759
REMARK  2 active torsions:
REMARK  status: ('A' for Active; 'I' for Inactive)
REMARK    1  A    between atoms: C4_4  and  N9_9 
REMARK    2  A    between atoms: C7_7  and  N9_9 
ROOT
HETATM    1  C1  UNL     1     -36.034  15.419  -6.635  1.00 20.00     0.094 C 
HETATM    2  C6  UNL     1     -35.251  17.756  -6.682  1.00 20.00     0.059 C 
HETATM    3  C7  UNL     1     -36.028  16.696  -5.912  1.00 20.00     0.322 C 
HETATM    4  N8  UNL     1     -36.041  14.410  -7.209  1.00 20.00    -0.195 NA
ENDROOT
BRANCH   3   5
HETATM    5  N9  UNL     1     -35.465  16.510  -4.585  1.00 20.00     0.106 N 
HETATM    6  H21 UNL     1     -35.463  17.397  -4.087  1.00 20.00     0.318 HD
BRANCH   5   7
HETATM    7  C4  UNL     1     -34.088  16.017  -4.672  1.00 20.00     0.226 A 
HETATM    8  C2  UNL     1     -33.683  14.778  -3.915  1.00 20.00     0.042 A 
HETATM    9  C3  UNL     1     -33.136  16.118  -3.505  1.00 20.00     0.016 A 
HETATM   10  C5  UNL     1     -33.538  16.723  -2.204  1.00 20.00     0.012 C 
ENDBRANCH   5   7
ENDBRANCH   3   5
TORSDOF 2
ENDMDL
MODEL 3
REMARK VINA RESULT:      -3.8     11.857     12.744
REMARK  2 active torsions:
REMARK  status: ('A' for Active; 'I' for Inactive)
REMARK    1  A    between atoms: C4_4  and  N9_9 
REMARK    2  A    between atoms: C7_7  and  N9_9 
ROOT
HETATM    1  C1  UNL     1     -31.855  18.433  -0.661  1.00 20.00     0.094 C 
HETATM    2  C6  UNL     1     -34.029  18.105   0.454  1.00 20.00     0.059 C 
HETATM    3  C7  UNL     1     -33.290  18.204  -0.874  1.00 20.00     0.322 C 
HETATM    4  N8  UNL     1     -30.722  18.617  -0.494  1.00 20.00    -0.195 NA
ENDROOT
BRANCH   3   5
HETATM    5  N9  UNL     1     -33.488  17.000  -1.663  1.00 20.00     0.106 N 
HETATM    6  H21 UNL     1     -32.837  16.280  -1.358  1.00 20.00     0.318 HD
BRANCH   5   7
HETATM    7  C4  UNL     1     -33.257  17.271  -3.084  1.00 20.00     0.226 A 
HETATM    8  C2  UNL     1     -34.423  17.339  -4.036  1.00 20.00     0.042 A 
HETATM    9  C3  UNL     1     -33.445  16.201  -4.134  1.00 20.00     0.016 A 
HETATM   10  C5  UNL     1     -33.871  14.817  -3.787  1.00 20.00     0.012 C 
ENDBRANCH   5   7
ENDBRANCH   3   5
TORSDOF 2
ENDMDL
MODEL 4
REMARK VINA RESULT:      -3.7      1.514      2.180
REMARK  2 active torsions:
REMARK  status: ('A' for Active; 'I' for Inactive)
REMARK    1  A    between atoms: C4_4  and  N9_9 
REMARK    2  A    between atoms: C7_7  and  N9_9 
ROOT
HETATM    1  C1  UNL     1     -32.682   8.771   2.740  1.00 20.00     0.094 C 
HETATM    2  C6  UNL     1     -32.217   6.358   2.549  1.00 20.00     0.059 C 
HETATM    3  C7  UNL     1     -32.379   7.545   3.488  1.00 20.00     0.322 C 
HETATM    4  N8  UNL     1     -32.918   9.741   2.148  1.00 20.00    -0.195 NA
ENDROOT
BRANCH   3   5
HETATM    5  N9  UNL     1     -33.426   7.289   4.463  1.00 20.00     0.106 N 
HETATM    6  H21 UNL     1     -33.019   7.218   5.392  1.00 20.00     0.318 HD
BRANCH   5   7
HETATM    7  C4  UNL     1     -34.121   6.036   4.157  1.00 20.00     0.226 A 
HETATM    8  C2  UNL     1     -35.597   5.906   4.435  1.00 20.00     0.042 A 
HETATM    9  C3  UNL     1     -34.610   5.115   5.250  1.00 20.00     0.016 A 
HETATM   10  C5  UNL     1     -34.414   5.426   6.694  1.00 20.00     0.012 C 
ENDBRANCH   5   7
ENDBRANCH   3   5
TORSDOF 2
ENDMDL
MODEL 5
REMARK VINA RESULT:      -3.7     12.037     13.354
REMARK  2 active torsions:
REMARK  status: ('A' for Active; 'I' for Inactive)
REMARK    1  A    between atoms: C4_4  and  N9_9 
REMARK    2  A    between atoms: C7_7  and  N9_9 
ROOT
HETATM    1  C1  UNL     1     -35.676  14.069  -4.922  1.00 20.00     0.094 C 
HETATM    2  C6  UNL     1     -34.238  15.323  -6.482  1.00 20.00     0.059 C 
HETATM    3  C7  UNL     1     -35.475  15.358  -5.595  1.00 20.00     0.322 C 
HETATM    4  N8  UNL     1     -35.838  13.049  -4.393  1.00 20.00    -0.195 NA
ENDROOT
BRANCH   3   5
HETATM    5  N9  UNL     1     -35.371  16.420  -4.609  1.00 20.00     0.106 N 
HETATM    6  H21 UNL     1     -35.784  17.272  -4.979  1.00 20.00     0.318 HD
BRANCH   5   7
HETATM    7  C4  UNL     1     -33.967  16.682  -4.279  1.00 20.00     0.226 A 
HETATM    8  C2  UNL     1     -33.408  16.230  -2.954  1.00 20.00     0.042 A 
HETATM    9  C3  UNL     1     -33.577  17.699  -3.233  1.00 20.00     0.016 A 
HETATM   10  C5  UNL     1     -34.590  18.491  -2.482  1.00 20.00     0.012 C 
ENDBRANCH   5   7
ENDBRANCH   3   5
TORSDOF 2
ENDMDL
MODEL 6
REMARK VINA RESULT:      -3.7      9.274     10.056
REMARK  2 active torsions:
REMARK  status: ('A' for Active; 'I' for Inactive)
REMARK    1  A    between atoms: C4_4  and  N9_9 
REMARK    2  A    between atoms: C7_7  and  N9_9 
ROOT
HETATM    1  C1  UNL     1     -41.043  14.874   7.135  1.00 20.00     0.094 C 
HETATM    2  C6  UNL     1     -42.571  12.940   7.065  1.00 20.00     0.059 C 
HETATM    3  C7  UNL     1     -41.831  13.999   6.258  1.00 20.00     0.322 C 
HETATM    4  N8  UNL     1     -40.423  15.567   7.828  1.00 20.00    -0.195 NA
ENDROOT
BRANCH   3   5
HETATM    5  N9  UNL     1     -40.965  13.379   5.269  1.00 20.00     0.106 N 
HETATM    6  H21 UNL     1     -41.493  13.196   4.419  1.00 20.00     0.318 HD
BRANCH   5   7
HETATM    7  C4  UNL     1     -40.431  12.111   5.773  1.00 20.00     0.226 A 
HETATM    8  C2  UNL     1     -38.993  12.024   6.217  1.00 20.00     0.042 A 
HETATM    9  C3  UNL     1     -39.439  11.299   4.977  1.00 20.00     0.016 A 
HETATM   10  C5  UNL     1     -38.949  11.735   3.639  1.00 20.00     0.012 C 
ENDBRANCH   5   7
ENDBRANCH   3   5
TORSDOF 2
ENDMDL
MODEL 7
REMARK VINA RESULT:      -3.7      1.069      1.650
REMARK  2 active torsions:
REMARK  status: ('A' for Active; 'I' for Inactive)
REMARK    1  A    between atoms: C4_4  and  N9_9 
REMARK    2  A    between atoms: C7_7  and  N9_9 
ROOT
HETATM    1  C1  UNL     1     -32.481   8.021   2.380  1.00 20.00     0.094 C 
HETATM    2  C6  UNL     1     -32.413   8.641   4.765  1.00 20.00     0.059 C 
HETATM    3  C7  UNL     1     -33.032   7.734   3.710  1.00 20.00     0.322 C 
HETATM    4  N8  UNL     1     -32.048   8.250   1.328  1.00 20.00    -0.195 NA
ENDROOT
BRANCH   3   5
HETATM    5  N9  UNL     1     -32.816   6.336   4.044  1.00 20.00     0.106 N 
HETATM    6  H21 UNL     1     -32.128   5.936   3.412  1.00 20.00     0.318 HD
BRANCH   5   7
HETATM    7  C4  UNL     1     -34.064   5.577   3.923  1.00 20.00     0.226 A 
HETATM    8  C2  UNL     1     -35.374   6.217   4.306  1.00 20.00     0.042 A 
HETATM    9  C3  UNL     1     -34.817   5.095   5.139  1.00 20.00     0.016 A 
HETATM   10  C5  UNL     1     -34.338   5.360   6.525  1.00 20.00     0.012 C 
ENDBRANCH   5   7
ENDBRANCH   3   5
TORSDOF 2
ENDMDL
MODEL 8
REMARK VINA RESULT:      -3.7     12.292     13.353
REMARK  2 active torsions:
REMARK  status: ('A' for Active; 'I' for Inactive)
REMARK    1  A    between atoms: C4_4  and  N9_9 
REMARK    2  A    between atoms: C7_7  and  N9_9 
ROOT
HETATM    1  C1  UNL     1     -35.140  14.906  -5.935  1.00 20.00     0.094 C 
HETATM    2  C6  UNL     1     -33.267  14.461  -4.395  1.00 20.00     0.059 C 
HETATM    3  C7  UNL     1     -34.096  15.522  -5.107  1.00 20.00     0.322 C 
HETATM    4  N8  UNL     1     -35.964  14.420  -6.592  1.00 20.00    -0.195 NA
ENDROOT
BRANCH   3   5
HETATM    5  N9  UNL     1     -34.698  16.433  -4.147  1.00 20.00     0.106 N 
HETATM    6  H21 UNL     1     -35.286  17.104  -4.635  1.00 20.00     0.318 HD
BRANCH   5   7
HETATM    7  C4  UNL     1     -33.663  17.163  -3.410  1.00 20.00     0.226 A 
HETATM    8  C2  UNL     1     -33.553  17.007  -1.915  1.00 20.00     0.042 A 
HETATM    9  C3  UNL     1     -34.007  18.317  -2.498  1.00 20.00     0.016 A 
HETATM   10  C5  UNL     1     -35.410  18.778  -2.299  1.00 20.00     0.012 C 
ENDBRANCH   5   7
ENDBRANCH   3   5
TORSDOF 2
ENDMDL
MODEL 9
REMARK VINA RESULT:      -3.6      1.684      3.755
REMARK  2 active torsions:
REMARK  status: ('A' for Active; 'I' for Inactive)
REMARK    1  A    between atoms: C4_4  and  N9_9 
REMARK    2  A    between atoms: C7_7  and  N9_9 
ROOT
HETATM    1  C1  UNL     1     -34.222   5.107   4.129  1.00 20.00     0.094 C 
HETATM    2  C6  UNL     1     -32.810   4.802   2.132  1.00 20.00     0.059 C 
HETATM    3  C7  UNL     1     -33.470   5.799   3.075  1.00 20.00     0.322 C 
HETATM    4  N8  UNL     1     -34.820   4.561   4.960  1.00 20.00    -0.195 NA
ENDROOT
BRANCH   3   5
HETATM    5  N9  UNL     1     -32.477   6.677   3.671  1.00 20.00     0.106 N 
HETATM    6  H21 UNL     1     -32.153   6.280   4.550  1.00 20.00     0.318 HD
BRANCH   5   7
HETATM    7  C4  UNL     1     -33.048   8.000   3.934  1.00 20.00     0.226 A 
HETATM    8  C2  UNL     1     -32.300   8.986   4.794  1.00 20.00     0.042 A 
HETATM    9  C3  UNL     1     -33.580   8.375   5.297  1.00 20.00     0.016 A 
HETATM   10  C5  UNL     1     -33.555   7.427   6.446  1.00 20.00     0.012 C 
ENDBRANCH   5   7
ENDBRANCH   3   5
TORSDOF 2
ENDMDL
