MODEL 1
REMARK VINA RESULT:      -4.4      0.000      0.000
REMARK  2 active torsions:
REMARK  status: ('A' for Active; 'I' for Inactive)
REMARK    1  A    between atoms: C4_4  and  N9_9 
REMARK    2  A    between atoms: C7_7  and  N9_9 
ROOT
HETATM    1  C1  UNL     1     -32.304   8.176   4.190  1.00 20.00     0.094 C 
HETATM    2  C6  UNL     1     -32.230   7.930   1.736  1.00 20.00     0.059 C 
HETATM    3  C7  UNL     1     -32.133   7.225   3.083  1.00 20.00     0.322 C 
HETATM    4  N8  UNL     1     -32.436   8.927   5.063  1.00 20.00    -0.195 NA
ENDROOT
BRANCH   3   5
HETATM    5  N9  UNL     1     -33.125   6.167   3.182  1.00 20.00     0.106 N 
HETATM    6  H21 UNL     1     -33.711   6.171   2.351  1.00 20.00     0.318 HD
BRANCH   5   7
HETATM    7  C4  UNL     1     -33.976   6.367   4.359  1.00 20.00     0.226 A 
HETATM    8  C2  UNL     1     -35.430   5.974   4.322  1.00 20.00     0.042 A 
HETATM    9  C3  UNL     1     -34.460   5.185   5.158  1.00 20.00     0.016 A 
HETATM   10  C5  UNL     1     -34.520   5.259   6.645  1.00 20.00     0.012 C 
ENDBRANCH   5   7
ENDBRANCH   3   5
TORSDOF 2
ENDMDL
MODEL 2
REMARK VINA RESULT:      -4.3      1.747      2.192
REMARK  2 active torsions:
REMARK  status: ('A' for Active; 'I' for Inactive)
REMARK    1  A    between atoms: C4_4  and  N9_9 
REMARK    2  A    between atoms: C7_7  and  N9_9 
ROOT
HETATM    1  C1  UNL     1     -32.683   9.059   2.100  1.00 20.00     0.094 C 
HETATM    2  C6  UNL     1     -32.274   6.721   2.771  1.00 20.00     0.059 C 
HETATM    3  C7  UNL     1     -32.348   8.173   3.223  1.00 20.00     0.322 C 
HETATM    4  N8  UNL     1     -32.945   9.759   1.213  1.00 20.00    -0.195 NA
ENDROOT
BRANCH   3   5
HETATM    5  N9  UNL     1     -33.326   8.332   4.287  1.00 20.00     0.106 N 
HETATM    6  H21 UNL     1     -33.075   9.130   4.865  1.00 20.00     0.318 HD
BRANCH   5   7
HETATM    7  C4  UNL     1     -33.369   7.134   5.131  1.00 20.00     0.226 A 
HETATM    8  C2  UNL     1     -34.066   7.168   6.466  1.00 20.00     0.042 A 
HETATM    9  C3  UNL     1     -34.663   6.386   5.328  1.00 20.00     0.016 A 
HETATM   10  C5  UNL     1     -34.670   4.897   5.365  1.00 20.00     0.012 C 
ENDBRANCH   5   7
ENDBRANCH   3   5
TORSDOF 2
ENDMDL
MODEL 3
REMARK VINA RESULT:      -4.1      1.194      2.329
REMARK  2 active torsions:
REMARK  status: ('A' for Active; 'I' for Inactive)
REMARK    1  A    between atoms: C4_4  and  N9_9 
REMARK    2  A    between atoms: C7_7  and  N9_9 
ROOT
HETATM    1  C1  UNL     1     -32.460   7.818   3.129  1.00 20.00     0.094 C 
HETATM    2  C6  UNL     1     -31.905   9.168   5.118  1.00 20.00     0.059 C 
HETATM    3  C7  UNL     1     -32.990   8.750   4.134  1.00 20.00     0.322 C 
HETATM    4  N8  UNL     1     -32.041   7.085   2.334  1.00 20.00    -0.195 NA
ENDROOT
BRANCH   3   5
HETATM    5  N9  UNL     1     -34.110   8.140   4.832  1.00 20.00     0.106 N 
HETATM    6  H21 UNL     1     -34.345   8.697   5.650  1.00 20.00     0.318 HD
BRANCH   5   7
HETATM    7  C4  UNL     1     -33.768   6.783   5.269  1.00 20.00     0.226 A 
HETATM    8  C2  UNL     1     -34.525   6.134   6.398  1.00 20.00     0.042 A 
HETATM    9  C3  UNL     1     -34.704   5.635   4.991  1.00 20.00     0.016 A 
HETATM   10  C5  UNL     1     -34.163   4.306   4.593  1.00 20.00     0.012 C 
ENDBRANCH   5   7
ENDBRANCH   3   5
TORSDOF 2
ENDMDL
MODEL 4
REMARK VINA RESULT:      -4.1     12.302     13.766
REMARK  2 active torsions:
REMARK  status: ('A' for Active; 'I' for Inactive)
REMARK    1  A    between atoms: C4_4  and  N9_9 
REMARK    2  A    between atoms: C7_7  and  N9_9 
ROOT
HETATM    1  C1  UNL     1     -35.667  15.464  -6.923  1.00 20.00     0.094 C 
HETATM    2  C6  UNL     1     -35.019  17.663  -7.833  1.00 20.00     0.059 C 
HETATM    3  C7  UNL     1     -35.213  16.819  -6.581  1.00 20.00     0.322 C 
HETATM    4  N8  UNL     1     -36.027  14.395  -7.194  1.00 20.00    -0.195 NA
ENDROOT
BRANCH   3   5
HETATM    5  N9  UNL     1     -33.982  16.748  -5.812  1.00 20.00     0.106 N 
HETATM    6  H21 UNL     1     -33.358  16.063  -6.229  1.00 20.00     0.318 HD
BRANCH   5   7
HETATM    7  C4  UNL     1     -34.260  16.350  -4.428  1.00 20.00     0.226 A 
HETATM    8  C2  UNL     1     -33.662  15.087  -3.866  1.00 20.00     0.042 A 
HETATM    9  C3  UNL     1     -33.178  16.426  -3.382  1.00 20.00     0.016 A 
HETATM   10  C5  UNL     1     -33.501  16.885  -2.002  1.00 20.00     0.012 C 
ENDBRANCH   5   7
ENDBRANCH   3   5
TORSDOF 2
ENDMDL
MODEL 5
REMARK VINA RESULT:      -4.0     11.972     13.757
REMARK  2 active torsions:
REMARK  status: ('A' for Active; 'I' for Inactive)
REMARK    1  A    between atoms: C4_4  and  N9_9 
REMARK    2  A    between atoms: C7_7  and  N9_9 
ROOT
HETATM    1  C1  UNL     1     -34.386  17.234  -7.379  1.00 20.00     0.094 C 
HETATM    2  C6  UNL     1     -35.789  15.204  -7.370  1.00 20.00     0.059 C 
HETATM    3  C7  UNL     1     -34.379  15.768  -7.488  1.00 20.00     0.322 C 
HETATM    4  N8  UNL     1     -34.392  18.390  -7.296  1.00 20.00    -0.195 NA
ENDROOT
BRANCH   3   5
HETATM    5  N9  UNL     1     -33.511  15.201  -6.470  1.00 20.00     0.106 N 
HETATM    6  H21 UNL     1     -33.432  14.197  -6.610  1.00 20.00     0.318 HD
BRANCH   5   7
HETATM    7  C4  UNL     1     -34.056  15.447  -5.131  1.00 20.00     0.226 A 
HETATM    8  C2  UNL     1     -34.097  14.340  -4.111  1.00 20.00     0.042 A 
HETATM    9  C3  UNL     1     -33.142  15.489  -3.933  1.00 20.00     0.016 A 
HETATM   10  C5  UNL     1     -33.368  16.490  -2.853  1.00 20.00     0.012 C 
ENDBRANCH   5   7
ENDBRANCH   3   5
TORSDOF 2
ENDMDL
MODEL 6
REMARK VINA RESULT:      -4.0      9.479     10.466
REMARK  2 active torsions:
REMARK  status: ('A' for Active; 'I' for Inactive)
REMARK    1  A    between atoms: C4_4  and  N9_9 
REMARK    2  A    between atoms: C7_7  and  N9_9 
ROOT
HETATM    1  C1  UNL     1     -42.236  14.324   4.601  1.00 20.00     0.094 C 
HETATM    2  C6  UNL     1     -41.523  15.212   6.790  1.00 20.00     0.059 C 
HETATM    3  C7  UNL     1     -42.208  14.072   6.048  1.00 20.00     0.322 C 
HETATM    4  N8  UNL     1     -42.260  14.525   3.459  1.00 20.00    -0.195 NA
ENDROOT
BRANCH   3   5
HETATM    5  N9  UNL     1     -41.540  12.809   6.317  1.00 20.00     0.106 N 
HETATM    6  H21 UNL     1     -41.454  12.676   7.322  1.00 20.00     0.318 HD
BRANCH   5   7
HETATM    7  C4  UNL     1     -40.198  12.799   5.725  1.00 20.00     0.226 A 
HETATM    8  C2  UNL     1     -39.092  11.999   6.362  1.00 20.00     0.042 A 
HETATM    9  C3  UNL     1     -39.675  11.559   5.047  1.00 20.00     0.016 A 
HETATM   10  C5  UNL     1     -38.872  11.671   3.797  1.00 20.00     0.012 C 
ENDBRANCH   5   7
ENDBRANCH   3   5
TORSDOF 2
ENDMDL
MODEL 7
REMARK VINA RESULT:      -4.0     12.049     12.885
REMARK  2 active torsions:
REMARK  status: ('A' for Active; 'I' for Inactive)
REMARK    1  A    between atoms: C4_4  and  N9_9 
REMARK    2  A    between atoms: C7_7  and  N9_9 
ROOT
HETATM    1  C1  UNL     1     -31.939  18.457  -0.617  1.00 20.00     0.094 C 
HETATM    2  C6  UNL     1     -34.086  18.379   0.595  1.00 20.00     0.059 C 
HETATM    3  C7  UNL     1     -33.394  18.306  -0.760  1.00 20.00     0.322 C 
HETATM    4  N8  UNL     1     -30.791  18.579  -0.505  1.00 20.00    -0.195 NA
ENDROOT
BRANCH   3   5
HETATM    5  N9  UNL     1     -33.698  17.050  -1.426  1.00 20.00     0.106 N 
HETATM    6  H21 UNL     1     -33.184  16.295  -0.979  1.00 20.00     0.318 HD
BRANCH   5   7
HETATM    7  C4  UNL     1     -33.312  17.110  -2.839  1.00 20.00     0.226 A 
HETATM    8  C2  UNL     1     -33.236  15.849  -3.660  1.00 20.00     0.042 A 
HETATM    9  C3  UNL     1     -34.332  16.847  -3.918  1.00 20.00     0.016 A 
HETATM   10  C5  UNL     1     -34.327  17.658  -5.167  1.00 20.00     0.012 C 
ENDBRANCH   5   7
ENDBRANCH   3   5
TORSDOF 2
ENDMDL
MODEL 8
REMARK VINA RESULT:      -4.0     12.051     13.280
REMARK  2 active torsions:
REMARK  status: ('A' for Active; 'I' for Inactive)
REMARK    1  A    between atoms: C4_4  and  N9_9 
REMARK    2  A    between atoms: C7_7  and  N9_9 
ROOT
HETATM    1  C1  UNL     1     -35.120  14.907  -6.275  1.00 20.00     0.094 C 
HETATM    2  C6  UNL     1     -33.888  14.453  -4.186  1.00 20.00     0.059 C 
HETATM    3  C7  UNL     1     -34.018  15.350  -5.410  1.00 20.00     0.322 C 
HETATM    4  N8  UNL     1     -35.988  14.556  -6.959  1.00 20.00    -0.195 NA
ENDROOT
BRANCH   3   5
HETATM    5  N9  UNL     1     -34.226  16.733  -5.013  1.00 20.00     0.106 N 
HETATM    6  H21 UNL     1     -33.951  17.351  -5.773  1.00 20.00     0.318 HD
BRANCH   5   7
HETATM    7  C4  UNL     1     -33.423  17.057  -3.830  1.00 20.00     0.226 A 
HETATM    8  C2  UNL     1     -33.075  18.488  -3.515  1.00 20.00     0.042 A 
HETATM    9  C3  UNL     1     -34.054  17.746  -2.647  1.00 20.00     0.016 A 
HETATM   10  C5  UNL     1     -33.677  17.351  -1.261  1.00 20.00     0.012 C 
ENDBRANCH   5   7
ENDBRANCH   3   5
TORSDOF 2
ENDMDL
MODEL 9
REMARK VINA RESULT:      -3.9      1.543      4.092
REMARK  2 active torsions:
REMARK  status: ('A' for Active; 'I' for Inactive)
REMARK    1  A    between atoms: C4_4  and  N9_9 
REMARK    2  A    between atoms: C7_7  and  N9_9 
ROOT
HETATM    1  C1  UNL     1     -34.242   4.629   4.835  1.00 20.00     0.094 C 
HETATM    2  C6  UNL     1     -35.805   6.444   4.245  1.00 20.00     0.059 C 
HETATM    3  C7  UNL     1     -34.900   5.851   5.317  1.00 20.00     0.322 C 
HETATM    4  N8  UNL     1     -33.724   3.663   4.455  1.00 20.00    -0.195 NA
ENDROOT
BRANCH   3   5
HETATM    5  N9  UNL     1     -33.900   6.817   5.739  1.00 20.00     0.106 N 
HETATM    6  H21 UNL     1     -34.252   7.347   6.532  1.00 20.00     0.318 HD
BRANCH   5   7
HETATM    7  C4  UNL     1     -33.592   7.750   4.649  1.00 20.00     0.226 A 
HETATM    8  C2  UNL     1     -32.531   8.803   4.828  1.00 20.00     0.042 A 
HETATM    9  C3  UNL     1     -32.287   7.643   3.903  1.00 20.00     0.016 A 
HETATM   10  C5  UNL     1     -32.248   7.856   2.429  1.00 20.00     0.012 C 
ENDBRANCH   5   7
ENDBRANCH   3   5
TORSDOF 2
ENDMDL
