MODEL 1
REMARK VINA RESULT:      -4.8      0.000      0.000
REMARK  2 active torsions:
REMARK  status: ('A' for Active; 'I' for Inactive)
REMARK    1  A    between atoms: C5_5  and  N8_8 
REMARK    2  A    between atoms: C7_7  and  N8_8 
ROOT
HETATM    1  C1  UNL     1     -32.128   7.340   2.553  1.00 20.00     0.013 C 
HETATM    2  C2  UNL     1     -32.290   7.973   3.560  1.00 20.00    -0.087 C 
HETATM    3  C7  UNL     1     -32.485   8.749   4.788  1.00 20.00     0.362 C 
ENDROOT
BRANCH   3   4
HETATM    4  N8  UNL     1     -33.683   8.314   5.486  1.00 20.00     0.099 N 
HETATM    5  H19 UNL     1     -33.741   8.779   6.387  1.00 20.00     0.317 HD
BRANCH   4   6
HETATM    6  C5  UNL     1     -33.654   6.865   5.705  1.00 20.00     0.225 A 
HETATM    7  C3  UNL     1     -34.676   6.210   6.598  1.00 20.00     0.042 A 
HETATM    8  C4  UNL     1     -34.723   5.983   5.112  1.00 20.00     0.016 A 
HETATM    9  C6  UNL     1     -34.367   4.651   4.547  1.00 20.00     0.012 C 
ENDBRANCH   4   6
ENDBRANCH   3   4
TORSDOF 2
ENDMDL
MODEL 2
REMARK VINA RESULT:      -4.7      0.744      3.399
REMARK  2 active torsions:
REMARK  status: ('A' for Active; 'I' for Inactive)
REMARK    1  A    between atoms: C5_5  and  N8_8 
REMARK    2  A    between atoms: C7_7  and  N8_8 
ROOT
HETATM    1  C1  UNL     1     -34.466   4.607   4.514  1.00 20.00     0.013 C 
HETATM    2  C2  UNL     1     -34.445   5.434   5.384  1.00 20.00    -0.087 C 
HETATM    3  C7  UNL     1     -34.424   6.442   6.448  1.00 20.00     0.362 C 
ENDROOT
BRANCH   3   4
HETATM    4  N8  UNL     1     -33.262   7.304   6.315  1.00 20.00     0.099 N 
HETATM    5  H19 UNL     1     -33.285   8.022   7.034  1.00 20.00     0.317 HD
BRANCH   4   6
HETATM    6  C5  UNL     1     -33.253   7.956   5.001  1.00 20.00     0.225 A 
HETATM    7  C3  UNL     1     -32.324   9.113   4.733  1.00 20.00     0.042 A 
HETATM    8  C4  UNL     1     -32.077   7.784   4.074  1.00 20.00     0.016 A 
HETATM    9  C6  UNL     1     -32.295   7.623   2.609  1.00 20.00     0.012 C 
ENDBRANCH   4   6
ENDBRANCH   3   4
TORSDOF 2
ENDMDL
MODEL 3
REMARK VINA RESULT:      -4.6      1.264      1.555
REMARK  2 active torsions:
REMARK  status: ('A' for Active; 'I' for Inactive)
REMARK    1  A    between atoms: C5_5  and  N8_8 
REMARK    2  A    between atoms: C7_7  and  N8_8 
ROOT
HETATM    1  C1  UNL     1     -32.910   5.170   2.467  1.00 20.00     0.013 C 
HETATM    2  C2  UNL     1     -32.606   6.271   2.837  1.00 20.00    -0.087 C 
HETATM    3  C7  UNL     1     -32.231   7.615   3.285  1.00 20.00     0.362 C 
ENDROOT
BRANCH   3   4
HETATM    4  N8  UNL     1     -33.168   8.103   4.283  1.00 20.00     0.099 N 
HETATM    5  H19 UNL     1     -32.845   8.995   4.649  1.00 20.00     0.317 HD
BRANCH   4   6
HETATM    6  C5  UNL     1     -33.280   7.153   5.394  1.00 20.00     0.225 A 
HETATM    7  C3  UNL     1     -34.127   7.484   6.596  1.00 20.00     0.042 A 
HETATM    8  C4  UNL     1     -34.571   6.413   5.637  1.00 20.00     0.016 A 
HETATM    9  C6  UNL     1     -34.549   4.982   6.050  1.00 20.00     0.012 C 
ENDBRANCH   4   6
ENDBRANCH   3   4
TORSDOF 2
ENDMDL
MODEL 4
REMARK VINA RESULT:      -4.4      1.448      2.235
REMARK  2 active torsions:
REMARK  status: ('A' for Active; 'I' for Inactive)
REMARK    1  A    between atoms: C5_5  and  N8_8 
REMARK    2  A    between atoms: C7_7  and  N8_8 
ROOT
HETATM    1  C1  UNL     1     -32.368   8.819   4.822  1.00 20.00     0.013 C 
HETATM    2  C2  UNL     1     -32.316   7.991   3.955  1.00 20.00    -0.087 C 
HETATM    3  C7  UNL     1     -32.247   6.982   2.894  1.00 20.00     0.362 C 
ENDROOT
BRANCH   3   4
HETATM    4  N8  UNL     1     -33.215   5.924   3.129  1.00 20.00     0.099 N 
HETATM    5  H19 UNL     1     -33.829   5.838   2.324  1.00 20.00     0.317 HD
BRANCH   4   6
HETATM    6  C5  UNL     1     -34.028   6.223   4.312  1.00 20.00     0.225 A 
HETATM    7  C3  UNL     1     -35.497   5.885   4.330  1.00 20.00     0.042 A 
HETATM    8  C4  UNL     1     -34.538   5.106   5.187  1.00 20.00     0.016 A 
HETATM    9  C6  UNL     1     -34.559   5.265   6.669  1.00 20.00     0.012 C 
ENDBRANCH   4   6
ENDBRANCH   3   4
TORSDOF 2
ENDMDL
MODEL 5
REMARK VINA RESULT:      -4.3      1.213      3.291
REMARK  2 active torsions:
REMARK  status: ('A' for Active; 'I' for Inactive)
REMARK    1  A    between atoms: C5_5  and  N8_8 
REMARK    2  A    between atoms: C7_7  and  N8_8 
ROOT
HETATM    1  C1  UNL     1     -34.619   5.351   6.338  1.00 20.00     0.013 C 
HETATM    2  C2  UNL     1     -34.221   6.482   6.275  1.00 20.00    -0.087 C 
HETATM    3  C7  UNL     1     -33.737   7.863   6.203  1.00 20.00     0.362 C 
ENDROOT
BRANCH   3   4
HETATM    4  N8  UNL     1     -32.661   7.980   5.234  1.00 20.00     0.099 N 
HETATM    5  H19 UNL     1     -32.390   8.955   5.139  1.00 20.00     0.317 HD
BRANCH   4   6
HETATM    6  C5  UNL     1     -33.091   7.483   3.923  1.00 20.00     0.225 A 
HETATM    7  C3  UNL     1     -32.279   7.786   2.690  1.00 20.00     0.042 A 
HETATM    8  C4  UNL     1     -32.321   6.385   3.235  1.00 20.00     0.016 A 
HETATM    9  C6  UNL     1     -33.044   5.314   2.492  1.00 20.00     0.012 C 
ENDBRANCH   4   6
ENDBRANCH   3   4
TORSDOF 2
ENDMDL
MODEL 6
REMARK VINA RESULT:      -4.2      1.506      4.068
REMARK  2 active torsions:
REMARK  status: ('A' for Active; 'I' for Inactive)
REMARK    1  A    between atoms: C5_5  and  N8_8 
REMARK    2  A    between atoms: C7_7  and  N8_8 
ROOT
HETATM    1  C1  UNL     1     -34.825   5.764   6.395  1.00 20.00     0.013 C 
HETATM    2  C2  UNL     1     -34.433   5.230   5.393  1.00 20.00    -0.087 C 
HETATM    3  C7  UNL     1     -33.958   4.575   4.172  1.00 20.00     0.362 C 
ENDROOT
BRANCH   3   4
HETATM    4  N8  UNL     1     -33.705   5.554   3.129  1.00 20.00     0.099 N 
HETATM    5  H19 UNL     1     -33.390   5.082   2.286  1.00 20.00     0.317 HD
BRANCH   4   6
HETATM    6  C5  UNL     1     -32.670   6.502   3.552  1.00 20.00     0.225 A 
HETATM    7  C3  UNL     1     -32.142   7.532   2.586  1.00 20.00     0.042 A 
HETATM    8  C4  UNL     1     -33.004   7.959   3.743  1.00 20.00     0.016 A 
HETATM    9  C6  UNL     1     -32.410   8.722   4.877  1.00 20.00     0.012 C 
ENDBRANCH   4   6
ENDBRANCH   3   4
TORSDOF 2
ENDMDL
MODEL 7
REMARK VINA RESULT:      -4.0      1.515      3.121
REMARK  2 active torsions:
REMARK  status: ('A' for Active; 'I' for Inactive)
REMARK    1  A    between atoms: C5_5  and  N8_8 
REMARK    2  A    between atoms: C7_7  and  N8_8 
ROOT
HETATM    1  C1  UNL     1     -32.968   5.047   2.612  1.00 20.00     0.013 C 
HETATM    2  C2  UNL     1     -33.699   5.012   3.563  1.00 20.00    -0.087 C 
HETATM    3  C7  UNL     1     -34.593   4.964   4.723  1.00 20.00     0.362 C 
ENDROOT
BRANCH   3   4
HETATM    4  N8  UNL     1     -34.225   5.977   5.697  1.00 20.00     0.099 N 
HETATM    5  H19 UNL     1     -34.942   6.040   6.414  1.00 20.00     0.317 HD
BRANCH   4   6
HETATM    6  C5  UNL     1     -34.089   7.287   5.053  1.00 20.00     0.225 A 
HETATM    7  C3  UNL     1     -33.873   8.526   5.885  1.00 20.00     0.042 A 
HETATM    8  C4  UNL     1     -32.756   7.991   5.032  1.00 20.00     0.016 A 
HETATM    9  C6  UNL     1     -32.320   8.735   3.816  1.00 20.00     0.012 C 
ENDBRANCH   4   6
ENDBRANCH   3   4
TORSDOF 2
ENDMDL
MODEL 8
REMARK VINA RESULT:      -3.9      1.330      1.497
REMARK  2 active torsions:
REMARK  status: ('A' for Active; 'I' for Inactive)
REMARK    1  A    between atoms: C5_5  and  N8_8 
REMARK    2  A    between atoms: C7_7  and  N8_8 
ROOT
HETATM    1  C1  UNL     1     -32.846   9.487   1.023  1.00 20.00     0.013 C 
HETATM    2  C2  UNL     1     -32.557   8.867   2.009  1.00 20.00    -0.087 C 
HETATM    3  C7  UNL     1     -32.201   8.109   3.212  1.00 20.00     0.362 C 
ENDROOT
BRANCH   3   4
HETATM    4  N8  UNL     1     -33.192   8.307   4.256  1.00 20.00     0.099 N 
HETATM    5  H19 UNL     1     -32.915   9.084   4.849  1.00 20.00     0.317 HD
BRANCH   4   6
HETATM    6  C5  UNL     1     -33.315   7.103   5.085  1.00 20.00     0.225 A 
HETATM    7  C3  UNL     1     -34.125   7.134   6.355  1.00 20.00     0.042 A 
HETATM    8  C4  UNL     1     -34.626   6.363   5.164  1.00 20.00     0.016 A 
HETATM    9  C6  UNL     1     -34.645   4.873   5.191  1.00 20.00     0.012 C 
ENDBRANCH   4   6
ENDBRANCH   3   4
TORSDOF 2
ENDMDL
MODEL 9
REMARK VINA RESULT:      -3.7      1.640      3.465
REMARK  2 active torsions:
REMARK  status: ('A' for Active; 'I' for Inactive)
REMARK    1  A    between atoms: C5_5  and  N8_8 
REMARK    2  A    between atoms: C7_7  and  N8_8 
ROOT
HETATM    1  C1  UNL     1     -34.436   4.604   4.638  1.00 20.00     0.013 C 
HETATM    2  C2  UNL     1     -33.720   4.973   3.749  1.00 20.00    -0.087 C 
HETATM    3  C7  UNL     1     -32.846   5.420   2.660  1.00 20.00     0.362 C 
ENDROOT
BRANCH   3   4
HETATM    4  N8  UNL     1     -32.680   6.863   2.694  1.00 20.00     0.099 N 
HETATM    5  H19 UNL     1     -31.863   7.127   2.151  1.00 20.00     0.317 HD
BRANCH   4   6
HETATM    6  C5  UNL     1     -32.498   7.328   4.073  1.00 20.00     0.225 A 
HETATM    7  C3  UNL     1     -32.285   8.793   4.359  1.00 20.00     0.042 A 
HETATM    8  C4  UNL     1     -33.577   8.131   4.755  1.00 20.00     0.016 A 
HETATM    9  C6  UNL     1     -33.889   7.898   6.193  1.00 20.00     0.012 C 
ENDBRANCH   4   6
ENDBRANCH   3   4
TORSDOF 2
ENDMDL
