MODEL 1
REMARK VINA RESULT:      -3.2      0.000      0.000
REMARK  1 active torsions:
REMARK  status: ('A' for Active; 'I' for Inactive)
REMARK    1  A    between atoms: C4_4  and  N6_6 
ROOT
HETATM    1  C1  UNL     1     -40.498  14.403   7.664  1.00 20.00     0.158 C 
HETATM    2  N6  UNL     1     -40.248  13.258   7.548  1.00 20.00    -0.270 NA
HETATM    3  S7  UNL     1     -40.823  15.953   7.836  1.00 20.00    -0.055 SA
ENDROOT
BRANCH   2   4
HETATM    4  C4  UNL     1     -40.916  12.587   6.441  1.00 20.00     0.114 A 
HETATM    5  C2  UNL     1     -40.874  13.254   5.092  1.00 20.00     0.034 A 
HETATM    6  C3  UNL     1     -40.088  11.994   5.329  1.00 20.00     0.008 A 
HETATM    7  C5  UNL     1     -38.598  12.034   5.351  1.00 20.00     0.012 C 
ENDBRANCH   2   4
TORSDOF 1
ENDMDL
MODEL 2
REMARK VINA RESULT:      -3.2      9.405      9.905
REMARK  1 active torsions:
REMARK  status: ('A' for Active; 'I' for Inactive)
REMARK    1  A    between atoms: C4_4  and  N6_6 
ROOT
HETATM    1  C1  UNL     1     -33.114   7.715   4.203  1.00 20.00     0.158 C 
HETATM    2  N6  UNL     1     -34.054   7.503   4.880  1.00 20.00    -0.270 NA
HETATM    3  S7  UNL     1     -31.837   8.016   3.299  1.00 20.00    -0.055 SA
ENDROOT
BRANCH   2   4
HETATM    4  C4  UNL     1     -34.866   6.363   4.475  1.00 20.00     0.114 A 
HETATM    5  C2  UNL     1     -34.151   5.082   4.136  1.00 20.00     0.034 A 
HETATM    6  C3  UNL     1     -34.973   5.171   5.392  1.00 20.00     0.008 A 
HETATM    7  C5  UNL     1     -34.308   5.142   6.725  1.00 20.00     0.012 C 
ENDBRANCH   2   4
TORSDOF 1
ENDMDL
MODEL 3
REMARK VINA RESULT:      -3.1      9.187     10.039
REMARK  1 active torsions:
REMARK  status: ('A' for Active; 'I' for Inactive)
REMARK    1  A    between atoms: C4_4  and  N6_6 
ROOT
HETATM    1  C1  UNL     1     -32.451   7.514   2.728  1.00 20.00     0.158 C 
HETATM    2  N6  UNL     1     -32.702   6.882   3.688  1.00 20.00    -0.270 NA
HETATM    3  S7  UNL     1     -32.113   8.353   1.416  1.00 20.00    -0.055 SA
ENDROOT
BRANCH   2   4
HETATM    4  C4  UNL     1     -32.777   7.643   4.929  1.00 20.00     0.114 A 
HETATM    5  C2  UNL     1     -34.048   8.400   5.209  1.00 20.00     0.034 A 
HETATM    6  C3  UNL     1     -33.707   7.182   6.023  1.00 20.00     0.008 A 
HETATM    7  C5  UNL     1     -34.522   5.942   5.891  1.00 20.00     0.012 C 
ENDBRANCH   2   4
TORSDOF 1
ENDMDL
MODEL 4
REMARK VINA RESULT:      -3.1      9.339      9.688
REMARK  1 active torsions:
REMARK  status: ('A' for Active; 'I' for Inactive)
REMARK    1  A    between atoms: C4_4  and  N6_6 
ROOT
HETATM    1  C1  UNL     1     -32.906   8.016   3.888  1.00 20.00     0.158 C 
HETATM    2  N6  UNL     1     -33.562   8.092   4.862  1.00 20.00    -0.270 NA
HETATM    3  S7  UNL     1     -32.025   7.930   2.563  1.00 20.00    -0.055 SA
ENDROOT
BRANCH   2   4
HETATM    4  C4  UNL     1     -33.410   6.988   5.801  1.00 20.00     0.114 A 
HETATM    5  C2  UNL     1     -34.494   6.789   6.826  1.00 20.00     0.034 A 
HETATM    6  C3  UNL     1     -34.336   5.802   5.703  1.00 20.00     0.008 A 
HETATM    7  C5  UNL     1     -35.378   5.704   4.642  1.00 20.00     0.012 C 
ENDBRANCH   2   4
TORSDOF 1
ENDMDL
MODEL 5
REMARK VINA RESULT:      -3.1     17.697     18.271
REMARK  1 active torsions:
REMARK  status: ('A' for Active; 'I' for Inactive)
REMARK    1  A    between atoms: C4_4  and  N6_6 
ROOT
HETATM    1  C1  UNL     1     -22.133  17.559   8.701  1.00 20.00     0.158 C 
HETATM    2  N6  UNL     1     -22.753  17.101   9.591  1.00 20.00    -0.270 NA
HETATM    3  S7  UNL     1     -21.293  18.161   7.488  1.00 20.00    -0.055 SA
ENDROOT
BRANCH   2   4
HETATM    4  C4  UNL     1     -23.155  18.051  10.621  1.00 20.00     0.114 A 
HETATM    5  C2  UNL     1     -24.608  18.440  10.682  1.00 20.00     0.034 A 
HETATM    6  C3  UNL     1     -24.016  17.580  11.765  1.00 20.00     0.008 A 
HETATM    7  C5  UNL     1     -24.433  16.155  11.899  1.00 20.00     0.012 C 
ENDBRANCH   2   4
TORSDOF 1
ENDMDL
MODEL 6
REMARK VINA RESULT:      -3.1     11.235     11.927
REMARK  1 active torsions:
REMARK  status: ('A' for Active; 'I' for Inactive)
REMARK    1  A    between atoms: C4_4  and  N6_6 
ROOT
HETATM    1  C1  UNL     1     -30.170  18.559   2.551  1.00 20.00     0.158 C 
HETATM    2  N6  UNL     1     -31.121  18.293   1.909  1.00 20.00    -0.270 NA
HETATM    3  S7  UNL     1     -28.888  18.903   3.432  1.00 20.00    -0.055 SA
ENDROOT
BRANCH   2   4
HETATM    4  C4  UNL     1     -31.342  19.143   0.746  1.00 20.00     0.114 A 
HETATM    5  C2  UNL     1     -31.415  18.477  -0.602  1.00 20.00     0.034 A 
HETATM    6  C3  UNL     1     -32.656  19.064   0.012  1.00 20.00     0.008 A 
HETATM    7  C5  UNL     1     -33.759  18.171   0.469  1.00 20.00     0.012 C 
ENDBRANCH   2   4
TORSDOF 1
ENDMDL
MODEL 7
REMARK VINA RESULT:      -3.0      9.164      9.706
REMARK  1 active torsions:
REMARK  status: ('A' for Active; 'I' for Inactive)
REMARK    1  A    between atoms: C4_4  and  N6_6 
ROOT
HETATM    1  C1  UNL     1     -34.100   6.364   5.554  1.00 20.00     0.158 C 
HETATM    2  N6  UNL     1     -33.317   7.192   5.848  1.00 20.00    -0.270 NA
HETATM    3  S7  UNL     1     -35.153   5.232   5.169  1.00 20.00    -0.055 SA
ENDROOT
BRANCH   2   4
HETATM    4  C4  UNL     1     -33.393   8.423   5.072  1.00 20.00     0.114 A 
HETATM    5  C2  UNL     1     -32.116   9.189   4.851  1.00 20.00     0.034 A 
HETATM    6  C3  UNL     1     -32.768   8.472   3.701  1.00 20.00     0.008 A 
HETATM    7  C5  UNL     1     -32.110   7.280   3.094  1.00 20.00     0.012 C 
ENDBRANCH   2   4
TORSDOF 1
ENDMDL
MODEL 8
REMARK VINA RESULT:      -3.0      1.876      2.149
REMARK  1 active torsions:
REMARK  status: ('A' for Active; 'I' for Inactive)
REMARK    1  A    between atoms: C4_4  and  N6_6 
ROOT
HETATM    1  C1  UNL     1     -41.776  14.162   5.483  1.00 20.00     0.158 C 
HETATM    2  N6  UNL     1     -41.066  13.377   4.969  1.00 20.00    -0.270 NA
HETATM    3  S7  UNL     1     -42.749  15.225   6.163  1.00 20.00    -0.055 SA
ENDROOT
BRANCH   2   4
HETATM    4  C4  UNL     1     -39.897  12.992   5.750  1.00 20.00     0.114 A 
HETATM    5  C2  UNL     1     -39.772  11.547   6.154  1.00 20.00     0.034 A 
HETATM    6  C3  UNL     1     -38.842  12.118   5.120  1.00 20.00     0.008 A 
HETATM    7  C5  UNL     1     -38.936  11.672   3.701  1.00 20.00     0.012 C 
ENDBRANCH   2   4
TORSDOF 1
ENDMDL
MODEL 9
REMARK VINA RESULT:      -3.0     11.480     12.221
REMARK  1 active torsions:
REMARK  status: ('A' for Active; 'I' for Inactive)
REMARK    1  A    between atoms: C4_4  and  N6_6 
ROOT
HETATM    1  C1  UNL     1     -33.516  16.362  -3.344  1.00 20.00     0.158 C 
HETATM    2  N6  UNL     1     -33.030  16.712  -2.331  1.00 20.00    -0.270 NA
HETATM    3  S7  UNL     1     -34.160  15.874  -4.717  1.00 20.00    -0.055 SA
ENDROOT
BRANCH   2   4
HETATM    4  C4  UNL     1     -33.658  17.871  -1.709  1.00 20.00     0.114 A 
HETATM    5  C2  UNL     1     -33.893  17.823  -0.222  1.00 20.00     0.034 A 
HETATM    6  C3  UNL     1     -32.847  18.744  -0.786  1.00 20.00     0.008 A 
HETATM    7  C5  UNL     1     -31.402  18.484  -0.525  1.00 20.00     0.012 C 
ENDBRANCH   2   4
TORSDOF 1
ENDMDL
