MODEL 1
REMARK VINA RESULT:      -5.8      0.000      0.000
REMARK  1 active torsions:
REMARK  status: ('A' for Active; 'I' for Inactive)
REMARK    1  A    between atoms: C5_5  and  C6_6 
ROOT
HETATM    1  C1  UNL     1     -34.125   4.989   4.461  1.00 20.00     0.014 A 
HETATM    2  C2  UNL     1     -34.219   6.450   6.641  1.00 20.00     0.275 C 
HETATM    3  C3  UNL     1     -34.899   5.720   5.526  1.00 20.00     0.021 A 
HETATM    4  C4  UNL     1     -34.564   6.419   4.262  1.00 20.00     0.034 A 
HETATM    5  C5  UNL     1     -33.704   7.595   4.619  1.00 20.00     0.331 C 
HETATM    6  N7  UNL     1     -33.216   7.296   5.977  1.00 20.00     0.097 N 
HETATM    7  H18 UNL     1     -33.052   8.151   6.505  1.00 20.00     0.316 HD
ENDROOT
BRANCH   5   8
HETATM    8  C6  UNL     1     -32.546   7.793   3.656  1.00 20.00     0.418 C 
HETATM    9  F8  UNL     1     -32.410   6.718   2.860  1.00 20.00    -0.169 F 
HETATM   10  F9  UNL     1     -32.758   8.872   2.883  1.00 20.00    -0.169 F 
HETATM   11  F10 UNL     1     -31.398   7.971   4.334  1.00 20.00    -0.169 F 
ENDBRANCH   5   8
TORSDOF 1
ENDMDL
MODEL 2
REMARK VINA RESULT:      -5.8      0.047      1.207
REMARK  1 active torsions:
REMARK  status: ('A' for Active; 'I' for Inactive)
REMARK    1  A    between atoms: C5_5  and  C6_6 
ROOT
HETATM    1  C1  UNL     1     -34.080   4.953   4.490  1.00 20.00     0.014 A 
HETATM    2  C2  UNL     1     -34.233   6.450   6.641  1.00 20.00     0.275 C 
HETATM    3  C3  UNL     1     -34.882   5.692   5.527  1.00 20.00     0.021 A 
HETATM    4  C4  UNL     1     -34.533   6.373   4.258  1.00 20.00     0.034 A 
HETATM    5  C5  UNL     1     -33.693   7.566   4.609  1.00 20.00     0.331 C 
HETATM    6  N7  UNL     1     -33.227   7.296   5.981  1.00 20.00     0.097 N 
HETATM    7  H18 UNL     1     -33.084   8.163   6.497  1.00 20.00     0.316 HD
ENDROOT
BRANCH   5   8
HETATM    8  C6  UNL     1     -32.520   7.761   3.664  1.00 20.00     0.418 C 
HETATM    9  F8  UNL     1     -31.389   7.973   4.359  1.00 20.00    -0.169 F 
HETATM   10  F9  UNL     1     -32.352   6.671   2.895  1.00 20.00    -0.169 F 
HETATM   11  F10 UNL     1     -32.736   8.821   2.864  1.00 20.00    -0.169 F 
ENDBRANCH   5   8
TORSDOF 1
ENDMDL
MODEL 3
REMARK VINA RESULT:      -5.6      2.522      3.652
REMARK  1 active torsions:
REMARK  status: ('A' for Active; 'I' for Inactive)
REMARK    1  A    between atoms: C5_5  and  C6_6 
ROOT
HETATM    1  C1  UNL     1     -32.130   8.459   4.886  1.00 20.00     0.014 A 
HETATM    2  C2  UNL     1     -32.641   6.740   2.969  1.00 20.00     0.275 C 
HETATM    3  C3  UNL     1     -32.646   8.134   3.509  1.00 20.00     0.021 A 
HETATM    4  C4  UNL     1     -33.592   8.171   4.649  1.00 20.00     0.034 A 
HETATM    5  C5  UNL     1     -34.186   6.799   4.779  1.00 20.00     0.331 C 
HETATM    6  N7  UNL     1     -33.268   5.928   4.023  1.00 20.00     0.097 N 
HETATM    7  H18 UNL     1     -33.762   5.131   3.626  1.00 20.00     0.316 HD
ENDROOT
BRANCH   5   8
HETATM    8  C6  UNL     1     -34.305   6.342   6.222  1.00 20.00     0.418 C 
HETATM    9  F8  UNL     1     -35.283   5.427   6.345  1.00 20.00    -0.169 F 
HETATM   10  F9  UNL     1     -33.151   5.791   6.637  1.00 20.00    -0.169 F 
HETATM   11  F10 UNL     1     -34.593   7.385   7.021  1.00 20.00    -0.169 F 
ENDBRANCH   5   8
TORSDOF 1
ENDMDL
MODEL 4
REMARK VINA RESULT:      -5.6      2.522      3.659
REMARK  1 active torsions:
REMARK  status: ('A' for Active; 'I' for Inactive)
REMARK    1  A    between atoms: C5_5  and  C6_6 
ROOT
HETATM    1  C1  UNL     1     -32.133   8.466   4.898  1.00 20.00     0.014 A 
HETATM    2  C2  UNL     1     -32.638   6.756   2.971  1.00 20.00     0.275 C 
HETATM    3  C3  UNL     1     -32.648   8.147   3.520  1.00 20.00     0.021 A 
HETATM    4  C4  UNL     1     -33.595   8.174   4.660  1.00 20.00     0.034 A 
HETATM    5  C5  UNL     1     -34.183   6.799   4.782  1.00 20.00     0.331 C 
HETATM    6  N7  UNL     1     -33.262   5.936   4.021  1.00 20.00     0.097 N 
HETATM    7  H18 UNL     1     -33.753   5.139   3.619  1.00 20.00     0.316 HD
ENDROOT
BRANCH   5   8
HETATM    8  C6  UNL     1     -34.302   6.334   6.222  1.00 20.00     0.418 C 
HETATM    9  F8  UNL     1     -33.142   5.795   6.637  1.00 20.00    -0.169 F 
HETATM   10  F9  UNL     1     -34.604   7.368   7.026  1.00 20.00    -0.169 F 
HETATM   11  F10 UNL     1     -35.269   5.406   6.336  1.00 20.00    -0.169 F 
ENDBRANCH   5   8
TORSDOF 1
ENDMDL
MODEL 5
REMARK VINA RESULT:      -5.0      1.645      2.307
REMARK  1 active torsions:
REMARK  status: ('A' for Active; 'I' for Inactive)
REMARK    1  A    between atoms: C5_5  and  C6_6 
ROOT
HETATM    1  C1  UNL     1     -35.484   6.073   4.519  1.00 20.00     0.014 A 
HETATM    2  C2  UNL     1     -33.375   5.123   3.277  1.00 20.00     0.275 C 
HETATM    3  C3  UNL     1     -34.405   5.036   4.358  1.00 20.00     0.021 A 
HETATM    4  C4  UNL     1     -34.185   6.175   5.280  1.00 20.00     0.034 A 
HETATM    5  C5  UNL     1     -32.997   6.937   4.770  1.00 20.00     0.331 C 
HETATM    6  N7  UNL     1     -32.846   6.491   3.373  1.00 20.00     0.097 N 
HETATM    7  H18 UNL     1     -31.871   6.528   3.079  1.00 20.00     0.316 HD
ENDROOT
BRANCH   5   8
HETATM    8  C6  UNL     1     -33.185   8.442   4.844  1.00 20.00     0.418 C 
HETATM    9  F8  UNL     1     -32.034   9.042   5.195  1.00 20.00    -0.169 F 
HETATM   10  F9  UNL     1     -33.573   8.926   3.651  1.00 20.00    -0.169 F 
HETATM   11  F10 UNL     1     -34.123   8.752   5.757  1.00 20.00    -0.169 F 
ENDBRANCH   5   8
TORSDOF 1
ENDMDL
MODEL 6
REMARK VINA RESULT:      -4.9      1.851      2.492
REMARK  1 active torsions:
REMARK  status: ('A' for Active; 'I' for Inactive)
REMARK    1  A    between atoms: C5_5  and  C6_6 
ROOT
HETATM    1  C1  UNL     1     -34.078   5.302   6.465  1.00 20.00     0.014 A 
HETATM    2  C2  UNL     1     -33.591   7.794   5.798  1.00 20.00     0.275 C 
HETATM    3  C3  UNL     1     -34.505   6.740   6.336  1.00 20.00     0.021 A 
HETATM    4  C4  UNL     1     -34.799   5.794   5.234  1.00 20.00     0.034 A 
HETATM    5  C5  UNL     1     -34.084   6.296   4.014  1.00 20.00     0.331 C 
HETATM    6  N7  UNL     1     -33.075   7.234   4.540  1.00 20.00     0.097 N 
HETATM    7  H18 UNL     1     -32.873   7.971   3.867  1.00 20.00     0.316 HD
ENDROOT
BRANCH   5   8
HETATM    8  C6  UNL     1     -33.429   5.183   3.214  1.00 20.00     0.418 C 
HETATM    9  F8  UNL     1     -33.894   5.177   1.953  1.00 20.00    -0.169 F 
HETATM   10  F9  UNL     1     -32.096   5.354   3.178  1.00 20.00    -0.169 F 
HETATM   11  F10 UNL     1     -33.692   3.989   3.773  1.00 20.00    -0.169 F 
ENDBRANCH   5   8
TORSDOF 1
ENDMDL
MODEL 7
REMARK VINA RESULT:      -4.8      1.276      1.790
REMARK  1 active torsions:
REMARK  status: ('A' for Active; 'I' for Inactive)
REMARK    1  A    between atoms: C5_5  and  C6_6 
ROOT
HETATM    1  C1  UNL     1     -34.401   7.196   6.673  1.00 20.00     0.014 A 
HETATM    2  C2  UNL     1     -35.108   5.310   4.989  1.00 20.00     0.275 C 
HETATM    3  C3  UNL     1     -34.486   5.746   6.277  1.00 20.00     0.021 A 
HETATM    4  C4  UNL     1     -33.265   6.519   5.947  1.00 20.00     0.034 A 
HETATM    5  C5  UNL     1     -33.132   6.524   4.452  1.00 20.00     0.331 C 
HETATM    6  N7  UNL     1     -34.471   6.149   3.963  1.00 20.00     0.097 N 
HETATM    7  H18 UNL     1     -34.413   5.657   3.073  1.00 20.00     0.316 HD
ENDROOT
BRANCH   5   8
HETATM    8  C6  UNL     1     -32.710   7.875   3.902  1.00 20.00     0.418 C 
HETATM    9  F8  UNL     1     -32.203   7.740   2.664  1.00 20.00    -0.169 F 
HETATM   10  F9  UNL     1     -33.764   8.708   3.843  1.00 20.00    -0.169 F 
HETATM   11  F10 UNL     1     -31.771   8.428   4.691  1.00 20.00    -0.169 F 
ENDBRANCH   5   8
TORSDOF 1
ENDMDL
MODEL 8
REMARK VINA RESULT:      -4.7      2.539      3.448
REMARK  1 active torsions:
REMARK  status: ('A' for Active; 'I' for Inactive)
REMARK    1  A    between atoms: C5_5  and  C6_6 
ROOT
HETATM    1  C1  UNL     1     -33.042   6.445   2.333  1.00 20.00     0.014 A 
HETATM    2  C2  UNL     1     -32.803   8.514   3.932  1.00 20.00     0.275 C 
HETATM    3  C3  UNL     1     -32.203   7.385   3.157  1.00 20.00     0.021 A 
HETATM    4  C4  UNL     1     -32.682   6.120   3.762  1.00 20.00     0.034 A 
HETATM    5  C5  UNL     1     -33.553   6.486   4.927  1.00 20.00     0.331 C 
HETATM    6  N7  UNL     1     -33.898   7.901   4.698  1.00 20.00     0.097 N 
HETATM    7  H18 UNL     1     -34.046   8.390   5.579  1.00 20.00     0.316 HD
ENDROOT
BRANCH   5   8
HETATM    8  C6  UNL     1     -34.803   5.629   5.023  1.00 20.00     0.418 C 
HETATM    9  F8  UNL     1     -35.183   5.496   6.305  1.00 20.00    -0.169 F 
HETATM   10  F9  UNL     1     -35.811   6.192   4.334  1.00 20.00    -0.169 F 
HETATM   11  F10 UNL     1     -34.570   4.404   4.517  1.00 20.00    -0.169 F 
ENDBRANCH   5   8
TORSDOF 1
ENDMDL
MODEL 9
REMARK VINA RESULT:      -4.5      8.963      9.434
REMARK  1 active torsions:
REMARK  status: ('A' for Active; 'I' for Inactive)
REMARK    1  A    between atoms: C5_5  and  C6_6 
ROOT
HETATM    1  C1  UNL     1     -42.401  12.439   6.783  1.00 20.00     0.014 A 
HETATM    2  C2  UNL     1     -40.906  14.193   8.041  1.00 20.00     0.275 C 
HETATM    3  C3  UNL     1     -42.076  13.857   7.173  1.00 20.00     0.021 A 
HETATM    4  C4  UNL     1     -41.549  13.315   5.898  1.00 20.00     0.034 A 
HETATM    5  C5  UNL     1     -40.051  13.352   5.984  1.00 20.00     0.331 C 
HETATM    6  N7  UNL     1     -39.769  13.492   7.425  1.00 20.00     0.097 N 
HETATM    7  H18 UNL     1     -38.900  13.998   7.581  1.00 20.00     0.316 HD
ENDROOT
BRANCH   5   8
HETATM    8  C6  UNL     1     -39.396  12.104   5.420  1.00 20.00     0.418 C 
HETATM    9  F8  UNL     1     -39.704  11.032   6.171  1.00 20.00    -0.169 F 
HETATM   10  F9  UNL     1     -39.818  11.881   4.163  1.00 20.00    -0.169 F 
HETATM   11  F10 UNL     1     -38.059  12.245   5.404  1.00 20.00    -0.169 F 
ENDBRANCH   5   8
TORSDOF 1
ENDMDL
