MODEL 1
REMARK VINA RESULT:      -4.0      0.000      0.000
REMARK  3 active torsions:
REMARK  status: ('A' for Active; 'I' for Inactive)
REMARK    1  A    between atoms: C4_4  and  C6_6 
REMARK    2  A    between atoms: C6_6  and  C7_7 
REMARK    3  A    between atoms: C7_7  and  C8_8 
ROOT
HETATM    1  C1  UNL     1     -34.940   5.100   5.869  1.00 20.00     0.029 C 
HETATM    2  C2  UNL     1     -35.007   6.225   4.868  1.00 20.00     0.034 C 
HETATM    3  C3  UNL     1     -33.615   5.365   6.552  1.00 20.00     0.168 C 
HETATM    4  C4  UNL     1     -34.399   7.370   5.661  1.00 20.00     0.121 C 
HETATM    5  O9  UNL     1     -33.399   6.783   6.511  1.00 20.00    -0.386 OA
ENDROOT
BRANCH   4   6
HETATM    6  C6  UNL     1     -33.770   8.441   4.790  1.00 20.00     0.033 C 
BRANCH   6   7
HETATM    7  C7  UNL     1     -32.288   8.154   4.535  1.00 20.00     0.022 C 
BRANCH   7   8
HETATM    8  C8  UNL     1     -31.966   7.884   3.060  1.00 20.00     0.078 C 
HETATM    9  C5  UNL     1     -32.440   6.498   2.638  1.00 20.00     0.026 C 
HETATM   10 CL10 UNL     1     -32.734   9.104   1.999  1.00 20.00    -0.125 Cl
ENDBRANCH   7   8
ENDBRANCH   6   7
ENDBRANCH   4   6
TORSDOF 3
ENDMDL
MODEL 2
REMARK VINA RESULT:      -4.0     12.243     12.770
REMARK  3 active torsions:
REMARK  status: ('A' for Active; 'I' for Inactive)
REMARK    1  A    between atoms: C4_4  and  C6_6 
REMARK    2  A    between atoms: C6_6  and  C7_7 
REMARK    3  A    between atoms: C7_7  and  C8_8 
ROOT
HETATM    1  C1  UNL     1     -32.196  18.701   1.360  1.00 20.00     0.029 C 
HETATM    2  C2  UNL     1     -33.118  18.455   0.192  1.00 20.00     0.034 C 
HETATM    3  C3  UNL     1     -30.836  18.446   0.743  1.00 20.00     0.168 C 
HETATM    4  C4  UNL     1     -32.315  19.041  -0.956  1.00 20.00     0.121 C 
HETATM    5  O9  UNL     1     -30.933  18.797  -0.644  1.00 20.00    -0.386 OA
ENDROOT
BRANCH   4   6
HETATM    6  C6  UNL     1     -32.654  18.434  -2.304  1.00 20.00     0.033 C 
BRANCH   6   7
HETATM    7  C7  UNL     1     -33.182  17.004  -2.155  1.00 20.00     0.022 C 
BRANCH   7   8
HETATM    8  C8  UNL     1     -33.856  16.470  -3.425  1.00 20.00     0.078 C 
HETATM    9  C5  UNL     1     -34.017  17.571  -4.467  1.00 20.00     0.026 C 
HETATM   10 CL10 UNL     1     -32.911  15.130  -4.143  1.00 20.00    -0.125 Cl
ENDBRANCH   7   8
ENDBRANCH   6   7
ENDBRANCH   4   6
TORSDOF 3
ENDMDL
MODEL 3
REMARK VINA RESULT:      -3.9      1.285      1.603
REMARK  3 active torsions:
REMARK  status: ('A' for Active; 'I' for Inactive)
REMARK    1  A    between atoms: C4_4  and  C6_6 
REMARK    2  A    between atoms: C6_6  and  C7_7 
REMARK    3  A    between atoms: C7_7  and  C8_8 
ROOT
HETATM    1  C1  UNL     1     -34.805   5.067   5.074  1.00 20.00     0.029 C 
HETATM    2  C2  UNL     1     -33.911   5.863   4.157  1.00 20.00     0.034 C 
HETATM    3  C3  UNL     1     -34.430   5.619   6.433  1.00 20.00     0.168 C 
HETATM    4  C4  UNL     1     -33.934   7.228   4.823  1.00 20.00     0.121 C 
HETATM    5  O9  UNL     1     -34.031   6.983   6.237  1.00 20.00    -0.386 OA
ENDROOT
BRANCH   4   6
HETATM    6  C6  UNL     1     -32.703   8.065   4.530  1.00 20.00     0.033 C 
BRANCH   6   7
HETATM    7  C7  UNL     1     -32.065   7.672   3.195  1.00 20.00     0.022 C 
BRANCH   7   8
HETATM    8  C8  UNL     1     -32.743   8.323   1.982  1.00 20.00     0.078 C 
HETATM    9  C5  UNL     1     -32.971   9.813   2.214  1.00 20.00     0.026 C 
HETATM   10 CL10 UNL     1     -31.757   8.114   0.503  1.00 20.00    -0.125 Cl
ENDBRANCH   7   8
ENDBRANCH   6   7
ENDBRANCH   4   6
TORSDOF 3
ENDMDL
MODEL 4
REMARK VINA RESULT:      -3.9      1.214      1.412
REMARK  3 active torsions:
REMARK  status: ('A' for Active; 'I' for Inactive)
REMARK    1  A    between atoms: C4_4  and  C6_6 
REMARK    2  A    between atoms: C6_6  and  C7_7 
REMARK    3  A    between atoms: C7_7  and  C8_8 
ROOT
HETATM    1  C1  UNL     1     -35.019   5.331   5.229  1.00 20.00     0.029 C 
HETATM    2  C2  UNL     1     -34.153   5.937   4.153  1.00 20.00     0.034 C 
HETATM    3  C3  UNL     1     -34.374   5.868   6.489  1.00 20.00     0.168 C 
HETATM    4  C4  UNL     1     -33.872   7.313   4.732  1.00 20.00     0.121 C 
HETATM    5  O9  UNL     1     -33.804   7.142   6.158  1.00 20.00    -0.386 OA
ENDROOT
BRANCH   4   6
HETATM    6  C6  UNL     1     -32.582   7.930   4.225  1.00 20.00     0.033 C 
BRANCH   6   7
HETATM    7  C7  UNL     1     -32.227   7.414   2.828  1.00 20.00     0.022 C 
BRANCH   7   8
HETATM    8  C8  UNL     1     -31.970   8.536   1.813  1.00 20.00     0.078 C 
HETATM    9  C5  UNL     1     -32.129   8.032   0.383  1.00 20.00     0.026 C 
HETATM   10 CL10 UNL     1     -33.092   9.907   2.069  1.00 20.00    -0.125 Cl
ENDBRANCH   7   8
ENDBRANCH   6   7
ENDBRANCH   4   6
TORSDOF 3
ENDMDL
MODEL 5
REMARK VINA RESULT:      -3.8     12.109     12.663
REMARK  3 active torsions:
REMARK  status: ('A' for Active; 'I' for Inactive)
REMARK    1  A    between atoms: C4_4  and  C6_6 
REMARK    2  A    between atoms: C6_6  and  C7_7 
REMARK    3  A    between atoms: C7_7  and  C8_8 
ROOT
HETATM    1  C1  UNL     1     -32.089  18.683   1.017  1.00 20.00     0.029 C 
HETATM    2  C2  UNL     1     -33.367  18.214   0.368  1.00 20.00     0.034 C 
HETATM    3  C3  UNL     1     -31.100  18.574  -0.124  1.00 20.00     0.168 C 
HETATM    4  C4  UNL     1     -33.236  18.813  -1.022  1.00 20.00     0.121 C 
HETATM    5  O9  UNL     1     -31.833  18.793  -1.337  1.00 20.00    -0.386 OA
ENDROOT
BRANCH   4   6
HETATM    6  C6  UNL     1     -34.013  18.056  -2.083  1.00 20.00     0.033 C 
BRANCH   6   7
HETATM    7  C7  UNL     1     -33.419  16.665  -2.322  1.00 20.00     0.022 C 
BRANCH   7   8
HETATM    8  C8  UNL     1     -33.389  16.264  -3.803  1.00 20.00     0.078 C 
HETATM    9  C5  UNL     1     -33.772  14.800  -3.985  1.00 20.00     0.026 C 
HETATM   10 CL10 UNL     1     -34.505  17.277  -4.768  1.00 20.00    -0.125 Cl
ENDBRANCH   7   8
ENDBRANCH   6   7
ENDBRANCH   4   6
TORSDOF 3
ENDMDL
MODEL 6
REMARK VINA RESULT:      -3.8      2.636      4.322
REMARK  3 active torsions:
REMARK  status: ('A' for Active; 'I' for Inactive)
REMARK    1  A    between atoms: C4_4  and  C6_6 
REMARK    2  A    between atoms: C6_6  and  C7_7 
REMARK    3  A    between atoms: C7_7  and  C8_8 
ROOT
HETATM    1  C1  UNL     1     -31.999   8.082   1.435  1.00 20.00     0.029 C 
HETATM    2  C2  UNL     1     -32.275   7.094   2.540  1.00 20.00     0.034 C 
HETATM    3  C3  UNL     1     -32.775   9.297   1.900  1.00 20.00     0.168 C 
HETATM    4  C4  UNL     1     -32.258   7.996   3.762  1.00 20.00     0.121 C 
HETATM    5  O9  UNL     1     -32.788   9.262   3.334  1.00 20.00    -0.386 OA
ENDROOT
BRANCH   4   6
HETATM    6  C6  UNL     1     -33.078   7.461   4.921  1.00 20.00     0.033 C 
BRANCH   6   7
HETATM    7  C7  UNL     1     -34.474   7.028   4.464  1.00 20.00     0.022 C 
BRANCH   7   8
HETATM    8  C8  UNL     1     -34.882   5.643   4.984  1.00 20.00     0.078 C 
HETATM    9  C5  UNL     1     -34.105   4.539   4.276  1.00 20.00     0.026 C 
HETATM   10 CL10 UNL     1     -34.599   5.507   6.746  1.00 20.00    -0.125 Cl
ENDBRANCH   7   8
ENDBRANCH   6   7
ENDBRANCH   4   6
TORSDOF 3
ENDMDL
MODEL 7
REMARK VINA RESULT:      -3.8     12.067     12.923
REMARK  3 active torsions:
REMARK  status: ('A' for Active; 'I' for Inactive)
REMARK    1  A    between atoms: C4_4  and  C6_6 
REMARK    2  A    between atoms: C6_6  and  C7_7 
REMARK    3  A    between atoms: C7_7  and  C8_8 
ROOT
HETATM    1  C1  UNL     1     -34.303  14.834  -5.367  1.00 20.00     0.029 C 
HETATM    2  C2  UNL     1     -33.903  14.816  -3.913  1.00 20.00     0.034 C 
HETATM    3  C3  UNL     1     -34.807  16.252  -5.535  1.00 20.00     0.168 C 
HETATM    4  C4  UNL     1     -33.318  16.207  -3.744  1.00 20.00     0.121 C 
HETATM    5  O9  UNL     1     -34.075  17.069  -4.610  1.00 20.00    -0.386 OA
ENDROOT
BRANCH   4   6
HETATM    6  C6  UNL     1     -33.384  16.722  -2.319  1.00 20.00     0.033 C 
BRANCH   6   7
HETATM    7  C7  UNL     1     -32.956  18.190  -2.235  1.00 20.00     0.022 C 
BRANCH   7   8
HETATM    8  C8  UNL     1     -32.777  18.690  -0.796  1.00 20.00     0.078 C 
HETATM    9  C5  UNL     1     -33.771  18.021   0.147  1.00 20.00     0.026 C 
HETATM   10 CL10 UNL     1     -31.118  18.371  -0.204  1.00 20.00    -0.125 Cl
ENDBRANCH   7   8
ENDBRANCH   6   7
ENDBRANCH   4   6
TORSDOF 3
ENDMDL
MODEL 8
REMARK VINA RESULT:      -3.7      9.154     10.288
REMARK  3 active torsions:
REMARK  status: ('A' for Active; 'I' for Inactive)
REMARK    1  A    between atoms: C4_4  and  C6_6 
REMARK    2  A    between atoms: C6_6  and  C7_7 
REMARK    3  A    between atoms: C7_7  and  C8_8 
ROOT
HETATM    1  C1  UNL     1     -39.332  12.067   4.470  1.00 20.00     0.029 C 
HETATM    2  C2  UNL     1     -40.577  12.841   4.824  1.00 20.00     0.034 C 
HETATM    3  C3  UNL     1     -38.597  12.035   5.794  1.00 20.00     0.168 C 
HETATM    4  C4  UNL     1     -40.869  12.321   6.221  1.00 20.00     0.121 C 
HETATM    5  O9  UNL     1     -39.592  12.059   6.827  1.00 20.00    -0.386 OA
ENDROOT
BRANCH   4   6
HETATM    6  C6  UNL     1     -41.655  13.296   7.077  1.00 20.00     0.033 C 
BRANCH   6   7
HETATM    7  C7  UNL     1     -41.387  14.746   6.661  1.00 20.00     0.022 C 
BRANCH   7   8
HETATM    8  C8  UNL     1     -40.364  15.456   7.557  1.00 20.00     0.078 C 
HETATM    9  C5  UNL     1     -40.772  16.901   7.819  1.00 20.00     0.026 C 
HETATM   10 CL10 UNL     1     -40.187  14.614   9.126  1.00 20.00    -0.125 Cl
ENDBRANCH   7   8
ENDBRANCH   6   7
ENDBRANCH   4   6
TORSDOF 3
ENDMDL
MODEL 9
REMARK VINA RESULT:      -3.6      2.593      4.573
REMARK  3 active torsions:
REMARK  status: ('A' for Active; 'I' for Inactive)
REMARK    1  A    between atoms: C4_4  and  C6_6 
REMARK    2  A    between atoms: C6_6  and  C7_7 
REMARK    3  A    between atoms: C7_7  and  C8_8 
ROOT
HETATM    1  C1  UNL     1     -32.774   9.456   0.704  1.00 20.00     0.029 C 
HETATM    2  C2  UNL     1     -32.914   9.769   2.172  1.00 20.00     0.034 C 
HETATM    3  C3  UNL     1     -31.852   8.255   0.726  1.00 20.00     0.168 C 
HETATM    4  C4  UNL     1     -32.955   8.376   2.775  1.00 20.00     0.121 C 
HETATM    5  O9  UNL     1     -32.101   7.559   1.956  1.00 20.00    -0.386 OA
ENDROOT
BRANCH   4   6
HETATM    6  C6  UNL     1     -32.486   8.326   4.217  1.00 20.00     0.033 C 
BRANCH   6   7
HETATM    7  C7  UNL     1     -33.636   7.978   5.166  1.00 20.00     0.022 C 
BRANCH   7   8
HETATM    8  C8  UNL     1     -33.994   6.486   5.167  1.00 20.00     0.078 C 
HETATM    9  C5  UNL     1     -34.211   5.974   6.586  1.00 20.00     0.026 C 
HETATM   10 CL10 UNL     1     -35.474   6.177   4.209  1.00 20.00    -0.125 Cl
ENDBRANCH   7   8
ENDBRANCH   6   7
ENDBRANCH   4   6
TORSDOF 3
ENDMDL
