MODEL 1
REMARK VINA RESULT:      -4.4      0.000      0.000
REMARK  3 active torsions:
REMARK  status: ('A' for Active; 'I' for Inactive)
REMARK    1  A    between atoms: C4_4  and  C6_6 
REMARK    2  A    between atoms: C6_6  and  C7_7 
REMARK    3  A    between atoms: C7_7  and  C8_8 
ROOT
HETATM    1  C1  UNL     1     -34.585   5.131   6.317  1.00 20.00     0.029 C 
HETATM    2  C2  UNL     1     -34.291   6.585   6.586  1.00 20.00     0.034 C 
HETATM    3  C3  UNL     1     -34.785   5.123   4.817  1.00 20.00     0.168 C 
HETATM    4  C4  UNL     1     -33.454   6.954   5.373  1.00 20.00     0.121 C 
HETATM    5  O9  UNL     1     -33.967   6.174   4.281  1.00 20.00    -0.386 OA
ENDROOT
BRANCH   4   6
HETATM    6  C6  UNL     1     -33.510   8.429   5.025  1.00 20.00     0.033 C 
BRANCH   6   7
HETATM    7  C7  UNL     1     -32.445   8.797   3.987  1.00 20.00     0.022 C 
BRANCH   7   8
HETATM    8  C8  UNL     1     -32.891   8.539   2.542  1.00 20.00     0.078 C 
HETATM    9  C5  UNL     1     -32.004   7.497   1.871  1.00 20.00     0.026 C 
HETATM   10 CL10 UNL     1     -32.846  10.044   1.576  1.00 20.00    -0.125 Cl
ENDBRANCH   7   8
ENDBRANCH   6   7
ENDBRANCH   4   6
TORSDOF 3
ENDMDL
MODEL 2
REMARK VINA RESULT:      -4.4      2.430      4.499
REMARK  3 active torsions:
REMARK  status: ('A' for Active; 'I' for Inactive)
REMARK    1  A    between atoms: C4_4  and  C6_6 
REMARK    2  A    between atoms: C6_6  and  C7_7 
REMARK    3  A    between atoms: C7_7  and  C8_8 
ROOT
HETATM    1  C1  UNL     1     -32.005   7.916   1.661  1.00 20.00     0.029 C 
HETATM    2  C2  UNL     1     -32.398   7.002   2.794  1.00 20.00     0.034 C 
HETATM    3  C3  UNL     1     -32.698   9.206   2.044  1.00 20.00     0.168 C 
HETATM    4  C4  UNL     1     -32.355   7.951   3.978  1.00 20.00     0.121 C 
HETATM    5  O9  UNL     1     -32.766   9.234   3.477  1.00 20.00    -0.386 OA
ENDROOT
BRANCH   4   6
HETATM    6  C6  UNL     1     -33.258   7.532   5.122  1.00 20.00     0.033 C 
BRANCH   6   7
HETATM    7  C7  UNL     1     -34.561   6.912   4.606  1.00 20.00     0.022 C 
BRANCH   7   8
HETATM    8  C8  UNL     1     -34.837   5.516   5.179  1.00 20.00     0.078 C 
HETATM    9  C5  UNL     1     -34.397   5.423   6.636  1.00 20.00     0.026 C 
HETATM   10 CL10 UNL     1     -33.986   4.254   4.238  1.00 20.00    -0.125 Cl
ENDBRANCH   7   8
ENDBRANCH   6   7
ENDBRANCH   4   6
TORSDOF 3
ENDMDL
MODEL 3
REMARK VINA RESULT:      -4.4      1.772      1.960
REMARK  3 active torsions:
REMARK  status: ('A' for Active; 'I' for Inactive)
REMARK    1  A    between atoms: C4_4  and  C6_6 
REMARK    2  A    between atoms: C6_6  and  C7_7 
REMARK    3  A    between atoms: C7_7  and  C8_8 
ROOT
HETATM    1  C1  UNL     1     -34.998   5.161   5.860  1.00 20.00     0.029 C 
HETATM    2  C2  UNL     1     -34.992   6.213   4.779  1.00 20.00     0.034 C 
HETATM    3  C3  UNL     1     -33.684   5.424   6.562  1.00 20.00     0.168 C 
HETATM    4  C4  UNL     1     -34.361   7.388   5.505  1.00 20.00     0.121 C 
HETATM    5  O9  UNL     1     -33.410   6.827   6.425  1.00 20.00    -0.386 OA
ENDROOT
BRANCH   4   6
HETATM    6  C6  UNL     1     -33.665   8.368   4.579  1.00 20.00     0.033 C 
BRANCH   6   7
HETATM    7  C7  UNL     1     -32.209   7.961   4.329  1.00 20.00     0.022 C 
BRANCH   7   8
HETATM    8  C8  UNL     1     -31.961   7.438   2.909  1.00 20.00     0.078 C 
HETATM    9  C5  UNL     1     -32.527   8.394   1.865  1.00 20.00     0.026 C 
HETATM   10 CL10 UNL     1     -32.703   5.826   2.677  1.00 20.00    -0.125 Cl
ENDBRANCH   7   8
ENDBRANCH   6   7
ENDBRANCH   4   6
TORSDOF 3
ENDMDL
MODEL 4
REMARK VINA RESULT:      -4.3      1.110      1.506
REMARK  3 active torsions:
REMARK  status: ('A' for Active; 'I' for Inactive)
REMARK    1  A    between atoms: C4_4  and  C6_6 
REMARK    2  A    between atoms: C6_6  and  C7_7 
REMARK    3  A    between atoms: C7_7  and  C8_8 
ROOT
HETATM    1  C1  UNL     1     -34.755   5.082   5.066  1.00 20.00     0.029 C 
HETATM    2  C2  UNL     1     -33.907   5.874   4.102  1.00 20.00     0.034 C 
HETATM    3  C3  UNL     1     -34.341   5.666   6.400  1.00 20.00     0.168 C 
HETATM    4  C4  UNL     1     -33.929   7.252   4.741  1.00 20.00     0.121 C 
HETATM    5  O9  UNL     1     -33.972   7.033   6.161  1.00 20.00    -0.386 OA
ENDROOT
BRANCH   4   6
HETATM    6  C6  UNL     1     -32.724   8.101   4.388  1.00 20.00     0.033 C 
BRANCH   6   7
HETATM    7  C7  UNL     1     -32.092   7.650   3.067  1.00 20.00     0.022 C 
BRANCH   7   8
HETATM    8  C8  UNL     1     -32.727   8.308   1.834  1.00 20.00     0.078 C 
HETATM    9  C5  UNL     1     -31.861   8.105   0.597  1.00 20.00     0.026 C 
HETATM   10 CL10 UNL     1     -32.962  10.063   2.092  1.00 20.00    -0.125 Cl
ENDBRANCH   7   8
ENDBRANCH   6   7
ENDBRANCH   4   6
TORSDOF 3
ENDMDL
MODEL 5
REMARK VINA RESULT:      -4.1     11.902     12.468
REMARK  3 active torsions:
REMARK  status: ('A' for Active; 'I' for Inactive)
REMARK    1  A    between atoms: C4_4  and  C6_6 
REMARK    2  A    between atoms: C6_6  and  C7_7 
REMARK    3  A    between atoms: C7_7  and  C8_8 
ROOT
HETATM    1  C1  UNL     1     -32.529  18.514   0.883  1.00 20.00     0.029 C 
HETATM    2  C2  UNL     1     -33.412  18.136  -0.280  1.00 20.00     0.034 C 
HETATM    3  C3  UNL     1     -31.160  18.550   0.238  1.00 20.00     0.168 C 
HETATM    4  C4  UNL     1     -32.764  18.908  -1.416  1.00 20.00     0.121 C 
HETATM    5  O9  UNL     1     -31.354  18.925  -1.135  1.00 20.00    -0.386 OA
ENDROOT
BRANCH   4   6
HETATM    6  C6  UNL     1     -33.008  18.295  -2.781  1.00 20.00     0.033 C 
BRANCH   6   7
HETATM    7  C7  UNL     1     -33.300  16.794  -2.674  1.00 20.00     0.022 C 
BRANCH   7   8
HETATM    8  C8  UNL     1     -33.532  16.122  -4.034  1.00 20.00     0.078 C 
HETATM    9  C5  UNL     1     -34.602  16.857  -4.833  1.00 20.00     0.026 C 
HETATM   10 CL10 UNL     1     -34.032  14.416  -3.831  1.00 20.00    -0.125 Cl
ENDBRANCH   7   8
ENDBRANCH   6   7
ENDBRANCH   4   6
TORSDOF 3
ENDMDL
MODEL 6
REMARK VINA RESULT:      -4.1      1.431      2.055
REMARK  3 active torsions:
REMARK  status: ('A' for Active; 'I' for Inactive)
REMARK    1  A    between atoms: C4_4  and  C6_6 
REMARK    2  A    between atoms: C6_6  and  C7_7 
REMARK    3  A    between atoms: C7_7  and  C8_8 
ROOT
HETATM    1  C1  UNL     1     -34.882   5.756   5.385  1.00 20.00     0.029 C 
HETATM    2  C2  UNL     1     -34.012   6.013   4.179  1.00 20.00     0.034 C 
HETATM    3  C3  UNL     1     -34.167   6.545   6.460  1.00 20.00     0.168 C 
HETATM    4  C4  UNL     1     -33.626   7.466   4.389  1.00 20.00     0.121 C 
HETATM    5  O9  UNL     1     -33.526   7.653   5.810  1.00 20.00    -0.386 OA
ENDROOT
BRANCH   4   6
HETATM    6  C6  UNL     1     -32.315   7.845   3.726  1.00 20.00     0.033 C 
BRANCH   6   7
HETATM    7  C7  UNL     1     -32.313   7.470   2.240  1.00 20.00     0.022 C 
BRANCH   7   8
HETATM    8  C8  UNL     1     -32.211   8.684   1.308  1.00 20.00     0.078 C 
HETATM    9  C5  UNL     1     -33.006   9.864   1.855  1.00 20.00     0.026 C 
HETATM   10 CL10 UNL     1     -32.814   8.291  -0.329  1.00 20.00    -0.125 Cl
ENDBRANCH   7   8
ENDBRANCH   6   7
ENDBRANCH   4   6
TORSDOF 3
ENDMDL
MODEL 7
REMARK VINA RESULT:      -4.0     11.698     12.491
REMARK  3 active torsions:
REMARK  status: ('A' for Active; 'I' for Inactive)
REMARK    1  A    between atoms: C4_4  and  C6_6 
REMARK    2  A    between atoms: C6_6  and  C7_7 
REMARK    3  A    between atoms: C7_7  and  C8_8 
ROOT
HETATM    1  C1  UNL     1     -34.159  14.958  -5.255  1.00 20.00     0.029 C 
HETATM    2  C2  UNL     1     -33.568  15.015  -3.868  1.00 20.00     0.034 C 
HETATM    3  C3  UNL     1     -35.053  16.179  -5.264  1.00 20.00     0.168 C 
HETATM    4  C4  UNL     1     -33.372  16.509  -3.683  1.00 20.00     0.121 C 
HETATM    5  O9  UNL     1     -34.452  17.144  -4.387  1.00 20.00    -0.386 OA
ENDROOT
BRANCH   4   6
HETATM    6  C6  UNL     1     -33.377  16.945  -2.231  1.00 20.00     0.033 C 
BRANCH   6   7
HETATM    7  C7  UNL     1     -32.713  18.315  -2.058  1.00 20.00     0.022 C 
BRANCH   7   8
HETATM    8  C8  UNL     1     -32.615  18.761  -0.593  1.00 20.00     0.078 C 
HETATM    9  C5  UNL     1     -31.237  18.454  -0.017  1.00 20.00     0.026 C 
HETATM   10 CL10 UNL     1     -33.854  17.949   0.411  1.00 20.00    -0.125 Cl
ENDBRANCH   7   8
ENDBRANCH   6   7
ENDBRANCH   4   6
TORSDOF 3
ENDMDL
MODEL 8
REMARK VINA RESULT:      -4.0     12.036     12.510
REMARK  3 active torsions:
REMARK  status: ('A' for Active; 'I' for Inactive)
REMARK    1  A    between atoms: C4_4  and  C6_6 
REMARK    2  A    between atoms: C6_6  and  C7_7 
REMARK    3  A    between atoms: C7_7  and  C8_8 
ROOT
HETATM    1  C1  UNL     1     -32.562  18.835   0.963  1.00 20.00     0.029 C 
HETATM    2  C2  UNL     1     -33.454  18.409  -0.176  1.00 20.00     0.034 C 
HETATM    3  C3  UNL     1     -31.185  18.699   0.349  1.00 20.00     0.168 C 
HETATM    4  C4  UNL     1     -32.729  19.007  -1.369  1.00 20.00     0.121 C 
HETATM    5  O9  UNL     1     -31.328  18.944  -1.058  1.00 20.00    -0.386 OA
ENDROOT
BRANCH   4   6
HETATM    6  C6  UNL     1     -33.002  18.278  -2.670  1.00 20.00     0.033 C 
BRANCH   6   7
HETATM    7  C7  UNL     1     -33.367  16.810  -2.420  1.00 20.00     0.022 C 
BRANCH   7   8
HETATM    8  C8  UNL     1     -33.894  16.095  -3.671  1.00 20.00     0.078 C 
HETATM    9  C5  UNL     1     -32.884  15.077  -4.187  1.00 20.00     0.026 C 
HETATM   10 CL10 UNL     1     -34.253  17.264  -4.977  1.00 20.00    -0.125 Cl
ENDBRANCH   7   8
ENDBRANCH   6   7
ENDBRANCH   4   6
TORSDOF 3
ENDMDL
MODEL 9
REMARK VINA RESULT:      -4.0      9.220     10.204
REMARK  3 active torsions:
REMARK  status: ('A' for Active; 'I' for Inactive)
REMARK    1  A    between atoms: C4_4  and  C6_6 
REMARK    2  A    between atoms: C6_6  and  C7_7 
REMARK    3  A    between atoms: C7_7  and  C8_8 
ROOT
HETATM    1  C1  UNL     1     -39.328  12.089   4.428  1.00 20.00     0.029 C 
HETATM    2  C2  UNL     1     -40.568  12.858   4.810  1.00 20.00     0.034 C 
HETATM    3  C3  UNL     1     -38.582  12.024   5.743  1.00 20.00     0.168 C 
HETATM    4  C4  UNL     1     -40.850  12.309   6.197  1.00 20.00     0.121 C 
HETATM    5  O9  UNL     1     -39.569  12.029   6.785  1.00 20.00    -0.386 OA
ENDROOT
BRANCH   4   6
HETATM    6  C6  UNL     1     -41.624  13.267   7.082  1.00 20.00     0.033 C 
BRANCH   6   7
HETATM    7  C7  UNL     1     -41.366  14.724   6.685  1.00 20.00     0.022 C 
BRANCH   7   8
HETATM    8  C8  UNL     1     -40.328  15.421   7.574  1.00 20.00     0.078 C 
HETATM    9  C5  UNL     1     -40.310  14.816   8.973  1.00 20.00     0.026 C 
HETATM   10 CL10 UNL     1     -40.666  17.172   7.707  1.00 20.00    -0.125 Cl
ENDBRANCH   7   8
ENDBRANCH   6   7
ENDBRANCH   4   6
TORSDOF 3
ENDMDL
