MODEL 1
REMARK VINA RESULT:      -4.2      0.000      0.000
REMARK  5 active torsions:
REMARK  status: ('A' for Active; 'I' for Inactive)
REMARK    1  A    between atoms: C1_1  and  C6_6 
REMARK    2  A    between atoms: C1_1  and  C9_9 
REMARK    3  A    between atoms: C6_6  and  C10_10 
REMARK    4  A    between atoms: C7_7  and  C8_8 
REMARK    5  A    between atoms: C8_8  and  C10_10 
ROOT
HETATM    1  C6  UNL     1     -33.906   7.822   4.810  1.00 20.00     0.082 C 
ENDROOT
BRANCH   1   2
HETATM    2  C1  UNL     1     -34.088   6.598   5.701  1.00 20.00     0.130 C 
HETATM    3  O11 UNL     1     -33.632   6.550   6.843  1.00 20.00    -0.298 OA
BRANCH   2   4
HETATM    4  C9  UNL     1     -34.916   5.451   5.118  1.00 20.00     0.047 C 
HETATM    5  C3  UNL     1     -35.955   5.972   4.127  1.00 20.00     0.017 C 
HETATM    6  C4  UNL     1     -34.000   4.429   4.454  1.00 20.00     0.017 C 
ENDBRANCH   2   4
ENDBRANCH   1   2
BRANCH   1   7
HETATM    7  C10 UNL     1     -32.455   8.036   4.347  1.00 20.00    -0.012 C 
HETATM    8  C5  UNL     1     -31.909   9.382   4.836  1.00 20.00     0.010 C 
BRANCH   7   9
HETATM    9  C8  UNL     1     -32.323   7.888   2.816  1.00 20.00     0.004 C 
BRANCH   9  10
HETATM   10  C7  UNL     1     -32.753   9.111   2.001  1.00 20.00    -0.004 C 
HETATM   11  C2  UNL     1     -32.525   8.888   0.513  1.00 20.00     0.005 C 
ENDBRANCH   9  10
ENDBRANCH   7   9
ENDBRANCH   1   7
TORSDOF 5
ENDMDL
MODEL 2
REMARK VINA RESULT:      -4.1      1.169      1.826
REMARK  5 active torsions:
REMARK  status: ('A' for Active; 'I' for Inactive)
REMARK    1  A    between atoms: C1_1  and  C6_6 
REMARK    2  A    between atoms: C1_1  and  C9_9 
REMARK    3  A    between atoms: C6_6  and  C10_10 
REMARK    4  A    between atoms: C7_7  and  C8_8 
REMARK    5  A    between atoms: C8_8  and  C10_10 
ROOT
HETATM    1  C6  UNL     1     -33.938   8.304   4.811  1.00 20.00     0.082 C 
ENDROOT
BRANCH   1   2
HETATM    2  C1  UNL     1     -33.849   7.185   5.845  1.00 20.00     0.130 C 
HETATM    3  O11 UNL     1     -33.012   7.199   6.747  1.00 20.00    -0.298 OA
BRANCH   2   4
HETATM    4  C9  UNL     1     -34.893   6.073   5.733  1.00 20.00     0.047 C 
HETATM    5  C3  UNL     1     -35.579   6.097   4.369  1.00 20.00     0.017 C 
HETATM    6  C4  UNL     1     -34.243   4.718   5.987  1.00 20.00     0.017 C 
ENDBRANCH   2   4
ENDBRANCH   1   2
BRANCH   1   7
HETATM    7  C10 UNL     1     -32.629   8.532   4.039  1.00 20.00    -0.012 C 
HETATM    8  C5  UNL     1     -32.852   9.443   2.826  1.00 20.00     0.010 C 
BRANCH   7   9
HETATM    9  C8  UNL     1     -31.969   7.196   3.636  1.00 20.00     0.004 C 
BRANCH   9  10
HETATM   10  C7  UNL     1     -32.494   6.572   2.339  1.00 20.00    -0.004 C 
HETATM   11  C2  UNL     1     -32.869   5.111   2.544  1.00 20.00     0.005 C 
ENDBRANCH   9  10
ENDBRANCH   7   9
ENDBRANCH   1   7
TORSDOF 5
ENDMDL
MODEL 3
REMARK VINA RESULT:      -4.1     11.518     12.495
REMARK  5 active torsions:
REMARK  status: ('A' for Active; 'I' for Inactive)
REMARK    1  A    between atoms: C1_1  and  C6_6 
REMARK    2  A    between atoms: C1_1  and  C9_9 
REMARK    3  A    between atoms: C6_6  and  C10_10 
REMARK    4  A    between atoms: C7_7  and  C8_8 
REMARK    5  A    between atoms: C8_8  and  C10_10 
ROOT
HETATM    1  C6  UNL     1     -33.094  15.858  -3.607  1.00 20.00     0.082 C 
ENDROOT
BRANCH   1   2
HETATM    2  C1  UNL     1     -34.072  14.941  -4.334  1.00 20.00     0.130 C 
HETATM    3  O11 UNL     1     -34.280  13.786  -3.961  1.00 20.00    -0.298 OA
BRANCH   2   4
HETATM    4  C9  UNL     1     -34.822  15.550  -5.519  1.00 20.00     0.047 C 
HETATM    5  C3  UNL     1     -34.081  15.292  -6.830  1.00 20.00     0.017 C 
HETATM    6  C4  UNL     1     -36.240  14.996  -5.582  1.00 20.00     0.017 C 
ENDBRANCH   2   4
ENDBRANCH   1   2
BRANCH   1   7
HETATM    7  C10 UNL     1     -33.747  17.134  -3.048  1.00 20.00    -0.012 C 
HETATM    8  C5  UNL     1     -33.308  18.373  -3.836  1.00 20.00     0.010 C 
BRANCH   7   9
HETATM    9  C8  UNL     1     -33.475  17.291  -1.536  1.00 20.00     0.004 C 
BRANCH   9  10
HETATM   10  C7  UNL     1     -32.833  18.619  -1.122  1.00 20.00    -0.004 C 
HETATM   11  C2  UNL     1     -31.469  18.395  -0.485  1.00 20.00     0.005 C 
ENDBRANCH   9  10
ENDBRANCH   7   9
ENDBRANCH   1   7
TORSDOF 5
ENDMDL
MODEL 4
REMARK VINA RESULT:      -3.9      1.401      1.900
REMARK  5 active torsions:
REMARK  status: ('A' for Active; 'I' for Inactive)
REMARK    1  A    between atoms: C1_1  and  C6_6 
REMARK    2  A    between atoms: C1_1  and  C9_9 
REMARK    3  A    between atoms: C6_6  and  C10_10 
REMARK    4  A    between atoms: C7_7  and  C8_8 
REMARK    5  A    between atoms: C8_8  and  C10_10 
ROOT
HETATM    1  C6  UNL     1     -33.945   7.651   4.048  1.00 20.00     0.082 C 
ENDROOT
BRANCH   1   2
HETATM    2  C1  UNL     1     -34.231   6.212   4.463  1.00 20.00     0.130 C 
HETATM    3  O11 UNL     1     -34.054   5.266   3.696  1.00 20.00    -0.298 OA
BRANCH   2   4
HETATM    4  C9  UNL     1     -34.699   6.002   5.904  1.00 20.00     0.047 C 
HETATM    5  C3  UNL     1     -34.129   4.709   6.485  1.00 20.00     0.017 C 
HETATM    6  C4  UNL     1     -34.306   7.199   6.762  1.00 20.00     0.017 C 
ENDBRANCH   2   4
ENDBRANCH   1   2
BRANCH   1   7
HETATM    7  C10 UNL     1     -32.449   7.946   3.841  1.00 20.00    -0.012 C 
HETATM    8  C5  UNL     1     -31.997   9.141   4.687  1.00 20.00     0.010 C 
BRANCH   7   9
HETATM    9  C8  UNL     1     -32.114   8.144   2.347  1.00 20.00     0.004 C 
BRANCH   9  10
HETATM   10  C7  UNL     1     -32.789   9.345   1.678  1.00 20.00    -0.004 C 
HETATM   11  C2  UNL     1     -32.733   9.234   0.161  1.00 20.00     0.005 C 
ENDBRANCH   9  10
ENDBRANCH   7   9
ENDBRANCH   1   7
TORSDOF 5
ENDMDL
MODEL 5
REMARK VINA RESULT:      -3.8     11.617     12.533
REMARK  5 active torsions:
REMARK  status: ('A' for Active; 'I' for Inactive)
REMARK    1  A    between atoms: C1_1  and  C6_6 
REMARK    2  A    between atoms: C1_1  and  C9_9 
REMARK    3  A    between atoms: C6_6  and  C10_10 
REMARK    4  A    between atoms: C7_7  and  C8_8 
REMARK    5  A    between atoms: C8_8  and  C10_10 
ROOT
HETATM    1  C6  UNL     1     -33.001  17.920  -0.920  1.00 20.00     0.082 C 
ENDROOT
BRANCH   1   2
HETATM    2  C1  UNL     1     -31.804  18.564  -0.229  1.00 20.00     0.130 C 
HETATM    3  O11 UNL     1     -30.685  18.575  -0.741  1.00 20.00    -0.298 OA
BRANCH   2   4
HETATM    4  C9  UNL     1     -32.081  19.246   1.111  1.00 20.00     0.047 C 
HETATM    5  C3  UNL     1     -33.575  19.257   1.425  1.00 20.00     0.017 C 
HETATM    6  C4  UNL     1     -31.300  18.554   2.222  1.00 20.00     0.017 C 
ENDBRANCH   2   4
ENDBRANCH   1   2
BRANCH   1   7
HETATM    7  C10 UNL     1     -33.371  18.584  -2.257  1.00 20.00    -0.012 C 
HETATM    8  C5  UNL     1     -34.743  19.263  -2.178  1.00 20.00     0.010 C 
BRANCH   7   9
HETATM    9  C8  UNL     1     -33.297  17.580  -3.427  1.00 20.00     0.004 C 
BRANCH   9  10
HETATM   10  C7  UNL     1     -33.290  16.103  -3.022  1.00 20.00    -0.004 C 
HETATM   11  C2  UNL     1     -33.577  15.203  -4.216  1.00 20.00     0.005 C 
ENDBRANCH   9  10
ENDBRANCH   7   9
ENDBRANCH   1   7
TORSDOF 5
ENDMDL
MODEL 6
REMARK VINA RESULT:      -3.8      1.806      3.208
REMARK  5 active torsions:
REMARK  status: ('A' for Active; 'I' for Inactive)
REMARK    1  A    between atoms: C1_1  and  C6_6 
REMARK    2  A    between atoms: C1_1  and  C9_9 
REMARK    3  A    between atoms: C6_6  and  C10_10 
REMARK    4  A    between atoms: C7_7  and  C8_8 
REMARK    5  A    between atoms: C8_8  and  C10_10 
ROOT
HETATM    1  C6  UNL     1     -34.017   4.866   3.964  1.00 20.00     0.082 C 
ENDROOT
BRANCH   1   2
HETATM    2  C1  UNL     1     -35.011   5.697   4.769  1.00 20.00     0.130 C 
HETATM    3  O11 UNL     1     -36.031   6.163   4.261  1.00 20.00    -0.298 OA
BRANCH   2   4
HETATM    4  C9  UNL     1     -34.700   5.874   6.256  1.00 20.00     0.047 C 
HETATM    5  C3  UNL     1     -33.633   4.884   6.717  1.00 20.00     0.017 C 
HETATM    6  C4  UNL     1     -34.263   7.308   6.532  1.00 20.00     0.017 C 
ENDBRANCH   2   4
ENDBRANCH   1   2
BRANCH   1   7
HETATM    7  C10 UNL     1     -33.350   5.645   2.818  1.00 20.00    -0.012 C 
HETATM    8  C5  UNL     1     -32.763   4.694   1.769  1.00 20.00     0.010 C 
BRANCH   7   9
HETATM    9  C8  UNL     1     -32.291   6.635   3.349  1.00 20.00     0.004 C 
BRANCH   9  10
HETATM   10  C7  UNL     1     -32.665   8.116   3.235  1.00 20.00    -0.004 C 
HETATM   11  C2  UNL     1     -32.242   8.887   4.478  1.00 20.00     0.005 C 
ENDBRANCH   9  10
ENDBRANCH   7   9
ENDBRANCH   1   7
TORSDOF 5
ENDMDL
MODEL 7
REMARK VINA RESULT:      -3.8      9.804     10.834
REMARK  5 active torsions:
REMARK  status: ('A' for Active; 'I' for Inactive)
REMARK    1  A    between atoms: C1_1  and  C6_6 
REMARK    2  A    between atoms: C1_1  and  C9_9 
REMARK    3  A    between atoms: C6_6  and  C10_10 
REMARK    4  A    between atoms: C7_7  and  C8_8 
REMARK    5  A    between atoms: C8_8  and  C10_10 
ROOT
HETATM    1  C6  UNL     1     -42.209  14.230   6.951  1.00 20.00     0.082 C 
ENDROOT
BRANCH   1   2
HETATM    2  C1  UNL     1     -41.572  14.156   8.336  1.00 20.00     0.130 C 
HETATM    3  O11 UNL     1     -41.949  13.346   9.182  1.00 20.00    -0.298 OA
BRANCH   2   4
HETATM    4  C9  UNL     1     -40.403  15.107   8.596  1.00 20.00     0.047 C 
HETATM    5  C3  UNL     1     -40.723  16.519   8.109  1.00 20.00     0.017 C 
HETATM    6  C4  UNL     1     -40.054  15.113  10.080  1.00 20.00     0.017 C 
ENDBRANCH   2   4
ENDBRANCH   1   2
BRANCH   1   7
HETATM    7  C10 UNL     1     -41.263  13.806   5.816  1.00 20.00    -0.012 C 
HETATM    8  C5  UNL     1     -41.885  14.083   4.443  1.00 20.00     0.010 C 
BRANCH   7   9
HETATM    9  C8  UNL     1     -40.834  12.330   5.961  1.00 20.00     0.004 C 
BRANCH   9  10
HETATM   10  C7  UNL     1     -39.336  12.064   5.784  1.00 20.00    -0.004 C 
HETATM   11  C2  UNL     1     -39.009  11.691   4.345  1.00 20.00     0.005 C 
ENDBRANCH   9  10
ENDBRANCH   7   9
ENDBRANCH   1   7
TORSDOF 5
ENDMDL
MODEL 8
REMARK VINA RESULT:      -3.8      1.595      4.503
REMARK  5 active torsions:
REMARK  status: ('A' for Active; 'I' for Inactive)
REMARK    1  A    between atoms: C1_1  and  C6_6 
REMARK    2  A    between atoms: C1_1  and  C9_9 
REMARK    3  A    between atoms: C6_6  and  C10_10 
REMARK    4  A    between atoms: C7_7  and  C8_8 
REMARK    5  A    between atoms: C8_8  and  C10_10 
ROOT
HETATM    1  C6  UNL     1     -32.251   7.966   4.362  1.00 20.00     0.082 C 
ENDROOT
BRANCH   1   2
HETATM    2  C1  UNL     1     -32.291   7.491   2.913  1.00 20.00     0.130 C 
HETATM    3  O11 UNL     1     -32.558   6.326   2.617  1.00 20.00    -0.298 OA
BRANCH   2   4
HETATM    4  C9  UNL     1     -32.034   8.553   1.843  1.00 20.00     0.047 C 
HETATM    5  C3  UNL     1     -32.016   7.934   0.446  1.00 20.00     0.017 C 
HETATM    6  C4  UNL     1     -33.085   9.652   1.933  1.00 20.00     0.017 C 
ENDBRANCH   2   4
ENDBRANCH   1   2
BRANCH   1   7
HETATM    7  C10 UNL     1     -33.580   7.768   5.110  1.00 20.00    -0.012 C 
HETATM    8  C5  UNL     1     -34.100   9.093   5.678  1.00 20.00     0.010 C 
BRANCH   7   9
HETATM    9  C8  UNL     1     -33.455   6.687   6.206  1.00 20.00     0.004 C 
BRANCH   9  10
HETATM   10  C7  UNL     1     -34.582   5.650   6.234  1.00 20.00    -0.004 C 
HETATM   11  C2  UNL     1     -34.926   5.173   4.830  1.00 20.00     0.005 C 
ENDBRANCH   9  10
ENDBRANCH   7   9
ENDBRANCH   1   7
TORSDOF 5
ENDMDL
MODEL 9
REMARK VINA RESULT:      -3.8      1.594      2.837
REMARK  5 active torsions:
REMARK  status: ('A' for Active; 'I' for Inactive)
REMARK    1  A    between atoms: C1_1  and  C6_6 
REMARK    2  A    between atoms: C1_1  and  C9_9 
REMARK    3  A    between atoms: C6_6  and  C10_10 
REMARK    4  A    between atoms: C7_7  and  C8_8 
REMARK    5  A    between atoms: C8_8  and  C10_10 
ROOT
HETATM    1  C6  UNL     1     -32.840   5.644   2.854  1.00 20.00     0.082 C 
ENDROOT
BRANCH   1   2
HETATM    2  C1  UNL     1     -33.773   5.014   3.884  1.00 20.00     0.130 C 
HETATM    3  O11 UNL     1     -33.808   3.798   4.072  1.00 20.00    -0.298 OA
BRANCH   2   4
HETATM    4  C9  UNL     1     -34.623   5.980   4.710  1.00 20.00     0.047 C 
HETATM    5  C3  UNL     1     -36.029   6.111   4.129  1.00 20.00     0.017 C 
HETATM    6  C4  UNL     1     -34.679   5.519   6.162  1.00 20.00     0.017 C 
ENDBRANCH   2   4
ENDBRANCH   1   2
BRANCH   1   7
HETATM    7  C10 UNL     1     -32.776   7.178   2.939  1.00 20.00    -0.012 C 
HETATM    8  C5  UNL     1     -32.340   7.790   1.603  1.00 20.00     0.010 C 
BRANCH   7   9
HETATM    9  C8  UNL     1     -31.873   7.642   4.102  1.00 20.00     0.004 C 
BRANCH   9  10
HETATM   10  C7  UNL     1     -32.249   8.990   4.725  1.00 20.00    -0.004 C 
HETATM   11  C2  UNL     1     -33.477   8.862   5.614  1.00 20.00     0.005 C 
ENDBRANCH   9  10
ENDBRANCH   7   9
ENDBRANCH   1   7
TORSDOF 5
ENDMDL
