MODEL 1
REMARK VINA RESULT:      -3.8      0.000      0.000
REMARK  5 active torsions:
REMARK  status: ('A' for Active; 'I' for Inactive)
REMARK    1  A    between atoms: C1_1  and  C7_7 
REMARK    2  A    between atoms: C1_1  and  C11_11 
REMARK    3  A    between atoms: C7_7  and  C10_10 
REMARK    4  A    between atoms: C8_8  and  C9_9 
REMARK    5  A    between atoms: C9_9  and  C10_10 
ROOT
HETATM    1  C1  UNL     1     -34.918  16.651  -4.843  1.00 20.00     0.134 C 
HETATM    2  O12 UNL     1     -35.983  17.210  -5.113  1.00 20.00    -0.297 OA
ENDROOT
BRANCH   1   3
HETATM    3  C7  UNL     1     -33.850  17.361  -4.011  1.00 20.00     0.083 C 
BRANCH   3   4
HETATM    4  C10 UNL     1     -34.326  17.748  -2.598  1.00 20.00    -0.012 C 
HETATM    5  C3  UNL     1     -34.567  19.261  -2.511  1.00 20.00     0.010 C 
BRANCH   4   6
HETATM    6  C9  UNL     1     -33.282  17.275  -1.564  1.00 20.00     0.004 C 
BRANCH   6   7
HETATM    7  C8  UNL     1     -32.895  18.352  -0.547  1.00 20.00    -0.004 C 
HETATM    8  C2  UNL     1     -31.384  18.483  -0.428  1.00 20.00     0.005 C 
ENDBRANCH   6   7
ENDBRANCH   4   6
ENDBRANCH   3   4
ENDBRANCH   1   3
BRANCH   1   9
HETATM    9  C11 UNL     1     -34.615  15.222  -5.340  1.00 20.00     0.009 C 
HETATM   10  C4  UNL     1     -33.593  14.534  -4.426  1.00 20.00     0.022 C 
HETATM   11  C5  UNL     1     -35.922  14.421  -5.380  1.00 20.00     0.022 C 
HETATM   12  C6  UNL     1     -34.028  15.288  -6.762  1.00 20.00     0.022 C 
ENDBRANCH   1   9
TORSDOF 5
ENDMDL
MODEL 2
REMARK VINA RESULT:      -3.8     12.338     13.947
REMARK  5 active torsions:
REMARK  status: ('A' for Active; 'I' for Inactive)
REMARK    1  A    between atoms: C1_1  and  C7_7 
REMARK    2  A    between atoms: C1_1  and  C11_11 
REMARK    3  A    between atoms: C7_7  and  C10_10 
REMARK    4  A    between atoms: C8_8  and  C9_9 
REMARK    5  A    between atoms: C9_9  and  C10_10 
ROOT
HETATM    1  C1  UNL     1     -41.048  14.443   8.482  1.00 20.00     0.134 C 
HETATM    2  O12 UNL     1     -40.140  13.920   9.133  1.00 20.00    -0.297 OA
ENDROOT
BRANCH   1   3
HETATM    3  C7  UNL     1     -41.772  13.665   7.384  1.00 20.00     0.083 C 
BRANCH   3   4
HETATM    4  C10 UNL     1     -40.971  13.561   6.071  1.00 20.00    -0.012 C 
HETATM    5  C3  UNL     1     -41.832  14.009   4.884  1.00 20.00     0.010 C 
BRANCH   4   6
HETATM    6  C9  UNL     1     -40.468  12.112   5.897  1.00 20.00     0.004 C 
BRANCH   6   7
HETATM    7  C8  UNL     1     -39.015  12.021   5.423  1.00 20.00    -0.004 C 
HETATM    8  C2  UNL     1     -38.937  11.647   3.950  1.00 20.00     0.005 C 
ENDBRANCH   6   7
ENDBRANCH   4   6
ENDBRANCH   3   4
ENDBRANCH   1   3
BRANCH   1   9
HETATM    9  C11 UNL     1     -41.480  15.901   8.739  1.00 20.00     0.009 C 
HETATM   10  C4  UNL     1     -42.977  16.081   8.454  1.00 20.00     0.022 C 
HETATM   11  C5  UNL     1     -41.165  16.265  10.196  1.00 20.00     0.022 C 
HETATM   12  C6  UNL     1     -40.692  16.842   7.810  1.00 20.00     0.022 C 
ENDBRANCH   1   9
TORSDOF 5
ENDMDL
MODEL 3
REMARK VINA RESULT:      -3.8     12.384     13.969
REMARK  5 active torsions:
REMARK  status: ('A' for Active; 'I' for Inactive)
REMARK    1  A    between atoms: C1_1  and  C7_7 
REMARK    2  A    between atoms: C1_1  and  C11_11 
REMARK    3  A    between atoms: C7_7  and  C10_10 
REMARK    4  A    between atoms: C8_8  and  C9_9 
REMARK    5  A    between atoms: C9_9  and  C10_10 
ROOT
HETATM    1  C1  UNL     1     -41.151  14.350   8.503  1.00 20.00     0.134 C 
HETATM    2  O12 UNL     1     -40.290  13.841   9.224  1.00 20.00    -0.297 OA
ENDROOT
BRANCH   1   3
HETATM    3  C7  UNL     1     -41.798  13.551   7.372  1.00 20.00     0.083 C 
BRANCH   3   4
HETATM    4  C10 UNL     1     -40.948  13.502   6.087  1.00 20.00    -0.012 C 
HETATM    5  C3  UNL     1     -41.788  13.925   4.875  1.00 20.00     0.010 C 
BRANCH   4   6
HETATM    6  C9  UNL     1     -40.370  12.082   5.915  1.00 20.00     0.004 C 
BRANCH   6   7
HETATM    7  C8  UNL     1     -38.945  12.064   5.356  1.00 20.00    -0.004 C 
HETATM    8  C2  UNL     1     -38.928  11.638   3.896  1.00 20.00     0.005 C 
ENDBRANCH   6   7
ENDBRANCH   4   6
ENDBRANCH   3   4
ENDBRANCH   1   3
BRANCH   1   9
HETATM    9  C11 UNL     1     -41.601  15.812   8.704  1.00 20.00     0.009 C 
HETATM   10  C4  UNL     1     -40.660  16.776   7.968  1.00 20.00     0.022 C 
HETATM   11  C5  UNL     1     -43.037  15.967   8.186  1.00 20.00     0.022 C 
HETATM   12  C6  UNL     1     -41.573  16.157  10.204  1.00 20.00     0.022 C 
ENDBRANCH   1   9
TORSDOF 5
ENDMDL
MODEL 4
REMARK VINA RESULT:      -3.7      1.816      2.965
REMARK  5 active torsions:
REMARK  status: ('A' for Active; 'I' for Inactive)
REMARK    1  A    between atoms: C1_1  and  C7_7 
REMARK    2  A    between atoms: C1_1  and  C11_11 
REMARK    3  A    between atoms: C7_7  and  C10_10 
REMARK    4  A    between atoms: C8_8  and  C9_9 
REMARK    5  A    between atoms: C9_9  and  C10_10 
ROOT
HETATM    1  C1  UNL     1     -33.455  17.348  -3.491  1.00 20.00     0.134 C 
HETATM    2  O12 UNL     1     -33.060  16.180  -3.488  1.00 20.00    -0.297 OA
ENDROOT
BRANCH   1   3
HETATM    3  C7  UNL     1     -32.840  18.384  -2.551  1.00 20.00     0.083 C 
BRANCH   3   4
HETATM    4  C10 UNL     1     -32.592  17.854  -1.125  1.00 20.00    -0.012 C 
HETATM    5  C3  UNL     1     -33.867  17.974  -0.281  1.00 20.00     0.010 C 
BRANCH   4   6
HETATM    6  C9  UNL     1     -31.414  18.626  -0.494  1.00 20.00     0.004 C 
BRANCH   6   7
HETATM    7  C8  UNL     1     -31.639  18.997   0.973  1.00 20.00    -0.004 C 
HETATM    8  C2  UNL     1     -30.627  18.313   1.879  1.00 20.00     0.005 C 
ENDBRANCH   6   7
ENDBRANCH   4   6
ENDBRANCH   3   4
ENDBRANCH   1   3
BRANCH   1   9
HETATM    9  C11 UNL     1     -34.590  17.808  -4.430  1.00 20.00     0.009 C 
HETATM   10  C4  UNL     1     -34.078  18.857  -5.426  1.00 20.00     0.022 C 
HETATM   11  C5  UNL     1     -35.145  16.587  -5.176  1.00 20.00     0.022 C 
HETATM   12  C6  UNL     1     -35.721  18.438  -3.598  1.00 20.00     0.022 C 
ENDBRANCH   1   9
TORSDOF 5
ENDMDL
MODEL 5
REMARK VINA RESULT:      -3.7     11.660     12.787
REMARK  5 active torsions:
REMARK  status: ('A' for Active; 'I' for Inactive)
REMARK    1  A    between atoms: C1_1  and  C7_7 
REMARK    2  A    between atoms: C1_1  and  C11_11 
REMARK    3  A    between atoms: C7_7  and  C10_10 
REMARK    4  A    between atoms: C8_8  and  C9_9 
REMARK    5  A    between atoms: C9_9  and  C10_10 
ROOT
HETATM    1  C1  UNL     1     -34.083   7.010   5.452  1.00 20.00     0.134 C 
HETATM    2  O12 UNL     1     -33.943   7.209   6.661  1.00 20.00    -0.297 OA
ENDROOT
BRANCH   1   3
HETATM    3  C7  UNL     1     -33.802   8.120   4.440  1.00 20.00     0.083 C 
BRANCH   3   4
HETATM    4  C10 UNL     1     -32.304   8.316   4.139  1.00 20.00    -0.012 C 
HETATM    5  C3  UNL     1     -31.798   9.618   4.772  1.00 20.00     0.010 C 
BRANCH   4   6
HETATM    6  C9  UNL     1     -32.087   8.301   2.610  1.00 20.00     0.004 C 
BRANCH   6   7
HETATM    7  C8  UNL     1     -32.843   9.409   1.873  1.00 20.00    -0.004 C 
HETATM    8  C2  UNL     1     -32.702   9.267   0.365  1.00 20.00     0.005 C 
ENDBRANCH   6   7
ENDBRANCH   4   6
ENDBRANCH   3   4
ENDBRANCH   1   3
BRANCH   1   9
HETATM    9  C11 UNL     1     -34.555   5.644   4.914  1.00 20.00     0.009 C 
HETATM   10  C4  UNL     1     -33.600   5.129   3.828  1.00 20.00     0.022 C 
HETATM   11  C5  UNL     1     -34.628   4.648   6.079  1.00 20.00     0.022 C 
HETATM   12  C6  UNL     1     -35.958   5.791   4.297  1.00 20.00     0.022 C 
ENDBRANCH   1   9
TORSDOF 5
ENDMDL
MODEL 6
REMARK VINA RESULT:      -3.6     11.657     12.758
REMARK  5 active torsions:
REMARK  status: ('A' for Active; 'I' for Inactive)
REMARK    1  A    between atoms: C1_1  and  C7_7 
REMARK    2  A    between atoms: C1_1  and  C11_11 
REMARK    3  A    between atoms: C7_7  and  C10_10 
REMARK    4  A    between atoms: C8_8  and  C9_9 
REMARK    5  A    between atoms: C9_9  and  C10_10 
ROOT
HETATM    1  C1  UNL     1     -34.126   7.052   5.458  1.00 20.00     0.134 C 
HETATM    2  O12 UNL     1     -34.038   7.285   6.666  1.00 20.00    -0.297 OA
ENDROOT
BRANCH   1   3
HETATM    3  C7  UNL     1     -33.817   8.136   4.428  1.00 20.00     0.083 C 
BRANCH   3   4
HETATM    4  C10 UNL     1     -32.311   8.307   4.145  1.00 20.00    -0.012 C 
HETATM    5  C3  UNL     1     -31.789   9.597   4.790  1.00 20.00     0.010 C 
BRANCH   4   6
HETATM    6  C9  UNL     1     -32.077   8.294   2.619  1.00 20.00     0.004 C 
BRANCH   6   7
HETATM    7  C8  UNL     1     -32.866   9.370   1.869  1.00 20.00    -0.004 C 
HETATM    8  C2  UNL     1     -32.679   9.245   0.364  1.00 20.00     0.005 C 
ENDBRANCH   6   7
ENDBRANCH   4   6
ENDBRANCH   3   4
ENDBRANCH   1   3
BRANCH   1   9
HETATM    9  C11 UNL     1     -34.563   5.666   4.940  1.00 20.00     0.009 C 
HETATM   10  C4  UNL     1     -34.580   4.640   6.082  1.00 20.00     0.022 C 
HETATM   11  C5  UNL     1     -35.956   5.786   4.308  1.00 20.00     0.022 C 
HETATM   12  C6  UNL     1     -33.571   5.182   3.867  1.00 20.00     0.022 C 
ENDBRANCH   1   9
TORSDOF 5
ENDMDL
MODEL 7
REMARK VINA RESULT:      -3.6      2.068      3.656
REMARK  5 active torsions:
REMARK  status: ('A' for Active; 'I' for Inactive)
REMARK    1  A    between atoms: C1_1  and  C7_7 
REMARK    2  A    between atoms: C1_1  and  C11_11 
REMARK    3  A    between atoms: C7_7  and  C10_10 
REMARK    4  A    between atoms: C8_8  and  C9_9 
REMARK    5  A    between atoms: C9_9  and  C10_10 
ROOT
HETATM    1  C1  UNL     1     -35.710  15.436  -6.672  1.00 20.00     0.134 C 
HETATM    2  O12 UNL     1     -36.005  14.378  -7.232  1.00 20.00    -0.297 OA
ENDROOT
BRANCH   1   3
HETATM    3  C7  UNL     1     -34.304  15.664  -6.119  1.00 20.00     0.083 C 
BRANCH   3   4
HETATM    4  C10 UNL     1     -33.898  14.651  -5.030  1.00 20.00    -0.012 C 
HETATM    5  C3  UNL     1     -35.142  13.989  -4.425  1.00 20.00     0.010 C 
BRANCH   4   6
HETATM    6  C9  UNL     1     -33.053  15.371  -3.957  1.00 20.00     0.004 C 
BRANCH   6   7
HETATM    7  C8  UNL     1     -33.629  16.723  -3.530  1.00 20.00    -0.004 C 
HETATM    8  C2  UNL     1     -33.462  16.948  -2.034  1.00 20.00     0.005 C 
ENDBRANCH   6   7
ENDBRANCH   4   6
ENDBRANCH   3   4
ENDBRANCH   1   3
BRANCH   1   9
HETATM    9  C11 UNL     1     -36.747  16.565  -6.495  1.00 20.00     0.009 C 
HETATM   10  C4  UNL     1     -37.741  16.220  -5.378  1.00 20.00     0.022 C 
HETATM   11  C5  UNL     1     -36.012  17.872  -6.173  1.00 20.00     0.022 C 
HETATM   12  C6  UNL     1     -37.534  16.748  -7.806  1.00 20.00     0.022 C 
ENDBRANCH   1   9
TORSDOF 5
ENDMDL
MODEL 8
REMARK VINA RESULT:      -3.5      1.418      2.158
REMARK  5 active torsions:
REMARK  status: ('A' for Active; 'I' for Inactive)
REMARK    1  A    between atoms: C1_1  and  C7_7 
REMARK    2  A    between atoms: C1_1  and  C11_11 
REMARK    3  A    between atoms: C7_7  and  C10_10 
REMARK    4  A    between atoms: C8_8  and  C9_9 
REMARK    5  A    between atoms: C9_9  and  C10_10 
ROOT
HETATM    1  C1  UNL     1     -34.686  17.349  -5.649  1.00 20.00     0.134 C 
HETATM    2  O12 UNL     1     -34.140  18.360  -6.095  1.00 20.00    -0.297 OA
ENDROOT
BRANCH   1   3
HETATM    3  C7  UNL     1     -34.744  17.091  -4.144  1.00 20.00     0.083 C 
BRANCH   3   4
HETATM    4  C10 UNL     1     -33.372  16.769  -3.520  1.00 20.00    -0.012 C 
HETATM    5  C3  UNL     1     -32.904  15.373  -3.950  1.00 20.00     0.010 C 
BRANCH   4   6
HETATM    6  C9  UNL     1     -33.472  16.891  -1.984  1.00 20.00     0.004 C 
BRANCH   6   7
HETATM    7  C8  UNL     1     -33.157  18.294  -1.459  1.00 20.00    -0.004 C 
HETATM    8  C2  UNL     1     -31.794  18.338  -0.784  1.00 20.00     0.005 C 
ENDBRANCH   6   7
ENDBRANCH   4   6
ENDBRANCH   3   4
ENDBRANCH   1   3
BRANCH   1   9
HETATM    9  C11 UNL     1     -35.321  16.301  -6.587  1.00 20.00     0.009 C 
HETATM   10  C4  UNL     1     -36.080  15.240  -5.780  1.00 20.00     0.022 C 
HETATM   11  C5  UNL     1     -36.269  17.013  -7.561  1.00 20.00     0.022 C 
HETATM   12  C6  UNL     1     -34.215  15.598  -7.395  1.00 20.00     0.022 C 
ENDBRANCH   1   9
TORSDOF 5
ENDMDL
MODEL 9
REMARK VINA RESULT:      -3.5     12.475     14.162
REMARK  5 active torsions:
REMARK  status: ('A' for Active; 'I' for Inactive)
REMARK    1  A    between atoms: C1_1  and  C7_7 
REMARK    2  A    between atoms: C1_1  and  C11_11 
REMARK    3  A    between atoms: C7_7  and  C10_10 
REMARK    4  A    between atoms: C8_8  and  C9_9 
REMARK    5  A    between atoms: C9_9  and  C10_10 
ROOT
HETATM    1  C1  UNL     1     -40.926  15.081   8.214  1.00 20.00     0.134 C 
HETATM    2  O12 UNL     1     -40.197  15.885   7.629  1.00 20.00    -0.297 OA
ENDROOT
BRANCH   1   3
HETATM    3  C7  UNL     1     -41.421  13.818   7.512  1.00 20.00     0.083 C 
BRANCH   3   4
HETATM    4  C10 UNL     1     -40.806  13.608   6.114  1.00 20.00    -0.012 C 
HETATM    5  C3  UNL     1     -41.827  13.955   5.024  1.00 20.00     0.010 C 
BRANCH   4   6
HETATM    6  C9  UNL     1     -40.310  12.151   5.991  1.00 20.00     0.004 C 
BRANCH   6   7
HETATM    7  C8  UNL     1     -38.902  12.031   5.403  1.00 20.00    -0.004 C 
HETATM    8  C2  UNL     1     -38.948  11.643   3.932  1.00 20.00     0.005 C 
ENDBRANCH   6   7
ENDBRANCH   4   6
ENDBRANCH   3   4
ENDBRANCH   1   3
BRANCH   1   9
HETATM    9  C11 UNL     1     -41.379  15.323   9.670  1.00 20.00     0.009 C 
HETATM   10  C4  UNL     1     -42.604  14.463  10.007  1.00 20.00     0.022 C 
HETATM   11  C5  UNL     1     -40.216  14.992  10.614  1.00 20.00     0.022 C 
HETATM   12  C6  UNL     1     -41.759  16.804   9.850  1.00 20.00     0.022 C 
ENDBRANCH   1   9
TORSDOF 5
ENDMDL
