MODEL 1
REMARK VINA RESULT:      -4.1      0.000      0.000
REMARK  6 active torsions:
REMARK  status: ('A' for Active; 'I' for Inactive)
REMARK    1  A    between atoms: C1_1  and  C6_6 
REMARK    2  A    between atoms: C1_1  and  C7_7 
REMARK    3  A    between atoms: C6_6  and  C10_10 
REMARK    4  A    between atoms: C7_7  and  C11_11 
REMARK    5  A    between atoms: C8_8  and  C9_9 
REMARK    6  A    between atoms: C9_9  and  C11_11 
ROOT
HETATM    1  C1  UNL     1     -32.608   8.416   4.617  1.00 20.00     0.127 C 
HETATM    2  O12 UNL     1     -32.161   9.398   5.211  1.00 20.00    -0.298 OA
ENDROOT
BRANCH   1   3
HETATM    3  C6  UNL     1     -34.050   7.981   4.816  1.00 20.00     0.082 C 
BRANCH   3   4
HETATM    4  C10 UNL     1     -34.172   6.534   5.309  1.00 20.00    -0.016 C 
HETATM    5  C3  UNL     1     -35.322   5.799   4.615  1.00 20.00     0.010 C 
HETATM    6  C4  UNL     1     -34.381   6.514   6.824  1.00 20.00     0.010 C 
ENDBRANCH   3   4
ENDBRANCH   1   3
BRANCH   1   7
HETATM    7  C7  UNL     1     -31.774   7.616   3.627  1.00 20.00     0.082 C 
BRANCH   7   8
HETATM    8  C11 UNL     1     -32.538   7.249   2.343  1.00 20.00    -0.012 C 
HETATM    9  C5  UNL     1     -32.643   5.725   2.199  1.00 20.00     0.010 C 
BRANCH   8  10
HETATM   10  C9  UNL     1     -31.858   7.826   1.083  1.00 20.00     0.004 C 
BRANCH  10  11
HETATM   11  C8  UNL     1     -32.696   8.886   0.364  1.00 20.00    -0.004 C 
HETATM   12  C2  UNL     1     -33.042  10.041   1.293  1.00 20.00     0.005 C 
ENDBRANCH  10  11
ENDBRANCH   8  10
ENDBRANCH   7   8
ENDBRANCH   1   7
TORSDOF 6
ENDMDL
MODEL 2
REMARK VINA RESULT:      -4.1     10.890     12.317
REMARK  6 active torsions:
REMARK  status: ('A' for Active; 'I' for Inactive)
REMARK    1  A    between atoms: C1_1  and  C6_6 
REMARK    2  A    between atoms: C1_1  and  C7_7 
REMARK    3  A    between atoms: C6_6  and  C10_10 
REMARK    4  A    between atoms: C7_7  and  C11_11 
REMARK    5  A    between atoms: C8_8  and  C9_9 
REMARK    6  A    between atoms: C9_9  and  C11_11 
ROOT
HETATM    1  C1  UNL     1     -33.973  14.746  -4.543  1.00 20.00     0.127 C 
HETATM    2  O12 UNL     1     -34.528  13.777  -4.025  1.00 20.00    -0.298 OA
ENDROOT
BRANCH   1   3
HETATM    3  C6  UNL     1     -34.222  15.093  -6.001  1.00 20.00     0.082 C 
BRANCH   3   4
HETATM    4  C10 UNL     1     -35.708  15.058  -6.376  1.00 20.00    -0.016 C 
HETATM    5  C3  UNL     1     -35.912  15.240  -7.882  1.00 20.00     0.010 C 
HETATM    6  C4  UNL     1     -36.464  16.146  -5.613  1.00 20.00     0.010 C 
ENDBRANCH   3   4
ENDBRANCH   1   3
BRANCH   1   7
HETATM    7  C7  UNL     1     -33.052  15.670  -3.760  1.00 20.00     0.082 C 
BRANCH   7   8
HETATM    8  C11 UNL     1     -33.774  16.897  -3.176  1.00 20.00    -0.012 C 
HETATM    9  C5  UNL     1     -33.420  18.158  -3.978  1.00 20.00     0.010 C 
BRANCH   8  10
HETATM   10  C9  UNL     1     -33.411  17.128  -1.694  1.00 20.00     0.004 C 
BRANCH  10  11
HETATM   11  C8  UNL     1     -32.824  18.514  -1.415  1.00 20.00    -0.004 C 
HETATM   12  C2  UNL     1     -31.552  18.420  -0.585  1.00 20.00     0.005 C 
ENDBRANCH  10  11
ENDBRANCH   8  10
ENDBRANCH   7   8
ENDBRANCH   1   7
TORSDOF 6
ENDMDL
MODEL 3
REMARK VINA RESULT:      -3.9     10.884     12.381
REMARK  6 active torsions:
REMARK  status: ('A' for Active; 'I' for Inactive)
REMARK    1  A    between atoms: C1_1  and  C6_6 
REMARK    2  A    between atoms: C1_1  and  C7_7 
REMARK    3  A    between atoms: C6_6  and  C10_10 
REMARK    4  A    between atoms: C7_7  and  C11_11 
REMARK    5  A    between atoms: C8_8  and  C9_9 
REMARK    6  A    between atoms: C9_9  and  C11_11 
ROOT
HETATM    1  C1  UNL     1     -33.930  14.767  -4.531  1.00 20.00     0.127 C 
HETATM    2  O12 UNL     1     -34.381  13.759  -3.986  1.00 20.00    -0.298 OA
ENDROOT
BRANCH   1   3
HETATM    3  C6  UNL     1     -33.040  15.729  -3.763  1.00 20.00     0.082 C 
BRANCH   3   4
HETATM    4  C10 UNL     1     -33.802  16.944  -3.222  1.00 20.00    -0.016 C 
HETATM    5  C3  UNL     1     -33.406  18.228  -3.954  1.00 20.00     0.010 C 
HETATM    6  C4  UNL     1     -33.543  17.098  -1.723  1.00 20.00     0.010 C 
ENDBRANCH   3   4
ENDBRANCH   1   3
BRANCH   1   7
HETATM    7  C7  UNL     1     -34.193  15.086  -5.995  1.00 20.00     0.082 C 
BRANCH   7   8
HETATM    8  C11 UNL     1     -35.670  14.928  -6.397  1.00 20.00    -0.012 C 
HETATM    9  C5  UNL     1     -35.876  15.352  -7.858  1.00 20.00     0.010 C 
BRANCH   8  10
HETATM   10  C9  UNL     1     -36.605  15.762  -5.496  1.00 20.00     0.004 C 
BRANCH  10  11
HETATM   11  C8  UNL     1     -36.572  17.262  -5.801  1.00 20.00    -0.004 C 
HETATM   12  C2  UNL     1     -37.106  18.077  -4.632  1.00 20.00     0.005 C 
ENDBRANCH  10  11
ENDBRANCH   8  10
ENDBRANCH   7   8
ENDBRANCH   1   7
TORSDOF 6
ENDMDL
MODEL 4
REMARK VINA RESULT:      -3.8      9.992     11.339
REMARK  6 active torsions:
REMARK  status: ('A' for Active; 'I' for Inactive)
REMARK    1  A    between atoms: C1_1  and  C6_6 
REMARK    2  A    between atoms: C1_1  and  C7_7 
REMARK    3  A    between atoms: C6_6  and  C10_10 
REMARK    4  A    between atoms: C7_7  and  C11_11 
REMARK    5  A    between atoms: C8_8  and  C9_9 
REMARK    6  A    between atoms: C9_9  and  C11_11 
ROOT
HETATM    1  C1  UNL     1     -40.903  14.327   8.606  1.00 20.00     0.127 C 
HETATM    2  O12 UNL     1     -40.743  13.663   9.631  1.00 20.00    -0.298 OA
ENDROOT
BRANCH   1   3
HETATM    3  C6  UNL     1     -40.194  15.659   8.428  1.00 20.00     0.082 C 
BRANCH   3   4
HETATM    4  C10 UNL     1     -41.162  16.820   8.172  1.00 20.00    -0.016 C 
HETATM    5  C3  UNL     1     -40.567  17.845   7.203  1.00 20.00     0.010 C 
HETATM    6  C4  UNL     1     -41.524  17.500   9.493  1.00 20.00     0.010 C 
ENDBRANCH   3   4
ENDBRANCH   1   3
BRANCH   1   7
HETATM    7  C7  UNL     1     -41.771  13.845   7.453  1.00 20.00     0.082 C 
BRANCH   7   8
HETATM    8  C11 UNL     1     -40.988  13.645   6.144  1.00 20.00    -0.012 C 
HETATM    9  C5  UNL     1     -41.865  14.002   4.935  1.00 20.00     0.010 C 
BRANCH   8  10
HETATM   10  C9  UNL     1     -40.487  12.194   5.988  1.00 20.00     0.004 C 
BRANCH  10  11
HETATM   11  C8  UNL     1     -39.036  12.093   5.512  1.00 20.00    -0.004 C 
HETATM   12  C2  UNL     1     -38.960  11.686   4.048  1.00 20.00     0.005 C 
ENDBRANCH  10  11
ENDBRANCH   8  10
ENDBRANCH   7   8
ENDBRANCH   1   7
TORSDOF 6
ENDMDL
MODEL 5
REMARK VINA RESULT:      -3.8      9.809     11.249
REMARK  6 active torsions:
REMARK  status: ('A' for Active; 'I' for Inactive)
REMARK    1  A    between atoms: C1_1  and  C6_6 
REMARK    2  A    between atoms: C1_1  and  C7_7 
REMARK    3  A    between atoms: C6_6  and  C10_10 
REMARK    4  A    between atoms: C7_7  and  C11_11 
REMARK    5  A    between atoms: C8_8  and  C9_9 
REMARK    6  A    between atoms: C9_9  and  C11_11 
ROOT
HETATM    1  C1  UNL     1     -41.638  13.122   6.483  1.00 20.00     0.127 C 
HETATM    2  O12 UNL     1     -42.154  12.128   6.996  1.00 20.00    -0.298 OA
ENDROOT
BRANCH   1   3
HETATM    3  C6  UNL     1     -40.797  12.996   5.225  1.00 20.00     0.082 C 
BRANCH   3   4
HETATM    4  C10 UNL     1     -39.780  11.852   5.299  1.00 20.00    -0.016 C 
HETATM    5  C3  UNL     1     -38.756  12.081   6.414  1.00 20.00     0.010 C 
HETATM    6  C4  UNL     1     -39.064  11.700   3.957  1.00 20.00     0.010 C 
ENDBRANCH   3   4
ENDBRANCH   1   3
BRANCH   1   7
HETATM    7  C7  UNL     1     -41.842  14.523   7.042  1.00 20.00     0.082 C 
BRANCH   7   8
HETATM    8  C11 UNL     1     -40.544  15.165   7.563  1.00 20.00    -0.012 C 
HETATM    9  C5  UNL     1     -40.238  14.675   8.985  1.00 20.00     0.010 C 
BRANCH   8  10
HETATM   10  C9  UNL     1     -40.628  16.706   7.572  1.00 20.00     0.004 C 
BRANCH  10  11
HETATM   11  C8  UNL     1     -41.690  17.268   6.624  1.00 20.00    -0.004 C 
HETATM   12  C2  UNL     1     -41.451  18.743   6.336  1.00 20.00     0.005 C 
ENDBRANCH  10  11
ENDBRANCH   8  10
ENDBRANCH   7   8
ENDBRANCH   1   7
TORSDOF 6
ENDMDL
MODEL 6
REMARK VINA RESULT:      -3.7      1.191      4.229
REMARK  6 active torsions:
REMARK  status: ('A' for Active; 'I' for Inactive)
REMARK    1  A    between atoms: C1_1  and  C6_6 
REMARK    2  A    between atoms: C1_1  and  C7_7 
REMARK    3  A    between atoms: C6_6  and  C10_10 
REMARK    4  A    between atoms: C7_7  and  C11_11 
REMARK    5  A    between atoms: C8_8  and  C9_9 
REMARK    6  A    between atoms: C9_9  and  C11_11 
ROOT
HETATM    1  C1  UNL     1     -33.216   8.343   5.209  1.00 20.00     0.127 C 
HETATM    2  O12 UNL     1     -33.951   9.273   5.542  1.00 20.00    -0.298 OA
ENDROOT
BRANCH   1   3
HETATM    3  C6  UNL     1     -32.193   8.525   4.100  1.00 20.00     0.082 C 
BRANCH   3   4
HETATM    4  C10 UNL     1     -32.826   8.560   2.705  1.00 20.00    -0.016 C 
HETATM    5  C3  UNL     1     -31.970   7.812   1.680  1.00 20.00     0.010 C 
HETATM    6  C4  UNL     1     -33.027  10.009   2.259  1.00 20.00     0.010 C 
ENDBRANCH   3   4
ENDBRANCH   1   3
BRANCH   1   7
HETATM    7  C7  UNL     1     -33.251   6.989   5.903  1.00 20.00     0.082 C 
BRANCH   7   8
HETATM    8  C11 UNL     1     -34.604   6.270   5.764  1.00 20.00    -0.012 C 
HETATM    9  C5  UNL     1     -34.678   5.077   6.727  1.00 20.00     0.010 C 
BRANCH   8  10
HETATM   10  C9  UNL     1     -34.845   5.767   4.325  1.00 20.00     0.004 C 
BRANCH  10  11
HETATM   11  C8  UNL     1     -33.967   4.574   3.938  1.00 20.00    -0.004 C 
HETATM   12  C2  UNL     1     -33.056   4.913   2.767  1.00 20.00     0.005 C 
ENDBRANCH  10  11
ENDBRANCH   8  10
ENDBRANCH   7   8
ENDBRANCH   1   7
TORSDOF 6
ENDMDL
MODEL 7
REMARK VINA RESULT:      -3.7      2.012      3.295
REMARK  6 active torsions:
REMARK  status: ('A' for Active; 'I' for Inactive)
REMARK    1  A    between atoms: C1_1  and  C6_6 
REMARK    2  A    between atoms: C1_1  and  C7_7 
REMARK    3  A    between atoms: C6_6  and  C10_10 
REMARK    4  A    between atoms: C7_7  and  C11_11 
REMARK    5  A    between atoms: C8_8  and  C9_9 
REMARK    6  A    between atoms: C9_9  and  C11_11 
ROOT
HETATM    1  C1  UNL     1     -32.998   5.301   2.794  1.00 20.00     0.127 C 
HETATM    2  O12 UNL     1     -33.060   4.782   1.679  1.00 20.00    -0.298 OA
ENDROOT
BRANCH   1   3
HETATM    3  C6  UNL     1     -33.740   4.695   3.973  1.00 20.00     0.082 C 
BRANCH   3   4
HETATM    4  C10 UNL     1     -34.447   5.745   4.837  1.00 20.00    -0.016 C 
HETATM    5  C3  UNL     1     -34.575   5.284   6.291  1.00 20.00     0.010 C 
HETATM    6  C4  UNL     1     -35.830   6.049   4.263  1.00 20.00     0.010 C 
ENDBRANCH   3   4
ENDBRANCH   1   3
BRANCH   1   7
HETATM    7  C7  UNL     1     -32.155   6.538   3.069  1.00 20.00     0.082 C 
BRANCH   7   8
HETATM    8  C11 UNL     1     -32.730   7.819   2.441  1.00 20.00    -0.012 C 
HETATM    9  C5  UNL     1     -32.043   8.113   1.100  1.00 20.00     0.010 C 
BRANCH   8  10
HETATM   10  C9  UNL     1     -32.561   9.041   3.369  1.00 20.00     0.004 C 
BRANCH  10  11
HETATM   11  C8  UNL     1     -32.326   8.670   4.835  1.00 20.00    -0.004 C 
HETATM   12  C2  UNL     1     -33.610   8.771   5.645  1.00 20.00     0.005 C 
ENDBRANCH  10  11
ENDBRANCH   8  10
ENDBRANCH   7   8
ENDBRANCH   1   7
TORSDOF 6
ENDMDL
MODEL 8
REMARK VINA RESULT:      -3.7      1.483      4.916
REMARK  6 active torsions:
REMARK  status: ('A' for Active; 'I' for Inactive)
REMARK    1  A    between atoms: C1_1  and  C6_6 
REMARK    2  A    between atoms: C1_1  and  C7_7 
REMARK    3  A    between atoms: C6_6  and  C10_10 
REMARK    4  A    between atoms: C7_7  and  C11_11 
REMARK    5  A    between atoms: C8_8  and  C9_9 
REMARK    6  A    between atoms: C9_9  and  C11_11 
ROOT
HETATM    1  C1  UNL     1     -32.291   7.152   2.979  1.00 20.00     0.127 C 
HETATM    2  O12 UNL     1     -32.685   6.002   2.785  1.00 20.00    -0.298 OA
ENDROOT
BRANCH   1   3
HETATM    3  C6  UNL     1     -31.841   8.023   1.818  1.00 20.00     0.082 C 
BRANCH   3   4
HETATM    4  C10 UNL     1     -32.971   8.888   1.249  1.00 20.00    -0.016 C 
HETATM    5  C3  UNL     1     -32.860   9.030  -0.271  1.00 20.00     0.010 C 
HETATM    6  C4  UNL     1     -32.953  10.269   1.905  1.00 20.00     0.010 C 
ENDBRANCH   3   4
ENDBRANCH   1   3
BRANCH   1   7
HETATM    7  C7  UNL     1     -32.271   7.782   4.365  1.00 20.00     0.082 C 
BRANCH   7   8
HETATM    8  C11 UNL     1     -33.622   7.690   5.094  1.00 20.00    -0.012 C 
HETATM    9  C5  UNL     1     -34.008   9.056   5.680  1.00 20.00     0.010 C 
BRANCH   8  10
HETATM   10  C9  UNL     1     -33.594   6.648   6.232  1.00 20.00     0.004 C 
BRANCH  10  11
HETATM   11  C8  UNL     1     -34.641   5.542   6.076  1.00 20.00    -0.004 C 
HETATM   12  C2  UNL     1     -35.362   5.646   4.740  1.00 20.00     0.005 C 
ENDBRANCH  10  11
ENDBRANCH   8  10
ENDBRANCH   7   8
ENDBRANCH   1   7
TORSDOF 6
ENDMDL
MODEL 9
REMARK VINA RESULT:      -3.7      9.922     11.249
REMARK  6 active torsions:
REMARK  status: ('A' for Active; 'I' for Inactive)
REMARK    1  A    between atoms: C1_1  and  C6_6 
REMARK    2  A    between atoms: C1_1  and  C7_7 
REMARK    3  A    between atoms: C6_6  and  C10_10 
REMARK    4  A    between atoms: C7_7  and  C11_11 
REMARK    5  A    between atoms: C8_8  and  C9_9 
REMARK    6  A    between atoms: C9_9  and  C11_11 
ROOT
HETATM    1  C1  UNL     1     -42.758  12.976   8.218  1.00 20.00     0.127 C 
HETATM    2  O12 UNL     1     -43.190  12.076   8.940  1.00 20.00    -0.298 OA
ENDROOT
BRANCH   1   3
HETATM    3  C6  UNL     1     -42.376  14.323   8.806  1.00 20.00     0.082 C 
BRANCH   3   4
HETATM    4  C10 UNL     1     -41.080  14.272   9.623  1.00 20.00    -0.016 C 
HETATM    5  C3  UNL     1     -41.361  14.326  11.127  1.00 20.00     0.010 C 
HETATM    6  C4  UNL     1     -40.164  15.428   9.222  1.00 20.00     0.010 C 
ENDBRANCH   3   4
ENDBRANCH   1   3
BRANCH   1   7
HETATM    7  C7  UNL     1     -42.540  12.786   6.724  1.00 20.00     0.082 C 
BRANCH   7   8
HETATM    8  C11 UNL     1     -41.553  13.799   6.119  1.00 20.00    -0.012 C 
HETATM    9  C5  UNL     1     -41.961  14.151   4.682  1.00 20.00     0.010 C 
BRANCH   8  10
HETATM   10  C9  UNL     1     -40.107  13.261   6.111  1.00 20.00     0.004 C 
BRANCH  10  11
HETATM   11  C8  UNL     1     -39.998  11.803   5.659  1.00 20.00    -0.004 C 
HETATM   12  C2  UNL     1     -39.156  11.675   4.398  1.00 20.00     0.005 C 
ENDBRANCH  10  11
ENDBRANCH   8  10
ENDBRANCH   7   8
ENDBRANCH   1   7
TORSDOF 6
ENDMDL
