MODEL 1
REMARK VINA RESULT:      -4.0      0.000      0.000
REMARK  2 active torsions:
REMARK  status: ('A' for Active; 'I' for Inactive)
REMARK    1  A    between atoms: C1_1  and  C2_2 
REMARK    2  A    between atoms: C9_9  and  N10_10 
ROOT
HETATM    1  C1  UNL     1     -34.856  15.041  -4.945  1.00 20.00     0.150 C 
HETATM    2  C3  UNL     1     -33.531  14.936  -4.239  1.00 20.00     0.068 C 
HETATM    3  C4  UNL     1     -33.355  16.093  -3.262  1.00 20.00     0.008 C 
HETATM    4  C5  UNL     1     -33.672  17.432  -3.926  1.00 20.00     0.029 C 
HETATM    5  C6  UNL     1     -35.059  17.429  -4.560  1.00 20.00     0.242 C 
HETATM    6  N10 UNL     1     -35.233  16.296  -5.547  1.00 20.00    -0.038 N 
HETATM    7  H28 UNL     1     -36.238  16.280  -5.776  1.00 20.00     0.286 HD
ENDROOT
BRANCH   6   8
HETATM    8  C9  UNL     1     -34.517  16.496  -6.854  1.00 20.00     0.186 C 
HETATM    9  C7  UNL     1     -34.535  17.978  -7.193  1.00 20.00     0.040 C 
HETATM   10  C8  UNL     1     -35.209  15.654  -7.916  1.00 20.00     0.040 C 
ENDBRANCH   6   8
BRANCH   1  11
HETATM   11  C2  UNL     1     -35.728  14.024  -5.018  1.00 20.00     0.291 C 
HETATM   12  O11 UNL     1     -35.865  12.978  -4.331  1.00 20.00    -0.300 OA
ENDBRANCH   1  11
TORSDOF 2
ENDMDL
MODEL 2
REMARK VINA RESULT:      -3.6      1.940      3.322
REMARK  2 active torsions:
REMARK  status: ('A' for Active; 'I' for Inactive)
REMARK    1  A    between atoms: C1_1  and  C2_2 
REMARK    2  A    between atoms: C9_9  and  N10_10 
ROOT
HETATM    1  C1  UNL     1     -35.071  16.105  -6.065  1.00 20.00     0.150 C 
HETATM    2  C3  UNL     1     -36.509  16.398  -5.735  1.00 20.00     0.068 C 
HETATM    3  C4  UNL     1     -36.699  17.885  -5.457  1.00 20.00     0.008 C 
HETATM    4  C5  UNL     1     -35.652  18.403  -4.472  1.00 20.00     0.029 C 
HETATM    5  C6  UNL     1     -34.236  18.089  -4.944  1.00 20.00     0.242 C 
HETATM    6  N10 UNL     1     -34.034  16.612  -5.201  1.00 20.00    -0.038 N 
HETATM    7  H28 UNL     1     -33.122  16.536  -5.675  1.00 20.00     0.286 HD
ENDROOT
BRANCH   6   8
HETATM    8  C9  UNL     1     -33.921  15.776  -3.956  1.00 20.00     0.186 C 
HETATM    9  C7  UNL     1     -33.261  16.611  -2.871  1.00 20.00     0.040 C 
HETATM   10  C8  UNL     1     -33.121  14.525  -4.288  1.00 20.00     0.040 C 
ENDBRANCH   6   8
BRANCH   1  11
HETATM   11  C2  UNL     1     -34.697  15.414  -7.152  1.00 20.00     0.291 C 
HETATM   12  O11 UNL     1     -33.565  15.114  -7.615  1.00 20.00    -0.300 OA
ENDBRANCH   1  11
TORSDOF 2
ENDMDL
MODEL 3
REMARK VINA RESULT:      -3.4      1.966      4.066
REMARK  2 active torsions:
REMARK  status: ('A' for Active; 'I' for Inactive)
REMARK    1  A    between atoms: C1_1  and  C2_2 
REMARK    2  A    between atoms: C9_9  and  N10_10 
ROOT
HETATM    1  C1  UNL     1     -35.046  17.749  -4.926  1.00 20.00     0.150 C 
HETATM    2  C3  UNL     1     -34.511  18.068  -6.295  1.00 20.00     0.068 C 
HETATM    3  C4  UNL     1     -34.954  17.009  -7.300  1.00 20.00     0.008 C 
HETATM    4  C5  UNL     1     -34.690  15.600  -6.774  1.00 20.00     0.029 C 
HETATM    5  C6  UNL     1     -35.324  15.386  -5.403  1.00 20.00     0.242 C 
HETATM    6  N10 UNL     1     -34.872  16.419  -4.396  1.00 20.00    -0.038 N 
HETATM    7  H28 UNL     1     -35.483  16.292  -3.576  1.00 20.00     0.286 HD
ENDROOT
BRANCH   6   8
HETATM    8  C9  UNL     1     -33.468  16.224  -3.895  1.00 20.00     0.186 C 
HETATM    9  C7  UNL     1     -33.066  14.778  -4.134  1.00 20.00     0.040 C 
HETATM   10  C8  UNL     1     -33.426  16.599  -2.422  1.00 20.00     0.040 C 
ENDBRANCH   6   8
BRANCH   1  11
HETATM   11  C2  UNL     1     -35.711  18.640  -4.176  1.00 20.00     0.291 C 
HETATM   12  O11 UNL     1     -36.256  18.552  -3.044  1.00 20.00    -0.300 OA
ENDBRANCH   1  11
TORSDOF 2
ENDMDL
MODEL 4
REMARK VINA RESULT:      -3.3      2.547      3.851
REMARK  2 active torsions:
REMARK  status: ('A' for Active; 'I' for Inactive)
REMARK    1  A    between atoms: C1_1  and  C2_2 
REMARK    2  A    between atoms: C9_9  and  N10_10 
ROOT
HETATM    1  C1  UNL     1     -33.637  17.584  -3.792  1.00 20.00     0.150 C 
HETATM    2  C3  UNL     1     -33.428  16.276  -3.080  1.00 20.00     0.068 C 
HETATM    3  C4  UNL     1     -33.271  15.141  -4.087  1.00 20.00     0.008 C 
HETATM    4  C5  UNL     1     -34.376  15.177  -5.140  1.00 20.00     0.029 C 
HETATM    5  C6  UNL     1     -34.453  16.538  -5.824  1.00 20.00     0.242 C 
HETATM    6  N10 UNL     1     -34.632  17.667  -4.833  1.00 20.00    -0.038 N 
HETATM    7  H28 UNL     1     -34.494  18.534  -5.373  1.00 20.00     0.286 HD
ENDROOT
BRANCH   6   8
HETATM    8  C9  UNL     1     -36.012  17.764  -4.245  1.00 20.00     0.186 C 
HETATM    9  C7  UNL     1     -37.022  17.402  -5.321  1.00 20.00     0.040 C 
HETATM   10  C8  UNL     1     -36.212  19.176  -3.717  1.00 20.00     0.040 C 
ENDBRANCH   6   8
BRANCH   1  11
HETATM   11  C2  UNL     1     -32.916  18.684  -3.526  1.00 20.00     0.291 C 
HETATM   12  O11 UNL     1     -32.233  19.025  -2.525  1.00 20.00    -0.300 OA
ENDBRANCH   1  11
TORSDOF 2
ENDMDL
MODEL 5
REMARK VINA RESULT:      -3.3      2.220      3.430
REMARK  2 active torsions:
REMARK  status: ('A' for Active; 'I' for Inactive)
REMARK    1  A    between atoms: C1_1  and  C2_2 
REMARK    2  A    between atoms: C9_9  and  N10_10 
ROOT
HETATM    1  C1  UNL     1     -33.908  17.168  -3.491  1.00 20.00     0.150 C 
HETATM    2  C3  UNL     1     -33.294  18.361  -4.171  1.00 20.00     0.068 C 
HETATM    3  C4  UNL     1     -34.381  19.262  -4.747  1.00 20.00     0.008 C 
HETATM    4  C5  UNL     1     -35.395  18.459  -5.559  1.00 20.00     0.029 C 
HETATM    5  C6  UNL     1     -35.981  17.310  -4.745  1.00 20.00     0.242 C 
HETATM    6  N10 UNL     1     -34.909  16.399  -4.189  1.00 20.00    -0.038 N 
HETATM    7  H28 UNL     1     -35.392  15.778  -3.523  1.00 20.00     0.286 HD
ENDROOT
BRANCH   6   8
HETATM    8  C9  UNL     1     -34.273  15.495  -5.208  1.00 20.00     0.186 C 
HETATM    9  C7  UNL     1     -35.374  14.837  -6.024  1.00 20.00     0.040 C 
HETATM   10  C8  UNL     1     -33.411  14.477  -4.477  1.00 20.00     0.040 C 
ENDBRANCH   6   8
BRANCH   1  11
HETATM   11  C2  UNL     1     -33.589  16.794  -2.242  1.00 20.00     0.291 C 
HETATM   12  O11 UNL     1     -33.568  17.423  -1.152  1.00 20.00    -0.300 OA
ENDBRANCH   1  11
TORSDOF 2
ENDMDL
MODEL 6
REMARK VINA RESULT:      -3.3      1.693      3.363
REMARK  2 active torsions:
REMARK  status: ('A' for Active; 'I' for Inactive)
REMARK    1  A    between atoms: C1_1  and  C2_2 
REMARK    2  A    between atoms: C9_9  and  N10_10 
ROOT
HETATM    1  C1  UNL     1     -34.524  16.062  -5.082  1.00 20.00     0.150 C 
HETATM    2  C3  UNL     1     -35.989  16.056  -5.424  1.00 20.00     0.068 C 
HETATM    3  C4  UNL     1     -36.301  17.144  -6.445  1.00 20.00     0.008 C 
HETATM    4  C5  UNL     1     -35.702  18.486  -6.027  1.00 20.00     0.029 C 
HETATM    5  C6  UNL     1     -34.205  18.371  -5.758  1.00 20.00     0.242 C 
HETATM    6  N10 UNL     1     -33.890  17.308  -4.729  1.00 20.00    -0.038 N 
HETATM    7  H28 UNL     1     -32.866  17.193  -4.755  1.00 20.00     0.286 HD
ENDROOT
BRANCH   6   8
HETATM    8  C9  UNL     1     -34.224  17.694  -3.315  1.00 20.00     0.186 C 
HETATM    9  C7  UNL     1     -33.957  19.181  -3.144  1.00 20.00     0.040 C 
HETATM   10  C8  UNL     1     -33.384  16.845  -2.373  1.00 20.00     0.040 C 
ENDBRANCH   6   8
BRANCH   1  11
HETATM   11  C2  UNL     1     -33.761  14.959  -5.118  1.00 20.00     0.291 C 
HETATM   12  O11 UNL     1     -33.633  13.994  -4.320  1.00 20.00    -0.300 OA
ENDBRANCH   1  11
TORSDOF 2
ENDMDL
MODEL 7
REMARK VINA RESULT:      -3.3      1.836      3.758
REMARK  2 active torsions:
REMARK  status: ('A' for Active; 'I' for Inactive)
REMARK    1  A    between atoms: C1_1  and  C2_2 
REMARK    2  A    between atoms: C9_9  and  N10_10 
ROOT
HETATM    1  C1  UNL     1     -35.942  17.016  -5.574  1.00 20.00     0.150 C 
HETATM    2  C3  UNL     1     -35.279  17.156  -6.917  1.00 20.00     0.068 C 
HETATM    3  C4  UNL     1     -34.769  15.803  -7.402  1.00 20.00     0.008 C 
HETATM    4  C5  UNL     1     -33.966  15.091  -6.315  1.00 20.00     0.029 C 
HETATM    5  C6  UNL     1     -34.763  14.968  -5.020  1.00 20.00     0.242 C 
HETATM    6  N10 UNL     1     -35.254  16.308  -4.522  1.00 20.00    -0.038 N 
HETATM    7  H28 UNL     1     -35.916  16.095  -3.761  1.00 20.00     0.286 HD
ENDROOT
BRANCH   6   8
HETATM    8  C9  UNL     1     -34.187  17.171  -3.908  1.00 20.00     0.186 C 
HETATM    9  C7  UNL     1     -33.313  16.301  -3.020  1.00 20.00     0.040 C 
HETATM   10  C8  UNL     1     -34.861  18.293  -3.133  1.00 20.00     0.040 C 
ENDBRANCH   6   8
BRANCH   1  11
HETATM   11  C2  UNL     1     -37.167  17.495  -5.310  1.00 20.00     0.291 C 
HETATM   12  O11 UNL     1     -38.114  17.052  -4.609  1.00 20.00    -0.300 OA
ENDBRANCH   1  11
TORSDOF 2
ENDMDL
MODEL 8
REMARK VINA RESULT:      -3.2     24.715     25.993
REMARK  2 active torsions:
REMARK  status: ('A' for Active; 'I' for Inactive)
REMARK    1  A    between atoms: C1_1  and  C2_2 
REMARK    2  A    between atoms: C9_9  and  N10_10 
ROOT
HETATM    1  C1  UNL     1     -25.924  -3.363  10.536  1.00 20.00     0.150 C 
HETATM    2  C3  UNL     1     -26.835  -4.412  11.113  1.00 20.00     0.068 C 
HETATM    3  C4  UNL     1     -28.249  -4.247  10.567  1.00 20.00     0.008 C 
HETATM    4  C5  UNL     1     -28.720  -2.798  10.676  1.00 20.00     0.029 C 
HETATM    5  C6  UNL     1     -27.738  -1.838  10.012  1.00 20.00     0.242 C 
HETATM    6  N10 UNL     1     -26.337  -1.981  10.564  1.00 20.00    -0.038 N 
HETATM    7  H28 UNL     1     -25.734  -1.429   9.937  1.00 20.00     0.286 HD
ENDROOT
BRANCH   6   8
HETATM    8  C9  UNL     1     -26.148  -1.396  11.936  1.00 20.00     0.186 C 
HETATM    9  C7  UNL     1     -26.864  -0.057  11.993  1.00 20.00     0.040 C 
HETATM   10  C8  UNL     1     -24.656  -1.263  12.201  1.00 20.00     0.040 C 
ENDBRANCH   6   8
BRANCH   1  11
HETATM   11  C2  UNL     1     -24.745  -3.653   9.964  1.00 20.00     0.291 C 
HETATM   12  O11 UNL     1     -24.103  -3.105   9.029  1.00 20.00    -0.300 OA
ENDBRANCH   1  11
TORSDOF 2
ENDMDL
MODEL 9
REMARK VINA RESULT:      -3.2      2.340      3.358
REMARK  2 active torsions:
REMARK  status: ('A' for Active; 'I' for Inactive)
REMARK    1  A    between atoms: C1_1  and  C2_2 
REMARK    2  A    between atoms: C9_9  and  N10_10 
ROOT
HETATM    1  C1  UNL     1     -34.399  17.521  -5.007  1.00 20.00     0.150 C 
HETATM    2  C3  UNL     1     -34.238  17.520  -3.512  1.00 20.00     0.068 C 
HETATM    3  C4  UNL     1     -33.269  16.424  -3.081  1.00 20.00     0.008 C 
HETATM    4  C5  UNL     1     -33.619  15.087  -3.732  1.00 20.00     0.029 C 
HETATM    5  C6  UNL     1     -33.703  15.208  -5.250  1.00 20.00     0.242 C 
HETATM    6  N10 UNL     1     -34.679  16.279  -5.685  1.00 20.00    -0.038 N 
HETATM    7  H28 UNL     1     -34.528  16.397  -6.697  1.00 20.00     0.286 HD
ENDROOT
BRANCH   6   8
HETATM    8  C9  UNL     1     -36.126  15.901  -5.527  1.00 20.00     0.186 C 
HETATM    9  C7  UNL     1     -36.222  14.387  -5.431  1.00 20.00     0.040 C 
HETATM   10  C8  UNL     1     -36.900  16.454  -6.714  1.00 20.00     0.040 C 
ENDBRANCH   6   8
BRANCH   1  11
HETATM   11  C2  UNL     1     -34.263  18.626  -5.756  1.00 20.00     0.291 C 
HETATM   12  O11 UNL     1     -33.970  18.793  -6.969  1.00 20.00    -0.300 OA
ENDBRANCH   1  11
TORSDOF 2
ENDMDL
