MODEL 1
REMARK VINA RESULT:      -4.5      0.000      0.000
REMARK  3 active torsions:
REMARK  status: ('A' for Active; 'I' for Inactive)
REMARK    1  A    between atoms: C1_1  and  C9_9 
REMARK    2  A    between atoms: C3_3  and  C8_8 
REMARK    3  A    between atoms: C9_9  and  N10_10 
ROOT
HETATM    1  C4  UNL     1     -36.430  17.028  -5.263  1.00 20.00     0.028 C 
HETATM    2  C5  UNL     1     -36.177  15.953  -6.318  1.00 20.00     0.015 C 
HETATM    3  C6  UNL     1     -35.137  17.492  -4.613  1.00 20.00     0.235 C 
HETATM    4  C7  UNL     1     -34.087  15.252  -5.045  1.00 20.00     0.246 C 
HETATM    5  C8  UNL     1     -35.335  14.798  -5.787  1.00 20.00     0.073 C 
HETATM    6  N10 UNL     1     -34.429  16.304  -4.013  1.00 20.00    -0.067 N 
HETATM    7  H27 UNL     1     -35.074  15.876  -3.333  1.00 20.00     0.280 HD
ENDROOT
BRANCH   6   8
HETATM    8  C9  UNL     1     -33.215  16.721  -3.227  1.00 20.00     0.263 C 
BRANCH   8   9
HETATM    9  C1  UNL     1     -33.522  17.000  -1.791  1.00 20.00     0.012 C 
HETATM   10  C2  UNL     1     -32.934  17.975  -1.092  1.00 20.00     0.082 C 
HETATM   11 CL12 UNL     1     -33.296  18.293   0.552  1.00 20.00    -0.097 Cl
ENDBRANCH   8   9
ENDBRANCH   6   8
BRANCH   5  12
HETATM   12  C3  UNL     1     -36.219  13.926  -4.908  1.00 20.00     0.237 C 
HETATM   13  O11 UNL     1     -35.807  12.948  -4.293  1.00 20.00    -0.306 OA
ENDBRANCH   5  12
TORSDOF 3
ENDMDL
MODEL 2
REMARK VINA RESULT:      -4.4      1.261      1.452
REMARK  3 active torsions:
REMARK  status: ('A' for Active; 'I' for Inactive)
REMARK    1  A    between atoms: C1_1  and  C9_9 
REMARK    2  A    between atoms: C3_3  and  C8_8 
REMARK    3  A    between atoms: C9_9  and  N10_10 
ROOT
HETATM    1  C4  UNL     1     -34.815  16.573  -6.367  1.00 20.00     0.028 C 
HETATM    2  C5  UNL     1     -34.049  15.259  -6.230  1.00 20.00     0.015 C 
HETATM    3  C6  UNL     1     -34.432  17.563  -5.279  1.00 20.00     0.235 C 
HETATM    4  C7  UNL     1     -33.864  15.674  -3.725  1.00 20.00     0.246 C 
HETATM    5  C8  UNL     1     -34.148  14.666  -4.829  1.00 20.00     0.073 C 
HETATM    6  N10 UNL     1     -34.673  16.936  -3.930  1.00 20.00    -0.067 N 
HETATM    7  H27 UNL     1     -35.669  16.678  -3.886  1.00 20.00     0.280 HD
ENDROOT
BRANCH   6   8
HETATM    8  C9  UNL     1     -34.450  17.921  -2.814  1.00 20.00     0.263 C 
BRANCH   8   9
HETATM    9  C1  UNL     1     -33.190  17.662  -2.054  1.00 20.00     0.012 C 
HETATM   10  C2  UNL     1     -32.578  18.588  -1.311  1.00 20.00     0.082 C 
HETATM   11 CL12 UNL     1     -31.136  18.281  -0.438  1.00 20.00    -0.097 Cl
ENDBRANCH   8   9
ENDBRANCH   6   8
BRANCH   5  12
HETATM   12  C3  UNL     1     -35.526  14.040  -4.671  1.00 20.00     0.237 C 
HETATM   13  O11 UNL     1     -35.707  12.897  -4.265  1.00 20.00    -0.306 OA
ENDBRANCH   5  12
TORSDOF 3
ENDMDL
MODEL 3
REMARK VINA RESULT:      -4.2      1.732      2.501
REMARK  3 active torsions:
REMARK  status: ('A' for Active; 'I' for Inactive)
REMARK    1  A    between atoms: C1_1  and  C9_9 
REMARK    2  A    between atoms: C3_3  and  C8_8 
REMARK    3  A    between atoms: C9_9  and  N10_10 
ROOT
HETATM    1  C4  UNL     1     -33.436  14.724  -4.346  1.00 20.00     0.028 C 
HETATM    2  C5  UNL     1     -34.816  14.681  -5.001  1.00 20.00     0.015 C 
HETATM    3  C6  UNL     1     -33.293  15.917  -3.417  1.00 20.00     0.235 C 
HETATM    4  C7  UNL     1     -34.954  17.213  -4.783  1.00 20.00     0.246 C 
HETATM    5  C8  UNL     1     -35.188  16.000  -5.669  1.00 20.00     0.073 C 
HETATM    6  N10 UNL     1     -33.563  17.184  -4.188  1.00 20.00    -0.067 N 
HETATM    7  H27 UNL     1     -32.891  17.216  -4.968  1.00 20.00     0.280 HD
ENDROOT
BRANCH   6   8
HETATM    8  C9  UNL     1     -33.292  18.408  -3.357  1.00 20.00     0.263 C 
BRANCH   8   9
HETATM    9  C1  UNL     1     -32.901  18.081  -1.952  1.00 20.00     0.012 C 
HETATM   10  C2  UNL     1     -32.167  18.893  -1.187  1.00 20.00     0.082 C 
HETATM   11 CL12 UNL     1     -31.729  18.513   0.425  1.00 20.00    -0.097 Cl
ENDBRANCH   8   9
ENDBRANCH   6   8
BRANCH   5  12
HETATM   12  C3  UNL     1     -34.417  16.107  -6.977  1.00 20.00     0.237 C 
HETATM   13  O11 UNL     1     -34.115  15.138  -7.665  1.00 20.00    -0.306 OA
ENDBRANCH   5  12
TORSDOF 3
ENDMDL
MODEL 4
REMARK VINA RESULT:      -4.0     11.767     12.765
REMARK  3 active torsions:
REMARK  status: ('A' for Active; 'I' for Inactive)
REMARK    1  A    between atoms: C1_1  and  C9_9 
REMARK    2  A    between atoms: C3_3  and  C8_8 
REMARK    3  A    between atoms: C9_9  and  N10_10 
ROOT
HETATM    1  C4  UNL     1     -33.707   5.880   6.751  1.00 20.00     0.028 C 
HETATM    2  C5  UNL     1     -34.965   5.368   6.053  1.00 20.00     0.015 C 
HETATM    3  C6  UNL     1     -33.359   7.294   6.316  1.00 20.00     0.235 C 
HETATM    4  C7  UNL     1     -34.451   6.903   4.089  1.00 20.00     0.246 C 
HETATM    5  C8  UNL     1     -34.897   5.520   4.537  1.00 20.00     0.073 C 
HETATM    6  N10 UNL     1     -33.195   7.326   4.818  1.00 20.00    -0.067 N 
HETATM    7  H27 UNL     1     -32.454   6.652   4.577  1.00 20.00     0.280 HD
ENDROOT
BRANCH   6   8
HETATM    8  C9  UNL     1     -32.705   8.667   4.342  1.00 20.00     0.263 C 
BRANCH   8   9
HETATM    9  C1  UNL     1     -32.380   8.682   2.884  1.00 20.00     0.012 C 
HETATM   10  C2  UNL     1     -32.997   9.473   2.002  1.00 20.00     0.082 C 
HETATM   11 CL12 UNL     1     -32.613   9.489   0.333  1.00 20.00    -0.097 Cl
ENDBRANCH   8   9
ENDBRANCH   6   8
BRANCH   5  12
HETATM   12  C3  UNL     1     -33.982   4.435   3.989  1.00 20.00     0.237 C 
HETATM   13  O11 UNL     1     -33.141   4.636   3.119  1.00 20.00    -0.306 OA
ENDBRANCH   5  12
TORSDOF 3
ENDMDL
MODEL 5
REMARK VINA RESULT:      -3.8      3.659      5.547
REMARK  3 active torsions:
REMARK  status: ('A' for Active; 'I' for Inactive)
REMARK    1  A    between atoms: C1_1  and  C9_9 
REMARK    2  A    between atoms: C3_3  and  C8_8 
REMARK    3  A    between atoms: C9_9  and  N10_10 
ROOT
HETATM    1  C4  UNL     1     -34.859  19.263  -1.192  1.00 20.00     0.028 C 
HETATM    2  C5  UNL     1     -34.072  18.236  -0.381  1.00 20.00     0.015 C 
HETATM    3  C6  UNL     1     -35.169  18.756  -2.591  1.00 20.00     0.235 C 
HETATM    4  C7  UNL     1     -33.113  17.315  -2.551  1.00 20.00     0.246 C 
HETATM    5  C8  UNL     1     -32.834  17.733  -1.115  1.00 20.00     0.073 C 
HETATM    6  N10 UNL     1     -33.881  18.393  -3.285  1.00 20.00    -0.067 N 
HETATM    7  H27 UNL     1     -33.293  19.239  -3.299  1.00 20.00     0.280 HD
ENDROOT
BRANCH   6   8
HETATM    8  C9  UNL     1     -34.112  18.023  -4.725  1.00 20.00     0.263 C 
BRANCH   8   9
HETATM    9  C1  UNL     1     -35.011  16.840  -4.883  1.00 20.00     0.012 C 
HETATM   10  C2  UNL     1     -34.800  15.873  -5.780  1.00 20.00     0.082 C 
HETATM   11 CL12 UNL     1     -35.832  14.516  -5.950  1.00 20.00    -0.097 Cl
ENDBRANCH   8   9
ENDBRANCH   6   8
BRANCH   5  12
HETATM   12  C3  UNL     1     -31.765  18.813  -1.046  1.00 20.00     0.237 C 
HETATM   13  O11 UNL     1     -30.681  18.657  -0.494  1.00 20.00    -0.306 OA
ENDBRANCH   5  12
TORSDOF 3
ENDMDL
MODEL 6
REMARK VINA RESULT:      -3.8      3.344      4.936
REMARK  3 active torsions:
REMARK  status: ('A' for Active; 'I' for Inactive)
REMARK    1  A    between atoms: C1_1  and  C9_9 
REMARK    2  A    between atoms: C3_3  and  C8_8 
REMARK    3  A    between atoms: C9_9  and  N10_10 
ROOT
HETATM    1  C4  UNL     1     -34.245  14.371  -4.194  1.00 20.00     0.028 C 
HETATM    2  C5  UNL     1     -32.956  15.188  -4.136  1.00 20.00     0.015 C 
HETATM    3  C6  UNL     1     -35.301  15.049  -5.050  1.00 20.00     0.235 C 
HETATM    4  C7  UNL     1     -34.324  17.300  -4.518  1.00 20.00     0.246 C 
HETATM    5  C8  UNL     1     -33.199  16.639  -3.736  1.00 20.00     0.073 C 
HETATM    6  N10 UNL     1     -35.563  16.433  -4.513  1.00 20.00    -0.067 N 
HETATM    7  H27 UNL     1     -35.865  16.328  -3.533  1.00 20.00     0.280 HD
ENDROOT
BRANCH   6   8
HETATM    8  C9  UNL     1     -36.706  17.099  -5.230  1.00 20.00     0.263 C 
BRANCH   8   9
HETATM    9  C1  UNL     1     -37.916  16.228  -5.329  1.00 20.00     0.012 C 
HETATM   10  C2  UNL     1     -39.002  16.392  -4.569  1.00 20.00     0.082 C 
HETATM   11 CL12 UNL     1     -40.388  15.393  -4.692  1.00 20.00    -0.097 Cl
ENDBRANCH   8   9
ENDBRANCH   6   8
BRANCH   5  12
HETATM   12  C3  UNL     1     -33.460  16.684  -2.238  1.00 20.00     0.237 C 
HETATM   13  O11 UNL     1     -34.161  17.534  -1.698  1.00 20.00    -0.306 OA
ENDBRANCH   5  12
TORSDOF 3
ENDMDL
MODEL 7
REMARK VINA RESULT:      -3.8     24.109     25.058
REMARK  3 active torsions:
REMARK  status: ('A' for Active; 'I' for Inactive)
REMARK    1  A    between atoms: C1_1  and  C9_9 
REMARK    2  A    between atoms: C3_3  and  C8_8 
REMARK    3  A    between atoms: C9_9  and  N10_10 
ROOT
HETATM    1  C4  UNL     1     -26.921  -0.284  12.029  1.00 20.00     0.028 C 
HETATM    2  C5  UNL     1     -27.811  -0.296  10.788  1.00 20.00     0.015 C 
HETATM    3  C6  UNL     1     -25.616  -1.024  11.792  1.00 20.00     0.235 C 
HETATM    4  C7  UNL     1     -26.728  -2.488  10.082  1.00 20.00     0.246 C 
HETATM    5  C8  UNL     1     -28.020  -1.700  10.230  1.00 20.00     0.073 C 
HETATM    6  N10 UNL     1     -25.917  -2.436  11.358  1.00 20.00    -0.067 N 
HETATM    7  H27 UNL     1     -26.480  -2.871  12.103  1.00 20.00     0.280 HD
ENDROOT
BRANCH   6   8
HETATM    8  C9  UNL     1     -24.663  -3.262  11.250  1.00 20.00     0.263 C 
BRANCH   8   9
HETATM    9  C1  UNL     1     -24.294  -3.572   9.835  1.00 20.00     0.012 C 
HETATM   10  C2  UNL     1     -23.213  -3.069   9.233  1.00 20.00     0.082 C 
HETATM   11 CL12 UNL     1     -22.793  -3.435   7.613  1.00 20.00    -0.097 Cl
ENDBRANCH   8   9
ENDBRANCH   6   8
BRANCH   5  12
HETATM   12  C3  UNL     1     -29.016  -2.425  11.122  1.00 20.00     0.237 C 
HETATM   13  O11 UNL     1     -30.200  -2.112  11.209  1.00 20.00    -0.306 OA
ENDBRANCH   5  12
TORSDOF 3
ENDMDL
MODEL 8
REMARK VINA RESULT:      -3.8     13.226     14.446
REMARK  3 active torsions:
REMARK  status: ('A' for Active; 'I' for Inactive)
REMARK    1  A    between atoms: C1_1  and  C9_9 
REMARK    2  A    between atoms: C3_3  and  C8_8 
REMARK    3  A    between atoms: C9_9  and  N10_10 
ROOT
HETATM    1  C4  UNL     1     -40.268  15.603   8.755  1.00 20.00     0.028 C 
HETATM    2  C5  UNL     1     -41.502  16.101   9.505  1.00 20.00     0.015 C 
HETATM    3  C6  UNL     1     -40.645  14.853   7.488  1.00 20.00     0.235 C 
HETATM    4  C7  UNL     1     -42.834  14.173   8.513  1.00 20.00     0.246 C 
HETATM    5  C8  UNL     1     -42.523  14.996   9.753  1.00 20.00     0.073 C 
HETATM    6  N10 UNL     1     -41.561  13.709   7.842  1.00 20.00    -0.067 N 
HETATM    7  H27 UNL     1     -41.056  13.110   8.511  1.00 20.00     0.280 HD
ENDROOT
BRANCH   6   8
HETATM    8  C9  UNL     1     -41.851  12.841   6.647  1.00 20.00     0.263 C 
BRANCH   8   9
HETATM    9  C1  UNL     1     -40.723  12.809   5.666  1.00 20.00     0.012 C 
HETATM   10  C2  UNL     1     -39.889  11.773   5.543  1.00 20.00     0.082 C 
HETATM   11 CL12 UNL     1     -38.602  11.741   4.411  1.00 20.00    -0.097 Cl
ENDBRANCH   8   9
ENDBRANCH   6   8
BRANCH   5  12
HETATM   12  C3  UNL     1     -42.013  14.121  10.889  1.00 20.00     0.237 C 
HETATM   13  O11 UNL     1     -41.820  12.915  10.780  1.00 20.00    -0.306 OA
ENDBRANCH   5  12
TORSDOF 3
ENDMDL
MODEL 9
REMARK VINA RESULT:      -3.7      2.279      3.024
REMARK  3 active torsions:
REMARK  status: ('A' for Active; 'I' for Inactive)
REMARK    1  A    between atoms: C1_1  and  C9_9 
REMARK    2  A    between atoms: C3_3  and  C8_8 
REMARK    3  A    between atoms: C9_9  and  N10_10 
ROOT
HETATM    1  C4  UNL     1     -34.334  15.458  -7.150  1.00 20.00     0.028 C 
HETATM    2  C5  UNL     1     -35.614  16.291  -7.178  1.00 20.00     0.015 C 
HETATM    3  C6  UNL     1     -33.960  15.051  -5.735  1.00 20.00     0.235 C 
HETATM    4  C7  UNL     1     -35.095  17.095  -4.820  1.00 20.00     0.246 C 
HETATM    5  C8  UNL     1     -35.566  17.473  -6.216  1.00 20.00     0.073 C 
HETATM    6  N10 UNL     1     -33.818  16.287  -4.883  1.00 20.00    -0.067 N 
HETATM    7  H27 UNL     1     -33.097  16.878  -5.321  1.00 20.00     0.280 HD
ENDROOT
BRANCH   6   8
HETATM    8  C9  UNL     1     -33.305  15.957  -3.508  1.00 20.00     0.263 C 
BRANCH   8   9
HETATM    9  C1  UNL     1     -33.193  17.158  -2.626  1.00 20.00     0.012 C 
HETATM   10  C2  UNL     1     -33.645  17.190  -1.369  1.00 20.00     0.082 C 
HETATM   11 CL12 UNL     1     -33.508  18.570  -0.363  1.00 20.00    -0.097 Cl
ENDBRANCH   8   9
ENDBRANCH   6   8
BRANCH   5  12
HETATM   12  C3  UNL     1     -34.685  18.552  -6.828  1.00 20.00     0.237 C 
HETATM   13  O11 UNL     1     -33.733  19.059  -6.245  1.00 20.00    -0.306 OA
ENDBRANCH   5  12
TORSDOF 3
ENDMDL
