MODEL 1
REMARK VINA RESULT:      -4.5      0.000      0.000
REMARK  4 active torsions:
REMARK  status: ('A' for Active; 'I' for Inactive)
REMARK    1  A    between atoms: C3_3  and  C8_8 
REMARK    2  A    between atoms: C3_3  and  O9_9 
REMARK    3  A    between atoms: C6_6  and  C7_7 
REMARK    4  A    between atoms: C7_7  and  C8_8 
ROOT
HETATM    1  C1  UNL     1     -33.453   8.537   4.090  1.00 20.00     0.041 A 
HETATM    2  C2  UNL     1     -32.055   8.213   4.538  1.00 20.00     0.041 A 
HETATM    3  C3  UNL     1     -32.698   7.411   3.439  1.00 20.00     0.061 A 
ENDROOT
BRANCH   3   4
HETATM    4  C8  UNL     1     -33.118   5.960   3.689  1.00 20.00     0.016 C 
HETATM    5  C5  UNL     1     -32.855   5.124   2.436  1.00 20.00     0.013 C 
BRANCH   4   6
HETATM    6  C7  UNL     1     -34.593   5.912   4.128  1.00 20.00     0.007 C 
BRANCH   6   7
HETATM    7  C6  UNL     1     -34.806   5.215   5.475  1.00 20.00    -0.004 C 
HETATM    8  C4  UNL     1     -34.409   6.116   6.635  1.00 20.00     0.005 C 
ENDBRANCH   6   7
ENDBRANCH   4   6
ENDBRANCH   3   4
BRANCH   3   9
HETATM    9  O9  UNL     1     -32.221   7.661   2.107  1.00 20.00    -0.389 OA
HETATM   10  H25 UNL     1     -31.399   7.160   2.022  1.00 20.00     0.210 HD
ENDBRANCH   3   9
TORSDOF 4
ENDMDL
MODEL 2
REMARK VINA RESULT:      -4.4      1.860      3.914
REMARK  4 active torsions:
REMARK  status: ('A' for Active; 'I' for Inactive)
REMARK    1  A    between atoms: C3_3  and  C8_8 
REMARK    2  A    between atoms: C3_3  and  O9_9 
REMARK    3  A    between atoms: C6_6  and  C7_7 
REMARK    4  A    between atoms: C7_7  and  C8_8 
ROOT
HETATM    1  C1  UNL     1     -33.738   5.143   3.335  1.00 20.00     0.041 A 
HETATM    2  C2  UNL     1     -33.923   4.240   4.523  1.00 20.00     0.041 A 
HETATM    3  C3  UNL     1     -34.428   5.656   4.569  1.00 20.00     0.061 A 
ENDROOT
BRANCH   3   4
HETATM    4  C8  UNL     1     -33.738   6.693   5.459  1.00 20.00     0.016 C 
HETATM    5  C5  UNL     1     -34.460   6.779   6.805  1.00 20.00     0.013 C 
BRANCH   4   6
HETATM    6  C7  UNL     1     -33.684   8.050   4.734  1.00 20.00     0.007 C 
BRANCH   6   7
HETATM    7  C6  UNL     1     -32.278   8.433   4.263  1.00 20.00    -0.004 C 
HETATM    8  C4  UNL     1     -32.105   8.181   2.773  1.00 20.00     0.005 C 
ENDBRANCH   6   7
ENDBRANCH   4   6
ENDBRANCH   3   4
BRANCH   3   9
HETATM    9  O9  UNL     1     -35.852   5.827   4.468  1.00 20.00    -0.389 OA
HETATM   10  H25 UNL     1     -36.057   6.632   4.962  1.00 20.00     0.210 HD
ENDBRANCH   3   9
TORSDOF 4
ENDMDL
MODEL 3
REMARK VINA RESULT:      -4.3      1.619      2.508
REMARK  4 active torsions:
REMARK  status: ('A' for Active; 'I' for Inactive)
REMARK    1  A    between atoms: C3_3  and  C8_8 
REMARK    2  A    between atoms: C3_3  and  O9_9 
REMARK    3  A    between atoms: C6_6  and  C7_7 
REMARK    4  A    between atoms: C7_7  and  C8_8 
ROOT
HETATM    1  C1  UNL     1     -32.243   7.318   3.171  1.00 20.00     0.041 A 
HETATM    2  C2  UNL     1     -32.782   8.710   2.995  1.00 20.00     0.041 A 
HETATM    3  C3  UNL     1     -32.785   8.070   4.356  1.00 20.00     0.061 A 
ENDROOT
BRANCH   3   4
HETATM    4  C8  UNL     1     -34.104   7.637   5.001  1.00 20.00     0.016 C 
HETATM    5  C5  UNL     1     -33.866   7.271   6.467  1.00 20.00     0.013 C 
BRANCH   4   6
HETATM    6  C7  UNL     1     -34.722   6.478   4.198  1.00 20.00     0.007 C 
BRANCH   6   7
HETATM    7  C6  UNL     1     -34.784   5.162   4.978  1.00 20.00    -0.004 C 
HETATM    8  C4  UNL     1     -33.827   4.130   4.401  1.00 20.00     0.005 C 
ENDBRANCH   6   7
ENDBRANCH   4   6
ENDBRANCH   3   4
BRANCH   3   9
HETATM    9  O9  UNL     1     -31.809   8.558   5.291  1.00 20.00    -0.389 OA
HETATM   10  H25 UNL     1     -31.132   7.871   5.350  1.00 20.00     0.210 HD
ENDBRANCH   3   9
TORSDOF 4
ENDMDL
MODEL 4
REMARK VINA RESULT:      -4.2      1.771      3.293
REMARK  4 active torsions:
REMARK  status: ('A' for Active; 'I' for Inactive)
REMARK    1  A    between atoms: C3_3  and  C8_8 
REMARK    2  A    between atoms: C3_3  and  O9_9 
REMARK    3  A    between atoms: C6_6  and  C7_7 
REMARK    4  A    between atoms: C7_7  and  C8_8 
ROOT
HETATM    1  C1  UNL     1     -34.366   6.119   5.614  1.00 20.00     0.041 A 
HETATM    2  C2  UNL     1     -35.549   5.873   4.720  1.00 20.00     0.041 A 
HETATM    3  C3  UNL     1     -34.191   5.355   4.329  1.00 20.00     0.061 A 
ENDROOT
BRANCH   3   4
HETATM    4  C8  UNL     1     -33.434   5.987   3.158  1.00 20.00     0.016 C 
HETATM    5  C5  UNL     1     -32.899   4.889   2.238  1.00 20.00     0.013 C 
BRANCH   4   6
HETATM    6  C7  UNL     1     -32.316   6.902   3.693  1.00 20.00     0.007 C 
BRANCH   6   7
HETATM    7  C6  UNL     1     -32.652   8.392   3.601  1.00 20.00    -0.004 C 
HETATM    8  C4  UNL     1     -32.374   9.106   4.915  1.00 20.00     0.005 C 
ENDBRANCH   6   7
ENDBRANCH   4   6
ENDBRANCH   3   4
BRANCH   3   9
HETATM    9  O9  UNL     1     -33.988   3.939   4.462  1.00 20.00    -0.389 OA
HETATM   10  H25 UNL     1     -33.038   3.797   4.354  1.00 20.00     0.210 HD
ENDBRANCH   3   9
TORSDOF 4
ENDMDL
MODEL 5
REMARK VINA RESULT:      -4.0      1.892      3.039
REMARK  4 active torsions:
REMARK  status: ('A' for Active; 'I' for Inactive)
REMARK    1  A    between atoms: C3_3  and  C8_8 
REMARK    2  A    between atoms: C3_3  and  O9_9 
REMARK    3  A    between atoms: C6_6  and  C7_7 
REMARK    4  A    between atoms: C7_7  and  C8_8 
ROOT
HETATM    1  C1  UNL     1     -33.099   8.084   4.498  1.00 20.00     0.041 A 
HETATM    2  C2  UNL     1     -33.957   8.835   5.478  1.00 20.00     0.041 A 
HETATM    3  C3  UNL     1     -33.664   7.376   5.698  1.00 20.00     0.061 A 
ENDROOT
BRANCH   3   4
HETATM    4  C8  UNL     1     -34.771   6.332   5.522  1.00 20.00     0.016 C 
HETATM    5  C5  UNL     1     -34.563   5.187   6.514  1.00 20.00     0.013 C 
BRANCH   4   6
HETATM    6  C7  UNL     1     -34.801   5.846   4.061  1.00 20.00     0.007 C 
BRANCH   6   7
HETATM    7  C6  UNL     1     -33.821   4.704   3.779  1.00 20.00    -0.004 C 
HETATM    8  C4  UNL     1     -32.906   5.034   2.610  1.00 20.00     0.005 C 
ENDBRANCH   6   7
ENDBRANCH   4   6
ENDBRANCH   3   4
BRANCH   3   9
HETATM    9  O9  UNL     1     -32.729   7.066   6.744  1.00 20.00    -0.389 OA
HETATM   10  H25 UNL     1     -32.594   6.110   6.703  1.00 20.00     0.210 HD
ENDBRANCH   3   9
TORSDOF 4
ENDMDL
MODEL 6
REMARK VINA RESULT:      -3.9      1.576      2.753
REMARK  4 active torsions:
REMARK  status: ('A' for Active; 'I' for Inactive)
REMARK    1  A    between atoms: C3_3  and  C8_8 
REMARK    2  A    between atoms: C3_3  and  O9_9 
REMARK    3  A    between atoms: C6_6  and  C7_7 
REMARK    4  A    between atoms: C7_7  and  C8_8 
ROOT
HETATM    1  C1  UNL     1     -32.228   7.209   3.285  1.00 20.00     0.041 A 
HETATM    2  C2  UNL     1     -32.755   8.581   2.973  1.00 20.00     0.041 A 
HETATM    3  C3  UNL     1     -32.573   8.153   4.403  1.00 20.00     0.061 A 
ENDROOT
BRANCH   3   4
HETATM    4  C8  UNL     1     -33.793   7.882   5.288  1.00 20.00     0.016 C 
HETATM    5  C5  UNL     1     -34.096   9.115   6.140  1.00 20.00     0.013 C 
BRANCH   4   6
HETATM    6  C7  UNL     1     -33.548   6.623   6.141  1.00 20.00     0.007 C 
BRANCH   6   7
HETATM    7  C6  UNL     1     -34.660   5.578   6.019  1.00 20.00    -0.004 C 
HETATM    8  C4  UNL     1     -35.305   5.613   4.642  1.00 20.00     0.005 C 
ENDBRANCH   6   7
ENDBRANCH   4   6
ENDBRANCH   3   4
BRANCH   3   9
HETATM    9  O9  UNL     1     -31.460   8.733   5.103  1.00 20.00    -0.389 OA
HETATM   10  H25 UNL     1     -30.694   8.188   4.879  1.00 20.00     0.210 HD
ENDBRANCH   3   9
TORSDOF 4
ENDMDL
MODEL 7
REMARK VINA RESULT:      -3.7      1.881      4.063
REMARK  4 active torsions:
REMARK  status: ('A' for Active; 'I' for Inactive)
REMARK    1  A    between atoms: C3_3  and  C8_8 
REMARK    2  A    between atoms: C3_3  and  O9_9 
REMARK    3  A    between atoms: C6_6  and  C7_7 
REMARK    4  A    between atoms: C7_7  and  C8_8 
ROOT
HETATM    1  C1  UNL     1     -34.192   4.568   4.720  1.00 20.00     0.041 A 
HETATM    2  C2  UNL     1     -34.548   5.089   6.085  1.00 20.00     0.041 A 
HETATM    3  C3  UNL     1     -34.437   6.038   4.923  1.00 20.00     0.061 A 
ENDROOT
BRANCH   3   4
HETATM    4  C8  UNL     1     -33.272   7.028   4.845  1.00 20.00     0.016 C 
HETATM    5  C5  UNL     1     -33.755   8.425   5.237  1.00 20.00     0.013 C 
BRANCH   4   6
HETATM    6  C7  UNL     1     -32.653   6.994   3.436  1.00 20.00     0.007 C 
BRANCH   6   7
HETATM    7  C6  UNL     1     -32.427   8.384   2.836  1.00 20.00    -0.004 C 
HETATM    8  C4  UNL     1     -32.183   8.308   1.336  1.00 20.00     0.005 C 
ENDBRANCH   6   7
ENDBRANCH   4   6
ENDBRANCH   3   4
BRANCH   3   9
HETATM    9  O9  UNL     1     -35.674   6.548   4.399  1.00 20.00    -0.389 OA
HETATM   10  H25 UNL     1     -35.467   6.895   3.521  1.00 20.00     0.210 HD
ENDBRANCH   3   9
TORSDOF 4
ENDMDL
MODEL 8
REMARK VINA RESULT:      -3.7      2.056      3.787
REMARK  4 active torsions:
REMARK  status: ('A' for Active; 'I' for Inactive)
REMARK    1  A    between atoms: C3_3  and  C8_8 
REMARK    2  A    between atoms: C3_3  and  O9_9 
REMARK    3  A    between atoms: C6_6  and  C7_7 
REMARK    4  A    between atoms: C7_7  and  C8_8 
ROOT
HETATM    1  C1  UNL     1     -35.084   5.816   5.336  1.00 20.00     0.041 A 
HETATM    2  C2  UNL     1     -33.996   5.246   6.204  1.00 20.00     0.041 A 
HETATM    3  C3  UNL     1     -34.034   6.723   5.918  1.00 20.00     0.061 A 
ENDROOT
BRANCH   3   4
HETATM    4  C8  UNL     1     -32.980   7.359   5.007  1.00 20.00     0.016 C 
HETATM    5  C5  UNL     1     -32.743   8.810   5.429  1.00 20.00     0.013 C 
BRANCH   4   6
HETATM    6  C7  UNL     1     -33.421   7.239   3.537  1.00 20.00     0.007 C 
BRANCH   6   7
HETATM    7  C6  UNL     1     -32.455   6.419   2.676  1.00 20.00    -0.004 C 
HETATM    8  C4  UNL     1     -32.912   4.973   2.555  1.00 20.00     0.005 C 
ENDBRANCH   6   7
ENDBRANCH   4   6
ENDBRANCH   3   4
BRANCH   3   9
HETATM    9  O9  UNL     1     -34.462   7.569   6.998  1.00 20.00    -0.389 OA
HETATM   10  H25 UNL     1     -33.669   8.029   7.303  1.00 20.00     0.210 HD
ENDBRANCH   3   9
TORSDOF 4
ENDMDL
MODEL 9
REMARK VINA RESULT:      -3.6     11.701     12.565
REMARK  4 active torsions:
REMARK  status: ('A' for Active; 'I' for Inactive)
REMARK    1  A    between atoms: C3_3  and  C8_8 
REMARK    2  A    between atoms: C3_3  and  O9_9 
REMARK    3  A    between atoms: C6_6  and  C7_7 
REMARK    4  A    between atoms: C7_7  and  C8_8 
ROOT
HETATM    1  C1  UNL     1     -36.420  15.524  -5.456  1.00 20.00     0.041 A 
HETATM    2  C2  UNL     1     -35.750  14.732  -6.544  1.00 20.00     0.041 A 
HETATM    3  C3  UNL     1     -35.162  14.755  -5.160  1.00 20.00     0.061 A 
ENDROOT
BRANCH   3   4
HETATM    4  C8  UNL     1     -33.852  15.502  -4.891  1.00 20.00     0.016 C 
HETATM    5  C5  UNL     1     -32.793  14.520  -4.388  1.00 20.00     0.013 C 
BRANCH   4   6
HETATM    6  C7  UNL     1     -34.103  16.654  -3.901  1.00 20.00     0.007 C 
BRANCH   6   7
HETATM    7  C6  UNL     1     -33.319  16.516  -2.594  1.00 20.00    -0.004 C 
HETATM    8  C4  UNL     1     -33.791  17.522  -1.555  1.00 20.00     0.005 C 
ENDBRANCH   6   7
ENDBRANCH   4   6
ENDBRANCH   3   4
BRANCH   3   9
HETATM    9  O9  UNL     1     -35.324  13.559  -4.380  1.00 20.00    -0.389 OA
HETATM   10  H25 UNL     1     -34.432  13.288  -4.124  1.00 20.00     0.210 HD
ENDBRANCH   3   9
TORSDOF 4
ENDMDL
