MODEL 1
REMARK VINA RESULT:      -3.7      0.000      0.000
REMARK  2 active torsions:
REMARK  status: ('A' for Active; 'I' for Inactive)
REMARK    1  A    between atoms: C2_2  and  C7_7 
REMARK       I    between atoms: C2_2  and  N8_8 
REMARK    2  A    between atoms: C6_6  and  C7_7 
ROOT
HETATM    1  C1  UNL     1     -41.713  15.890   7.872  1.00 20.00     0.166 C 
HETATM    2  C2  UNL     1     -40.673  14.013   7.401  1.00 20.00     0.252 C 
HETATM    3  N8  UNL     1     -41.016  15.324   7.116  1.00 20.00    -0.199 NA
HETATM    4  O9  UNL     1     -40.064  13.634   8.402  1.00 20.00    -0.270 OA
HETATM    5  S10 UNL     1     -42.659  16.691   8.872  1.00 20.00    -0.055 SA
ENDROOT
BRANCH   2   6
HETATM    6  C7  UNL     1     -41.126  13.012   6.312  1.00 20.00     0.035 C 
HETATM    7  C4  UNL     1     -41.425  13.762   5.001  1.00 20.00     0.025 C 
HETATM    8  C5  UNL     1     -42.429  12.343   6.787  1.00 20.00     0.025 C 
BRANCH   6   9
HETATM    9  C6  UNL     1     -40.050  11.921   6.087  1.00 20.00     0.014 C 
HETATM   10  C3  UNL     1     -39.457  11.883   4.682  1.00 20.00     0.006 C 
ENDBRANCH   6   9
ENDBRANCH   2   6
TORSDOF 2
ENDMDL
MODEL 2
REMARK VINA RESULT:      -3.5     13.001     13.813
REMARK  2 active torsions:
REMARK  status: ('A' for Active; 'I' for Inactive)
REMARK    1  A    between atoms: C2_2  and  C7_7 
REMARK       I    between atoms: C2_2  and  N8_8 
REMARK    2  A    between atoms: C6_6  and  C7_7 
ROOT
HETATM    1  C1  UNL     1     -33.301  16.647  -2.984  1.00 20.00     0.166 C 
HETATM    2  C2  UNL     1     -33.975  15.096  -4.386  1.00 20.00     0.252 C 
HETATM    3  N8  UNL     1     -33.161  16.163  -4.044  1.00 20.00    -0.199 NA
HETATM    4  O9  UNL     1     -34.032  14.019  -3.790  1.00 20.00    -0.270 OA
HETATM    5  S10 UNL     1     -33.461  17.333  -1.556  1.00 20.00    -0.055 SA
ENDROOT
BRANCH   2   6
HETATM    6  C7  UNL     1     -34.843  15.365  -5.637  1.00 20.00     0.035 C 
HETATM    7  C4  UNL     1     -35.403  16.799  -5.589  1.00 20.00     0.025 C 
HETATM    8  C5  UNL     1     -36.034  14.388  -5.614  1.00 20.00     0.025 C 
BRANCH   6   9
HETATM    9  C6  UNL     1     -34.027  15.138  -6.933  1.00 20.00     0.014 C 
HETATM   10  C3  UNL     1     -34.047  16.302  -7.918  1.00 20.00     0.006 C 
ENDBRANCH   6   9
ENDBRANCH   2   6
TORSDOF 2
ENDMDL
MODEL 3
REMARK VINA RESULT:      -3.4     12.928     13.639
REMARK  2 active torsions:
REMARK  status: ('A' for Active; 'I' for Inactive)
REMARK    1  A    between atoms: C2_2  and  C7_7 
REMARK       I    between atoms: C2_2  and  N8_8 
REMARK    2  A    between atoms: C6_6  and  C7_7 
ROOT
HETATM    1  C1  UNL     1     -33.343  16.615  -2.923  1.00 20.00     0.166 C 
HETATM    2  C2  UNL     1     -34.002  15.128  -4.399  1.00 20.00     0.252 C 
HETATM    3  N8  UNL     1     -33.163  16.148  -3.985  1.00 20.00    -0.199 NA
HETATM    4  O9  UNL     1     -34.141  14.042  -3.836  1.00 20.00    -0.270 OA
HETATM    5  S10 UNL     1     -33.555  17.274  -1.489  1.00 20.00    -0.055 SA
ENDROOT
BRANCH   2   6
HETATM    6  C7  UNL     1     -34.784  15.465  -5.690  1.00 20.00     0.035 C 
HETATM    7  C4  UNL     1     -35.993  14.523  -5.834  1.00 20.00     0.025 C 
HETATM    8  C5  UNL     1     -33.850  15.229  -6.892  1.00 20.00     0.025 C 
BRANCH   6   9
HETATM    9  C6  UNL     1     -35.240  16.946  -5.688  1.00 20.00     0.014 C 
HETATM   10  C3  UNL     1     -36.659  17.180  -5.182  1.00 20.00     0.006 C 
ENDBRANCH   6   9
ENDBRANCH   2   6
TORSDOF 2
ENDMDL
MODEL 4
REMARK VINA RESULT:      -3.4      2.360      2.763
REMARK  2 active torsions:
REMARK  status: ('A' for Active; 'I' for Inactive)
REMARK    1  A    between atoms: C2_2  and  C7_7 
REMARK       I    between atoms: C2_2  and  N8_8 
REMARK    2  A    between atoms: C6_6  and  C7_7 
ROOT
HETATM    1  C1  UNL     1     -42.788  16.022   5.307  1.00 20.00     0.166 C 
HETATM    2  C2  UNL     1     -41.898  14.056   4.898  1.00 20.00     0.252 C 
HETATM    3  N8  UNL     1     -42.902  14.858   5.413  1.00 20.00    -0.199 NA
HETATM    4  O9  UNL     1     -41.548  14.015   3.718  1.00 20.00    -0.270 OA
HETATM    5  S10 UNL     1     -42.670  17.605   5.183  1.00 20.00    -0.055 SA
ENDROOT
BRANCH   2   6
HETATM    6  C7  UNL     1     -41.221  13.164   5.965  1.00 20.00     0.035 C 
HETATM    7  C4  UNL     1     -42.291  12.462   6.819  1.00 20.00     0.025 C 
HETATM    8  C5  UNL     1     -40.390  14.071   6.892  1.00 20.00     0.025 C 
BRANCH   6   9
HETATM    9  C6  UNL     1     -40.282  12.126   5.300  1.00 20.00     0.014 C 
HETATM   10  C3  UNL     1     -38.830  12.185   5.760  1.00 20.00     0.006 C 
ENDBRANCH   6   9
ENDBRANCH   2   6
TORSDOF 2
ENDMDL
MODEL 5
REMARK VINA RESULT:      -3.3     13.518     14.324
REMARK  2 active torsions:
REMARK  status: ('A' for Active; 'I' for Inactive)
REMARK    1  A    between atoms: C2_2  and  C7_7 
REMARK       I    between atoms: C2_2  and  N8_8 
REMARK    2  A    between atoms: C6_6  and  C7_7 
ROOT
HETATM    1  C1  UNL     1     -37.760  16.107  -5.771  1.00 20.00     0.166 C 
HETATM    2  C2  UNL     1     -35.935  15.060  -6.402  1.00 20.00     0.252 C 
HETATM    3  N8  UNL     1     -36.849  15.446  -5.437  1.00 20.00    -0.199 NA
HETATM    4  O9  UNL     1     -36.188  14.382  -7.399  1.00 20.00    -0.270 OA
HETATM    5  S10 UNL     1     -39.009  17.004  -6.186  1.00 20.00    -0.055 SA
ENDROOT
BRANCH   2   6
HETATM    6  C7  UNL     1     -34.498  15.559  -6.118  1.00 20.00     0.035 C 
HETATM    7  C4  UNL     1     -34.517  17.067  -5.810  1.00 20.00     0.025 C 
HETATM    8  C5  UNL     1     -33.655  15.341  -7.388  1.00 20.00     0.025 C 
BRANCH   6   9
HETATM    9  C6  UNL     1     -33.863  14.769  -4.947  1.00 20.00     0.014 C 
HETATM   10  C3  UNL     1     -33.500  15.608  -3.727  1.00 20.00     0.006 C 
ENDBRANCH   6   9
ENDBRANCH   2   6
TORSDOF 2
ENDMDL
MODEL 6
REMARK VINA RESULT:      -3.3     13.062     13.940
REMARK  2 active torsions:
REMARK  status: ('A' for Active; 'I' for Inactive)
REMARK    1  A    between atoms: C2_2  and  C7_7 
REMARK       I    between atoms: C2_2  and  N8_8 
REMARK    2  A    between atoms: C6_6  and  C7_7 
ROOT
HETATM    1  C1  UNL     1     -34.568  16.049  -6.063  1.00 20.00     0.166 C 
HETATM    2  C2  UNL     1     -33.813  16.295  -4.015  1.00 20.00     0.252 C 
HETATM    3  N8  UNL     1     -34.843  16.119  -4.924  1.00 20.00    -0.199 NA
HETATM    4  O9  UNL     1     -32.870  15.522  -3.842  1.00 20.00    -0.270 OA
HETATM    5  S10 UNL     1     -34.236  15.950  -7.617  1.00 20.00    -0.055 SA
ENDROOT
BRANCH   2   6
HETATM    6  C7  UNL     1     -33.945  17.593  -3.185  1.00 20.00     0.035 C 
HETATM    7  C4  UNL     1     -35.372  18.157  -3.314  1.00 20.00     0.025 C 
HETATM    8  C5  UNL     1     -32.968  18.634  -3.761  1.00 20.00     0.025 C 
BRANCH   6   9
HETATM    9  C6  UNL     1     -33.591  17.335  -1.699  1.00 20.00     0.014 C 
HETATM   10  C3  UNL     1     -32.391  18.118  -1.179  1.00 20.00     0.006 C 
ENDBRANCH   6   9
ENDBRANCH   2   6
TORSDOF 2
ENDMDL
MODEL 7
REMARK VINA RESULT:      -3.2      3.004      4.145
REMARK  2 active torsions:
REMARK  status: ('A' for Active; 'I' for Inactive)
REMARK    1  A    between atoms: C2_2  and  C7_7 
REMARK       I    between atoms: C2_2  and  N8_8 
REMARK    2  A    between atoms: C6_6  and  C7_7 
ROOT
HETATM    1  C1  UNL     1     -39.904  11.980   5.507  1.00 20.00     0.166 C 
HETATM    2  C2  UNL     1     -40.967  13.410   6.791  1.00 20.00     0.252 C 
HETATM    3  N8  UNL     1     -40.509  12.136   6.501  1.00 20.00    -0.199 NA
HETATM    4  O9  UNL     1     -40.260  14.407   6.947  1.00 20.00    -0.270 OA
HETATM    5  S10 UNL     1     -39.080  11.727   4.168  1.00 20.00    -0.055 SA
ENDROOT
BRANCH   2   6
HETATM    6  C7  UNL     1     -42.506  13.492   6.922  1.00 20.00     0.035 C 
HETATM    7  C4  UNL     1     -43.089  12.087   7.154  1.00 20.00     0.025 C 
HETATM    8  C5  UNL     1     -43.072  14.031   5.594  1.00 20.00     0.025 C 
BRANCH   6   9
HETATM    9  C6  UNL     1     -42.911  14.451   8.069  1.00 20.00     0.014 C 
HETATM   10  C3  UNL     1     -42.755  13.875   9.472  1.00 20.00     0.006 C 
ENDBRANCH   6   9
ENDBRANCH   2   6
TORSDOF 2
ENDMDL
MODEL 8
REMARK VINA RESULT:      -3.2      0.826      2.077
REMARK  2 active torsions:
REMARK  status: ('A' for Active; 'I' for Inactive)
REMARK    1  A    between atoms: C2_2  and  C7_7 
REMARK       I    between atoms: C2_2  and  N8_8 
REMARK    2  A    between atoms: C6_6  and  C7_7 
ROOT
HETATM    1  C1  UNL     1     -40.853  16.108   7.864  1.00 20.00     0.166 C 
HETATM    2  C2  UNL     1     -40.516  13.974   7.467  1.00 20.00     0.252 C 
HETATM    3  N8  UNL     1     -40.386  15.313   7.137  1.00 20.00    -0.199 NA
HETATM    4  O9  UNL     1     -40.080  13.443   8.489  1.00 20.00    -0.270 OA
HETATM    5  S10 UNL     1     -41.472  17.217   8.824  1.00 20.00    -0.055 SA
ENDROOT
BRANCH   2   6
HETATM    6  C7  UNL     1     -41.277  13.152   6.401  1.00 20.00     0.035 C 
HETATM    7  C4  UNL     1     -42.514  12.490   7.033  1.00 20.00     0.025 C 
HETATM    8  C5  UNL     1     -40.343  12.036   5.897  1.00 20.00     0.025 C 
BRANCH   6   9
HETATM    9  C6  UNL     1     -41.686  14.047   5.204  1.00 20.00     0.014 C 
HETATM   10  C3  UNL     1     -43.181  14.321   5.088  1.00 20.00     0.006 C 
ENDBRANCH   6   9
ENDBRANCH   2   6
TORSDOF 2
ENDMDL
MODEL 9
REMARK VINA RESULT:      -3.2      2.933      4.142
REMARK  2 active torsions:
REMARK  status: ('A' for Active; 'I' for Inactive)
REMARK    1  A    between atoms: C2_2  and  C7_7 
REMARK       I    between atoms: C2_2  and  N8_8 
REMARK    2  A    between atoms: C6_6  and  C7_7 
ROOT
HETATM    1  C1  UNL     1     -40.398  12.681   5.163  1.00 20.00     0.166 C 
HETATM    2  C2  UNL     1     -41.805  13.135   6.787  1.00 20.00     0.252 C 
HETATM    3  N8  UNL     1     -41.274  13.370   5.531  1.00 20.00    -0.199 NA
HETATM    4  O9  UNL     1     -42.342  12.088   7.153  1.00 20.00    -0.270 OA
HETATM    5  S10 UNL     1     -39.208  11.767   4.629  1.00 20.00    -0.055 SA
ENDROOT
BRANCH   2   6
HETATM    6  C7  UNL     1     -41.678  14.345   7.742  1.00 20.00     0.035 C 
HETATM    7  C4  UNL     1     -42.807  14.310   8.788  1.00 20.00     0.025 C 
HETATM    8  C5  UNL     1     -41.836  15.631   6.911  1.00 20.00     0.025 C 
BRANCH   6   9
HETATM    9  C6  UNL     1     -40.291  14.357   8.433  1.00 20.00     0.014 C 
HETATM   10  C3  UNL     1     -40.203  15.228   9.681  1.00 20.00     0.006 C 
ENDBRANCH   6   9
ENDBRANCH   2   6
TORSDOF 2
ENDMDL
