MODEL 1
REMARK VINA RESULT:      -4.5      0.000      0.000
REMARK  2 active torsions:
REMARK  status: ('A' for Active; 'I' for Inactive)
REMARK    1  A    between atoms: C7_7  and  C11_11 
REMARK    2  A    between atoms: C8_8  and  C12_12 
ROOT
HETATM    1  C1  UNL     1     -31.203  18.636   0.025  1.00 20.00     0.012 C 
HETATM    2  C2  UNL     1     -32.276  18.263  -0.365  1.00 20.00    -0.117 C 
HETATM    3  C11 UNL     1     -33.588  17.806  -0.831  1.00 20.00     0.105 C 
ENDROOT
BRANCH   3   4
HETATM    4  C7  UNL     1     -33.671  17.837  -2.354  1.00 20.00     0.067 C 
HETATM    5  C3  UNL     1     -35.050  18.301  -2.818  1.00 20.00     0.132 C 
HETATM    6  C4  UNL     1     -35.534  17.783  -4.158  1.00 20.00     0.079 C 
HETATM    7  O13 UNL     1     -35.751  19.058  -2.146  1.00 20.00    -0.298 OA
HETATM    8  C5  UNL     1     -34.349  17.502  -5.071  1.00 20.00     0.012 C 
HETATM    9  C8  UNL     1     -33.379  16.464  -4.480  1.00 20.00    -0.010 C 
HETATM   10  C6  UNL     1     -33.394  16.449  -2.940  1.00 20.00     0.018 C 
BRANCH   9  11
HETATM   11  C12 UNL     1     -33.667  15.062  -5.023  1.00 20.00    -0.019 C 
HETATM   12  C9  UNL     1     -34.495  14.260  -4.023  1.00 20.00     0.010 C 
HETATM   13  C10 UNL     1     -34.382  15.145  -6.369  1.00 20.00     0.010 C 
ENDBRANCH   9  11
ENDBRANCH   3   4
TORSDOF 2
ENDMDL
MODEL 2
REMARK VINA RESULT:      -4.4     11.269     12.875
REMARK  2 active torsions:
REMARK  status: ('A' for Active; 'I' for Inactive)
REMARK    1  A    between atoms: C7_7  and  C11_11 
REMARK    2  A    between atoms: C8_8  and  C12_12 
ROOT
HETATM    1  C1  UNL     1     -32.712   9.127   0.070  1.00 20.00     0.012 C 
HETATM    2  C2  UNL     1     -32.339   8.606   1.087  1.00 20.00    -0.117 C 
HETATM    3  C11 UNL     1     -31.874   7.969   2.322  1.00 20.00     0.105 C 
ENDROOT
BRANCH   3   4
HETATM    4  C7  UNL     1     -32.995   7.889   3.353  1.00 20.00     0.067 C 
HETATM    5  C3  UNL     1     -32.541   8.446   4.701  1.00 20.00     0.132 C 
HETATM    6  C4  UNL     1     -33.202   7.873   5.939  1.00 20.00     0.079 C 
HETATM    7  O13 UNL     1     -31.676   9.317   4.796  1.00 20.00    -0.298 OA
HETATM    8  C5  UNL     1     -34.615   7.409   5.612  1.00 20.00     0.012 C 
HETATM    9  C8  UNL     1     -34.645   6.331   4.514  1.00 20.00    -0.010 C 
HETATM   10  C6  UNL     1     -33.451   6.439   3.547  1.00 20.00     0.018 C 
BRANCH   9  11
HETATM   11  C12 UNL     1     -34.710   4.926   5.115  1.00 20.00    -0.019 C 
HETATM   12  C9  UNL     1     -33.687   4.009   4.449  1.00 20.00     0.010 C 
HETATM   13  C10 UNL     1     -34.483   4.977   6.624  1.00 20.00     0.010 C 
ENDBRANCH   9  11
ENDBRANCH   3   4
TORSDOF 2
ENDMDL
MODEL 3
REMARK VINA RESULT:      -4.4      1.545      4.852
REMARK  2 active torsions:
REMARK  status: ('A' for Active; 'I' for Inactive)
REMARK    1  A    between atoms: C7_7  and  C11_11 
REMARK    2  A    between atoms: C8_8  and  C12_12 
ROOT
HETATM    1  C1  UNL     1     -35.268  13.777  -4.585  1.00 20.00     0.012 C 
HETATM    2  C2  UNL     1     -34.410  14.538  -4.228  1.00 20.00    -0.117 C 
HETATM    3  C11 UNL     1     -33.355  15.458  -3.794  1.00 20.00     0.105 C 
ENDROOT
BRANCH   3   4
HETATM    4  C7  UNL     1     -33.946  16.692  -3.121  1.00 20.00     0.067 C 
HETATM    5  C3  UNL     1     -33.965  17.882  -4.078  1.00 20.00     0.132 C 
HETATM    6  C4  UNL     1     -33.870  19.263  -3.459  1.00 20.00     0.079 C 
HETATM    7  O13 UNL     1     -34.051  17.745  -5.298  1.00 20.00    -0.298 OA
HETATM    8  C5  UNL     1     -34.467  19.253  -2.058  1.00 20.00     0.012 C 
HETATM    9  C8  UNL     1     -33.759  18.260  -1.120  1.00 20.00    -0.010 C 
HETATM   10  C6  UNL     1     -33.135  17.072  -1.877  1.00 20.00     0.018 C 
BRANCH   9  11
HETATM   11  C12 UNL     1     -32.695  18.959  -0.271  1.00 20.00    -0.019 C 
HETATM   12  C9  UNL     1     -33.074  18.911   1.208  1.00 20.00     0.010 C 
HETATM   13  C10 UNL     1     -31.326  18.322  -0.495  1.00 20.00     0.010 C 
ENDBRANCH   9  11
ENDBRANCH   3   4
TORSDOF 2
ENDMDL
MODEL 4
REMARK VINA RESULT:      -4.3      2.299      5.114
REMARK  2 active torsions:
REMARK  status: ('A' for Active; 'I' for Inactive)
REMARK    1  A    between atoms: C7_7  and  C11_11 
REMARK    2  A    between atoms: C8_8  and  C12_12 
ROOT
HETATM    1  C1  UNL     1     -38.285  16.663  -5.164  1.00 20.00     0.012 C 
HETATM    2  C2  UNL     1     -37.269  16.818  -5.786  1.00 20.00    -0.117 C 
HETATM    3  C11 UNL     1     -36.035  17.009  -6.554  1.00 20.00     0.105 C 
ENDROOT
BRANCH   3   4
HETATM    4  C7  UNL     1     -34.811  16.623  -5.730  1.00 20.00     0.067 C 
HETATM    5  C3  UNL     1     -34.803  15.126  -5.429  1.00 20.00     0.132 C 
HETATM    6  C4  UNL     1     -34.114  14.686  -4.151  1.00 20.00     0.079 C 
HETATM    7  O13 UNL     1     -35.330  14.301  -6.175  1.00 20.00    -0.298 OA
HETATM    8  C5  UNL     1     -32.999  15.660  -3.795  1.00 20.00     0.012 C 
HETATM    9  C8  UNL     1     -33.510  17.097  -3.590  1.00 20.00    -0.010 C 
HETATM   10  C6  UNL     1     -34.782  17.394  -4.407  1.00 20.00     0.018 C 
BRANCH   9  11
HETATM   11  C12 UNL     1     -33.753  17.395  -2.109  1.00 20.00    -0.019 C 
HETATM   12  C9  UNL     1     -32.471  17.890  -1.445  1.00 20.00     0.010 C 
HETATM   13  C10 UNL     1     -34.873  18.421  -1.946  1.00 20.00     0.010 C 
ENDBRANCH   9  11
ENDBRANCH   3   4
TORSDOF 2
ENDMDL
MODEL 5
REMARK VINA RESULT:      -4.2      2.321      3.578
REMARK  2 active torsions:
REMARK  status: ('A' for Active; 'I' for Inactive)
REMARK    1  A    between atoms: C7_7  and  C11_11 
REMARK    2  A    between atoms: C8_8  and  C12_12 
ROOT
HETATM    1  C1  UNL     1     -33.683  17.744  -0.754  1.00 20.00     0.012 C 
HETATM    2  C2  UNL     1     -33.404  17.163  -1.767  1.00 20.00    -0.117 C 
HETATM    3  C11 UNL     1     -33.053  16.455  -3.002  1.00 20.00     0.105 C 
ENDROOT
BRANCH   3   4
HETATM    4  C7  UNL     1     -34.290  16.190  -3.853  1.00 20.00     0.067 C 
HETATM    5  C3  UNL     1     -34.102  14.950  -4.724  1.00 20.00     0.132 C 
HETATM    6  C4  UNL     1     -34.858  14.911  -6.037  1.00 20.00     0.079 C 
HETATM    7  O13 UNL     1     -33.370  14.017  -4.392  1.00 20.00    -0.298 OA
HETATM    8  C5  UNL     1     -36.144  15.718  -5.926  1.00 20.00     0.012 C 
HETATM    9  C8  UNL     1     -35.888  17.192  -5.567  1.00 20.00    -0.010 C 
HETATM   10  C6  UNL     1     -34.591  17.388  -4.759  1.00 20.00     0.018 C 
BRANCH   9  11
HETATM   11  C12 UNL     1     -35.868  18.074  -6.817  1.00 20.00    -0.019 C 
HETATM   12  C9  UNL     1     -34.438  18.269  -7.313  1.00 20.00     0.010 C 
HETATM   13  C10 UNL     1     -36.740  17.468  -7.915  1.00 20.00     0.010 C 
ENDBRANCH   9  11
ENDBRANCH   3   4
TORSDOF 2
ENDMDL
MODEL 6
REMARK VINA RESULT:      -4.0     11.660     12.921
REMARK  2 active torsions:
REMARK  status: ('A' for Active; 'I' for Inactive)
REMARK    1  A    between atoms: C7_7  and  C11_11 
REMARK    2  A    between atoms: C8_8  and  C12_12 
ROOT
HETATM    1  C1  UNL     1     -40.426  18.511   6.838  1.00 20.00     0.012 C 
HETATM    2  C2  UNL     1     -40.587  17.494   7.457  1.00 20.00    -0.117 C 
HETATM    3  C11 UNL     1     -40.777  16.258   8.220  1.00 20.00     0.105 C 
ENDROOT
BRANCH   3   4
HETATM    4  C7  UNL     1     -41.424  15.176   7.360  1.00 20.00     0.067 C 
HETATM    5  C3  UNL     1     -42.416  14.349   8.175  1.00 20.00     0.132 C 
HETATM    6  C4  UNL     1     -42.631  12.912   7.742  1.00 20.00     0.079 C 
HETATM    7  O13 UNL     1     -43.020  14.810   9.144  1.00 20.00    -0.298 OA
HETATM    8  C5  UNL     1     -42.395  12.775   6.244  1.00 20.00     0.012 C 
HETATM    9  C8  UNL     1     -40.972  13.190   5.829  1.00 20.00    -0.010 C 
HETATM   10  C6  UNL     1     -40.362  14.239   6.777  1.00 20.00     0.018 C 
BRANCH   9  11
HETATM   11  C12 UNL     1     -40.047  11.976   5.720  1.00 20.00    -0.019 C 
HETATM   12  C9  UNL     1     -39.466  11.870   4.313  1.00 20.00     0.010 C 
HETATM   13  C10 UNL     1     -38.930  12.059   6.758  1.00 20.00     0.010 C 
ENDBRANCH   9  11
ENDBRANCH   3   4
TORSDOF 2
ENDMDL
MODEL 7
REMARK VINA RESULT:      -4.0     12.059     13.944
REMARK  2 active torsions:
REMARK  status: ('A' for Active; 'I' for Inactive)
REMARK    1  A    between atoms: C7_7  and  C11_11 
REMARK    2  A    between atoms: C8_8  and  C12_12 
ROOT
HETATM    1  C1  UNL     1     -38.546  11.747   4.761  1.00 20.00     0.012 C 
HETATM    2  C2  UNL     1     -39.588  12.275   5.043  1.00 20.00    -0.117 C 
HETATM    3  C11 UNL     1     -40.861  12.919   5.376  1.00 20.00     0.105 C 
ENDROOT
BRANCH   3   4
HETATM    4  C7  UNL     1     -40.936  13.251   6.863  1.00 20.00     0.067 C 
HETATM    5  C3  UNL     1     -42.344  13.017   7.407  1.00 20.00     0.132 C 
HETATM    6  C4  UNL     1     -42.776  13.870   8.584  1.00 20.00     0.079 C 
HETATM    7  O13 UNL     1     -43.107  12.182   6.922  1.00 20.00    -0.298 OA
HETATM    8  C5  UNL     1     -41.565  14.262   9.420  1.00 20.00     0.012 C 
HETATM    9  C8  UNL     1     -40.521  15.055   8.614  1.00 20.00    -0.010 C 
HETATM   10  C6  UNL     1     -40.546  14.711   7.113  1.00 20.00     0.018 C 
BRANCH   9  11
HETATM   11  C12 UNL     1     -40.693  16.563   8.812  1.00 20.00    -0.019 C 
HETATM   12  C9  UNL     1     -41.427  17.179   7.623  1.00 20.00     0.010 C 
HETATM   13  C10 UNL     1     -41.440  16.851  10.112  1.00 20.00     0.010 C 
ENDBRANCH   9  11
ENDBRANCH   3   4
TORSDOF 2
ENDMDL
MODEL 8
REMARK VINA RESULT:      -4.0     12.064     13.946
REMARK  2 active torsions:
REMARK  status: ('A' for Active; 'I' for Inactive)
REMARK    1  A    between atoms: C7_7  and  C11_11 
REMARK    2  A    between atoms: C8_8  and  C12_12 
ROOT
HETATM    1  C1  UNL     1     -39.038  11.884   5.173  1.00 20.00     0.012 C 
HETATM    2  C2  UNL     1     -40.060  12.239   5.696  1.00 20.00    -0.117 C 
HETATM    3  C11 UNL     1     -41.312  12.668   6.326  1.00 20.00     0.105 C 
ENDROOT
BRANCH   3   4
HETATM    4  C7  UNL     1     -41.045  13.634   7.476  1.00 20.00     0.067 C 
HETATM    5  C3  UNL     1     -42.202  13.634   8.472  1.00 20.00     0.132 C 
HETATM    6  C4  UNL     1     -42.442  14.915   9.246  1.00 20.00     0.079 C 
HETATM    7  O13 UNL     1     -42.920  12.650   8.648  1.00 20.00    -0.298 OA
HETATM    8  C5  UNL     1     -41.134  15.676   9.420  1.00 20.00     0.012 C 
HETATM    9  C8  UNL     1     -40.483  16.047   8.076  1.00 20.00    -0.010 C 
HETATM   10  C6  UNL     1     -40.845  15.060   6.950  1.00 20.00     0.018 C 
BRANCH   9  11
HETATM   11  C12 UNL     1     -40.839  17.475   7.659  1.00 20.00    -0.019 C 
HETATM   12  C9  UNL     1     -41.977  17.468   6.641  1.00 20.00     0.010 C 
HETATM   13  C10 UNL     1     -41.216  18.311   8.880  1.00 20.00     0.010 C 
ENDBRANCH   9  11
ENDBRANCH   3   4
TORSDOF 2
ENDMDL
MODEL 9
REMARK VINA RESULT:      -3.8      2.679      4.553
REMARK  2 active torsions:
REMARK  status: ('A' for Active; 'I' for Inactive)
REMARK    1  A    between atoms: C7_7  and  C11_11 
REMARK    2  A    between atoms: C8_8  and  C12_12 
ROOT
HETATM    1  C1  UNL     1     -33.299  16.690  -2.535  1.00 20.00     0.012 C 
HETATM    2  C2  UNL     1     -33.374  15.931  -3.463  1.00 20.00    -0.117 C 
HETATM    3  C11 UNL     1     -33.457  15.001  -4.593  1.00 20.00     0.105 C 
ENDROOT
BRANCH   3   4
HETATM    4  C7  UNL     1     -34.715  15.250  -5.418  1.00 20.00     0.067 C 
HETATM    5  C3  UNL     1     -34.373  15.453  -6.892  1.00 20.00     0.132 C 
HETATM    6  C4  UNL     1     -35.310  16.328  -7.701  1.00 20.00     0.079 C 
HETATM    7  O13 UNL     1     -33.383  14.940  -7.416  1.00 20.00    -0.298 OA
HETATM    8  C5  UNL     1     -36.719  16.257  -7.129  1.00 20.00     0.012 C 
HETATM    9  C8  UNL     1     -36.785  16.716  -5.661  1.00 20.00    -0.010 C 
HETATM   10  C6  UNL     1     -35.461  16.488  -4.909  1.00 20.00     0.018 C 
BRANCH   9  11
HETATM   11  C12 UNL     1     -37.205  18.184  -5.556  1.00 20.00    -0.019 C 
HETATM   12  C9  UNL     1     -38.561  18.305  -4.865  1.00 20.00     0.010 C 
HETATM   13  C10 UNL     1     -36.147  18.992  -4.808  1.00 20.00     0.010 C 
ENDBRANCH   9  11
ENDBRANCH   3   4
TORSDOF 2
ENDMDL
