MODEL 1
REMARK VINA RESULT:      -5.1      0.000      0.000
REMARK  1 active torsions:
REMARK  status: ('A' for Active; 'I' for Inactive)
REMARK    1  A    between atoms: C1_1  and  C6_6 
ROOT
HETATM    1  C2  UNL     1     -34.683   6.268   6.596  1.00 20.00     0.027 C 
HETATM    2  C3  UNL     1     -33.660   7.185   5.935  1.00 20.00     0.017 C 
HETATM    3  C4  UNL     1     -34.588   4.857   6.032  1.00 20.00     0.167 C 
HETATM    4  C5  UNL     1     -33.712   5.623   3.968  1.00 20.00     0.181 C 
HETATM    5  C6  UNL     1     -33.753   7.082   4.413  1.00 20.00     0.096 C 
HETATM    6  O8  UNL     1     -34.740   4.870   4.612  1.00 20.00    -0.390 OA
ENDROOT
BRANCH   5   7
HETATM    7  C1  UNL     1     -32.633   7.850   3.785  1.00 20.00     0.225 C 
HETATM    8  O7  UNL     1     -32.174   7.542   2.688  1.00 20.00    -0.279 OA
HETATM    9 CL9  UNL     1     -32.106   9.170   4.783  1.00 20.00    -0.043 Cl
ENDBRANCH   5   7
TORSDOF 1
ENDMDL
MODEL 2
REMARK VINA RESULT:      -5.1      1.276      1.276
REMARK  1 active torsions:
REMARK  status: ('A' for Active; 'I' for Inactive)
REMARK    1  A    between atoms: C1_1  and  C6_6 
ROOT
HETATM    1  C2  UNL     1     -34.638   6.281   6.618  1.00 20.00     0.027 C 
HETATM    2  C3  UNL     1     -33.617   7.260   6.049  1.00 20.00     0.017 C 
HETATM    3  C4  UNL     1     -34.573   4.947   5.887  1.00 20.00     0.167 C 
HETATM    4  C5  UNL     1     -33.733   5.946   3.910  1.00 20.00     0.181 C 
HETATM    5  C6  UNL     1     -33.745   7.342   4.527  1.00 20.00     0.096 C 
HETATM    6  O8  UNL     1     -34.757   5.132   4.482  1.00 20.00    -0.390 OA
ENDROOT
BRANCH   5   7
HETATM    7  C1  UNL     1     -32.629   8.167   3.970  1.00 20.00     0.225 C 
HETATM    8  O7  UNL     1     -32.164   9.124   4.583  1.00 20.00    -0.279 OA
HETATM    9 CL9  UNL     1     -32.115   7.602   2.409  1.00 20.00    -0.043 Cl
ENDBRANCH   5   7
TORSDOF 1
ENDMDL
MODEL 3
REMARK VINA RESULT:      -4.8      2.205      3.820
REMARK  1 active torsions:
REMARK  status: ('A' for Active; 'I' for Inactive)
REMARK    1  A    between atoms: C1_1  and  C6_6 
ROOT
HETATM    1  C2  UNL     1     -32.387   7.854   3.153  1.00 20.00     0.027 C 
HETATM    2  C3  UNL     1     -32.855   6.454   3.535  1.00 20.00     0.017 C 
HETATM    3  C4  UNL     1     -32.147   8.700   4.396  1.00 20.00     0.167 C 
HETATM    4  C5  UNL     1     -33.698   7.453   5.680  1.00 20.00     0.181 C 
HETATM    5  C6  UNL     1     -34.028   6.529   4.512  1.00 20.00     0.096 C 
HETATM    6  O8  UNL     1     -33.320   8.747   5.210  1.00 20.00    -0.390 OA
ENDROOT
BRANCH   5   7
HETATM    7  C1  UNL     1     -34.360   5.158   5.010  1.00 20.00     0.225 C 
HETATM    8  O7  UNL     1     -34.260   4.168   4.291  1.00 20.00    -0.279 OA
HETATM    9 CL9  UNL     1     -34.881   5.173   6.668  1.00 20.00    -0.043 Cl
ENDBRANCH   5   7
TORSDOF 1
ENDMDL
MODEL 4
REMARK VINA RESULT:      -4.5      2.297      3.695
REMARK  1 active torsions:
REMARK  status: ('A' for Active; 'I' for Inactive)
REMARK    1  A    between atoms: C1_1  and  C6_6 
ROOT
HETATM    1  C2  UNL     1     -32.420   8.708   3.670  1.00 20.00     0.027 C 
HETATM    2  C3  UNL     1     -32.579   7.222   3.369  1.00 20.00     0.017 C 
HETATM    3  C4  UNL     1     -32.497   8.966   5.169  1.00 20.00     0.167 C 
HETATM    4  C5  UNL     1     -33.821   7.037   5.545  1.00 20.00     0.181 C 
HETATM    5  C6  UNL     1     -33.819   6.663   4.065  1.00 20.00     0.096 C 
HETATM    6  O8  UNL     1     -33.716   8.452   5.708  1.00 20.00    -0.390 OA
ENDROOT
BRANCH   5   7
HETATM    7  C1  UNL     1     -33.863   5.176   3.904  1.00 20.00     0.225 C 
HETATM    8  O7  UNL     1     -34.529   4.465   4.651  1.00 20.00    -0.279 OA
HETATM    9 CL9  UNL     1     -32.885   4.634   2.574  1.00 20.00    -0.043 Cl
ENDBRANCH   5   7
TORSDOF 1
ENDMDL
MODEL 5
REMARK VINA RESULT:      -4.5      1.547      1.672
REMARK  1 active torsions:
REMARK  status: ('A' for Active; 'I' for Inactive)
REMARK    1  A    between atoms: C1_1  and  C6_6 
ROOT
HETATM    1  C2  UNL     1     -34.289   7.021   6.282  1.00 20.00     0.027 C 
HETATM    2  C3  UNL     1     -33.367   7.045   5.068  1.00 20.00     0.017 C 
HETATM    3  C4  UNL     1     -34.591   5.589   6.702  1.00 20.00     0.167 C 
HETATM    4  C5  UNL     1     -34.238   4.754   4.514  1.00 20.00     0.181 C 
HETATM    5  C6  UNL     1     -33.912   6.139   3.963  1.00 20.00     0.096 C 
HETATM    6  O8  UNL     1     -35.144   4.849   5.614  1.00 20.00    -0.390 OA
ENDROOT
BRANCH   5   7
HETATM    7  C1  UNL     1     -32.912   6.037   2.855  1.00 20.00     0.225 C 
HETATM    8  O7  UNL     1     -32.711   4.981   2.262  1.00 20.00    -0.279 OA
HETATM    9 CL9  UNL     1     -32.121   7.553   2.547  1.00 20.00    -0.043 Cl
ENDBRANCH   5   7
TORSDOF 1
ENDMDL
MODEL 6
REMARK VINA RESULT:      -4.4      1.635      2.143
REMARK  1 active torsions:
REMARK  status: ('A' for Active; 'I' for Inactive)
REMARK    1  A    between atoms: C1_1  and  C6_6 
ROOT
HETATM    1  C2  UNL     1     -34.280   4.868   4.557  1.00 20.00     0.027 C 
HETATM    2  C3  UNL     1     -33.689   5.991   3.712  1.00 20.00     0.017 C 
HETATM    3  C4  UNL     1     -35.064   5.433   5.734  1.00 20.00     0.167 C 
HETATM    4  C5  UNL     1     -33.785   7.427   5.772  1.00 20.00     0.181 C 
HETATM    5  C6  UNL     1     -32.925   6.979   4.593  1.00 20.00     0.096 C 
HETATM    6  O8  UNL     1     -34.244   6.299   6.518  1.00 20.00    -0.390 OA
ENDROOT
BRANCH   5   7
HETATM    7  C1  UNL     1     -32.503   8.161   3.778  1.00 20.00     0.225 C 
HETATM    8  O7  UNL     1     -32.374   9.276   4.276  1.00 20.00    -0.279 OA
HETATM    9 CL9  UNL     1     -32.236   7.744   2.113  1.00 20.00    -0.043 Cl
ENDBRANCH   5   7
TORSDOF 1
ENDMDL
MODEL 7
REMARK VINA RESULT:      -4.3      2.037      3.602
REMARK  1 active torsions:
REMARK  status: ('A' for Active; 'I' for Inactive)
REMARK    1  A    between atoms: C1_1  and  C6_6 
ROOT
HETATM    1  C2  UNL     1     -32.451   8.865   4.786  1.00 20.00     0.027 C 
HETATM    2  C3  UNL     1     -33.660   8.070   5.264  1.00 20.00     0.017 C 
HETATM    3  C4  UNL     1     -32.210   8.641   3.300  1.00 20.00     0.167 C 
HETATM    4  C5  UNL     1     -33.239   6.507   3.342  1.00 20.00     0.181 C 
HETATM    5  C6  UNL     1     -33.544   6.607   4.834  1.00 20.00     0.096 C 
HETATM    6  O8  UNL     1     -32.063   7.249   3.016  1.00 20.00    -0.390 OA
ENDROOT
BRANCH   5   7
HETATM    7  C1  UNL     1     -34.813   5.883   5.156  1.00 20.00     0.225 C 
HETATM    8  O7  UNL     1     -35.743   5.824   4.358  1.00 20.00    -0.279 OA
HETATM    9 CL9  UNL     1     -34.775   5.174   6.742  1.00 20.00    -0.043 Cl
ENDBRANCH   5   7
TORSDOF 1
ENDMDL
MODEL 8
REMARK VINA RESULT:      -4.3      2.280      3.882
REMARK  1 active torsions:
REMARK  status: ('A' for Active; 'I' for Inactive)
REMARK    1  A    between atoms: C1_1  and  C6_6 
ROOT
HETATM    1  C2  UNL     1     -32.928   6.092   2.532  1.00 20.00     0.027 C 
HETATM    2  C3  UNL     1     -33.439   5.702   3.914  1.00 20.00     0.017 C 
HETATM    3  C4  UNL     1     -31.967   7.269   2.624  1.00 20.00     0.167 C 
HETATM    4  C5  UNL     1     -32.954   8.063   4.626  1.00 20.00     0.181 C 
HETATM    5  C6  UNL     1     -33.974   6.928   4.654  1.00 20.00     0.096 C 
HETATM    6  O8  UNL     1     -32.583   8.376   3.283  1.00 20.00    -0.390 OA
ENDROOT
BRANCH   5   7
HETATM    7  C1  UNL     1     -34.308   6.562   6.065  1.00 20.00     0.225 C 
HETATM    8  O7  UNL     1     -34.369   7.406   6.954  1.00 20.00    -0.279 OA
HETATM    9 CL9  UNL     1     -34.581   4.856   6.250  1.00 20.00    -0.043 Cl
ENDBRANCH   5   7
TORSDOF 1
ENDMDL
MODEL 9
REMARK VINA RESULT:      -4.0     15.618     16.596
REMARK  1 active torsions:
REMARK  status: ('A' for Active; 'I' for Inactive)
REMARK    1  A    between atoms: C1_1  and  C6_6 
ROOT
HETATM    1  C2  UNL     1     -23.833  17.004  11.659  1.00 20.00     0.027 C 
HETATM    2  C3  UNL     1     -23.754  17.127  10.141  1.00 20.00     0.017 C 
HETATM    3  C4  UNL     1     -23.211  18.220  12.332  1.00 20.00     0.167 C 
HETATM    4  C5  UNL     1     -21.787  18.652  10.489  1.00 20.00     0.181 C 
HETATM    5  C6  UNL     1     -22.328  17.460   9.703  1.00 20.00     0.096 C 
HETATM    6  O8  UNL     1     -21.866  18.408  11.893  1.00 20.00    -0.390 OA
ENDROOT
BRANCH   5   7
HETATM    7  C1  UNL     1     -22.304  17.749   8.236  1.00 20.00     0.225 C 
HETATM    8  O7  UNL     1     -21.688  17.038   7.447  1.00 20.00    -0.279 OA
HETATM    9 CL9  UNL     1     -23.228  19.164   7.834  1.00 20.00    -0.043 Cl
ENDBRANCH   5   7
TORSDOF 1
ENDMDL
