MODEL 1
REMARK VINA RESULT:      -6.1      0.000      0.000
REMARK  0 active torsions:
REMARK  status: ('A' for Active; 'I' for Inactive)
ROOT
HETATM    1  C1  UNL     1     -34.870   5.057   6.058  1.00 20.00    -0.006 C 
HETATM    2  C2  UNL     1     -34.709   6.217   6.703  1.00 20.00     0.112 C 
HETATM    3  C3  UNL     1     -33.607   7.270   5.005  1.00 20.00     0.023 C 
HETATM    4  C4  UNL     1     -32.932   5.978   2.908  1.00 20.00     0.136 C 
HETATM    5  C5  UNL     1     -34.271   4.849   4.710  1.00 20.00     0.046 C 
HETATM    6  C6  UNL     1     -32.853   8.473   4.482  1.00 20.00     0.056 C 
HETATM    7  C7  UNL     1     -32.181   7.201   2.434  1.00 20.00     0.079 C 
HETATM    8  C8  UNL     1     -31.688   8.018   3.619  1.00 20.00     0.013 C 
HETATM    9  C9  UNL     1     -33.974   6.177   4.006  1.00 20.00     0.106 C 
HETATM   10  N10 UNL     1     -33.988   7.287   6.246  1.00 20.00    -0.269 NA
HETATM   11  O11 UNL     1     -32.782   4.896   2.338  1.00 20.00    -0.297 OA
ENDROOT
TORSDOF 0
ENDMDL
MODEL 2
REMARK VINA RESULT:      -5.4      2.123      4.067
REMARK  0 active torsions:
REMARK  status: ('A' for Active; 'I' for Inactive)
ROOT
HETATM    1  C1  UNL     1     -32.192   8.917   4.066  1.00 20.00    -0.006 C 
HETATM    2  C2  UNL     1     -31.926   8.146   3.006  1.00 20.00     0.112 C 
HETATM    3  C3  UNL     1     -33.271   6.416   3.641  1.00 20.00     0.023 C 
HETATM    4  C4  UNL     1     -34.414   6.442   5.925  1.00 20.00     0.136 C 
HETATM    5  C5  UNL     1     -33.051   8.414   5.174  1.00 20.00     0.046 C 
HETATM    6  C6  UNL     1     -33.789   5.011   3.421  1.00 20.00     0.056 C 
HETATM    7  C7  UNL     1     -34.897   5.033   5.664  1.00 20.00     0.079 C 
HETATM    8  C8  UNL     1     -33.926   4.296   4.754  1.00 20.00     0.013 C 
HETATM    9  C9  UNL     1     -33.947   7.256   4.722  1.00 20.00     0.106 C 
HETATM   10  N10 UNL     1     -32.358   6.859   2.832  1.00 20.00    -0.269 NA
HETATM   11  O11 UNL     1     -34.515   6.936   7.049  1.00 20.00    -0.297 OA
ENDROOT
TORSDOF 0
ENDMDL
MODEL 3
REMARK VINA RESULT:      -5.3      0.984      1.248
REMARK  0 active torsions:
REMARK  status: ('A' for Active; 'I' for Inactive)
ROOT
HETATM    1  C1  UNL     1     -34.519   4.635   5.219  1.00 20.00    -0.006 C 
HETATM    2  C2  UNL     1     -34.738   5.374   6.311  1.00 20.00     0.112 C 
HETATM    3  C3  UNL     1     -33.864   7.302   5.459  1.00 20.00     0.023 C 
HETATM    4  C4  UNL     1     -32.708   7.299   3.182  1.00 20.00     0.136 C 
HETATM    5  C5  UNL     1     -33.794   5.205   4.049  1.00 20.00     0.046 C 
HETATM    6  C6  UNL     1     -33.447   8.744   5.647  1.00 20.00     0.056 C 
HETATM    7  C7  UNL     1     -32.303   8.736   3.422  1.00 20.00     0.079 C 
HETATM    8  C8  UNL     1     -32.144   9.005   4.910  1.00 20.00     0.013 C 
HETATM    9  C9  UNL     1     -33.836   6.737   4.042  1.00 20.00     0.106 C 
HETATM   10  N10 UNL     1     -34.319   6.663   6.495  1.00 20.00    -0.269 NA
HETATM   11  O11 UNL     1     -32.218   6.661   2.249  1.00 20.00    -0.297 OA
ENDROOT
TORSDOF 0
ENDMDL
MODEL 4
REMARK VINA RESULT:      -5.0      1.905      2.629
REMARK  0 active torsions:
REMARK  status: ('A' for Active; 'I' for Inactive)
ROOT
HETATM    1  C1  UNL     1     -34.890   6.027   6.430  1.00 20.00    -0.006 C 
HETATM    2  C2  UNL     1     -35.003   5.060   5.514  1.00 20.00     0.112 C 
HETATM    3  C3  UNL     1     -33.471   5.937   4.068  1.00 20.00     0.023 C 
HETATM    4  C4  UNL     1     -32.447   8.235   4.511  1.00 20.00     0.136 C 
HETATM    5  C5  UNL     1     -34.024   7.213   6.179  1.00 20.00     0.046 C 
HETATM    6  C6  UNL     1     -32.762   5.902   2.731  1.00 20.00     0.056 C 
HETATM    7  C7  UNL     1     -31.771   8.159   3.161  1.00 20.00     0.079 C 
HETATM    8  C8  UNL     1     -32.593   7.315   2.199  1.00 20.00     0.013 C 
HETATM    9  C9  UNL     1     -32.963   6.930   5.110  1.00 20.00     0.106 C 
HETATM   10  N10 UNL     1     -34.397   5.053   4.287  1.00 20.00    -0.269 NA
HETATM   11  O11 UNL     1     -32.465   9.294   5.139  1.00 20.00    -0.297 OA
ENDROOT
TORSDOF 0
ENDMDL
MODEL 5
REMARK VINA RESULT:      -5.0      2.081      3.872
REMARK  0 active torsions:
REMARK  status: ('A' for Active; 'I' for Inactive)
ROOT
HETATM    1  C1  UNL     1     -32.290   6.145   2.160  1.00 20.00    -0.006 C 
HETATM    2  C2  UNL     1     -33.002   5.043   2.415  1.00 20.00     0.112 C 
HETATM    3  C3  UNL     1     -33.970   5.835   4.324  1.00 20.00     0.023 C 
HETATM    4  C4  UNL     1     -33.253   8.086   5.295  1.00 20.00     0.136 C 
HETATM    5  C5  UNL     1     -32.288   7.287   3.117  1.00 20.00     0.046 C 
HETATM    6  C6  UNL     1     -34.839   5.609   5.542  1.00 20.00     0.056 C 
HETATM    7  C7  UNL     1     -34.125   7.809   6.498  1.00 20.00     0.079 C 
HETATM    8  C8  UNL     1     -34.234   6.312   6.746  1.00 20.00     0.013 C 
HETATM    9  C9  UNL     1     -33.514   7.263   4.037  1.00 20.00     0.106 C 
HETATM   10  N10 UNL     1     -33.751   4.824   3.540  1.00 20.00    -0.269 NA
HETATM   11  O11 UNL     1     -32.452   9.022   5.309  1.00 20.00    -0.297 OA
ENDROOT
TORSDOF 0
ENDMDL
MODEL 6
REMARK VINA RESULT:      -4.9      0.925      3.226
REMARK  0 active torsions:
REMARK  status: ('A' for Active; 'I' for Inactive)
ROOT
HETATM    1  C1  UNL     1     -32.149   8.874   3.279  1.00 20.00    -0.006 C 
HETATM    2  C2  UNL     1     -32.612   9.304   4.458  1.00 20.00     0.112 C 
HETATM    3  C3  UNL     1     -33.460   7.291   5.117  1.00 20.00     0.023 C 
HETATM    4  C4  UNL     1     -33.469   5.306   3.510  1.00 20.00     0.136 C 
HETATM    5  C5  UNL     1     -32.404   7.477   2.827  1.00 20.00     0.046 C 
HETATM    6  C6  UNL     1     -34.248   6.465   6.110  1.00 20.00     0.056 C 
HETATM    7  C7  UNL     1     -34.268   4.526   4.529  1.00 20.00     0.079 C 
HETATM    8  C8  UNL     1     -35.120   5.463   5.372  1.00 20.00     0.013 C 
HETATM    9  C9  UNL     1     -32.730   6.548   4.001  1.00 20.00     0.106 C 
HETATM   10  N10 UNL     1     -33.364   8.568   5.332  1.00 20.00    -0.269 NA
HETATM   11  O11 UNL     1     -33.334   4.877   2.363  1.00 20.00    -0.297 OA
ENDROOT
TORSDOF 0
ENDMDL
MODEL 7
REMARK VINA RESULT:      -4.7      1.828      3.168
REMARK  0 active torsions:
REMARK  status: ('A' for Active; 'I' for Inactive)
ROOT
HETATM    1  C1  UNL     1     -33.269   8.692   5.905  1.00 20.00    -0.006 C 
HETATM    2  C2  UNL     1     -32.522   8.981   4.835  1.00 20.00     0.112 C 
HETATM    3  C3  UNL     1     -32.982   7.050   3.709  1.00 20.00     0.023 C 
HETATM    4  C4  UNL     1     -34.325   5.191   4.832  1.00 20.00     0.136 C 
HETATM    5  C5  UNL     1     -33.946   7.370   6.024  1.00 20.00     0.046 C 
HETATM    6  C6  UNL     1     -32.745   6.137   2.526  1.00 20.00     0.056 C 
HETATM    7  C7  UNL     1     -34.051   4.312   3.633  1.00 20.00     0.079 C 
HETATM    8  C8  UNL     1     -32.727   4.689   2.986  1.00 20.00     0.013 C 
HETATM    9  C9  UNL     1     -34.120   6.693   4.660  1.00 20.00     0.106 C 
HETATM   10  N10 UNL     1     -32.273   8.135   3.788  1.00 20.00    -0.269 NA
HETATM   11  O11 UNL     1     -34.807   4.710   5.859  1.00 20.00    -0.297 OA
ENDROOT
TORSDOF 0
ENDMDL
MODEL 8
REMARK VINA RESULT:      -4.6      1.206      3.370
REMARK  0 active torsions:
REMARK  status: ('A' for Active; 'I' for Inactive)
ROOT
HETATM    1  C1  UNL     1     -32.351   7.522   2.303  1.00 20.00    -0.006 C 
HETATM    2  C2  UNL     1     -32.380   8.556   3.151  1.00 20.00     0.112 C 
HETATM    3  C3  UNL     1     -33.204   7.373   4.920  1.00 20.00     0.023 C 
HETATM    4  C4  UNL     1     -33.927   4.942   4.622  1.00 20.00     0.136 C 
HETATM    5  C5  UNL     1     -32.887   6.192   2.707  1.00 20.00     0.046 C 
HETATM    6  C6  UNL     1     -33.738   7.337   6.336  1.00 20.00     0.056 C 
HETATM    7  C7  UNL     1     -34.457   4.959   6.038  1.00 20.00     0.079 C 
HETATM    8  C8  UNL     1     -34.900   6.362   6.425  1.00 20.00     0.013 C 
HETATM    9  C9  UNL     1     -32.939   6.037   4.231  1.00 20.00     0.106 C 
HETATM   10  N10 UNL     1     -32.905   8.531   4.414  1.00 20.00    -0.269 NA
HETATM   11  O11 UNL     1     -34.198   4.007   3.867  1.00 20.00    -0.297 OA
ENDROOT
TORSDOF 0
ENDMDL
MODEL 9
REMARK VINA RESULT:      -4.0     12.636     13.836
REMARK  0 active torsions:
REMARK  status: ('A' for Active; 'I' for Inactive)
ROOT
HETATM    1  C1  UNL     1     -32.966  17.775  -2.469  1.00 20.00    -0.006 C 
HETATM    2  C2  UNL     1     -33.162  18.795  -3.311  1.00 20.00     0.112 C 
HETATM    3  C3  UNL     1     -34.172  17.556  -4.939  1.00 20.00     0.023 C 
HETATM    4  C4  UNL     1     -34.302  15.014  -4.731  1.00 20.00     0.136 C 
HETATM    5  C5  UNL     1     -33.318  16.383  -2.869  1.00 20.00     0.046 C 
HETATM    6  C6  UNL     1     -34.761  17.453  -6.329  1.00 20.00     0.056 C 
HETATM    7  C7  UNL     1     -34.875  14.961  -6.129  1.00 20.00     0.079 C 
HETATM    8  C8  UNL     1     -34.365  16.128  -6.960  1.00 20.00     0.013 C 
HETATM    9  C9  UNL     1     -34.341  16.358  -4.009  1.00 20.00     0.106 C 
HETATM   10  N10 UNL     1     -33.652  18.692  -4.584  1.00 20.00    -0.269 NA
HETATM   11  O11 UNL     1     -33.933  13.981  -4.170  1.00 20.00    -0.297 OA
ENDROOT
TORSDOF 0
ENDMDL
