MODEL 1
REMARK VINA RESULT:      -3.9      0.000      0.000
REMARK  3 active torsions:
REMARK  status: ('A' for Active; 'I' for Inactive)
REMARK    1  A    between atoms: C2_2  and  C6_6 
REMARK    2  A    between atoms: C6_6  and  C7_7 
REMARK    3  A    between atoms: C7_7  and  C8_8 
ROOT
HETATM    1  C6  UNL     1     -33.904   7.551   5.120  1.00 20.00     0.040 C 
ENDROOT
BRANCH   1   2
HETATM    2  C2  UNL     1     -32.756   8.050   4.256  1.00 20.00     0.079 A 
HETATM    3  C1  UNL     1     -31.861   9.150   4.773  1.00 20.00     0.206 A 
HETATM    4  O9  UNL     1     -32.907   9.411   3.825  1.00 20.00    -0.375 OA
HETATM    5  C3  UNL     1     -32.256   7.133   3.187  1.00 20.00     0.048 C 
ENDBRANCH   1   2
BRANCH   1   6
HETATM    6  C7  UNL     1     -34.779   6.549   4.361  1.00 20.00     0.007 C 
BRANCH   6   7
HETATM    7  C8  UNL     1     -34.852   5.167   5.034  1.00 20.00    -0.023 C 
HETATM    8  C4  UNL     1     -34.510   5.293   6.521  1.00 20.00     0.009 C 
HETATM    9  C5  UNL     1     -33.922   4.147   4.377  1.00 20.00     0.009 C 
ENDBRANCH   6   7
ENDBRANCH   1   6
TORSDOF 3
ENDMDL
MODEL 2
REMARK VINA RESULT:      -3.8      1.276      1.811
REMARK  3 active torsions:
REMARK  status: ('A' for Active; 'I' for Inactive)
REMARK    1  A    between atoms: C2_2  and  C6_6 
REMARK    2  A    between atoms: C6_6  and  C7_7 
REMARK    3  A    between atoms: C7_7  and  C8_8 
ROOT
HETATM    1  C6  UNL     1     -34.101   8.057   4.636  1.00 20.00     0.040 C 
ENDROOT
BRANCH   1   2
HETATM    2  C2  UNL     1     -32.722   8.401   4.094  1.00 20.00     0.079 A 
HETATM    3  C1  UNL     1     -32.480   8.374   2.604  1.00 20.00     0.206 A 
HETATM    4  O9  UNL     1     -32.060   7.299   3.458  1.00 20.00    -0.375 OA
HETATM    5  C3  UNL     1     -31.826   9.215   4.972  1.00 20.00     0.048 C 
ENDBRANCH   1   2
BRANCH   1   6
HETATM    6  C7  UNL     1     -34.006   7.309   5.968  1.00 20.00     0.007 C 
BRANCH   6   7
HETATM    7  C8  UNL     1     -34.780   5.978   5.980  1.00 20.00    -0.023 C 
HETATM    8  C4  UNL     1     -33.871   4.852   6.479  1.00 20.00     0.009 C 
HETATM    9  C5  UNL     1     -35.341   5.616   4.604  1.00 20.00     0.009 C 
ENDBRANCH   6   7
ENDBRANCH   1   6
TORSDOF 3
ENDMDL
MODEL 3
REMARK VINA RESULT:      -3.8      1.909      4.133
REMARK  3 active torsions:
REMARK  status: ('A' for Active; 'I' for Inactive)
REMARK    1  A    between atoms: C2_2  and  C6_6 
REMARK    2  A    between atoms: C6_6  and  C7_7 
REMARK    3  A    between atoms: C7_7  and  C8_8 
ROOT
HETATM    1  C6  UNL     1     -34.408   7.006   4.650  1.00 20.00     0.040 C 
ENDROOT
BRANCH   1   2
HETATM    2  C2  UNL     1     -34.449   5.606   5.244  1.00 20.00     0.079 A 
HETATM    3  C1  UNL     1     -34.065   4.424   4.387  1.00 20.00     0.206 A 
HETATM    4  O9  UNL     1     -35.437   4.754   4.648  1.00 20.00    -0.375 OA
HETATM    5  C3  UNL     1     -34.377   5.493   6.732  1.00 20.00     0.048 C 
ENDBRANCH   1   2
BRANCH   1   6
HETATM    6  C7  UNL     1     -33.233   7.814   5.207  1.00 20.00     0.007 C 
BRANCH   6   7
HETATM    7  C8  UNL     1     -32.197   8.206   4.137  1.00 20.00    -0.023 C 
HETATM    8  C4  UNL     1     -32.522   9.595   3.584  1.00 20.00     0.009 C 
HETATM    9  C5  UNL     1     -32.132   7.197   2.990  1.00 20.00     0.009 C 
ENDBRANCH   6   7
ENDBRANCH   1   6
TORSDOF 3
ENDMDL
MODEL 4
REMARK VINA RESULT:      -3.6      1.061      1.430
REMARK  3 active torsions:
REMARK  status: ('A' for Active; 'I' for Inactive)
REMARK    1  A    between atoms: C2_2  and  C6_6 
REMARK    2  A    between atoms: C6_6  and  C7_7 
REMARK    3  A    between atoms: C7_7  and  C8_8 
ROOT
HETATM    1  C6  UNL     1     -33.528   6.620   3.642  1.00 20.00     0.040 C 
ENDROOT
BRANCH   1   2
HETATM    2  C2  UNL     1     -32.960   7.943   4.130  1.00 20.00     0.079 A 
HETATM    3  C1  UNL     1     -32.378   8.916   3.133  1.00 20.00     0.206 A 
HETATM    4  O9  UNL     1     -31.543   8.071   3.939  1.00 20.00    -0.375 OA
HETATM    5  C3  UNL     1     -33.434   8.443   5.457  1.00 20.00     0.048 C 
ENDBRANCH   1   2
BRANCH   1   6
HETATM    6  C7  UNL     1     -34.849   6.289   4.340  1.00 20.00     0.007 C 
BRANCH   6   7
HETATM    7  C8  UNL     1     -34.814   4.966   5.126  1.00 20.00    -0.023 C 
HETATM    8  C4  UNL     1     -34.529   5.246   6.604  1.00 20.00     0.009 C 
HETATM    9  C5  UNL     1     -33.774   3.989   4.578  1.00 20.00     0.009 C 
ENDBRANCH   6   7
ENDBRANCH   1   6
TORSDOF 3
ENDMDL
MODEL 5
REMARK VINA RESULT:      -3.6     12.086     13.328
REMARK  3 active torsions:
REMARK  status: ('A' for Active; 'I' for Inactive)
REMARK    1  A    between atoms: C2_2  and  C6_6 
REMARK    2  A    between atoms: C6_6  and  C7_7 
REMARK    3  A    between atoms: C7_7  and  C8_8 
ROOT
HETATM    1  C6  UNL     1     -34.298  14.556  -4.370  1.00 20.00     0.040 C 
ENDROOT
BRANCH   1   2
HETATM    2  C2  UNL     1     -34.955  15.004  -5.667  1.00 20.00     0.079 A 
HETATM    3  C1  UNL     1     -36.363  15.548  -5.638  1.00 20.00     0.206 A 
HETATM    4  O9  UNL     1     -36.081  14.203  -6.052  1.00 20.00    -0.375 OA
HETATM    5  C3  UNL     1     -34.052  15.357  -6.804  1.00 20.00     0.048 C 
ENDBRANCH   1   2
BRANCH   1   6
HETATM    6  C7  UNL     1     -33.241  15.560  -3.905  1.00 20.00     0.007 C 
BRANCH   6   7
HETATM    7  C8  UNL     1     -33.837  16.828  -3.267  1.00 20.00    -0.023 C 
HETATM    8  C4  UNL     1     -33.389  18.064  -4.049  1.00 20.00     0.009 C 
HETATM    9  C5  UNL     1     -33.447  16.980  -1.796  1.00 20.00     0.009 C 
ENDBRANCH   6   7
ENDBRANCH   1   6
TORSDOF 3
ENDMDL
MODEL 6
REMARK VINA RESULT:      -3.6      2.047      4.037
REMARK  3 active torsions:
REMARK  status: ('A' for Active; 'I' for Inactive)
REMARK    1  A    between atoms: C2_2  and  C6_6 
REMARK    2  A    between atoms: C6_6  and  C7_7 
REMARK    3  A    between atoms: C7_7  and  C8_8 
ROOT
HETATM    1  C6  UNL     1     -33.449   7.154   5.636  1.00 20.00     0.040 C 
ENDROOT
BRANCH   1   2
HETATM    2  C2  UNL     1     -34.489   6.050   5.517  1.00 20.00     0.079 A 
HETATM    3  C1  UNL     1     -34.816   5.203   6.723  1.00 20.00     0.206 A 
HETATM    4  O9  UNL     1     -33.952   4.730   5.679  1.00 20.00    -0.375 OA
HETATM    5  C3  UNL     1     -35.481   6.163   4.404  1.00 20.00     0.048 C 
ENDBRANCH   1   2
BRANCH   1   6
HETATM    6  C7  UNL     1     -33.632   8.213   4.546  1.00 20.00     0.007 C 
BRANCH   6   7
HETATM    7  C8  UNL     1     -32.469   8.264   3.538  1.00 20.00    -0.023 C 
HETATM    8  C4  UNL     1     -32.764   9.307   2.457  1.00 20.00     0.009 C 
HETATM    9  C5  UNL     1     -32.202   6.908   2.886  1.00 20.00     0.009 C 
ENDBRANCH   6   7
ENDBRANCH   1   6
TORSDOF 3
ENDMDL
MODEL 7
REMARK VINA RESULT:      -3.6      9.266     10.196
REMARK  3 active torsions:
REMARK  status: ('A' for Active; 'I' for Inactive)
REMARK    1  A    between atoms: C2_2  and  C6_6 
REMARK    2  A    between atoms: C6_6  and  C7_7 
REMARK    3  A    between atoms: C7_7  and  C8_8 
ROOT
HETATM    1  C6  UNL     1     -40.782  13.792   6.544  1.00 20.00     0.040 C 
ENDROOT
BRANCH   1   2
HETATM    2  C2  UNL     1     -41.986  13.505   7.429  1.00 20.00     0.079 A 
HETATM    3  C1  UNL     1     -42.478  14.567   8.383  1.00 20.00     0.206 A 
HETATM    4  O9  UNL     1     -41.677  13.462   8.829  1.00 20.00    -0.375 OA
HETATM    5  C3  UNL     1     -42.917  12.424   6.985  1.00 20.00     0.048 C 
ENDBRANCH   1   2
BRANCH   1   6
HETATM    6  C7  UNL     1     -40.805  12.936   5.276  1.00 20.00     0.007 C 
BRANCH   6   7
HETATM    7  C8  UNL     1     -39.757  11.808   5.278  1.00 20.00    -0.023 C 
HETATM    8  C4  UNL     1     -38.762  12.026   6.421  1.00 20.00     0.009 C 
HETATM    9  C5  UNL     1     -39.003  11.709   3.952  1.00 20.00     0.009 C 
ENDBRANCH   6   7
ENDBRANCH   1   6
TORSDOF 3
ENDMDL
MODEL 8
REMARK VINA RESULT:      -3.5     11.757     12.846
REMARK  3 active torsions:
REMARK  status: ('A' for Active; 'I' for Inactive)
REMARK    1  A    between atoms: C2_2  and  C6_6 
REMARK    2  A    between atoms: C6_6  and  C7_7 
REMARK    3  A    between atoms: C7_7  and  C8_8 
ROOT
HETATM    1  C6  UNL     1     -33.422  16.597  -2.309  1.00 20.00     0.040 C 
ENDROOT
BRANCH   1   2
HETATM    2  C2  UNL     1     -33.689  16.110  -3.724  1.00 20.00     0.079 A 
HETATM    3  C1  UNL     1     -33.937  14.641  -3.972  1.00 20.00     0.206 A 
HETATM    4  O9  UNL     1     -32.665  15.248  -4.242  1.00 20.00    -0.375 OA
HETATM    5  C3  UNL     1     -34.183  17.118  -4.712  1.00 20.00     0.048 C 
ENDBRANCH   1   2
BRANCH   1   6
HETATM    6  C7  UNL     1     -32.895  18.034  -2.303  1.00 20.00     0.007 C 
BRANCH   6   7
HETATM    7  C8  UNL     1     -32.776  18.638  -0.892  1.00 20.00    -0.023 C 
HETATM    8  C4  UNL     1     -31.345  18.473  -0.374  1.00 20.00     0.009 C 
HETATM    9  C5  UNL     1     -33.757  18.009   0.097  1.00 20.00     0.009 C 
ENDBRANCH   6   7
ENDBRANCH   1   6
TORSDOF 3
ENDMDL
MODEL 9
REMARK VINA RESULT:      -3.4     12.006     13.157
REMARK  3 active torsions:
REMARK  status: ('A' for Active; 'I' for Inactive)
REMARK    1  A    between atoms: C2_2  and  C6_6 
REMARK    2  A    between atoms: C6_6  and  C7_7 
REMARK    3  A    between atoms: C7_7  and  C8_8 
ROOT
HETATM    1  C6  UNL     1     -34.012  16.993  -3.959  1.00 20.00     0.040 C 
ENDROOT
BRANCH   1   2
HETATM    2  C2  UNL     1     -34.391  15.789  -4.808  1.00 20.00     0.079 A 
HETATM    3  C1  UNL     1     -34.574  15.956  -6.297  1.00 20.00     0.206 A 
HETATM    4  O9  UNL     1     -35.694  15.886  -5.401  1.00 20.00    -0.375 OA
HETATM    5  C3  UNL     1     -34.085  14.436  -4.250  1.00 20.00     0.048 C 
ENDBRANCH   1   2
BRANCH   1   6
HETATM    6  C7  UNL     1     -33.230  16.572  -2.712  1.00 20.00     0.007 C 
BRANCH   6   7
HETATM    7  C8  UNL     1     -33.528  17.444  -1.479  1.00 20.00    -0.023 C 
HETATM    8  C4  UNL     1     -34.625  18.458  -1.811  1.00 20.00     0.009 C 
HETATM    9  C5  UNL     1     -32.287  18.177  -0.969  1.00 20.00     0.009 C 
ENDBRANCH   6   7
ENDBRANCH   1   6
TORSDOF 3
ENDMDL
