MODEL 1
REMARK VINA RESULT:      -4.6      0.000      0.000
REMARK  3 active torsions:
REMARK  status: ('A' for Active; 'I' for Inactive)
REMARK    1  A    between atoms: C2_2  and  C7_7 
REMARK    2  A    between atoms: C5_5  and  C7_7 
REMARK    3  A    between atoms: C6_6  and  C7_7 
ROOT
HETATM    1  C7  UNL     1     -33.881   6.919   4.537  1.00 20.00     0.016 C 
ENDROOT
BRANCH   1   2
HETATM    2  C2  UNL     1     -32.572   7.629   4.178  1.00 20.00     0.149 A 
HETATM    3  C1  UNL     1     -32.575   8.960   3.479  1.00 20.00     0.200 A 
HETATM    4  O8  UNL     1     -32.342   8.849   4.892  1.00 20.00    -0.381 OA
ENDBRANCH   1   2
BRANCH   1   5
HETATM    5  C5  UNL     1     -34.056   6.791   6.064  1.00 20.00     0.002 C 
HETATM    6  C3  UNL     1     -34.609   5.443   6.509  1.00 20.00     0.005 C 
ENDBRANCH   1   5
BRANCH   1   7
HETATM    7  C6  UNL     1     -33.957   5.515   3.901  1.00 20.00     0.002 C 
HETATM    8  C4  UNL     1     -32.985   5.308   2.747  1.00 20.00     0.005 C 
ENDBRANCH   1   7
TORSDOF 3
ENDMDL
MODEL 2
REMARK VINA RESULT:      -4.1      0.870      2.504
REMARK  3 active torsions:
REMARK  status: ('A' for Active; 'I' for Inactive)
REMARK    1  A    between atoms: C2_2  and  C7_7 
REMARK    2  A    between atoms: C5_5  and  C7_7 
REMARK    3  A    between atoms: C6_6  and  C7_7 
ROOT
HETATM    1  C7  UNL     1     -33.433   6.774   4.938  1.00 20.00     0.016 C 
ENDROOT
BRANCH   1   2
HETATM    2  C2  UNL     1     -33.439   8.258   4.553  1.00 20.00     0.149 A 
HETATM    3  C1  UNL     1     -32.212   9.109   4.722  1.00 20.00     0.200 A 
HETATM    4  O8  UNL     1     -32.598   8.586   3.441  1.00 20.00    -0.381 OA
ENDBRANCH   1   2
BRANCH   1   5
HETATM    5  C5  UNL     1     -34.057   5.899   3.831  1.00 20.00     0.002 C 
HETATM    6  C3  UNL     1     -33.035   5.282   2.885  1.00 20.00     0.005 C 
ENDBRANCH   1   5
BRANCH   1   7
HETATM    7  C6  UNL     1     -34.191   6.530   6.260  1.00 20.00     0.002 C 
HETATM    8  C4  UNL     1     -34.765   5.125   6.391  1.00 20.00     0.005 C 
ENDBRANCH   1   7
TORSDOF 3
ENDMDL
MODEL 3
REMARK VINA RESULT:      -3.9      1.548      2.905
REMARK  3 active torsions:
REMARK  status: ('A' for Active; 'I' for Inactive)
REMARK    1  A    between atoms: C2_2  and  C7_7 
REMARK    2  A    between atoms: C5_5  and  C7_7 
REMARK    3  A    between atoms: C6_6  and  C7_7 
ROOT
HETATM    1  C7  UNL     1     -34.087   6.875   4.334  1.00 20.00     0.016 C 
ENDROOT
BRANCH   1   2
HETATM    2  C2  UNL     1     -32.859   6.173   3.745  1.00 20.00     0.149 A 
HETATM    3  C1  UNL     1     -32.984   5.238   2.575  1.00 20.00     0.200 A 
HETATM    4  O8  UNL     1     -32.517   6.587   2.418  1.00 20.00    -0.381 OA
ENDBRANCH   1   2
BRANCH   1   5
HETATM    5  C5  UNL     1     -33.684   7.992   5.320  1.00 20.00     0.002 C 
HETATM    6  C3  UNL     1     -32.444   8.768   4.897  1.00 20.00     0.005 C 
ENDBRANCH   1   5
BRANCH   1   7
HETATM    7  C6  UNL     1     -35.017   5.877   5.056  1.00 20.00     0.002 C 
HETATM    8  C4  UNL     1     -34.510   5.442   6.424  1.00 20.00     0.005 C 
ENDBRANCH   1   7
TORSDOF 3
ENDMDL
MODEL 4
REMARK VINA RESULT:      -3.8      1.731      3.131
REMARK  3 active torsions:
REMARK  status: ('A' for Active; 'I' for Inactive)
REMARK    1  A    between atoms: C2_2  and  C7_7 
REMARK    2  A    between atoms: C5_5  and  C7_7 
REMARK    3  A    between atoms: C6_6  and  C7_7 
ROOT
HETATM    1  C7  UNL     1     -33.279   6.767   4.450  1.00 20.00     0.016 C 
ENDROOT
BRANCH   1   2
HETATM    2  C2  UNL     1     -34.528   5.967   4.834  1.00 20.00     0.149 A 
HETATM    3  C1  UNL     1     -34.473   4.895   5.886  1.00 20.00     0.200 A 
HETATM    4  O8  UNL     1     -34.998   6.203   6.166  1.00 20.00    -0.381 OA
ENDBRANCH   1   2
BRANCH   1   5
HETATM    5  C5  UNL     1     -33.493   8.282   4.645  1.00 20.00     0.002 C 
HETATM    6  C3  UNL     1     -32.202   9.068   4.825  1.00 20.00     0.005 C 
ENDBRANCH   1   5
BRANCH   1   7
HETATM    7  C6  UNL     1     -32.864   6.501   2.987  1.00 20.00     0.002 C 
HETATM    8  C4  UNL     1     -32.930   5.034   2.585  1.00 20.00     0.005 C 
ENDBRANCH   1   7
TORSDOF 3
ENDMDL
MODEL 5
REMARK VINA RESULT:      -3.8      1.981      3.717
REMARK  3 active torsions:
REMARK  status: ('A' for Active; 'I' for Inactive)
REMARK    1  A    between atoms: C2_2  and  C7_7 
REMARK    2  A    between atoms: C5_5  and  C7_7 
REMARK    3  A    between atoms: C6_6  and  C7_7 
ROOT
HETATM    1  C7  UNL     1     -33.834   6.847   4.371  1.00 20.00     0.016 C 
ENDROOT
BRANCH   1   2
HETATM    2  C2  UNL     1     -33.851   5.619   5.286  1.00 20.00     0.149 A 
HETATM    3  C1  UNL     1     -34.920   5.441   6.328  1.00 20.00     0.200 A 
HETATM    4  O8  UNL     1     -34.960   4.738   5.076  1.00 20.00    -0.381 OA
ENDBRANCH   1   2
BRANCH   1   5
HETATM    5  C5  UNL     1     -32.815   6.686   3.224  1.00 20.00     0.002 C 
HETATM    6  C3  UNL     1     -32.849   5.316   2.559  1.00 20.00     0.005 C 
ENDBRANCH   1   5
BRANCH   1   7
HETATM    7  C6  UNL     1     -33.506   8.135   5.157  1.00 20.00     0.002 C 
HETATM    8  C4  UNL     1     -32.240   8.838   4.688  1.00 20.00     0.005 C 
ENDBRANCH   1   7
TORSDOF 3
ENDMDL
MODEL 6
REMARK VINA RESULT:      -3.7      1.648      3.479
REMARK  3 active torsions:
REMARK  status: ('A' for Active; 'I' for Inactive)
REMARK    1  A    between atoms: C2_2  and  C7_7 
REMARK    2  A    between atoms: C5_5  and  C7_7 
REMARK    3  A    between atoms: C6_6  and  C7_7 
ROOT
HETATM    1  C7  UNL     1     -33.867   6.716   4.442  1.00 20.00     0.016 C 
ENDROOT
BRANCH   1   2
HETATM    2  C2  UNL     1     -33.742   6.519   5.956  1.00 20.00     0.149 A 
HETATM    3  C1  UNL     1     -34.955   6.278   6.812  1.00 20.00     0.200 A 
HETATM    4  O8  UNL     1     -34.085   5.206   6.415  1.00 20.00    -0.381 OA
ENDBRANCH   1   2
BRANCH   1   5
HETATM    5  C5  UNL     1     -33.892   5.366   3.695  1.00 20.00     0.002 C 
HETATM    6  C3  UNL     1     -32.857   5.258   2.584  1.00 20.00     0.005 C 
ENDBRANCH   1   5
BRANCH   1   7
HETATM    7  C6  UNL     1     -32.712   7.577   3.886  1.00 20.00     0.002 C 
HETATM    8  C4  UNL     1     -32.353   8.767   4.766  1.00 20.00     0.005 C 
ENDBRANCH   1   7
TORSDOF 3
ENDMDL
MODEL 7
REMARK VINA RESULT:      -3.6      1.766      2.904
REMARK  3 active torsions:
REMARK  status: ('A' for Active; 'I' for Inactive)
REMARK    1  A    between atoms: C2_2  and  C7_7 
REMARK    2  A    between atoms: C5_5  and  C7_7 
REMARK    3  A    between atoms: C6_6  and  C7_7 
ROOT
HETATM    1  C7  UNL     1     -33.534   6.784   4.987  1.00 20.00     0.016 C 
ENDROOT
BRANCH   1   2
HETATM    2  C2  UNL     1     -34.138   5.811   3.968  1.00 20.00     0.149 A 
HETATM    3  C1  UNL     1     -33.290   5.181   2.899  1.00 20.00     0.200 A 
HETATM    4  O8  UNL     1     -33.669   4.463   4.084  1.00 20.00    -0.381 OA
ENDBRANCH   1   2
BRANCH   1   5
HETATM    5  C5  UNL     1     -34.288   6.736   6.332  1.00 20.00     0.002 C 
HETATM    6  C3  UNL     1     -34.793   5.349   6.706  1.00 20.00     0.005 C 
ENDBRANCH   1   5
BRANCH   1   7
HETATM    7  C6  UNL     1     -33.539   8.234   4.458  1.00 20.00     0.002 C 
HETATM    8  C4  UNL     1     -32.167   8.894   4.457  1.00 20.00     0.005 C 
ENDBRANCH   1   7
TORSDOF 3
ENDMDL
MODEL 8
REMARK VINA RESULT:      -3.4     12.158     12.833
REMARK  3 active torsions:
REMARK  status: ('A' for Active; 'I' for Inactive)
REMARK    1  A    between atoms: C2_2  and  C7_7 
REMARK    2  A    between atoms: C5_5  and  C7_7 
REMARK    3  A    between atoms: C6_6  and  C7_7 
ROOT
HETATM    1  C7  UNL     1     -33.011  18.168  -0.587  1.00 20.00     0.016 C 
ENDROOT
BRANCH   1   2
HETATM    2  C2  UNL     1     -31.872  19.060  -0.083  1.00 20.00     0.149 A 
HETATM    3  C1  UNL     1     -30.891  18.564   0.942  1.00 20.00     0.200 A 
HETATM    4  O8  UNL     1     -30.562  18.618  -0.455  1.00 20.00    -0.381 OA
ENDBRANCH   1   2
BRANCH   1   5
HETATM    5  C5  UNL     1     -32.899  17.908  -2.104  1.00 20.00     0.002 C 
HETATM    6  C3  UNL     1     -33.408  16.540  -2.534  1.00 20.00     0.005 C 
ENDBRANCH   1   5
BRANCH   1   7
HETATM    7  C6  UNL     1     -34.392  18.786  -0.283  1.00 20.00     0.002 C 
HETATM    8  C4  UNL     1     -34.636  19.052   1.196  1.00 20.00     0.005 C 
ENDBRANCH   1   7
TORSDOF 3
ENDMDL
MODEL 9
REMARK VINA RESULT:      -3.3      9.535     10.276
REMARK  3 active torsions:
REMARK  status: ('A' for Active; 'I' for Inactive)
REMARK    1  A    between atoms: C2_2  and  C7_7 
REMARK    2  A    between atoms: C5_5  and  C7_7 
REMARK    3  A    between atoms: C6_6  and  C7_7 
ROOT
HETATM    1  C7  UNL     1     -40.827  12.933   6.232  1.00 20.00     0.016 C 
ENDROOT
BRANCH   1   2
HETATM    2  C2  UNL     1     -40.517  14.043   7.243  1.00 20.00     0.149 A 
HETATM    3  C1  UNL     1     -41.358  14.229   8.475  1.00 20.00     0.200 A 
HETATM    4  O8  UNL     1     -40.080  13.575   8.523  1.00 20.00    -0.381 OA
ENDBRANCH   1   2
BRANCH   1   5
HETATM    5  C5  UNL     1     -39.619  11.995   6.032  1.00 20.00     0.002 C 
HETATM    6  C3  UNL     1     -39.269  11.746   4.571  1.00 20.00     0.005 C 
ENDBRANCH   1   5
BRANCH   1   7
HETATM    7  C6  UNL     1     -41.246  13.514   4.865  1.00 20.00     0.002 C 
HETATM    8  C4  UNL     1     -42.519  14.348   4.913  1.00 20.00     0.005 C 
ENDBRANCH   1   7
TORSDOF 3
ENDMDL
