MODEL 1
REMARK VINA RESULT:      -4.0      0.000      0.000
REMARK  1 active torsions:
REMARK  status: ('A' for Active; 'I' for Inactive)
REMARK    1  A    between atoms: C4_4  and  C5_5 
ROOT
HETATM    1  C1  UNL     1     -34.520   5.062   4.745  1.00 20.00     0.007 A 
HETATM    2  C2  UNL     1     -34.724   5.425   6.190  1.00 20.00     0.007 A 
HETATM    3  C4  UNL     1     -34.451   6.501   5.175  1.00 20.00     0.017 A 
ENDROOT
BRANCH   3   4
HETATM    4  C5  UNL     1     -33.160   7.303   5.155  1.00 20.00     0.149 A 
HETATM    5  C3  UNL     1     -32.724   8.144   3.992  1.00 20.00     0.200 A 
HETATM    6  O6  UNL     1     -33.327   8.722   5.161  1.00 20.00    -0.381 OA
ENDBRANCH   3   4
TORSDOF 1
ENDMDL
MODEL 2
REMARK VINA RESULT:      -4.0      1.062      1.329
REMARK  1 active torsions:
REMARK  status: ('A' for Active; 'I' for Inactive)
REMARK    1  A    between atoms: C4_4  and  C5_5 
ROOT
HETATM    1  C1  UNL     1     -34.595   5.958   6.146  1.00 20.00     0.007 A 
HETATM    2  C2  UNL     1     -35.188   5.804   4.773  1.00 20.00     0.007 A 
HETATM    3  C4  UNL     1     -33.860   6.488   4.947  1.00 20.00     0.017 A 
ENDROOT
BRANCH   3   4
HETATM    4  C5  UNL     1     -33.663   7.975   4.696  1.00 20.00     0.149 A 
HETATM    5  C3  UNL     1     -32.355   8.682   4.892  1.00 20.00     0.200 A 
HETATM    6  O6  UNL     1     -32.819   8.296   3.588  1.00 20.00    -0.381 OA
ENDBRANCH   3   4
TORSDOF 1
ENDMDL
MODEL 3
REMARK VINA RESULT:      -3.8      1.028      1.044
REMARK  1 active torsions:
REMARK  status: ('A' for Active; 'I' for Inactive)
REMARK    1  A    between atoms: C4_4  and  C5_5 
ROOT
HETATM    1  C1  UNL     1     -34.634   5.836   5.027  1.00 20.00     0.007 A 
HETATM    2  C2  UNL     1     -34.364   6.463   6.366  1.00 20.00     0.007 A 
HETATM    3  C4  UNL     1     -34.102   7.241   5.106  1.00 20.00     0.017 A 
ENDROOT
BRANCH   3   4
HETATM    4  C5  UNL     1     -32.701   7.615   4.648  1.00 20.00     0.149 A 
HETATM    5  C3  UNL     1     -32.256   7.566   3.217  1.00 20.00     0.200 A 
HETATM    6  O6  UNL     1     -32.620   8.801   3.854  1.00 20.00    -0.381 OA
ENDBRANCH   3   4
TORSDOF 1
ENDMDL
MODEL 4
REMARK VINA RESULT:      -3.6      1.626      3.298
REMARK  1 active torsions:
REMARK  status: ('A' for Active; 'I' for Inactive)
REMARK    1  A    between atoms: C4_4  and  C5_5 
ROOT
HETATM    1  C1  UNL     1     -32.546   8.504   5.112  1.00 20.00     0.007 A 
HETATM    2  C2  UNL     1     -32.648   8.302   3.626  1.00 20.00     0.007 A 
HETATM    3  C4  UNL     1     -33.734   7.790   4.530  1.00 20.00     0.017 A 
ENDROOT
BRANCH   3   4
HETATM    4  C5  UNL     1     -33.990   6.307   4.750  1.00 20.00     0.149 A 
HETATM    5  C3  UNL     1     -34.725   5.759   5.937  1.00 20.00     0.200 A 
HETATM    6  O6  UNL     1     -35.359   5.908   4.656  1.00 20.00    -0.381 OA
ENDBRANCH   3   4
TORSDOF 1
ENDMDL
MODEL 5
REMARK VINA RESULT:      -3.6      1.660      3.141
REMARK  1 active torsions:
REMARK  status: ('A' for Active; 'I' for Inactive)
REMARK    1  A    between atoms: C4_4  and  C5_5 
ROOT
HETATM    1  C1  UNL     1     -32.629   7.885   4.158  1.00 20.00     0.007 A 
HETATM    2  C2  UNL     1     -33.394   8.708   5.158  1.00 20.00     0.007 A 
HETATM    3  C4  UNL     1     -33.360   7.209   5.285  1.00 20.00     0.017 A 
ENDROOT
BRANCH   3   4
HETATM    4  C5  UNL     1     -34.586   6.339   5.063  1.00 20.00     0.149 A 
HETATM    5  C3  UNL     1     -34.524   4.852   4.877  1.00 20.00     0.200 A 
HETATM    6  O6  UNL     1     -34.895   5.443   6.133  1.00 20.00    -0.381 OA
ENDBRANCH   3   4
TORSDOF 1
ENDMDL
MODEL 6
REMARK VINA RESULT:      -3.3      8.386      8.905
REMARK  1 active torsions:
REMARK  status: ('A' for Active; 'I' for Inactive)
REMARK    1  A    between atoms: C4_4  and  C5_5 
ROOT
HETATM    1  C1  UNL     1     -39.284  11.684   4.356  1.00 20.00     0.007 A 
HETATM    2  C2  UNL     1     -38.430  12.070   5.532  1.00 20.00     0.007 A 
HETATM    3  C4  UNL     1     -39.891  11.771   5.729  1.00 20.00     0.017 A 
ENDROOT
BRANCH   3   4
HETATM    4  C5  UNL     1     -40.903  12.838   6.114  1.00 20.00     0.149 A 
HETATM    5  C3  UNL     1     -42.226  12.534   6.751  1.00 20.00     0.200 A 
HETATM    6  O6  UNL     1     -41.106  13.002   7.519  1.00 20.00    -0.381 OA
ENDBRANCH   3   4
TORSDOF 1
ENDMDL
MODEL 7
REMARK VINA RESULT:      -3.3      2.205      2.938
REMARK  1 active torsions:
REMARK  status: ('A' for Active; 'I' for Inactive)
REMARK    1  A    between atoms: C4_4  and  C5_5 
ROOT
HETATM    1  C1  UNL     1     -33.691   8.063   5.454  1.00 20.00     0.007 A 
HETATM    2  C2  UNL     1     -34.225   7.206   6.569  1.00 20.00     0.007 A 
HETATM    3  C4  UNL     1     -33.576   6.566   5.373  1.00 20.00     0.017 A 
ENDROOT
BRANCH   3   4
HETATM    4  C5  UNL     1     -34.353   5.736   4.363  1.00 20.00     0.149 A 
HETATM    5  C3  UNL     1     -33.704   4.871   3.324  1.00 20.00     0.200 A 
HETATM    6  O6  UNL     1     -34.251   4.321   4.534  1.00 20.00    -0.381 OA
ENDBRANCH   3   4
TORSDOF 1
ENDMDL
MODEL 8
REMARK VINA RESULT:      -3.2      1.819      2.020
REMARK  1 active torsions:
REMARK  status: ('A' for Active; 'I' for Inactive)
REMARK    1  A    between atoms: C4_4  and  C5_5 
ROOT
HETATM    1  C1  UNL     1     -34.823   5.443   6.023  1.00 20.00     0.007 A 
HETATM    2  C2  UNL     1     -34.225   6.797   6.290  1.00 20.00     0.007 A 
HETATM    3  C4  UNL     1     -34.296   6.269   4.883  1.00 20.00     0.017 A 
ENDROOT
BRANCH   3   4
HETATM    4  C5  UNL     1     -33.059   5.878   4.090  1.00 20.00     0.149 A 
HETATM    5  C3  UNL     1     -33.085   5.532   2.630  1.00 20.00     0.200 A 
HETATM    6  O6  UNL     1     -32.654   6.821   3.095  1.00 20.00    -0.381 OA
ENDBRANCH   3   4
TORSDOF 1
ENDMDL
MODEL 9
REMARK VINA RESULT:      -3.0     12.690     13.101
REMARK  1 active torsions:
REMARK  status: ('A' for Active; 'I' for Inactive)
REMARK    1  A    between atoms: C4_4  and  C5_5 
ROOT
HETATM    1  C1  UNL     1     -34.288  18.147  -1.731  1.00 20.00     0.007 A 
HETATM    2  C2  UNL     1     -33.318  17.082  -2.162  1.00 20.00     0.007 A 
HETATM    3  C4  UNL     1     -33.051  17.885  -0.918  1.00 20.00     0.017 A 
ENDROOT
BRANCH   3   4
HETATM    4  C5  UNL     1     -31.910  18.885  -0.816  1.00 20.00     0.149 A 
HETATM    5  C3  UNL     1     -31.252  19.263   0.478  1.00 20.00     0.200 A 
HETATM    6  O6  UNL     1     -30.650  18.330  -0.434  1.00 20.00    -0.381 OA
ENDBRANCH   3   4
TORSDOF 1
ENDMDL
