MODEL 1
REMARK VINA RESULT:      -4.5      0.000      0.000
REMARK  3 active torsions:
REMARK  status: ('A' for Active; 'I' for Inactive)
REMARK    1  A    between atoms: C3_3  and  C4_4 
REMARK    2  A    between atoms: C4_4  and  C6_6 
REMARK    3  A    between atoms: C5_5  and  C6_6 
ROOT
HETATM    1  C2  UNL     1     -32.252   8.806   4.935  1.00 20.00     0.011 C 
HETATM    2  C6  UNL     1     -33.108   8.026   3.930  1.00 20.00    -0.005 C 
ENDROOT
BRANCH   2   3
HETATM    3  C4  UNL     1     -34.252   7.303   4.671  1.00 20.00     0.005 C 
BRANCH   3   4
HETATM    4  C3  UNL     1     -33.895   6.900   6.104  1.00 20.00    -0.004 C 
HETATM    5  C1  UNL     1     -34.456   5.529   6.450  1.00 20.00     0.005 C 
ENDBRANCH   3   4
ENDBRANCH   2   3
BRANCH   2   6
HETATM    6  C5  UNL     1     -32.240   7.115   3.048  1.00 20.00     0.119 C 
HETATM    7 CL7  UNL     1     -32.943   5.502   2.779  1.00 20.00    -0.130 Cl
ENDBRANCH   2   6
TORSDOF 3
ENDMDL
MODEL 2
REMARK VINA RESULT:      -4.2      1.999      3.375
REMARK  3 active torsions:
REMARK  status: ('A' for Active; 'I' for Inactive)
REMARK    1  A    between atoms: C3_3  and  C4_4 
REMARK    2  A    between atoms: C4_4  and  C6_6 
REMARK    3  A    between atoms: C5_5  and  C6_6 
ROOT
HETATM    1  C2  UNL     1     -34.431   5.088   6.592  1.00 20.00     0.011 C 
HETATM    2  C6  UNL     1     -34.633   6.352   5.748  1.00 20.00    -0.005 C 
ENDROOT
BRANCH   2   3
HETATM    3  C4  UNL     1     -34.798   5.965   4.263  1.00 20.00     0.005 C 
BRANCH   3   4
HETATM    4  C3  UNL     1     -33.889   4.814   3.825  1.00 20.00    -0.004 C 
HETATM    5  C1  UNL     1     -32.947   5.244   2.712  1.00 20.00     0.005 C 
ENDBRANCH   3   4
ENDBRANCH   2   3
BRANCH   2   6
HETATM    6  C5  UNL     1     -33.531   7.387   6.021  1.00 20.00     0.119 C 
HETATM    7 CL7  UNL     1     -33.064   8.328   4.583  1.00 20.00    -0.130 Cl
ENDBRANCH   2   6
TORSDOF 3
ENDMDL
MODEL 3
REMARK VINA RESULT:      -4.1      1.211      2.887
REMARK  3 active torsions:
REMARK  status: ('A' for Active; 'I' for Inactive)
REMARK    1  A    between atoms: C3_3  and  C4_4 
REMARK    2  A    between atoms: C4_4  and  C6_6 
REMARK    3  A    between atoms: C5_5  and  C6_6 
ROOT
HETATM    1  C2  UNL     1     -34.758   5.409   6.421  1.00 20.00     0.011 C 
HETATM    2  C6  UNL     1     -33.964   5.882   5.197  1.00 20.00    -0.005 C 
ENDROOT
BRANCH   2   3
HETATM    3  C4  UNL     1     -34.323   7.348   4.878  1.00 20.00     0.005 C 
BRANCH   3   4
HETATM    4  C3  UNL     1     -33.227   8.345   5.262  1.00 20.00    -0.004 C 
HETATM    5  C1  UNL     1     -32.126   8.390   4.213  1.00 20.00     0.005 C 
ENDBRANCH   3   4
ENDBRANCH   2   3
BRANCH   2   6
HETATM    6  C5  UNL     1     -34.128   4.911   4.017  1.00 20.00     0.119 C 
HETATM    7 CL7  UNL     1     -32.977   5.200   2.690  1.00 20.00    -0.130 Cl
ENDBRANCH   2   6
TORSDOF 3
ENDMDL
MODEL 4
REMARK VINA RESULT:      -4.1      1.856      2.484
REMARK  3 active torsions:
REMARK  status: ('A' for Active; 'I' for Inactive)
REMARK    1  A    between atoms: C3_3  and  C4_4 
REMARK    2  A    between atoms: C4_4  and  C6_6 
REMARK    3  A    between atoms: C5_5  and  C6_6 
ROOT
HETATM    1  C2  UNL     1     -32.901   5.138   2.493  1.00 20.00     0.011 C 
HETATM    2  C6  UNL     1     -33.062   6.118   3.660  1.00 20.00    -0.005 C 
ENDROOT
BRANCH   2   3
HETATM    3  C4  UNL     1     -34.541   6.170   4.096  1.00 20.00     0.005 C 
BRANCH   3   4
HETATM    4  C3  UNL     1     -34.815   5.456   5.422  1.00 20.00    -0.004 C 
HETATM    5  C1  UNL     1     -34.364   6.295   6.607  1.00 20.00     0.005 C 
ENDBRANCH   3   4
ENDBRANCH   2   3
BRANCH   2   6
HETATM    6  C5  UNL     1     -32.444   7.486   3.329  1.00 20.00     0.119 C 
HETATM    7 CL7  UNL     1     -32.337   8.579   4.731  1.00 20.00    -0.130 Cl
ENDBRANCH   2   6
TORSDOF 3
ENDMDL
MODEL 5
REMARK VINA RESULT:      -4.1      1.225      2.993
REMARK  3 active torsions:
REMARK  status: ('A' for Active; 'I' for Inactive)
REMARK    1  A    between atoms: C3_3  and  C4_4 
REMARK    2  A    between atoms: C4_4  and  C6_6 
REMARK    3  A    between atoms: C5_5  and  C6_6 
ROOT
HETATM    1  C2  UNL     1     -34.380   6.850   6.844  1.00 20.00     0.011 C 
HETATM    2  C6  UNL     1     -33.908   6.719   5.390  1.00 20.00    -0.005 C 
ENDROOT
BRANCH   2   3
HETATM    3  C4  UNL     1     -33.738   8.122   4.771  1.00 20.00     0.005 C 
BRANCH   3   4
HETATM    4  C3  UNL     1     -32.349   8.365   4.176  1.00 20.00    -0.004 C 
HETATM    5  C1  UNL     1     -32.104   7.484   2.960  1.00 20.00     0.005 C 
ENDBRANCH   3   4
ENDBRANCH   2   3
BRANCH   2   6
HETATM    6  C5  UNL     1     -34.819   5.773   4.592  1.00 20.00     0.119 C 
HETATM    7 CL7  UNL     1     -34.035   4.239   4.143  1.00 20.00    -0.130 Cl
ENDBRANCH   2   6
TORSDOF 3
ENDMDL
MODEL 6
REMARK VINA RESULT:      -4.1      1.966      3.393
REMARK  3 active torsions:
REMARK  status: ('A' for Active; 'I' for Inactive)
REMARK    1  A    between atoms: C3_3  and  C4_4 
REMARK    2  A    between atoms: C4_4  and  C6_6 
REMARK    3  A    between atoms: C5_5  and  C6_6 
ROOT
HETATM    1  C2  UNL     1     -33.006   5.394   2.876  1.00 20.00     0.011 C 
HETATM    2  C6  UNL     1     -34.140   5.781   3.833  1.00 20.00    -0.005 C 
ENDROOT
BRANCH   2   3
HETATM    3  C4  UNL     1     -33.870   7.183   4.420  1.00 20.00     0.005 C 
BRANCH   3   4
HETATM    4  C3  UNL     1     -32.555   7.804   3.943  1.00 20.00    -0.004 C 
HETATM    5  C1  UNL     1     -32.165   9.001   4.797  1.00 20.00     0.005 C 
ENDBRANCH   3   4
ENDBRANCH   2   3
BRANCH   2   6
HETATM    6  C5  UNL     1     -34.385   4.685   4.881  1.00 20.00     0.119 C 
HETATM    7 CL7  UNL     1     -34.483   5.300   6.549  1.00 20.00    -0.130 Cl
ENDBRANCH   2   6
TORSDOF 3
ENDMDL
MODEL 7
REMARK VINA RESULT:      -4.0      1.477      2.032
REMARK  3 active torsions:
REMARK  status: ('A' for Active; 'I' for Inactive)
REMARK    1  A    between atoms: C3_3  and  C4_4 
REMARK    2  A    between atoms: C4_4  and  C6_6 
REMARK    3  A    between atoms: C5_5  and  C6_6 
ROOT
HETATM    1  C2  UNL     1     -33.689   7.154   6.565  1.00 20.00     0.011 C 
HETATM    2  C6  UNL     1     -33.865   7.672   5.133  1.00 20.00    -0.005 C 
ENDROOT
BRANCH   2   3
HETATM    3  C4  UNL     1     -34.647   6.638   4.297  1.00 20.00     0.005 C 
BRANCH   3   4
HETATM    4  C3  UNL     1     -34.781   5.274   4.980  1.00 20.00    -0.004 C 
HETATM    5  C1  UNL     1     -33.910   4.227   4.304  1.00 20.00     0.005 C 
ENDBRANCH   3   4
ENDBRANCH   2   3
BRANCH   2   6
HETATM    6  C5  UNL     1     -32.519   8.100   4.525  1.00 20.00     0.119 C 
HETATM    7 CL7  UNL     1     -32.187   7.364   2.938  1.00 20.00    -0.130 Cl
ENDBRANCH   2   6
TORSDOF 3
ENDMDL
MODEL 8
REMARK VINA RESULT:      -3.8      1.634      2.023
REMARK  3 active torsions:
REMARK  status: ('A' for Active; 'I' for Inactive)
REMARK    1  A    between atoms: C3_3  and  C4_4 
REMARK    2  A    between atoms: C4_4  and  C6_6 
REMARK    3  A    between atoms: C5_5  and  C6_6 
ROOT
HETATM    1  C2  UNL     1     -32.678   6.276   2.945  1.00 20.00     0.011 C 
HETATM    2  C6  UNL     1     -32.530   7.559   3.772  1.00 20.00    -0.005 C 
ENDROOT
BRANCH   2   3
HETATM    3  C4  UNL     1     -33.590   7.581   4.893  1.00 20.00     0.005 C 
BRANCH   3   4
HETATM    4  C3  UNL     1     -34.508   6.355   4.892  1.00 20.00    -0.004 C 
HETATM    5  C1  UNL     1     -34.593   5.726   6.274  1.00 20.00     0.005 C 
ENDBRANCH   3   4
ENDBRANCH   2   3
BRANCH   2   6
HETATM    6  C5  UNL     1     -32.524   8.805   2.872  1.00 20.00     0.119 C 
HETATM    7 CL7  UNL     1     -32.248   8.441   1.151  1.00 20.00    -0.130 Cl
ENDBRANCH   2   6
TORSDOF 3
ENDMDL
MODEL 9
REMARK VINA RESULT:      -3.7      1.833      3.704
REMARK  3 active torsions:
REMARK  status: ('A' for Active; 'I' for Inactive)
REMARK    1  A    between atoms: C3_3  and  C4_4 
REMARK    2  A    between atoms: C4_4  and  C6_6 
REMARK    3  A    between atoms: C5_5  and  C6_6 
ROOT
HETATM    1  C2  UNL     1     -34.113   5.833   3.962  1.00 20.00     0.011 C 
HETATM    2  C6  UNL     1     -33.999   7.163   4.717  1.00 20.00    -0.005 C 
ENDROOT
BRANCH   2   3
HETATM    3  C4  UNL     1     -32.753   7.932   4.231  1.00 20.00     0.005 C 
BRANCH   3   4
HETATM    4  C3  UNL     1     -32.094   7.313   2.996  1.00 20.00    -0.004 C 
HETATM    5  C1  UNL     1     -32.320   8.169   1.759  1.00 20.00     0.005 C 
ENDBRANCH   3   4
ENDBRANCH   2   3
BRANCH   2   6
HETATM    6  C5  UNL     1     -34.067   6.949   6.237  1.00 20.00     0.119 C 
HETATM    7 CL7  UNL     1     -34.412   5.267   6.707  1.00 20.00    -0.130 Cl
ENDBRANCH   2   6
TORSDOF 3
ENDMDL
