MODEL 1
REMARK VINA RESULT:      -3.9      0.000      0.000
REMARK  3 active torsions:
REMARK  status: ('A' for Active; 'I' for Inactive)
REMARK    1  A    between atoms: C1_1  and  C4_4 
REMARK    2  A    between atoms: C1_1  and  O6_6 
REMARK    3  A    between atoms: C5_5  and  O6_6 
ROOT
HETATM    1  C1  UNL     1     -33.008   7.466   4.067  1.00 20.00     0.112 C 
HETATM    2  S7  UNL     1     -32.298   8.819   4.742  1.00 20.00    -0.058 SA
ENDROOT
BRANCH   1   3
HETATM    3  C4  UNL     1     -32.440   6.748   2.873  1.00 20.00     0.072 C 
HETATM    4  C2  UNL     1     -32.972   5.329   2.768  1.00 20.00     0.013 C 
ENDBRANCH   1   3
BRANCH   1   5
HETATM    5  O6  UNL     1     -34.119   7.020   4.680  1.00 20.00    -0.344 OA
BRANCH   5   6
HETATM    6  C5  UNL     1     -34.148   6.744   6.090  1.00 20.00     0.172 C 
HETATM    7  C3  UNL     1     -34.566   5.304   6.302  1.00 20.00     0.034 C 
ENDBRANCH   5   6
ENDBRANCH   1   5
TORSDOF 3
ENDMDL
MODEL 2
REMARK VINA RESULT:      -3.8      0.626      2.973
REMARK  3 active torsions:
REMARK  status: ('A' for Active; 'I' for Inactive)
REMARK    1  A    between atoms: C1_1  and  C4_4 
REMARK    2  A    between atoms: C1_1  and  O6_6 
REMARK    3  A    between atoms: C5_5  and  O6_6 
ROOT
HETATM    1  C1  UNL     1     -33.452   7.363   5.059  1.00 20.00     0.112 C 
HETATM    2  S7  UNL     1     -32.483   8.711   4.865  1.00 20.00    -0.058 SA
ENDROOT
BRANCH   1   3
HETATM    3  C4  UNL     1     -34.033   6.953   6.386  1.00 20.00     0.072 C 
HETATM    4  C2  UNL     1     -34.614   5.550   6.332  1.00 20.00     0.013 C 
ENDBRANCH   1   3
BRANCH   1   5
HETATM    5  O6  UNL     1     -33.722   6.669   3.940  1.00 20.00    -0.344 OA
BRANCH   5   6
HETATM    6  C5  UNL     1     -32.705   6.370   2.970  1.00 20.00     0.172 C 
HETATM    7  C3  UNL     1     -32.878   4.941   2.499  1.00 20.00     0.034 C 
ENDBRANCH   5   6
ENDBRANCH   1   5
TORSDOF 3
ENDMDL
MODEL 3
REMARK VINA RESULT:      -3.7      1.945      3.377
REMARK  3 active torsions:
REMARK  status: ('A' for Active; 'I' for Inactive)
REMARK    1  A    between atoms: C1_1  and  C4_4 
REMARK    2  A    between atoms: C1_1  and  O6_6 
REMARK    3  A    between atoms: C5_5  and  O6_6 
ROOT
HETATM    1  C1  UNL     1     -33.829   5.857   4.061  1.00 20.00     0.112 C 
HETATM    2  S7  UNL     1     -33.008   5.231   2.747  1.00 20.00    -0.058 SA
ENDROOT
BRANCH   1   3
HETATM    3  C4  UNL     1     -34.688   5.019   4.969  1.00 20.00     0.072 C 
HETATM    4  C2  UNL     1     -34.614   5.499   6.409  1.00 20.00     0.013 C 
ENDBRANCH   1   3
BRANCH   1   5
HETATM    5  O6  UNL     1     -33.650   7.169   4.293  1.00 20.00    -0.344 OA
BRANCH   5   6
HETATM    6  C5  UNL     1     -32.445   7.850   3.907  1.00 20.00     0.172 C 
HETATM    7  C3  UNL     1     -32.226   9.027   4.835  1.00 20.00     0.034 C 
ENDBRANCH   5   6
ENDBRANCH   1   5
TORSDOF 3
ENDMDL
MODEL 4
REMARK VINA RESULT:      -3.6      1.829      2.367
REMARK  3 active torsions:
REMARK  status: ('A' for Active; 'I' for Inactive)
REMARK    1  A    between atoms: C1_1  and  C4_4 
REMARK    2  A    between atoms: C1_1  and  O6_6 
REMARK    3  A    between atoms: C5_5  and  O6_6 
ROOT
HETATM    1  C1  UNL     1     -33.171   6.717   3.711  1.00 20.00     0.112 C 
HETATM    2  S7  UNL     1     -32.977   5.327   2.804  1.00 20.00    -0.058 SA
ENDROOT
BRANCH   1   3
HETATM    3  C4  UNL     1     -32.190   7.858   3.687  1.00 20.00     0.072 C 
HETATM    4  C2  UNL     1     -32.402   8.803   4.858  1.00 20.00     0.013 C 
ENDBRANCH   1   3
BRANCH   1   5
HETATM    5  O6  UNL     1     -34.291   6.781   4.453  1.00 20.00    -0.344 OA
BRANCH   5   6
HETATM    6  C5  UNL     1     -34.932   5.600   4.960  1.00 20.00     0.172 C 
HETATM    7  C3  UNL     1     -34.556   5.421   6.416  1.00 20.00     0.034 C 
ENDBRANCH   5   6
ENDBRANCH   1   5
TORSDOF 3
ENDMDL
MODEL 5
REMARK VINA RESULT:      -3.5      2.006      2.736
REMARK  3 active torsions:
REMARK  status: ('A' for Active; 'I' for Inactive)
REMARK    1  A    between atoms: C1_1  and  C4_4 
REMARK    2  A    between atoms: C1_1  and  O6_6 
REMARK    3  A    between atoms: C5_5  and  O6_6 
ROOT
HETATM    1  C1  UNL     1     -34.208   5.893   4.788  1.00 20.00     0.112 C 
HETATM    2  S7  UNL     1     -34.575   5.541   6.380  1.00 20.00    -0.058 SA
ENDROOT
BRANCH   1   3
HETATM    3  C4  UNL     1     -33.926   4.834   3.757  1.00 20.00     0.072 C 
HETATM    4  C2  UNL     1     -32.940   5.322   2.709  1.00 20.00     0.013 C 
ENDBRANCH   1   3
BRANCH   1   5
HETATM    5  O6  UNL     1     -34.212   7.196   4.460  1.00 20.00    -0.344 OA
BRANCH   5   6
HETATM    6  C5  UNL     1     -33.489   8.173   5.226  1.00 20.00     0.172 C 
HETATM    7  C3  UNL     1     -32.234   8.560   4.472  1.00 20.00     0.034 C 
ENDBRANCH   5   6
ENDBRANCH   1   5
TORSDOF 3
ENDMDL
MODEL 6
REMARK VINA RESULT:      -3.4      1.962      3.160
REMARK  3 active torsions:
REMARK  status: ('A' for Active; 'I' for Inactive)
REMARK    1  A    between atoms: C1_1  and  C4_4 
REMARK    2  A    between atoms: C1_1  and  O6_6 
REMARK    3  A    between atoms: C5_5  and  O6_6 
ROOT
HETATM    1  C1  UNL     1     -34.119   6.779   5.204  1.00 20.00     0.112 C 
HETATM    2  S7  UNL     1     -34.473   5.788   6.503  1.00 20.00    -0.058 SA
ENDROOT
BRANCH   1   3
HETATM    3  C4  UNL     1     -33.537   8.158   5.357  1.00 20.00     0.072 C 
HETATM    4  C2  UNL     1     -32.332   8.361   4.454  1.00 20.00     0.013 C 
ENDBRANCH   1   3
BRANCH   1   5
HETATM    5  O6  UNL     1     -34.351   6.255   3.987  1.00 20.00    -0.344 OA
BRANCH   5   6
HETATM    6  C5  UNL     1     -33.846   4.965   3.608  1.00 20.00     0.172 C 
HETATM    7  C3  UNL     1     -32.838   5.139   2.492  1.00 20.00     0.034 C 
ENDBRANCH   5   6
ENDBRANCH   1   5
TORSDOF 3
ENDMDL
MODEL 7
REMARK VINA RESULT:      -3.2      1.489      3.446
REMARK  3 active torsions:
REMARK  status: ('A' for Active; 'I' for Inactive)
REMARK    1  A    between atoms: C1_1  and  C4_4 
REMARK    2  A    between atoms: C1_1  and  O6_6 
REMARK    3  A    between atoms: C5_5  and  O6_6 
ROOT
HETATM    1  C1  UNL     1     -33.722   6.644   4.444  1.00 20.00     0.112 C 
HETATM    2  S7  UNL     1     -33.554   8.057   5.319  1.00 20.00    -0.058 SA
ENDROOT
BRANCH   1   3
HETATM    3  C4  UNL     1     -34.683   5.550   4.825  1.00 20.00     0.072 C 
HETATM    4  C2  UNL     1     -34.716   5.333   6.328  1.00 20.00     0.013 C 
ENDBRANCH   1   3
BRANCH   1   5
HETATM    5  O6  UNL     1     -32.964   6.546   3.338  1.00 20.00    -0.344 OA
BRANCH   5   6
HETATM    6  C5  UNL     1     -31.981   7.539   3.002  1.00 20.00     0.172 C 
HETATM    7  C3  UNL     1     -32.226   8.015   1.585  1.00 20.00     0.034 C 
ENDBRANCH   5   6
ENDBRANCH   1   5
TORSDOF 3
ENDMDL
MODEL 8
REMARK VINA RESULT:      -2.9      2.189      3.861
REMARK  3 active torsions:
REMARK  status: ('A' for Active; 'I' for Inactive)
REMARK    1  A    between atoms: C1_1  and  C4_4 
REMARK    2  A    between atoms: C1_1  and  O6_6 
REMARK    3  A    between atoms: C5_5  and  O6_6 
ROOT
HETATM    1  C1  UNL     1     -33.604   6.446   4.326  1.00 20.00     0.112 C 
HETATM    2  S7  UNL     1     -34.438   5.006   4.478  1.00 20.00    -0.058 SA
ENDROOT
BRANCH   1   3
HETATM    3  C4  UNL     1     -33.654   7.539   5.360  1.00 20.00     0.072 C 
HETATM    4  C2  UNL     1     -34.233   7.040   6.673  1.00 20.00     0.013 C 
ENDBRANCH   1   3
BRANCH   1   5
HETATM    5  O6  UNL     1     -32.840   6.568   3.226  1.00 20.00    -0.344 OA
BRANCH   5   6
HETATM    6  C5  UNL     1     -32.060   7.747   2.972  1.00 20.00     0.172 C 
HETATM    7  C3  UNL     1     -32.166   8.102   1.503  1.00 20.00     0.034 C 
ENDBRANCH   5   6
ENDBRANCH   1   5
TORSDOF 3
ENDMDL
MODEL 9
REMARK VINA RESULT:      -2.9      9.266      9.953
REMARK  3 active torsions:
REMARK  status: ('A' for Active; 'I' for Inactive)
REMARK    1  A    between atoms: C1_1  and  C4_4 
REMARK    2  A    between atoms: C1_1  and  O6_6 
REMARK    3  A    between atoms: C5_5  and  O6_6 
ROOT
HETATM    1  C1  UNL     1     -40.245  12.885   6.463  1.00 20.00     0.112 C 
HETATM    2  S7  UNL     1     -41.390  13.643   5.512  1.00 20.00    -0.058 SA
ENDROOT
BRANCH   1   3
HETATM    3  C4  UNL     1     -39.337  11.800   5.951  1.00 20.00     0.072 C 
HETATM    4  C2  UNL     1     -39.257  11.808   4.433  1.00 20.00     0.013 C 
ENDBRANCH   1   3
BRANCH   1   5
HETATM    5  O6  UNL     1     -40.148  13.329   7.729  1.00 20.00    -0.344 OA
BRANCH   5   6
HETATM    6  C5  UNL     1     -40.942  14.425   8.211  1.00 20.00     0.172 C 
HETATM    7  C3  UNL     1     -40.153  15.183   9.258  1.00 20.00     0.034 C 
ENDBRANCH   5   6
ENDBRANCH   1   5
TORSDOF 3
ENDMDL
