MODEL 1
REMARK VINA RESULT:      -4.4      0.000      0.000
REMARK  1 active torsions:
REMARK  status: ('A' for Active; 'I' for Inactive)
REMARK    1  A    between atoms: C1_1  and  C2_2 
ROOT
HETATM    1  C1  UNL     1     -33.547   7.241   4.845  1.00 20.00     0.437 C 
HETATM    2  F3  UNL     1     -33.158   7.412   6.129  1.00 20.00    -0.166 F 
HETATM    3  F4  UNL     1     -34.327   8.296   4.516  1.00 20.00    -0.166 F 
HETATM    4  F5  UNL     1     -32.435   7.310   4.075  1.00 20.00    -0.166 F 
ENDROOT
BRANCH   1   5
HETATM    5  C2  UNL     1     -34.278   5.924   4.653  1.00 20.00     0.286 C 
HETATM    6 CL6  UNL     1     -35.961   6.231   4.136  1.00 20.00    -0.074 Cl
HETATM    7 CL7  UNL     1     -33.455   4.946   3.405  1.00 20.00    -0.074 Cl
HETATM    8 CL8  UNL     1     -34.299   5.009   6.188  1.00 20.00    -0.074 Cl
ENDBRANCH   1   5
TORSDOF 1
ENDMDL
MODEL 2
REMARK VINA RESULT:      -4.4      0.003      1.782
REMARK  1 active torsions:
REMARK  status: ('A' for Active; 'I' for Inactive)
REMARK    1  A    between atoms: C1_1  and  C2_2 
ROOT
HETATM    1  C1  UNL     1     -33.547   7.243   4.844  1.00 20.00     0.437 C 
HETATM    2  F3  UNL     1     -33.157   7.415   6.128  1.00 20.00    -0.166 F 
HETATM    3  F4  UNL     1     -34.327   8.298   4.516  1.00 20.00    -0.166 F 
HETATM    4  F5  UNL     1     -32.436   7.311   4.074  1.00 20.00    -0.166 F 
ENDROOT
BRANCH   1   5
HETATM    5  C2  UNL     1     -34.278   5.926   4.655  1.00 20.00     0.286 C 
HETATM    6 CL6  UNL     1     -33.454   4.947   3.407  1.00 20.00    -0.074 Cl
HETATM    7 CL7  UNL     1     -34.300   5.014   6.190  1.00 20.00    -0.074 Cl
HETATM    8 CL8  UNL     1     -35.961   6.232   4.136  1.00 20.00    -0.074 Cl
ENDBRANCH   1   5
TORSDOF 1
ENDMDL
MODEL 3
REMARK VINA RESULT:      -4.4      0.015      1.782
REMARK  1 active torsions:
REMARK  status: ('A' for Active; 'I' for Inactive)
REMARK    1  A    between atoms: C1_1  and  C2_2 
ROOT
HETATM    1  C1  UNL     1     -33.552   7.246   4.855  1.00 20.00     0.437 C 
HETATM    2  F3  UNL     1     -33.182   7.420   6.144  1.00 20.00    -0.166 F 
HETATM    3  F4  UNL     1     -34.330   8.298   4.513  1.00 20.00    -0.166 F 
HETATM    4  F5  UNL     1     -32.430   7.314   4.100  1.00 20.00    -0.166 F 
ENDROOT
BRANCH   1   5
HETATM    5  C2  UNL     1     -34.278   5.927   4.656  1.00 20.00     0.286 C 
HETATM    6 CL6  UNL     1     -34.297   5.005   6.187  1.00 20.00    -0.074 Cl
HETATM    7 CL7  UNL     1     -35.961   6.229   4.138  1.00 20.00    -0.074 Cl
HETATM    8 CL8  UNL     1     -33.450   4.957   3.404  1.00 20.00    -0.074 Cl
ENDBRANCH   1   5
TORSDOF 1
ENDMDL
MODEL 4
REMARK VINA RESULT:      -4.3      1.843      2.545
REMARK  1 active torsions:
REMARK  status: ('A' for Active; 'I' for Inactive)
REMARK    1  A    between atoms: C1_1  and  C2_2 
ROOT
HETATM    1  C1  UNL     1     -34.391   5.997   6.331  1.00 20.00     0.437 C 
HETATM    2  F3  UNL     1     -34.397   7.282   6.755  1.00 20.00    -0.166 F 
HETATM    3  F4  UNL     1     -33.315   5.395   6.885  1.00 20.00    -0.166 F 
HETATM    4  F5  UNL     1     -35.493   5.400   6.842  1.00 20.00    -0.166 F 
ENDROOT
BRANCH   1   5
HETATM    5  C2  UNL     1     -34.361   5.910   4.816  1.00 20.00     0.286 C 
HETATM    6 CL6  UNL     1     -35.994   6.215   4.156  1.00 20.00    -0.074 Cl
HETATM    7 CL7  UNL     1     -33.230   7.126   4.156  1.00 20.00    -0.074 Cl
HETATM    8 CL8  UNL     1     -33.825   4.282   4.309  1.00 20.00    -0.074 Cl
ENDBRANCH   1   5
TORSDOF 1
ENDMDL
MODEL 5
REMARK VINA RESULT:      -4.3      1.844      2.939
REMARK  1 active torsions:
REMARK  status: ('A' for Active; 'I' for Inactive)
REMARK    1  A    between atoms: C1_1  and  C2_2 
ROOT
HETATM    1  C1  UNL     1     -34.391   5.981   6.329  1.00 20.00     0.437 C 
HETATM    2  F3  UNL     1     -34.377   7.263   6.760  1.00 20.00    -0.166 F 
HETATM    3  F4  UNL     1     -33.325   5.359   6.880  1.00 20.00    -0.166 F 
HETATM    4  F5  UNL     1     -35.503   5.398   6.835  1.00 20.00    -0.166 F 
ENDROOT
BRANCH   1   5
HETATM    5  C2  UNL     1     -34.362   5.902   4.813  1.00 20.00     0.286 C 
HETATM    6 CL6  UNL     1     -33.823   4.277   4.298  1.00 20.00    -0.074 Cl
HETATM    7 CL7  UNL     1     -35.994   6.209   4.153  1.00 20.00    -0.074 Cl
HETATM    8 CL8  UNL     1     -33.232   7.122   4.159  1.00 20.00    -0.074 Cl
ENDBRANCH   1   5
TORSDOF 1
ENDMDL
MODEL 6
REMARK VINA RESULT:      -4.3      1.844      2.750
REMARK  1 active torsions:
REMARK  status: ('A' for Active; 'I' for Inactive)
REMARK    1  A    between atoms: C1_1  and  C2_2 
ROOT
HETATM    1  C1  UNL     1     -34.392   5.980   6.331  1.00 20.00     0.437 C 
HETATM    2  F3  UNL     1     -34.371   7.262   6.762  1.00 20.00    -0.166 F 
HETATM    3  F4  UNL     1     -33.330   5.352   6.884  1.00 20.00    -0.166 F 
HETATM    4  F5  UNL     1     -35.507   5.403   6.837  1.00 20.00    -0.166 F 
ENDROOT
BRANCH   1   5
HETATM    5  C2  UNL     1     -34.361   5.900   4.815  1.00 20.00     0.286 C 
HETATM    6 CL6  UNL     1     -33.231   7.122   4.164  1.00 20.00    -0.074 Cl
HETATM    7 CL7  UNL     1     -33.823   4.276   4.300  1.00 20.00    -0.074 Cl
HETATM    8 CL8  UNL     1     -35.993   6.209   4.155  1.00 20.00    -0.074 Cl
ENDBRANCH   1   5
TORSDOF 1
ENDMDL
MODEL 7
REMARK VINA RESULT:      -3.7      2.347      3.037
REMARK  1 active torsions:
REMARK  status: ('A' for Active; 'I' for Inactive)
REMARK    1  A    between atoms: C1_1  and  C2_2 
ROOT
HETATM    1  C1  UNL     1     -34.944   5.648   4.880  1.00 20.00     0.437 C 
HETATM    2  F3  UNL     1     -34.476   4.504   4.329  1.00 20.00    -0.166 F 
HETATM    3  F4  UNL     1     -36.091   5.964   4.237  1.00 20.00    -0.166 F 
HETATM    4  F5  UNL     1     -35.267   5.373   6.165  1.00 20.00    -0.166 F 
ENDROOT
BRANCH   1   5
HETATM    5  C2  UNL     1     -33.924   6.769   4.789  1.00 20.00     0.286 C 
HETATM    6 CL6  UNL     1     -34.740   8.301   4.363  1.00 20.00    -0.074 Cl
HETATM    7 CL7  UNL     1     -33.094   6.969   6.358  1.00 20.00    -0.074 Cl
HETATM    8 CL8  UNL     1     -32.710   6.390   3.533  1.00 20.00    -0.074 Cl
ENDBRANCH   1   5
TORSDOF 1
ENDMDL
MODEL 8
REMARK VINA RESULT:      -3.7      2.347      3.048
REMARK  1 active torsions:
REMARK  status: ('A' for Active; 'I' for Inactive)
REMARK    1  A    between atoms: C1_1  and  C2_2 
ROOT
HETATM    1  C1  UNL     1     -34.942   5.647   4.879  1.00 20.00     0.437 C 
HETATM    2  F3  UNL     1     -35.262   5.360   6.161  1.00 20.00    -0.166 F 
HETATM    3  F4  UNL     1     -34.474   4.510   4.316  1.00 20.00    -0.166 F 
HETATM    4  F5  UNL     1     -36.091   5.967   4.240  1.00 20.00    -0.166 F 
ENDROOT
BRANCH   1   5
HETATM    5  C2  UNL     1     -33.925   6.771   4.795  1.00 20.00     0.286 C 
HETATM    6 CL6  UNL     1     -33.097   6.962   6.367  1.00 20.00    -0.074 Cl
HETATM    7 CL7  UNL     1     -32.710   6.403   3.538  1.00 20.00    -0.074 Cl
HETATM    8 CL8  UNL     1     -34.744   8.305   4.381  1.00 20.00    -0.074 Cl
ENDBRANCH   1   5
TORSDOF 1
ENDMDL
MODEL 9
REMARK VINA RESULT:      -3.7      2.347      3.036
REMARK  1 active torsions:
REMARK  status: ('A' for Active; 'I' for Inactive)
REMARK    1  A    between atoms: C1_1  and  C2_2 
ROOT
HETATM    1  C1  UNL     1     -34.940   5.645   4.877  1.00 20.00     0.437 C 
HETATM    2  F3  UNL     1     -35.255   5.346   6.158  1.00 20.00    -0.166 F 
HETATM    3  F4  UNL     1     -34.471   4.515   4.303  1.00 20.00    -0.166 F 
HETATM    4  F5  UNL     1     -36.093   5.968   4.245  1.00 20.00    -0.166 F 
ENDROOT
BRANCH   1   5
HETATM    5  C2  UNL     1     -33.927   6.773   4.801  1.00 20.00     0.286 C 
HETATM    6 CL6  UNL     1     -32.711   6.415   3.541  1.00 20.00    -0.074 Cl
HETATM    7 CL7  UNL     1     -34.749   8.306   4.395  1.00 20.00    -0.074 Cl
HETATM    8 CL8  UNL     1     -33.097   6.956   6.373  1.00 20.00    -0.074 Cl
ENDBRANCH   1   5
TORSDOF 1
ENDMDL
