MODEL 1
REMARK VINA RESULT:      -4.3      0.000      0.000
REMARK  0 active torsions:
REMARK  status: ('A' for Active; 'I' for Inactive)
ROOT
HETATM    1  C1  UNL     1     -21.834  18.081   9.899  1.00 20.00     0.013 C 
HETATM    2  C2  UNL     1     -22.712  16.925   9.378  1.00 20.00     0.013 C 
HETATM    3  C3  UNL     1     -22.738  18.297  12.275  1.00 20.00     0.280 C 
HETATM    4  C4  UNL     1     -24.129  16.466  11.450  1.00 20.00     0.280 C 
HETATM    5  C5  UNL     1     -22.749  18.879  10.848  1.00 20.00     0.086 C 
HETATM    6  C6  UNL     1     -24.079  17.127  10.058  1.00 20.00     0.086 C 
HETATM    7  C7  UNL     1     -24.112  18.635  10.223  1.00 20.00     0.254 C 
HETATM    8  N8  UNL     1     -23.015  16.853  12.328  1.00 20.00     0.084 N 
HETATM    9  F9  UNL     1     -25.130  19.064  10.988  1.00 20.00    -0.205 F 
HETATM   10  F10 UNL     1     -24.211  19.252   9.025  1.00 20.00    -0.205 F 
HETATM   11  H21 UNL     1     -22.178  16.354  12.025  1.00 20.00     0.315 HD
ENDROOT
TORSDOF 0
ENDMDL
MODEL 2
REMARK VINA RESULT:      -4.2     23.736     24.611
REMARK  0 active torsions:
REMARK  status: ('A' for Active; 'I' for Inactive)
ROOT
HETATM    1  C1  UNL     1     -43.354   7.259   0.030  1.00 20.00     0.013 C 
HETATM    2  C2  UNL     1     -42.672   7.152   1.410  1.00 20.00     0.013 C 
HETATM    3  C3  UNL     1     -43.104   4.854  -0.782  1.00 20.00     0.280 C 
HETATM    4  C4  UNL     1     -42.024   4.685   1.403  1.00 20.00     0.280 C 
HETATM    5  C5  UNL     1     -42.566   6.295  -0.878  1.00 20.00     0.086 C 
HETATM    6  C6  UNL     1     -41.534   6.134   1.213  1.00 20.00     0.086 C 
HETATM    7  C7  UNL     1     -41.185   6.353  -0.248  1.00 20.00     0.254 C 
HETATM    8  N8  UNL     1     -43.207   4.350   0.596  1.00 20.00     0.084 N 
HETATM    9  F9  UNL     1     -40.341   5.430  -0.737  1.00 20.00    -0.205 F 
HETATM   10  F10 UNL     1     -40.621   7.566  -0.434  1.00 20.00    -0.205 F 
HETATM   11  H21 UNL     1     -44.025   4.776   1.033  1.00 20.00     0.315 HD
ENDROOT
TORSDOF 0
ENDMDL
MODEL 3
REMARK VINA RESULT:      -4.0      1.839      2.636
REMARK  0 active torsions:
REMARK  status: ('A' for Active; 'I' for Inactive)
ROOT
HETATM    1  C1  UNL     1     -24.659  19.254  11.426  1.00 20.00     0.013 C 
HETATM    2  C2  UNL     1     -24.704  18.590  10.034  1.00 20.00     0.013 C 
HETATM    3  C3  UNL     1     -22.416  18.379  12.268  1.00 20.00     0.280 C 
HETATM    4  C4  UNL     1     -22.489  17.326  10.064  1.00 20.00     0.280 C 
HETATM    5  C5  UNL     1     -23.948  18.230  12.332  1.00 20.00     0.086 C 
HETATM    6  C6  UNL     1     -24.019  17.224  10.223  1.00 20.00     0.086 C 
HETATM    7  C7  UNL     1     -24.348  16.921  11.673  1.00 20.00     0.254 C 
HETATM    8  N8  UNL     1     -21.876  18.370  10.900  1.00 20.00     0.084 N 
HETATM    9  F9  UNL     1     -23.684  15.859  12.159  1.00 20.00    -0.205 F 
HETATM   10  F10 UNL     1     -25.670  16.686  11.831  1.00 20.00    -0.205 F 
HETATM   11  H21 UNL     1     -22.067  19.277  10.473  1.00 20.00     0.315 HD
ENDROOT
TORSDOF 0
ENDMDL
MODEL 4
REMARK VINA RESULT:      -3.9     23.407     24.310
REMARK  0 active torsions:
REMARK  status: ('A' for Active; 'I' for Inactive)
ROOT
HETATM    1  C1  UNL     1     -42.269   5.506  -1.102  1.00 20.00     0.013 C 
HETATM    2  C2  UNL     1     -40.838   5.595  -0.531  1.00 20.00     0.013 C 
HETATM    3  C3  UNL     1     -43.204   7.748  -0.324  1.00 20.00     0.280 C 
HETATM    4  C4  UNL     1     -40.939   7.889   0.581  1.00 20.00     0.280 C 
HETATM    5  C5  UNL     1     -43.155   6.229  -0.069  1.00 20.00     0.086 C 
HETATM    6  C6  UNL     1     -40.987   6.363   0.795  1.00 20.00     0.086 C 
HETATM    7  C7  UNL     1     -42.390   5.965   1.216  1.00 20.00     0.254 C 
HETATM    8  N8  UNL     1     -41.878   8.372  -0.443  1.00 20.00     0.084 N 
HETATM    9  F9  UNL     1     -42.852   6.671   2.262  1.00 20.00    -0.205 F 
HETATM   10  F10 UNL     1     -42.443   4.657   1.549  1.00 20.00    -0.205 F 
HETATM   11  H21 UNL     1     -41.497   8.144  -1.362  1.00 20.00     0.315 HD
ENDROOT
TORSDOF 0
ENDMDL
MODEL 5
REMARK VINA RESULT:      -3.9     23.356     24.225
REMARK  0 active torsions:
REMARK  status: ('A' for Active; 'I' for Inactive)
ROOT
HETATM    1  C1  UNL     1     -41.150   8.056   0.014  1.00 20.00     0.013 C 
HETATM    2  C2  UNL     1     -42.522   7.923  -0.680  1.00 20.00     0.013 C 
HETATM    3  C3  UNL     1     -40.483   5.599   0.165  1.00 20.00     0.280 C 
HETATM    4  C4  UNL     1     -42.656   5.388  -0.933  1.00 20.00     0.280 C 
HETATM    5  C5  UNL     1     -41.044   6.818   0.924  1.00 20.00     0.086 C 
HETATM    6  C6  UNL     1     -43.122   6.617  -0.127  1.00 20.00     0.086 C 
HETATM    7  C7  UNL     1     -42.504   6.566   1.258  1.00 20.00     0.254 C 
HETATM    8  N8  UNL     1     -41.195   5.301  -1.086  1.00 20.00     0.084 N 
HETATM    9  F9  UNL     1     -42.709   5.398   1.890  1.00 20.00    -0.205 F 
HETATM   10  F10 UNL     1     -42.995   7.550   2.044  1.00 20.00    -0.205 F 
HETATM   11  H21 UNL     1     -40.905   5.981  -1.791  1.00 20.00     0.315 HD
ENDROOT
TORSDOF 0
ENDMDL
MODEL 6
REMARK VINA RESULT:      -3.9      1.008      2.673
REMARK  0 active torsions:
REMARK  status: ('A' for Active; 'I' for Inactive)
ROOT
HETATM    1  C1  UNL     1     -23.871  16.693  11.799  1.00 20.00     0.013 C 
HETATM    2  C2  UNL     1     -23.021  17.865  12.332  1.00 20.00     0.013 C 
HETATM    3  C3  UNL     1     -23.175  16.715   9.344  1.00 20.00     0.280 C 
HETATM    4  C4  UNL     1     -21.831  18.571  10.189  1.00 20.00     0.280 C 
HETATM    5  C5  UNL     1     -24.261  17.105  10.366  1.00 20.00     0.086 C 
HETATM    6  C6  UNL     1     -22.975  18.881  11.175  1.00 20.00     0.086 C 
HETATM    7  C7  UNL     1     -24.304  18.618  10.492  1.00 20.00     0.254 C 
HETATM    8  N8  UNL     1     -21.828  17.183   9.703  1.00 20.00     0.084 N 
HETATM    9  F9  UNL     1     -24.427  19.244   9.310  1.00 20.00    -0.205 F 
HETATM   10  F10 UNL     1     -25.336  19.008  11.273  1.00 20.00    -0.205 F 
HETATM   11  H21 UNL     1     -21.467  16.583  10.446  1.00 20.00     0.315 HD
ENDROOT
TORSDOF 0
ENDMDL
MODEL 7
REMARK VINA RESULT:      -3.9     23.373     24.233
REMARK  0 active torsions:
REMARK  status: ('A' for Active; 'I' for Inactive)
ROOT
HETATM    1  C1  UNL     1     -40.876   7.980  -0.054  1.00 20.00     0.013 C 
HETATM    2  C2  UNL     1     -40.513   7.031   1.107  1.00 20.00     0.013 C 
HETATM    3  C3  UNL     1     -43.417   7.755  -0.040  1.00 20.00     0.280 C 
HETATM    4  C4  UNL     1     -42.842   6.251   1.798  1.00 20.00     0.280 C 
HETATM    5  C5  UNL     1     -42.103   7.334  -0.726  1.00 20.00     0.086 C 
HETATM    6  C6  UNL     1     -41.552   5.896   1.033  1.00 20.00     0.086 C 
HETATM    7  C7  UNL     1     -41.851   5.861  -0.455  1.00 20.00     0.254 C 
HETATM    8  N8  UNL     1     -43.417   7.550   1.416  1.00 20.00     0.084 N 
HETATM    9  F9  UNL     1     -42.896   5.078  -0.769  1.00 20.00    -0.205 F 
HETATM   10  F10 UNL     1     -40.782   5.418  -1.153  1.00 20.00    -0.205 F 
HETATM   11  H21 UNL     1     -42.857   8.288   1.844  1.00 20.00     0.315 HD
ENDROOT
TORSDOF 0
ENDMDL
MODEL 8
REMARK VINA RESULT:      -3.8      1.872      2.569
REMARK  0 active torsions:
REMARK  status: ('A' for Active; 'I' for Inactive)
ROOT
HETATM    1  C1  UNL     1     -24.208  17.884   9.225  1.00 20.00     0.013 C 
HETATM    2  C2  UNL     1     -24.676  19.171   9.936  1.00 20.00     0.013 C 
HETATM    3  C3  UNL     1     -24.414  16.213  11.142  1.00 20.00     0.280 C 
HETATM    4  C4  UNL     1     -25.154  18.252  12.267  1.00 20.00     0.280 C 
HETATM    5  C5  UNL     1     -23.456  17.085  10.307  1.00 20.00     0.086 C 
HETATM    6  C6  UNL     1     -24.165  19.036  11.382  1.00 20.00     0.086 C 
HETATM    7  C7  UNL     1     -22.912  18.202  11.180  1.00 20.00     0.254 C 
HETATM    8  N8  UNL     1     -25.554  16.955  11.701  1.00 20.00     0.084 N 
HETATM    9  F9  UNL     1     -22.375  17.762  12.329  1.00 20.00    -0.205 F 
HETATM   10  F10 UNL     1     -21.962  18.907  10.525  1.00 20.00    -0.205 F 
HETATM   11  H21 UNL     1     -26.226  17.125  10.951  1.00 20.00     0.315 HD
ENDROOT
TORSDOF 0
ENDMDL
MODEL 9
REMARK VINA RESULT:      -3.8     23.418     24.254
REMARK  0 active torsions:
REMARK  status: ('A' for Active; 'I' for Inactive)
ROOT
HETATM    1  C1  UNL     1     -40.670   6.519   0.965  1.00 20.00     0.013 C 
HETATM    2  C2  UNL     1     -40.872   5.814  -0.392  1.00 20.00     0.013 C 
HETATM    3  C3  UNL     1     -43.089   6.663   1.761  1.00 20.00     0.280 C 
HETATM    4  C4  UNL     1     -43.409   5.547  -0.389  1.00 20.00     0.280 C 
HETATM    5  C5  UNL     1     -41.906   7.424   1.130  1.00 20.00     0.086 C 
HETATM    6  C6  UNL     1     -42.211   6.355  -0.926  1.00 20.00     0.086 C 
HETATM    7  C7  UNL     1     -42.237   7.745  -0.317  1.00 20.00     0.254 C 
HETATM    8  N8  UNL     1     -43.417   5.404   1.075  1.00 20.00     0.084 N 
HETATM    9  F9  UNL     1     -43.417   8.368  -0.465  1.00 20.00    -0.205 F 
HETATM   10  F10 UNL     1     -41.285   8.532  -0.866  1.00 20.00    -0.205 F 
HETATM   11  H21 UNL     1     -42.719   4.706   1.334  1.00 20.00     0.315 HD
ENDROOT
TORSDOF 0
ENDMDL
