MODEL 1
REMARK VINA RESULT:      -4.8      0.000      0.000
REMARK  3 active torsions:
REMARK  status: ('A' for Active; 'I' for Inactive)
REMARK    1  A    between atoms: C3_3  and  C4_4 
REMARK    2  A    between atoms: C3_3  and  C5_5 
REMARK    3  A    between atoms: C4_4  and  O6_6 
ROOT
HETATM    1  C1  UNL     1     -35.354   6.003   4.110  1.00 20.00     0.022 A 
HETATM    2  C2  UNL     1     -33.981   5.398   4.033  1.00 20.00     0.022 A 
HETATM    3  C3  UNL     1     -34.239   6.559   4.964  1.00 20.00     0.079 A 
ENDROOT
BRANCH   3   4
HETATM    4  C4  UNL     1     -33.668   7.900   4.595  1.00 20.00     0.182 C 
BRANCH   4   5
HETATM    5  O6  UNL     1     -32.357   8.021   5.135  1.00 20.00    -0.400 OA
HETATM    6  H16 UNL     1     -32.261   8.940   5.430  1.00 20.00     0.209 HD
ENDBRANCH   4   5
ENDBRANCH   3   4
BRANCH   3   7
HETATM    7  C5  UNL     1     -34.278   6.282   6.443  1.00 20.00     0.397 C 
HETATM    8  F7  UNL     1     -33.090   5.812   6.877  1.00 20.00    -0.170 F 
HETATM    9  F8  UNL     1     -34.560   7.405   7.137  1.00 20.00    -0.170 F 
HETATM   10  F9  UNL     1     -35.222   5.363   6.737  1.00 20.00    -0.170 F 
ENDBRANCH   3   7
TORSDOF 3
ENDMDL
MODEL 2
REMARK VINA RESULT:      -4.7      1.778      2.666
REMARK  3 active torsions:
REMARK  status: ('A' for Active; 'I' for Inactive)
REMARK    1  A    between atoms: C3_3  and  C4_4 
REMARK    2  A    between atoms: C3_3  and  C5_5 
REMARK    3  A    between atoms: C4_4  and  O6_6 
ROOT
HETATM    1  C1  UNL     1     -33.270   6.222   6.585  1.00 20.00     0.022 A 
HETATM    2  C2  UNL     1     -34.668   6.761   6.694  1.00 20.00     0.022 A 
HETATM    3  C3  UNL     1     -34.003   6.664   5.340  1.00 20.00     0.079 A 
ENDROOT
BRANCH   3   4
HETATM    4  C4  UNL     1     -33.564   7.940   4.677  1.00 20.00     0.182 C 
BRANCH   4   5
HETATM    5  O6  UNL     1     -32.175   8.141   4.912  1.00 20.00    -0.400 OA
HETATM    6  H16 UNL     1     -32.039   8.053   5.868  1.00 20.00     0.209 HD
ENDBRANCH   4   5
ENDBRANCH   3   4
BRANCH   3   7
HETATM    7  C5  UNL     1     -34.486   5.600   4.392  1.00 20.00     0.397 C 
HETATM    8  F7  UNL     1     -35.786   5.787   4.080  1.00 20.00    -0.170 F 
HETATM    9  F8  UNL     1     -33.776   5.617   3.245  1.00 20.00    -0.170 F 
HETATM   10  F9  UNL     1     -34.363   4.372   4.941  1.00 20.00    -0.170 F 
ENDBRANCH   3   7
TORSDOF 3
ENDMDL
MODEL 3
REMARK VINA RESULT:      -4.6      1.631      2.406
REMARK  3 active torsions:
REMARK  status: ('A' for Active; 'I' for Inactive)
REMARK    1  A    between atoms: C3_3  and  C4_4 
REMARK    2  A    between atoms: C3_3  and  C5_5 
REMARK    3  A    between atoms: C4_4  and  O6_6 
ROOT
HETATM    1  C1  UNL     1     -33.192   7.342   5.922  1.00 20.00     0.022 A 
HETATM    2  C2  UNL     1     -34.217   8.126   5.152  1.00 20.00     0.022 A 
HETATM    3  C3  UNL     1     -33.848   6.730   4.706  1.00 20.00     0.079 A 
ENDROOT
BRANCH   3   4
HETATM    4  C4  UNL     1     -33.024   6.584   3.457  1.00 20.00     0.182 C 
BRANCH   4   5
HETATM    5  O6  UNL     1     -31.927   7.489   3.507  1.00 20.00    -0.400 OA
HETATM    6  H16 UNL     1     -32.139   8.148   4.187  1.00 20.00     0.209 HD
ENDBRANCH   4   5
ENDBRANCH   3   4
BRANCH   3   7
HETATM    7  C5  UNL     1     -34.853   5.632   4.925  1.00 20.00     0.397 C 
HETATM    8  F7  UNL     1     -35.109   5.467   6.239  1.00 20.00    -0.170 F 
HETATM    9  F8  UNL     1     -36.019   5.914   4.306  1.00 20.00    -0.170 F 
HETATM   10  F9  UNL     1     -34.398   4.458   4.439  1.00 20.00    -0.170 F 
ENDBRANCH   3   7
TORSDOF 3
ENDMDL
MODEL 4
REMARK VINA RESULT:      -4.4      2.276      2.835
REMARK  3 active torsions:
REMARK  status: ('A' for Active; 'I' for Inactive)
REMARK    1  A    between atoms: C3_3  and  C4_4 
REMARK    2  A    between atoms: C3_3  and  C5_5 
REMARK    3  A    between atoms: C4_4  and  O6_6 
ROOT
HETATM    1  C1  UNL     1     -34.316   5.135   4.239  1.00 20.00     0.022 A 
HETATM    2  C2  UNL     1     -35.484   6.080   4.233  1.00 20.00     0.022 A 
HETATM    3  C3  UNL     1     -34.243   6.424   5.023  1.00 20.00     0.079 A 
ENDROOT
BRANCH   3   4
HETATM    4  C4  UNL     1     -34.318   6.344   6.522  1.00 20.00     0.182 C 
BRANCH   4   5
HETATM    5  O6  UNL     1     -33.948   5.037   6.945  1.00 20.00    -0.400 OA
HETATM    6  H16 UNL     1     -34.772   4.571   7.160  1.00 20.00     0.209 HD
ENDBRANCH   4   5
ENDBRANCH   3   4
BRANCH   3   7
HETATM    7  C5  UNL     1     -33.355   7.520   4.498  1.00 20.00     0.397 C 
HETATM    8  F7  UNL     1     -32.650   7.099   3.428  1.00 20.00    -0.170 F 
HETATM    9  F8  UNL     1     -34.083   8.592   4.121  1.00 20.00    -0.170 F 
HETATM   10  F9  UNL     1     -32.478   7.923   5.441  1.00 20.00    -0.170 F 
ENDBRANCH   3   7
TORSDOF 3
ENDMDL
MODEL 5
REMARK VINA RESULT:      -4.4      2.130      2.857
REMARK  3 active torsions:
REMARK  status: ('A' for Active; 'I' for Inactive)
REMARK    1  A    between atoms: C3_3  and  C4_4 
REMARK    2  A    between atoms: C3_3  and  C5_5 
REMARK    3  A    between atoms: C4_4  and  O6_6 
ROOT
HETATM    1  C1  UNL     1     -33.903   8.204   4.231  1.00 20.00     0.022 A 
HETATM    2  C2  UNL     1     -32.574   7.534   4.027  1.00 20.00     0.022 A 
HETATM    3  C3  UNL     1     -33.635   6.860   4.865  1.00 20.00     0.079 A 
ENDROOT
BRANCH   3   4
HETATM    4  C4  UNL     1     -33.431   6.809   6.354  1.00 20.00     0.182 C 
BRANCH   4   5
HETATM    5  O6  UNL     1     -34.696   6.835   7.005  1.00 20.00    -0.400 OA
HETATM    6  H16 UNL     1     -34.714   6.076   7.609  1.00 20.00     0.209 HD
ENDBRANCH   4   5
ENDBRANCH   3   4
BRANCH   3   7
HETATM    7  C5  UNL     1     -34.330   5.656   4.287  1.00 20.00     0.397 C 
HETATM    8  F7  UNL     1     -35.651   5.886   4.141  1.00 20.00    -0.170 F 
HETATM    9  F8  UNL     1     -33.825   5.343   3.076  1.00 20.00    -0.170 F 
HETATM   10  F9  UNL     1     -34.181   4.582   5.091  1.00 20.00    -0.170 F 
ENDBRANCH   3   7
TORSDOF 3
ENDMDL
MODEL 6
REMARK VINA RESULT:      -4.3      2.217      2.865
REMARK  3 active torsions:
REMARK  status: ('A' for Active; 'I' for Inactive)
REMARK    1  A    between atoms: C3_3  and  C4_4 
REMARK    2  A    between atoms: C3_3  and  C5_5 
REMARK    3  A    between atoms: C4_4  and  O6_6 
ROOT
HETATM    1  C1  UNL     1     -35.489   5.995   4.457  1.00 20.00     0.022 A 
HETATM    2  C2  UNL     1     -34.793   5.503   5.694  1.00 20.00     0.022 A 
HETATM    3  C3  UNL     1     -33.981   6.020   4.530  1.00 20.00     0.079 A 
ENDROOT
BRANCH   3   4
HETATM    4  C4  UNL     1     -33.217   5.023   3.704  1.00 20.00     0.182 C 
BRANCH   4   5
HETATM    5  O6  UNL     1     -33.292   5.388   2.331  1.00 20.00    -0.400 OA
HETATM    6  H16 UNL     1     -33.616   4.609   1.853  1.00 20.00     0.209 HD
ENDBRANCH   4   5
ENDBRANCH   3   4
BRANCH   3   7
HETATM    7  C5  UNL     1     -33.304   7.356   4.680  1.00 20.00     0.397 C 
HETATM    8  F7  UNL     1     -34.136   8.360   4.332  1.00 20.00    -0.170 F 
HETATM    9  F8  UNL     1     -32.917   7.560   5.957  1.00 20.00    -0.170 F 
HETATM   10  F9  UNL     1     -32.208   7.433   3.896  1.00 20.00    -0.170 F 
ENDBRANCH   3   7
TORSDOF 3
ENDMDL
MODEL 7
REMARK VINA RESULT:      -4.3      1.414      2.080
REMARK  3 active torsions:
REMARK  status: ('A' for Active; 'I' for Inactive)
REMARK    1  A    between atoms: C3_3  and  C4_4 
REMARK    2  A    between atoms: C3_3  and  C5_5 
REMARK    3  A    between atoms: C4_4  and  O6_6 
ROOT
HETATM    1  C1  UNL     1     -32.767   7.390   4.468  1.00 20.00     0.022 A 
HETATM    2  C2  UNL     1     -34.046   8.178   4.491  1.00 20.00     0.022 A 
HETATM    3  C3  UNL     1     -34.040   6.740   4.955  1.00 20.00     0.079 A 
ENDROOT
BRANCH   3   4
HETATM    4  C4  UNL     1     -34.691   5.711   4.072  1.00 20.00     0.182 C 
BRANCH   4   5
HETATM    5  O6  UNL     1     -33.936   4.506   4.115  1.00 20.00    -0.400 OA
HETATM    6  H16 UNL     1     -33.006   4.755   3.998  1.00 20.00     0.209 HD
ENDBRANCH   4   5
ENDBRANCH   3   4
BRANCH   3   7
HETATM    7  C5  UNL     1     -34.176   6.474   6.430  1.00 20.00     0.397 C 
HETATM    8  F7  UNL     1     -33.009   6.045   6.953  1.00 20.00    -0.170 F 
HETATM    9  F8  UNL     1     -34.542   7.593   7.090  1.00 20.00    -0.170 F 
HETATM   10  F9  UNL     1     -35.111   5.528   6.665  1.00 20.00    -0.170 F 
ENDBRANCH   3   7
TORSDOF 3
ENDMDL
MODEL 8
REMARK VINA RESULT:      -4.3      2.980      3.613
REMARK  3 active torsions:
REMARK  status: ('A' for Active; 'I' for Inactive)
REMARK    1  A    between atoms: C3_3  and  C4_4 
REMARK    2  A    between atoms: C3_3  and  C5_5 
REMARK    3  A    between atoms: C4_4  and  O6_6 
ROOT
HETATM    1  C1  UNL     1     -34.374   8.019   5.491  1.00 20.00     0.022 A 
HETATM    2  C2  UNL     1     -33.267   7.238   6.142  1.00 20.00     0.022 A 
HETATM    3  C3  UNL     1     -33.560   7.045   4.672  1.00 20.00     0.079 A 
ENDROOT
BRANCH   3   4
HETATM    4  C4  UNL     1     -34.214   5.760   4.246  1.00 20.00     0.182 C 
BRANCH   4   5
HETATM    5  O6  UNL     1     -35.602   5.812   4.553  1.00 20.00    -0.400 OA
HETATM    6  H16 UNL     1     -35.681   5.686   5.512  1.00 20.00     0.209 HD
ENDBRANCH   4   5
ENDBRANCH   3   4
BRANCH   3   7
HETATM    7  C5  UNL     1     -32.579   7.608   3.678  1.00 20.00     0.397 C 
HETATM    8  F7  UNL     1     -31.399   7.887   4.270  1.00 20.00    -0.170 F 
HETATM    9  F8  UNL     1     -32.347   6.730   2.680  1.00 20.00    -0.170 F 
HETATM   10  F9  UNL     1     -33.049   8.748   3.129  1.00 20.00    -0.170 F 
ENDBRANCH   3   7
TORSDOF 3
ENDMDL
MODEL 9
REMARK VINA RESULT:      -4.2      2.621      3.127
REMARK  3 active torsions:
REMARK  status: ('A' for Active; 'I' for Inactive)
REMARK    1  A    between atoms: C3_3  and  C4_4 
REMARK    2  A    between atoms: C3_3  and  C5_5 
REMARK    3  A    between atoms: C4_4  and  O6_6 
ROOT
HETATM    1  C1  UNL     1     -34.492   5.147   5.409  1.00 20.00     0.022 A 
HETATM    2  C2  UNL     1     -35.495   5.762   4.475  1.00 20.00     0.022 A 
HETATM    3  C3  UNL     1     -34.037   6.149   4.374  1.00 20.00     0.079 A 
ENDROOT
BRANCH   3   4
HETATM    4  C4  UNL     1     -33.637   7.519   4.845  1.00 20.00     0.182 C 
BRANCH   4   5
HETATM    5  O6  UNL     1     -32.941   7.409   6.081  1.00 20.00    -0.400 OA
HETATM    6  H16 UNL     1     -33.427   7.951   6.724  1.00 20.00     0.209 HD
ENDBRANCH   4   5
ENDBRANCH   3   4
BRANCH   3   7
HETATM    7  C5  UNL     1     -33.253   5.639   3.195  1.00 20.00     0.397 C 
HETATM    8  F7  UNL     1     -32.884   4.354   3.381  1.00 20.00    -0.170 F 
HETATM    9  F8  UNL     1     -33.986   5.702   2.064  1.00 20.00    -0.170 F 
HETATM   10  F9  UNL     1     -32.133   6.370   3.008  1.00 20.00    -0.170 F 
ENDBRANCH   3   7
TORSDOF 3
ENDMDL
