MODEL 1
REMARK VINA RESULT:      -5.7      0.000      0.000
REMARK  1 active torsions:
REMARK  status: ('A' for Active; 'I' for Inactive)
REMARK    1  A    between atoms: C7_7  and  C8_8 
ROOT
HETATM    1  C1  UNL     1     -32.912   6.085   2.898  1.00 20.00     0.132 C 
HETATM    2  C2  UNL     1     -32.075   7.255   2.442  1.00 20.00     0.079 C 
HETATM    3  C3  UNL     1     -31.635   8.107   3.625  1.00 20.00     0.008 C 
HETATM    4  C4  UNL     1     -32.831   8.685   4.377  1.00 20.00     0.006 C 
HETATM    5  C5  UNL     1     -33.932   6.372   3.937  1.00 20.00     0.073 A 
HETATM    6  C6  UNL     1     -33.869   7.660   4.720  1.00 20.00     0.011 A 
HETATM    7  C7  UNL     1     -33.517   6.356   5.391  1.00 20.00     0.110 A 
HETATM    8  O9  UNL     1     -32.822   4.965   2.411  1.00 20.00    -0.298 OA
ENDROOT
BRANCH   7   9
HETATM    9  C8  UNL     1     -34.427   5.775   6.418  1.00 20.00     0.392 C 
HETATM   10  F10 UNL     1     -34.921   6.732   7.242  1.00 20.00    -0.171 F 
HETATM   11  F11 UNL     1     -35.485   5.149   5.848  1.00 20.00    -0.171 F 
HETATM   12  F12 UNL     1     -33.787   4.866   7.192  1.00 20.00    -0.171 F 
ENDBRANCH   7   9
TORSDOF 1
ENDMDL
MODEL 2
REMARK VINA RESULT:      -5.0      3.181      4.224
REMARK  1 active torsions:
REMARK  status: ('A' for Active; 'I' for Inactive)
REMARK    1  A    between atoms: C7_7  and  C8_8 
ROOT
HETATM    1  C1  UNL     1     -33.490   7.756   5.380  1.00 20.00     0.132 C 
HETATM    2  C2  UNL     1     -34.152   7.306   6.660  1.00 20.00     0.079 C 
HETATM    3  C3  UNL     1     -34.254   5.787   6.716  1.00 20.00     0.008 C 
HETATM    4  C4  UNL     1     -35.094   5.237   5.565  1.00 20.00     0.006 C 
HETATM    5  C5  UNL     1     -33.918   7.064   4.139  1.00 20.00     0.073 A 
HETATM    6  C6  UNL     1     -34.686   5.768   4.225  1.00 20.00     0.011 A 
HETATM    7  C7  UNL     1     -33.249   5.760   3.764  1.00 20.00     0.110 A 
HETATM    8  O9  UNL     1     -32.689   8.682   5.328  1.00 20.00    -0.298 OA
ENDROOT
BRANCH   7   9
HETATM    9  C8  UNL     1     -32.926   5.474   2.337  1.00 20.00     0.392 C 
HETATM   10  F10 UNL     1     -32.154   4.366   2.216  1.00 20.00    -0.171 F 
HETATM   11  F11 UNL     1     -34.047   5.268   1.605  1.00 20.00    -0.171 F 
HETATM   12  F12 UNL     1     -32.252   6.501   1.765  1.00 20.00    -0.171 F 
ENDBRANCH   7   9
TORSDOF 1
ENDMDL
MODEL 3
REMARK VINA RESULT:      -5.0     12.477     13.306
REMARK  1 active torsions:
REMARK  status: ('A' for Active; 'I' for Inactive)
REMARK    1  A    between atoms: C7_7  and  C8_8 
ROOT
HETATM    1  C1  UNL     1     -31.786  18.585  -0.626  1.00 20.00     0.132 C 
HETATM    2  C2  UNL     1     -32.517  19.263   0.507  1.00 20.00     0.079 C 
HETATM    3  C3  UNL     1     -33.892  18.643   0.719  1.00 20.00     0.008 C 
HETATM    4  C4  UNL     1     -34.769  18.784  -0.523  1.00 20.00     0.006 C 
HETATM    5  C5  UNL     1     -32.585  18.289  -1.841  1.00 20.00     0.073 A 
HETATM    6  C6  UNL     1     -34.091  18.340  -1.783  1.00 20.00     0.011 A 
HETATM    7  C7  UNL     1     -33.389  17.009  -1.890  1.00 20.00     0.110 A 
HETATM    8  O9  UNL     1     -30.586  18.339  -0.598  1.00 20.00    -0.298 OA
ENDROOT
BRANCH   7   9
HETATM    9  C8  UNL     1     -33.464  16.226  -3.156  1.00 20.00     0.392 C 
HETATM   10  F10 UNL     1     -34.143  16.899  -4.117  1.00 20.00    -0.171 F 
HETATM   11  F11 UNL     1     -32.231  15.955  -3.647  1.00 20.00    -0.171 F 
HETATM   12  F12 UNL     1     -34.095  15.041  -2.970  1.00 20.00    -0.171 F 
ENDBRANCH   7   9
TORSDOF 1
ENDMDL
MODEL 4
REMARK VINA RESULT:      -4.9      9.520     10.604
REMARK  1 active torsions:
REMARK  status: ('A' for Active; 'I' for Inactive)
REMARK    1  A    between atoms: C7_7  and  C8_8 
ROOT
HETATM    1  C1  UNL     1     -40.835  13.920   7.895  1.00 20.00     0.132 C 
HETATM    2  C2  UNL     1     -42.288  14.285   8.075  1.00 20.00     0.079 C 
HETATM    3  C3  UNL     1     -43.173  13.490   7.124  1.00 20.00     0.008 C 
HETATM    4  C4  UNL     1     -42.822  13.770   5.665  1.00 20.00     0.006 C 
HETATM    5  C5  UNL     1     -40.360  13.777   6.497  1.00 20.00     0.073 A 
HETATM    6  C6  UNL     1     -41.358  13.652   5.372  1.00 20.00     0.011 A 
HETATM    7  C7  UNL     1     -40.549  12.451   5.795  1.00 20.00     0.110 A 
HETATM    8  O9  UNL     1     -40.051  13.805   8.830  1.00 20.00    -0.298 OA
ENDROOT
BRANCH   7   9
HETATM    9  C8  UNL     1     -39.479  11.921   4.905  1.00 20.00     0.392 C 
HETATM   10  F10 UNL     1     -39.547  10.572   4.794  1.00 20.00    -0.171 F 
HETATM   11  F11 UNL     1     -39.573  12.434   3.654  1.00 20.00    -0.171 F 
HETATM   12  F12 UNL     1     -38.245  12.226   5.375  1.00 20.00    -0.171 F 
ENDBRANCH   7   9
TORSDOF 1
ENDMDL
MODEL 5
REMARK VINA RESULT:      -4.8      3.313      4.464
REMARK  1 active torsions:
REMARK  status: ('A' for Active; 'I' for Inactive)
REMARK    1  A    between atoms: C7_7  and  C8_8 
ROOT
HETATM    1  C1  UNL     1     -34.317   6.938   6.163  1.00 20.00     0.132 C 
HETATM    2  C2  UNL     1     -34.788   5.546   6.510  1.00 20.00     0.079 C 
HETATM    3  C3  UNL     1     -34.029   4.497   5.707  1.00 20.00     0.008 C 
HETATM    4  C4  UNL     1     -34.242   4.676   4.205  1.00 20.00     0.006 C 
HETATM    5  C5  UNL     1     -34.102   7.219   4.722  1.00 20.00     0.073 A 
HETATM    6  C6  UNL     1     -34.015   6.081   3.736  1.00 20.00     0.011 A 
HETATM    7  C7  UNL     1     -32.773   6.856   4.099  1.00 20.00     0.110 A 
HETATM    8  O9  UNL     1     -34.175   7.825   6.996  1.00 20.00    -0.298 OA
ENDROOT
BRANCH   7   9
HETATM    9  C8  UNL     1     -32.145   7.768   3.101  1.00 20.00     0.392 C 
HETATM   10  F10 UNL     1     -30.828   7.956   3.360  1.00 20.00    -0.171 F 
HETATM   11  F11 UNL     1     -32.243   7.273   1.844  1.00 20.00    -0.171 F 
HETATM   12  F12 UNL     1     -32.735   8.988   3.102  1.00 20.00    -0.171 F 
ENDBRANCH   7   9
TORSDOF 1
ENDMDL
MODEL 6
REMARK VINA RESULT:      -4.8      3.323      4.472
REMARK  1 active torsions:
REMARK  status: ('A' for Active; 'I' for Inactive)
REMARK    1  A    between atoms: C7_7  and  C8_8 
ROOT
HETATM    1  C1  UNL     1     -34.304   6.994   6.149  1.00 20.00     0.132 C 
HETATM    2  C2  UNL     1     -34.793   5.614   6.514  1.00 20.00     0.079 C 
HETATM    3  C3  UNL     1     -34.058   4.546   5.714  1.00 20.00     0.008 C 
HETATM    4  C4  UNL     1     -34.281   4.714   4.213  1.00 20.00     0.006 C 
HETATM    5  C5  UNL     1     -34.097   7.259   4.704  1.00 20.00     0.073 A 
HETATM    6  C6  UNL     1     -34.036   6.111   3.729  1.00 20.00     0.011 A 
HETATM    7  C7  UNL     1     -32.779   6.870   4.074  1.00 20.00     0.110 A 
HETATM    8  O9  UNL     1     -34.141   7.887   6.973  1.00 20.00    -0.298 OA
ENDROOT
BRANCH   7   9
HETATM    9  C8  UNL     1     -32.145   7.762   3.063  1.00 20.00     0.392 C 
HETATM   10  F10 UNL     1     -32.229   7.238   1.815  1.00 20.00    -0.171 F 
HETATM   11  F11 UNL     1     -32.741   8.979   3.030  1.00 20.00    -0.171 F 
HETATM   12  F12 UNL     1     -30.832   7.962   3.330  1.00 20.00    -0.171 F 
ENDBRANCH   7   9
TORSDOF 1
ENDMDL
MODEL 7
REMARK VINA RESULT:      -4.8      9.540     10.488
REMARK  1 active torsions:
REMARK  status: ('A' for Active; 'I' for Inactive)
REMARK    1  A    between atoms: C7_7  and  C8_8 
ROOT
HETATM    1  C1  UNL     1     -41.961  14.287   4.648  1.00 20.00     0.132 C 
HETATM    2  C2  UNL     1     -42.637  15.372   5.450  1.00 20.00     0.079 C 
HETATM    3  C3  UNL     1     -41.853  15.684   6.718  1.00 20.00     0.008 C 
HETATM    4  C4  UNL     1     -41.745  14.462   7.627  1.00 20.00     0.006 C 
HETATM    5  C5  UNL     1     -41.437  13.131   5.416  1.00 20.00     0.073 A 
HETATM    6  C6  UNL     1     -41.280  13.229   6.913  1.00 20.00     0.011 A 
HETATM    7  C7  UNL     1     -40.058  13.228   6.029  1.00 20.00     0.110 A 
HETATM    8  O9  UNL     1     -41.890  14.302   3.425  1.00 20.00    -0.298 OA
ENDROOT
BRANCH   7   9
HETATM    9  C8  UNL     1     -39.151  12.046   6.012  1.00 20.00     0.392 C 
HETATM   10  F10 UNL     1     -38.523  11.884   7.203  1.00 20.00    -0.171 F 
HETATM   11  F11 UNL     1     -39.830  10.902   5.755  1.00 20.00    -0.171 F 
HETATM   12  F12 UNL     1     -38.192  12.169   5.063  1.00 20.00    -0.171 F 
ENDBRANCH   7   9
TORSDOF 1
ENDMDL
MODEL 8
REMARK VINA RESULT:      -4.6      3.941      4.802
REMARK  1 active torsions:
REMARK  status: ('A' for Active; 'I' for Inactive)
REMARK    1  A    between atoms: C7_7  and  C8_8 
ROOT
HETATM    1  C1  UNL     1     -33.068   6.064   3.320  1.00 20.00     0.132 C 
HETATM    2  C2  UNL     1     -33.426   6.342   4.760  1.00 20.00     0.079 C 
HETATM    3  C3  UNL     1     -33.834   7.798   4.950  1.00 20.00     0.008 C 
HETATM    4  C4  UNL     1     -32.699   8.751   4.582  1.00 20.00     0.006 C 
HETATM    5  C5  UNL     1     -32.239   7.089   2.638  1.00 20.00     0.073 A 
HETATM    6  C6  UNL     1     -32.088   8.461   3.245  1.00 20.00     0.011 A 
HETATM    7  C7  UNL     1     -32.927   8.277   2.004  1.00 20.00     0.110 A 
HETATM    8  O9  UNL     1     -33.375   5.029   2.741  1.00 20.00    -0.298 OA
ENDROOT
BRANCH   7   9
HETATM    9  C8  UNL     1     -32.446   8.803   0.695  1.00 20.00     0.392 C 
HETATM   10  F10 UNL     1     -33.279   8.455  -0.316  1.00 20.00    -0.171 F 
HETATM   11  F11 UNL     1     -32.364  10.155   0.702  1.00 20.00    -0.171 F 
HETATM   12  F12 UNL     1     -31.216   8.324   0.389  1.00 20.00    -0.171 F 
ENDBRANCH   7   9
TORSDOF 1
ENDMDL
MODEL 9
REMARK VINA RESULT:      -4.5     13.217     14.075
REMARK  1 active torsions:
REMARK  status: ('A' for Active; 'I' for Inactive)
REMARK    1  A    between atoms: C7_7  and  C8_8 
ROOT
HETATM    1  C1  UNL     1     -35.881  15.415  -7.041  1.00 20.00     0.132 C 
HETATM    2  C2  UNL     1     -35.990  16.662  -7.885  1.00 20.00     0.079 C 
HETATM    3  C3  UNL     1     -34.847  17.624  -7.588  1.00 20.00     0.008 C 
HETATM    4  C4  UNL     1     -34.857  18.073  -6.128  1.00 20.00     0.006 C 
HETATM    5  C5  UNL     1     -35.525  15.615  -5.615  1.00 20.00     0.073 A 
HETATM    6  C6  UNL     1     -34.963  16.938  -5.157  1.00 20.00     0.011 A 
HETATM    7  C7  UNL     1     -34.064  15.728  -5.238  1.00 20.00     0.110 A 
HETATM    8  O9  UNL     1     -36.131  14.293  -7.466  1.00 20.00    -0.298 OA
ENDROOT
BRANCH   7   9
HETATM    9  C8  UNL     1     -33.567  15.084  -3.990  1.00 20.00     0.392 C 
HETATM   10  F10 UNL     1     -33.682  15.912  -2.923  1.00 20.00    -0.171 F 
HETATM   11  F11 UNL     1     -34.260  13.956  -3.702  1.00 20.00    -0.171 F 
HETATM   12  F12 UNL     1     -32.260  14.740  -4.095  1.00 20.00    -0.171 F 
ENDBRANCH   7   9
TORSDOF 1
ENDMDL
