MODEL 1
REMARK VINA RESULT:      -3.7      0.000      0.000
REMARK  0 active torsions:
REMARK  status: ('A' for Active; 'I' for Inactive)
ROOT
HETATM    1  C1  UNL     1     -26.447  -3.716  12.293  1.00 20.00     0.027 C 
HETATM    2  C2  UNL     1     -27.962  -3.906  12.327  1.00 20.00     0.027 C 
HETATM    3  C3  UNL     1     -27.663  -0.521  10.314  1.00 20.00     0.009 C 
HETATM    4  C4  UNL     1     -26.245  -1.172  12.269  1.00 20.00     0.030 C 
HETATM    5  C5  UNL     1     -26.136  -2.488  10.077  1.00 20.00     0.030 C 
HETATM    6  C6  UNL     1     -28.781  -1.490  12.332  1.00 20.00     0.030 C 
HETATM    7  C7  UNL     1     -28.673  -2.803  10.138  1.00 20.00     0.030 C 
HETATM    8  C8  UNL     1     -27.612  -0.631  11.837  1.00 20.00    -0.010 C 
HETATM    9  C9  UNL     1     -27.505  -1.912   9.701  1.00 20.00    -0.010 C 
HETATM   10  C10 UNL     1     -25.845  -2.493  11.588  1.00 20.00     0.038 C 
HETATM   11  C11 UNL     1     -28.878  -2.871  11.662  1.00 20.00     0.038 C 
HETATM   12 CL12 UNL     1     -24.039  -2.667  11.782  1.00 20.00    -0.119 Cl
HETATM   13 CL13 UNL     1     -30.575  -3.481  11.943  1.00 20.00    -0.119 Cl
ENDROOT
TORSDOF 0
ENDMDL
MODEL 2
REMARK VINA RESULT:      -3.7      0.299      3.665
REMARK  0 active torsions:
REMARK  status: ('A' for Active; 'I' for Inactive)
ROOT
HETATM    1  C1  UNL     1     -27.629  -4.014  12.317  1.00 20.00     0.027 C 
HETATM    2  C2  UNL     1     -26.157  -3.606  12.291  1.00 20.00     0.027 C 
HETATM    3  C3  UNL     1     -27.812  -0.608  10.325  1.00 20.00     0.009 C 
HETATM    4  C4  UNL     1     -28.482  -3.010  10.132  1.00 20.00     0.030 C 
HETATM    5  C5  UNL     1     -28.787  -1.740  12.332  1.00 20.00     0.030 C 
HETATM    6  C6  UNL     1     -26.016  -2.334  10.085  1.00 20.00     0.030 C 
HETATM    7  C7  UNL     1     -26.322  -1.060  12.283  1.00 20.00     0.030 C 
HETATM    8  C8  UNL     1     -27.453  -1.958   9.705  1.00 20.00    -0.010 C 
HETATM    9  C9  UNL     1     -27.752  -0.719  11.848  1.00 20.00    -0.010 C 
HETATM   10  C10 UNL     1     -28.682  -3.117  11.654  1.00 20.00     0.038 C 
HETATM   11  C11 UNL     1     -25.735  -2.306  11.596  1.00 20.00     0.038 C 
HETATM   12 CL12 UNL     1     -30.275  -3.966  11.924  1.00 20.00    -0.119 Cl
HETATM   13 CL13 UNL     1     -23.923  -2.220  11.799  1.00 20.00    -0.119 Cl
ENDROOT
TORSDOF 0
ENDMDL
MODEL 3
REMARK VINA RESULT:      -3.5     20.945     22.646
REMARK  0 active torsions:
REMARK  status: ('A' for Active; 'I' for Inactive)
ROOT
HETATM    1  C1  UNL     1     -42.163  14.954   4.942  1.00 20.00     0.027 C 
HETATM    2  C2  UNL     1     -41.384  13.642   4.858  1.00 20.00     0.027 C 
HETATM    3  C3  UNL     1     -41.580  14.164   8.768  1.00 20.00     0.009 C 
HETATM    4  C4  UNL     1     -41.224  15.978   7.082  1.00 20.00     0.030 C 
HETATM    5  C5  UNL     1     -43.417  14.662   7.145  1.00 20.00     0.030 C 
HETATM    6  C6  UNL     1     -39.915  13.786   6.939  1.00 20.00     0.030 C 
HETATM    7  C7  UNL     1     -42.109  12.470   7.005  1.00 20.00     0.030 C 
HETATM    8  C8  UNL     1     -40.555  14.835   7.854  1.00 20.00    -0.010 C 
HETATM    9  C9  UNL     1     -42.693  13.554   7.917  1.00 20.00    -0.010 C 
HETATM   10  C10 UNL     1     -42.490  15.563   6.311  1.00 20.00     0.038 C 
HETATM   11  C11 UNL     1     -40.925  12.942   6.142  1.00 20.00     0.038 C 
HETATM   12 CL12 UNL     1     -43.417  17.092   5.948  1.00 20.00    -0.119 Cl
HETATM   13 CL13 UNL     1     -40.043  11.445   5.584  1.00 20.00    -0.119 Cl
ENDROOT
TORSDOF 0
ENDMDL
MODEL 4
REMARK VINA RESULT:      -3.5     20.955     22.576
REMARK  0 active torsions:
REMARK  status: ('A' for Active; 'I' for Inactive)
ROOT
HETATM    1  C1  UNL     1     -41.385  13.657   4.858  1.00 20.00     0.027 C 
HETATM    2  C2  UNL     1     -42.163  14.969   4.944  1.00 20.00     0.027 C 
HETATM    3  C3  UNL     1     -41.578  14.179   8.769  1.00 20.00     0.009 C 
HETATM    4  C4  UNL     1     -42.108  12.485   7.006  1.00 20.00     0.030 C 
HETATM    5  C5  UNL     1     -39.914  13.800   6.939  1.00 20.00     0.030 C 
HETATM    6  C6  UNL     1     -43.417  14.677   7.147  1.00 20.00     0.030 C 
HETATM    7  C7  UNL     1     -41.222  15.993   7.083  1.00 20.00     0.030 C 
HETATM    8  C8  UNL     1     -42.692  13.569   7.918  1.00 20.00    -0.010 C 
HETATM    9  C9  UNL     1     -40.553  14.850   7.854  1.00 20.00    -0.010 C 
HETATM   10  C10 UNL     1     -40.924  12.956   6.143  1.00 20.00     0.038 C 
HETATM   11  C11 UNL     1     -42.489  15.577   6.313  1.00 20.00     0.038 C 
HETATM   12 CL12 UNL     1     -40.044  11.459   5.584  1.00 20.00    -0.119 Cl
HETATM   13 CL13 UNL     1     -43.416  17.106   5.950  1.00 20.00    -0.119 Cl
ENDROOT
TORSDOF 0
ENDMDL
MODEL 5
REMARK VINA RESULT:      -3.3     20.695     22.322
REMARK  0 active torsions:
REMARK  status: ('A' for Active; 'I' for Inactive)
ROOT
HETATM    1  C1  UNL     1     -40.547  14.462   8.288  1.00 20.00     0.027 C 
HETATM    2  C2  UNL     1     -40.000  13.297   7.465  1.00 20.00     0.027 C 
HETATM    3  C3  UNL     1     -43.417  13.999   5.615  1.00 20.00     0.009 C 
HETATM    4  C4  UNL     1     -43.065  14.099   8.090  1.00 20.00     0.030 C 
HETATM    5  C5  UNL     1     -41.879  15.746   6.531  1.00 20.00     0.030 C 
HETATM    6  C6  UNL     1     -42.149  12.145   6.718  1.00 20.00     0.030 C 
HETATM    7  C7  UNL     1     -40.967  13.792   5.157  1.00 20.00     0.030 C 
HETATM    8  C8  UNL     1     -43.277  13.168   6.890  1.00 20.00    -0.010 C 
HETATM    9  C9  UNL     1     -42.123  14.775   5.371  1.00 20.00    -0.010 C 
HETATM   10  C10 UNL     1     -41.898  15.089   7.921  1.00 20.00     0.038 C 
HETATM   11  C11 UNL     1     -40.806  12.752   6.280  1.00 20.00     0.038 C 
HETATM   12 CL12 UNL     1     -42.154  16.425   9.138  1.00 20.00    -0.119 Cl
HETATM   13 CL13 UNL     1     -39.800  11.389   5.602  1.00 20.00    -0.119 Cl
ENDROOT
TORSDOF 0
ENDMDL
MODEL 6
REMARK VINA RESULT:      -3.3     24.948     26.702
REMARK  0 active torsions:
REMARK  status: ('A' for Active; 'I' for Inactive)
ROOT
HETATM    1  C1  UNL     1     -34.066  15.678  -4.739  1.00 20.00     0.027 C 
HETATM    2  C2  UNL     1     -33.405  16.453  -3.600  1.00 20.00     0.027 C 
HETATM    3  C3  UNL     1     -35.649  19.263  -5.233  1.00 20.00     0.009 C 
HETATM    4  C4  UNL     1     -34.388  17.505  -6.490  1.00 20.00     0.030 C 
HETATM    5  C5  UNL     1     -36.314  16.870  -4.929  1.00 20.00     0.030 C 
HETATM    6  C6  UNL     1     -33.276  18.802  -4.587  1.00 20.00     0.030 C 
HETATM    7  C7  UNL     1     -35.204  18.169  -3.028  1.00 20.00     0.030 C 
HETATM    8  C8  UNL     1     -34.273  18.842  -5.750  1.00 20.00    -0.010 C 
HETATM    9  C9  UNL     1     -36.151  18.224  -4.230  1.00 20.00    -0.010 C 
HETATM   10  C10 UNL     1     -35.056  16.386  -5.671  1.00 20.00     0.038 C 
HETATM   11  C11 UNL     1     -33.727  17.938  -3.397  1.00 20.00     0.038 C 
HETATM   12 CL12 UNL     1     -35.596  15.109  -6.858  1.00 20.00    -0.119 Cl
HETATM   13 CL13 UNL     1     -32.732  18.453  -1.958  1.00 20.00    -0.119 Cl
ENDROOT
TORSDOF 0
ENDMDL
MODEL 7
REMARK VINA RESULT:      -3.3     21.490     22.699
REMARK  0 active torsions:
REMARK  status: ('A' for Active; 'I' for Inactive)
ROOT
HETATM    1  C1  UNL     1     -43.079  13.177   8.619  1.00 20.00     0.027 C 
HETATM    2  C2  UNL     1     -42.587  13.048   7.178  1.00 20.00     0.027 C 
HETATM    3  C3  UNL     1     -40.734  16.342   8.326  1.00 20.00     0.009 C 
HETATM    4  C4  UNL     1     -43.074  15.708   8.944  1.00 20.00     0.030 C 
HETATM    5  C5  UNL     1     -41.085  14.308   9.740  1.00 20.00     0.030 C 
HETATM    6  C6  UNL     1     -42.257  15.494   6.530  1.00 20.00     0.030 C 
HETATM    7  C7  UNL     1     -40.266  14.097   7.327  1.00 20.00     0.030 C 
HETATM    8  C8  UNL     1     -42.182  16.286   7.840  1.00 20.00    -0.010 C 
HETATM    9  C9  UNL     1     -40.244  14.924   8.617  1.00 20.00    -0.010 C 
HETATM   10  C10 UNL     1     -42.602  14.348   9.488  1.00 20.00     0.038 C 
HETATM   11  C11 UNL     1     -41.624  14.093   6.603  1.00 20.00     0.038 C 
HETATM   12 CL12 UNL     1     -43.417  14.109  11.104  1.00 20.00    -0.119 Cl
HETATM   13 CL13 UNL     1     -41.310  13.562   4.886  1.00 20.00    -0.119 Cl
ENDROOT
TORSDOF 0
ENDMDL
MODEL 8
REMARK VINA RESULT:      -3.3     21.386     22.565
REMARK  0 active torsions:
REMARK  status: ('A' for Active; 'I' for Inactive)
ROOT
HETATM    1  C1  UNL     1     -42.479  12.887   7.134  1.00 20.00     0.027 C 
HETATM    2  C2  UNL     1     -43.000  13.103   8.553  1.00 20.00     0.027 C 
HETATM    3  C3  UNL     1     -40.771  16.325   8.061  1.00 20.00     0.009 C 
HETATM    4  C4  UNL     1     -40.201  14.032   7.239  1.00 20.00     0.030 C 
HETATM    5  C5  UNL     1     -42.227  15.289   6.311  1.00 20.00     0.030 C 
HETATM    6  C6  UNL     1     -41.071  14.388   9.617  1.00 20.00     0.030 C 
HETATM    7  C7  UNL     1     -43.096  15.649   8.689  1.00 20.00     0.030 C 
HETATM    8  C8  UNL     1     -40.233  14.952   8.464  1.00 20.00    -0.010 C 
HETATM    9  C9  UNL     1     -42.207  16.178   7.559  1.00 20.00    -0.010 C 
HETATM   10  C10 UNL     1     -41.545  13.923   6.496  1.00 20.00     0.038 C 
HETATM   11  C11 UNL     1     -42.583  14.351   9.340  1.00 20.00     0.038 C 
HETATM   12 CL12 UNL     1     -41.180  13.280   4.828  1.00 20.00    -0.119 Cl
HETATM   13 CL13 UNL     1     -43.417  14.201  10.956  1.00 20.00    -0.119 Cl
ENDROOT
TORSDOF 0
ENDMDL
MODEL 9
REMARK VINA RESULT:      -3.2     21.053     22.652
REMARK  0 active torsions:
REMARK  status: ('A' for Active; 'I' for Inactive)
ROOT
HETATM    1  C1  UNL     1     -41.909  15.951   5.783  1.00 20.00     0.027 C 
HETATM    2  C2  UNL     1     -41.183  15.993   7.127  1.00 20.00     0.027 C 
HETATM    3  C3  UNL     1     -41.803  12.114   6.715  1.00 20.00     0.009 C 
HETATM    4  C4  UNL     1     -43.417  13.914   6.072  1.00 20.00     0.030 C 
HETATM    5  C5  UNL     1     -41.168  13.685   4.874  1.00 20.00     0.030 C 
HETATM    6  C6  UNL     1     -42.208  13.987   8.325  1.00 20.00     0.030 C 
HETATM    7  C7  UNL     1     -39.959  13.754   7.126  1.00 20.00     0.030 C 
HETATM    8  C8  UNL     1     -42.839  13.107   7.240  1.00 20.00    -0.010 C 
HETATM    9  C9  UNL     1     -40.648  12.882   6.071  1.00 20.00    -0.010 C 
HETATM   10  C10 UNL     1     -42.357  14.606   5.198  1.00 20.00     0.038 C 
HETATM   11  C11 UNL     1     -40.911  14.691   7.891  1.00 20.00     0.038 C 
HETATM   12 CL12 UNL     1     -43.160  15.017   3.611  1.00 20.00    -0.119 Cl
HETATM   13 CL13 UNL     1     -40.047  15.200   9.415  1.00 20.00    -0.119 Cl
ENDROOT
TORSDOF 0
ENDMDL
