MODEL 1
REMARK VINA RESULT:      -4.0      0.000      0.000
REMARK  3 active torsions:
REMARK  status: ('A' for Active; 'I' for Inactive)
REMARK    1  A    between atoms: C1_1  and  C4_4 
REMARK       I    between atoms: C1_1  and  N10_10 
REMARK    2  A    between atoms: C8_8  and  C9_9 
REMARK    3  A    between atoms: C9_9  and  N10_10 
ROOT
HETATM    1  C1  UNL     1     -40.719  12.511   6.489  1.00 20.00     0.222 C 
HETATM    2  N10 UNL     1     -40.238  13.769   6.780  1.00 20.00    -0.352 N 
HETATM    3  O11 UNL     1     -41.859  12.103   6.669  1.00 20.00    -0.273 OA
HETATM    4  H28 UNL     1     -39.268  13.975   6.578  1.00 20.00     0.163 HD
ENDROOT
BRANCH   2   5
HETATM    5  C9  UNL     1     -41.063  14.813   7.363  1.00 20.00     0.025 C 
HETATM    6  C6  UNL     1     -40.192  16.064   7.557  1.00 20.00     0.038 C 
HETATM    7  C7  UNL     1     -42.209  15.151   6.398  1.00 20.00     0.038 C 
BRANCH   5   8
HETATM    8  C8  UNL     1     -41.598  14.360   8.742  1.00 20.00     0.026 C 
HETATM    9  C5  UNL     1     -40.565  14.353   9.863  1.00 20.00     0.007 C 
ENDBRANCH   5   8
ENDBRANCH   2   5
BRANCH   1  10
HETATM   10  C4  UNL     1     -39.696  11.599   5.893  1.00 20.00     0.078 A 
HETATM   11  C2  UNL     1     -39.310  11.799   4.466  1.00 20.00     0.015 A 
HETATM   12  C3  UNL     1     -38.352  12.158   5.563  1.00 20.00     0.015 A 
ENDBRANCH   1  10
TORSDOF 3
ENDMDL
MODEL 2
REMARK VINA RESULT:      -4.0     11.180     12.495
REMARK  3 active torsions:
REMARK  status: ('A' for Active; 'I' for Inactive)
REMARK    1  A    between atoms: C1_1  and  C4_4 
REMARK       I    between atoms: C1_1  and  N10_10 
REMARK    2  A    between atoms: C8_8  and  C9_9 
REMARK    3  A    between atoms: C9_9  and  N10_10 
ROOT
HETATM    1  C1  UNL     1     -33.478  16.597  -3.426  1.00 20.00     0.222 C 
HETATM    2  N10 UNL     1     -33.571  16.679  -2.054  1.00 20.00    -0.352 N 
HETATM    3  O11 UNL     1     -33.477  17.533  -4.216  1.00 20.00    -0.273 OA
HETATM    4  H28 UNL     1     -33.558  15.821  -1.516  1.00 20.00     0.163 HD
ENDROOT
BRANCH   2   5
HETATM    5  C9  UNL     1     -33.684  17.942  -1.344  1.00 20.00     0.025 C 
HETATM    6  C6  UNL     1     -34.872  18.720  -1.931  1.00 20.00     0.038 C 
HETATM    7  C7  UNL     1     -33.956  17.666   0.141  1.00 20.00     0.038 C 
BRANCH   5   8
HETATM    8  C8  UNL     1     -32.396  18.778  -1.540  1.00 20.00     0.026 C 
HETATM    9  C5  UNL     1     -31.344  18.604  -0.452  1.00 20.00     0.007 C 
ENDBRANCH   5   8
ENDBRANCH   2   5
BRANCH   1  10
HETATM   10  C4  UNL     1     -33.367  15.199  -3.939  1.00 20.00     0.078 A 
HETATM   11  C2  UNL     1     -34.622  14.448  -4.233  1.00 20.00     0.015 A 
HETATM   12  C3  UNL     1     -33.753  14.929  -5.356  1.00 20.00     0.015 A 
ENDBRANCH   1  10
TORSDOF 3
ENDMDL
MODEL 3
REMARK VINA RESULT:      -3.9     11.870     13.793
REMARK  3 active torsions:
REMARK  status: ('A' for Active; 'I' for Inactive)
REMARK    1  A    between atoms: C1_1  and  C4_4 
REMARK       I    between atoms: C1_1  and  N10_10 
REMARK    2  A    between atoms: C8_8  and  C9_9 
REMARK    3  A    between atoms: C9_9  and  N10_10 
ROOT
HETATM    1  C1  UNL     1     -33.797  16.774  -3.628  1.00 20.00     0.222 C 
HETATM    2  N10 UNL     1     -34.473  15.617  -3.949  1.00 20.00    -0.352 N 
HETATM    3  O11 UNL     1     -33.615  17.742  -4.355  1.00 20.00    -0.273 OA
HETATM    4  H28 UNL     1     -34.550  14.891  -3.248  1.00 20.00     0.163 HD
ENDROOT
BRANCH   2   5
HETATM    5  C9  UNL     1     -35.082  15.396  -5.250  1.00 20.00     0.025 C 
HETATM    6  C6  UNL     1     -35.973  14.147  -5.159  1.00 20.00     0.038 C 
HETATM    7  C7  UNL     1     -35.956  16.604  -5.613  1.00 20.00     0.038 C 
BRANCH   5   8
HETATM    8  C8  UNL     1     -33.986  15.148  -6.314  1.00 20.00     0.026 C 
HETATM    9  C5  UNL     1     -34.186  15.891  -7.630  1.00 20.00     0.007 C 
ENDBRANCH   5   8
ENDBRANCH   2   5
BRANCH   1  10
HETATM   10  C4  UNL     1     -33.256  16.786  -2.235  1.00 20.00     0.078 A 
HETATM   11  C2  UNL     1     -32.562  18.016  -1.752  1.00 20.00     0.015 A 
HETATM   12  C3  UNL     1     -33.919  17.660  -1.223  1.00 20.00     0.015 A 
ENDBRANCH   1  10
TORSDOF 3
ENDMDL
MODEL 4
REMARK VINA RESULT:      -3.9      9.625     10.668
REMARK  3 active torsions:
REMARK  status: ('A' for Active; 'I' for Inactive)
REMARK    1  A    between atoms: C1_1  and  C4_4 
REMARK       I    between atoms: C1_1  and  N10_10 
REMARK    2  A    between atoms: C8_8  and  C9_9 
REMARK    3  A    between atoms: C9_9  and  N10_10 
ROOT
HETATM    1  C1  UNL     1     -32.841   6.337   3.084  1.00 20.00     0.222 C 
HETATM    2  N10 UNL     1     -33.558   6.630   4.224  1.00 20.00    -0.352 N 
HETATM    3  O11 UNL     1     -32.875   5.292   2.447  1.00 20.00    -0.273 OA
HETATM    4  H28 UNL     1     -33.435   7.538   4.653  1.00 20.00     0.163 HD
ENDROOT
BRANCH   2   5
HETATM    5  C9  UNL     1     -34.485   5.692   4.836  1.00 20.00     0.025 C 
HETATM    6  C6  UNL     1     -35.857   5.866   4.167  1.00 20.00     0.038 C 
HETATM    7  C7  UNL     1     -33.990   4.260   4.592  1.00 20.00     0.038 C 
BRANCH   5   8
HETATM    8  C8  UNL     1     -34.625   5.994   6.347  1.00 20.00     0.026 C 
HETATM    9  C5  UNL     1     -34.047   7.332   6.793  1.00 20.00     0.007 C 
ENDBRANCH   5   8
ENDBRANCH   2   5
BRANCH   1  10
HETATM   10  C4  UNL     1     -31.952   7.448   2.631  1.00 20.00     0.078 A 
HETATM   11  C2  UNL     1     -32.384   8.274   1.466  1.00 20.00     0.015 A 
HETATM   12  C3  UNL     1     -32.404   8.854   2.849  1.00 20.00     0.015 A 
ENDBRANCH   1  10
TORSDOF 3
ENDMDL
MODEL 5
REMARK VINA RESULT:      -3.9      0.907      2.004
REMARK  3 active torsions:
REMARK  status: ('A' for Active; 'I' for Inactive)
REMARK    1  A    between atoms: C1_1  and  C4_4 
REMARK       I    between atoms: C1_1  and  N10_10 
REMARK    2  A    between atoms: C8_8  and  C9_9 
REMARK    3  A    between atoms: C9_9  and  N10_10 
ROOT
HETATM    1  C1  UNL     1     -40.574  12.966   6.359  1.00 20.00     0.222 C 
HETATM    2  N10 UNL     1     -40.137  13.548   7.528  1.00 20.00    -0.352 N 
HETATM    3  O11 UNL     1     -41.549  13.296   5.696  1.00 20.00    -0.273 OA
HETATM    4  H28 UNL     1     -39.310  13.174   7.976  1.00 20.00     0.163 HD
ENDROOT
BRANCH   2   5
HETATM    5  C9  UNL     1     -40.810  14.679   8.146  1.00 20.00     0.025 C 
HETATM    6  C6  UNL     1     -42.250  14.258   8.480  1.00 20.00     0.038 C 
HETATM    7  C7  UNL     1     -40.087  15.049   9.448  1.00 20.00     0.038 C 
BRANCH   5   8
HETATM    8  C8  UNL     1     -40.855  15.872   7.162  1.00 20.00     0.026 C 
HETATM    9  C5  UNL     1     -40.740  17.247   7.809  1.00 20.00     0.007 C 
ENDBRANCH   5   8
ENDBRANCH   2   5
BRANCH   1  10
HETATM   10  C4  UNL     1     -39.729  11.820   5.905  1.00 20.00     0.078 A 
HETATM   11  C2  UNL     1     -39.318  11.763   4.472  1.00 20.00     0.015 A 
HETATM   12  C3  UNL     1     -38.309  12.089   5.532  1.00 20.00     0.015 A 
ENDBRANCH   1  10
TORSDOF 3
ENDMDL
MODEL 6
REMARK VINA RESULT:      -3.9     12.243     13.366
REMARK  3 active torsions:
REMARK  status: ('A' for Active; 'I' for Inactive)
REMARK    1  A    between atoms: C1_1  and  C4_4 
REMARK       I    between atoms: C1_1  and  N10_10 
REMARK    2  A    between atoms: C8_8  and  C9_9 
REMARK    3  A    between atoms: C9_9  and  N10_10 
ROOT
HETATM    1  C1  UNL     1     -33.756  15.349  -4.097  1.00 20.00     0.222 C 
HETATM    2  N10 UNL     1     -34.916  15.939  -4.549  1.00 20.00    -0.352 N 
HETATM    3  O11 UNL     1     -33.369  14.213  -4.341  1.00 20.00    -0.273 OA
HETATM    4  H28 UNL     1     -35.115  16.892  -4.269  1.00 20.00     0.163 HD
ENDROOT
BRANCH   2   5
HETATM    5  C9  UNL     1     -35.865  15.256  -5.413  1.00 20.00     0.025 C 
HETATM    6  C6  UNL     1     -35.222  15.091  -6.799  1.00 20.00     0.038 C 
HETATM    7  C7  UNL     1     -36.163  13.865  -4.835  1.00 20.00     0.038 C 
BRANCH   5   8
HETATM    8  C8  UNL     1     -37.153  16.099  -5.558  1.00 20.00     0.026 C 
HETATM    9  C5  UNL     1     -37.101  17.475  -4.903  1.00 20.00     0.007 C 
ENDBRANCH   5   8
ENDBRANCH   2   5
BRANCH   1  10
HETATM   10  C4  UNL     1     -32.930  16.237  -3.224  1.00 20.00     0.078 A 
HETATM   11  C2  UNL     1     -33.225  17.699  -3.215  1.00 20.00     0.015 A 
HETATM   12  C3  UNL     1     -33.573  16.854  -2.027  1.00 20.00     0.015 A 
ENDBRANCH   1  10
TORSDOF 3
ENDMDL
MODEL 7
REMARK VINA RESULT:      -3.8      1.621      2.187
REMARK  3 active torsions:
REMARK  status: ('A' for Active; 'I' for Inactive)
REMARK    1  A    between atoms: C1_1  and  C4_4 
REMARK       I    between atoms: C1_1  and  N10_10 
REMARK    2  A    between atoms: C8_8  and  C9_9 
REMARK    3  A    between atoms: C9_9  and  N10_10 
ROOT
HETATM    1  C1  UNL     1     -40.621  12.637   6.192  1.00 20.00     0.222 C 
HETATM    2  N10 UNL     1     -41.167  13.378   5.167  1.00 20.00    -0.352 N 
HETATM    3  O11 UNL     1     -40.871  12.743   7.386  1.00 20.00    -0.273 OA
HETATM    4  H28 UNL     1     -40.870  13.185   4.218  1.00 20.00     0.163 HD
ENDROOT
BRANCH   2   5
HETATM    5  C9  UNL     1     -42.153  14.424   5.387  1.00 20.00     0.025 C 
HETATM    6  C6  UNL     1     -42.510  15.043   4.027  1.00 20.00     0.038 C 
HETATM    7  C7  UNL     1     -43.417  13.806   6.000  1.00 20.00     0.038 C 
BRANCH   5   8
HETATM    8  C8  UNL     1     -41.561  15.526   6.297  1.00 20.00     0.026 C 
HETATM    9  C5  UNL     1     -42.458  15.960   7.451  1.00 20.00     0.007 C 
ENDBRANCH   5   8
ENDBRANCH   2   5
BRANCH   1  10
HETATM   10  C4  UNL     1     -39.631  11.616   5.734  1.00 20.00     0.078 A 
HETATM   11  C2  UNL     1     -39.136  11.685   4.329  1.00 20.00     0.015 A 
HETATM   12  C3  UNL     1     -38.230  12.055   5.466  1.00 20.00     0.015 A 
ENDBRANCH   1  10
TORSDOF 3
ENDMDL
MODEL 8
REMARK VINA RESULT:      -3.8     12.092     12.925
REMARK  3 active torsions:
REMARK  status: ('A' for Active; 'I' for Inactive)
REMARK    1  A    between atoms: C1_1  and  C4_4 
REMARK       I    between atoms: C1_1  and  N10_10 
REMARK    2  A    between atoms: C8_8  and  C9_9 
REMARK    3  A    between atoms: C9_9  and  N10_10 
ROOT
HETATM    1  C1  UNL     1     -33.847  15.702  -4.165  1.00 20.00     0.222 C 
HETATM    2  N10 UNL     1     -34.662  16.749  -3.794  1.00 20.00    -0.352 N 
HETATM    3  O11 UNL     1     -32.680  15.530  -3.835  1.00 20.00    -0.273 OA
HETATM    4  H28 UNL     1     -35.613  16.768  -4.141  1.00 20.00     0.163 HD
ENDROOT
BRANCH   2   5
HETATM    5  C9  UNL     1     -34.218  17.826  -2.925  1.00 20.00     0.025 C 
HETATM    6  C6  UNL     1     -33.166  18.652  -3.682  1.00 20.00     0.038 C 
HETATM    7  C7  UNL     1     -35.411  18.730  -2.588  1.00 20.00     0.038 C 
BRANCH   5   8
HETATM    8  C8  UNL     1     -33.568  17.242  -1.648  1.00 20.00     0.026 C 
HETATM    9  C5  UNL     1     -32.412  18.059  -1.082  1.00 20.00     0.007 C 
ENDBRANCH   5   8
ENDBRANCH   2   5
BRANCH   1  10
HETATM   10  C4  UNL     1     -34.513  14.709  -5.061  1.00 20.00     0.078 A 
HETATM   11  C2  UNL     1     -35.913  14.976  -5.502  1.00 20.00     0.015 A 
HETATM   12  C3  UNL     1     -34.780  15.096  -6.477  1.00 20.00     0.015 A 
ENDBRANCH   1  10
TORSDOF 3
ENDMDL
MODEL 9
REMARK VINA RESULT:      -3.8     11.381     12.416
REMARK  3 active torsions:
REMARK  status: ('A' for Active; 'I' for Inactive)
REMARK    1  A    between atoms: C1_1  and  C4_4 
REMARK       I    between atoms: C1_1  and  N10_10 
REMARK    2  A    between atoms: C8_8  and  C9_9 
REMARK    3  A    between atoms: C9_9  and  N10_10 
ROOT
HETATM    1  C1  UNL     1     -33.056  18.503   0.275  1.00 20.00     0.222 C 
HETATM    2  N10 UNL     1     -32.726  18.746  -1.040  1.00 20.00    -0.352 N 
HETATM    3  O11 UNL     1     -34.017  17.863   0.683  1.00 20.00    -0.273 OA
HETATM    4  H28 UNL     1     -31.898  19.293  -1.238  1.00 20.00     0.163 HD
ENDROOT
BRANCH   2   5
HETATM    5  C9  UNL     1     -33.514  18.248  -2.156  1.00 20.00     0.025 C 
HETATM    6  C6  UNL     1     -34.960  18.737  -1.980  1.00 20.00     0.038 C 
HETATM    7  C7  UNL     1     -32.953  18.818  -3.466  1.00 20.00     0.038 C 
BRANCH   5   8
HETATM    8  C8  UNL     1     -33.509  16.701  -2.161  1.00 20.00     0.026 C 
HETATM    9  C5  UNL     1     -33.255  16.062  -3.521  1.00 20.00     0.007 C 
ENDBRANCH   5   8
ENDBRANCH   2   5
BRANCH   1  10
HETATM   10  C4  UNL     1     -32.104  19.107   1.255  1.00 20.00     0.078 A 
HETATM   11  C2  UNL     1     -31.065  18.232   1.871  1.00 20.00     0.015 A 
HETATM   12  C3  UNL     1     -30.675  19.263   0.855  1.00 20.00     0.015 A 
ENDBRANCH   1  10
TORSDOF 3
ENDMDL
