MODEL 1
REMARK VINA RESULT:      -4.8      0.000      0.000
REMARK  1 active torsions:
REMARK  status: ('A' for Active; 'I' for Inactive)
REMARK    1  A    between atoms: C7_7  and  C8_8 
ROOT
HETATM    1  C1  UNL     1     -34.433   4.779   6.123  1.00 20.00     0.005 C 
HETATM    2  C2  UNL     1     -33.843   4.515   4.730  1.00 20.00     0.005 C 
HETATM    3  C3  UNL     1     -35.411   6.285   4.561  1.00 20.00     0.010 C 
HETATM    4  C4  UNL     1     -33.738   7.187   5.991  1.00 20.00     0.010 C 
HETATM    5  C5  UNL     1     -34.942   6.227   6.013  1.00 20.00    -0.014 C 
HETATM    6  C6  UNL     1     -34.052   5.857   4.006  1.00 20.00    -0.009 C 
HETATM    7  C7  UNL     1     -33.086   6.896   4.622  1.00 20.00     0.004 C 
ENDROOT
BRANCH   7   8
HETATM    8  C8  UNL     1     -32.946   8.154   3.771  1.00 20.00     0.119 C 
HETATM    9 CL9  UNL     1     -32.187   7.761   2.218  1.00 20.00    -0.130 Cl
ENDBRANCH   7   8
TORSDOF 1
ENDMDL
MODEL 2
REMARK VINA RESULT:      -4.5      1.344      1.478
REMARK  1 active torsions:
REMARK  status: ('A' for Active; 'I' for Inactive)
REMARK    1  A    between atoms: C7_7  and  C8_8 
ROOT
HETATM    1  C1  UNL     1     -34.078   4.203   4.809  1.00 20.00     0.005 C 
HETATM    2  C2  UNL     1     -33.504   5.040   3.656  1.00 20.00     0.005 C 
HETATM    3  C3  UNL     1     -35.470   6.101   4.451  1.00 20.00     0.010 C 
HETATM    4  C4  UNL     1     -34.013   6.199   6.328  1.00 20.00     0.010 C 
HETATM    5  C5  UNL     1     -34.936   5.221   5.580  1.00 20.00    -0.014 C 
HETATM    6  C6  UNL     1     -34.073   6.443   3.931  1.00 20.00    -0.009 C 
HETATM    7  C7  UNL     1     -33.369   7.014   5.185  1.00 20.00     0.004 C 
ENDROOT
BRANCH   7   8
HETATM    8  C8  UNL     1     -33.586   8.515   5.354  1.00 20.00     0.119 C 
HETATM    9 CL9  UNL     1     -32.130   9.402   4.868  1.00 20.00    -0.130 Cl
ENDBRANCH   7   8
TORSDOF 1
ENDMDL
MODEL 3
REMARK VINA RESULT:      -4.4      0.920      1.463
REMARK  1 active torsions:
REMARK  status: ('A' for Active; 'I' for Inactive)
REMARK    1  A    between atoms: C7_7  and  C8_8 
ROOT
HETATM    1  C1  UNL     1     -34.488   6.357   6.557  1.00 20.00     0.005 C 
HETATM    2  C2  UNL     1     -34.359   4.918   6.033  1.00 20.00     0.005 C 
HETATM    3  C3  UNL     1     -35.462   6.224   4.389  1.00 20.00     0.010 C 
HETATM    4  C4  UNL     1     -33.313   7.233   4.520  1.00 20.00     0.010 C 
HETATM    5  C5  UNL     1     -34.657   7.179   5.268  1.00 20.00    -0.014 C 
HETATM    6  C6  UNL     1     -34.432   5.099   4.506  1.00 20.00    -0.009 C 
HETATM    7  C7  UNL     1     -33.124   5.780   4.035  1.00 20.00     0.004 C 
ENDROOT
BRANCH   7   8
HETATM    8  C8  UNL     1     -32.924   5.696   2.525  1.00 20.00     0.119 C 
HETATM    9 CL9  UNL     1     -32.265   7.223   1.910  1.00 20.00    -0.130 Cl
ENDBRANCH   7   8
TORSDOF 1
ENDMDL
MODEL 4
REMARK VINA RESULT:      -4.1     15.872     16.860
REMARK  1 active torsions:
REMARK  status: ('A' for Active; 'I' for Inactive)
REMARK    1  A    between atoms: C7_7  and  C8_8 
ROOT
HETATM    1  C1  UNL     1     -24.014  18.498  12.332  1.00 20.00     0.005 C 
HETATM    2  C2  UNL     1     -22.546  18.420  11.884  1.00 20.00     0.005 C 
HETATM    3  C3  UNL     1     -23.827  16.950  10.533  1.00 20.00     0.010 C 
HETATM    4  C4  UNL     1     -24.724  19.087   9.999  1.00 20.00     0.010 C 
HETATM    5  C5  UNL     1     -24.779  18.005  11.092  1.00 20.00    -0.014 C 
HETATM    6  C6  UNL     1     -22.655  17.928  10.430  1.00 20.00    -0.009 C 
HETATM    7  C7  UNL     1     -23.240  19.076   9.572  1.00 20.00     0.004 C 
ENDROOT
BRANCH   7   8
HETATM    8  C8  UNL     1     -23.072  18.841   8.074  1.00 20.00     0.119 C 
HETATM    9 CL9  UNL     1     -21.643  17.837   7.768  1.00 20.00    -0.130 Cl
ENDBRANCH   7   8
TORSDOF 1
ENDMDL
MODEL 5
REMARK VINA RESULT:      -3.6     16.069     17.013
REMARK  1 active torsions:
REMARK  status: ('A' for Active; 'I' for Inactive)
REMARK    1  A    between atoms: C7_7  and  C8_8 
ROOT
HETATM    1  C1  UNL     1     -22.356  19.263   9.023  1.00 20.00     0.005 C 
HETATM    2  C2  UNL     1     -23.884  19.175   8.889  1.00 20.00     0.005 C 
HETATM    3  C3  UNL     1     -23.069  17.075   9.630  1.00 20.00     0.010 C 
HETATM    4  C4  UNL     1     -22.495  18.532  11.419  1.00 20.00     0.010 C 
HETATM    5  C5  UNL     1     -22.030  18.128  10.008  1.00 20.00    -0.014 C 
HETATM    6  C6  UNL     1     -24.248  18.025   9.845  1.00 20.00    -0.009 C 
HETATM    7  C7  UNL     1     -24.034  18.515  11.297  1.00 20.00     0.004 C 
ENDROOT
BRANCH   7   8
HETATM    8  C8  UNL     1     -24.685  17.603  12.332  1.00 20.00     0.119 C 
HETATM    9 CL9  UNL     1     -26.446  17.803  12.303  1.00 20.00    -0.130 Cl
ENDBRANCH   7   8
TORSDOF 1
ENDMDL
MODEL 6
REMARK VINA RESULT:      -3.5      8.577      9.984
REMARK  1 active torsions:
REMARK  status: ('A' for Active; 'I' for Inactive)
REMARK    1  A    between atoms: C7_7  and  C8_8 
ROOT
HETATM    1  C1  UNL     1     -40.708   7.683  -0.391  1.00 20.00     0.005 C 
HETATM    2  C2  UNL     1     -40.753   7.665   1.145  1.00 20.00     0.005 C 
HETATM    3  C3  UNL     1     -42.976   7.785   0.326  1.00 20.00     0.010 C 
HETATM    4  C4  UNL     1     -42.219   5.682  -0.486  1.00 20.00     0.010 C 
HETATM    5  C5  UNL     1     -42.111   7.189  -0.783  1.00 20.00    -0.014 C 
HETATM    6  C6  UNL     1     -42.164   7.126   1.442  1.00 20.00    -0.009 C 
HETATM    7  C7  UNL     1     -42.202   5.628   1.056  1.00 20.00     0.004 C 
ENDROOT
BRANCH   7   8
HETATM    8  C8  UNL     1     -43.417   4.901   1.622  1.00 20.00     0.119 C 
HETATM    9 CL9  UNL     1     -43.412   3.205   1.105  1.00 20.00    -0.130 Cl
ENDBRANCH   7   8
TORSDOF 1
ENDMDL
MODEL 7
REMARK VINA RESULT:      -3.5     12.762     13.570
REMARK  1 active torsions:
REMARK  status: ('A' for Active; 'I' for Inactive)
REMARK    1  A    between atoms: C7_7  and  C8_8 
ROOT
HETATM    1  C1  UNL     1     -34.390  17.695  -3.122  1.00 20.00     0.005 C 
HETATM    2  C2  UNL     1     -33.326  16.800  -2.469  1.00 20.00     0.005 C 
HETATM    3  C3  UNL     1     -32.630  19.059  -2.279  1.00 20.00     0.010 C 
HETATM    4  C4  UNL     1     -34.632  19.006  -0.997  1.00 20.00     0.010 C 
HETATM    5  C5  UNL     1     -34.147  19.060  -2.456  1.00 20.00    -0.014 C 
HETATM    6  C6  UNL     1     -32.631  17.753  -1.481  1.00 20.00    -0.009 C 
HETATM    7  C7  UNL     1     -33.615  18.057  -0.326  1.00 20.00     0.004 C 
ENDROOT
BRANCH   7   8
HETATM    8  C8  UNL     1     -32.935  18.698   0.879  1.00 20.00     0.119 C 
HETATM    9 CL9  UNL     1     -31.193  18.372   0.844  1.00 20.00    -0.130 Cl
ENDBRANCH   7   8
TORSDOF 1
ENDMDL
MODEL 8
REMARK VINA RESULT:      -3.4      9.490     10.432
REMARK  1 active torsions:
REMARK  status: ('A' for Active; 'I' for Inactive)
REMARK    1  A    between atoms: C7_7  and  C8_8 
ROOT
HETATM    1  C1  UNL     1     -42.195  15.227   6.438  1.00 20.00     0.005 C 
HETATM    2  C2  UNL     1     -41.161  14.821   7.499  1.00 20.00     0.005 C 
HETATM    3  C3  UNL     1     -42.381  12.891   6.858  1.00 20.00     0.010 C 
HETATM    4  C4  UNL     1     -41.277  13.518   4.847  1.00 20.00     0.010 C 
HETATM    5  C5  UNL     1     -42.488  13.900   5.717  1.00 20.00    -0.014 C 
HETATM    6  C6  UNL     1     -40.960  13.319   7.228  1.00 20.00    -0.009 C 
HETATM    7  C7  UNL     1     -40.195  13.165   5.891  1.00 20.00     0.004 C 
ENDROOT
BRANCH   7   8
HETATM    8  C8  UNL     1     -39.633  11.762   5.688  1.00 20.00     0.119 C 
HETATM    9 CL9  UNL     1     -38.991  11.591   4.045  1.00 20.00    -0.130 Cl
ENDBRANCH   7   8
TORSDOF 1
ENDMDL
MODEL 9
REMARK VINA RESULT:      -3.3     12.736     13.779
REMARK  1 active torsions:
REMARK  status: ('A' for Active; 'I' for Inactive)
REMARK    1  A    between atoms: C7_7  and  C8_8 
ROOT
HETATM    1  C1  UNL     1     -32.549  19.234  -1.799  1.00 20.00     0.005 C 
HETATM    2  C2  UNL     1     -32.531  17.775  -1.319  1.00 20.00     0.005 C 
HETATM    3  C3  UNL     1     -34.709  18.282  -2.110  1.00 20.00     0.010 C 
HETATM    4  C4  UNL     1     -33.365  18.510  -4.059  1.00 20.00     0.010 C 
HETATM    5  C5  UNL     1     -33.742  19.263  -2.770  1.00 20.00    -0.014 C 
HETATM    6  C6  UNL     1     -33.692  17.139  -2.104  1.00 20.00    -0.009 C 
HETATM    7  C7  UNL     1     -33.276  17.041  -3.591  1.00 20.00     0.004 C 
ENDROOT
BRANCH   7   8
HETATM    8  C8  UNL     1     -34.184  16.122  -4.402  1.00 20.00     0.119 C 
HETATM    9 CL9  UNL     1     -33.911  14.431  -3.943  1.00 20.00    -0.130 Cl
ENDBRANCH   7   8
TORSDOF 1
ENDMDL
