MODEL 1
REMARK VINA RESULT:      -4.3      0.000      0.000
REMARK  1 active torsions:
REMARK  status: ('A' for Active; 'I' for Inactive)
REMARK    1  A    between atoms: C1_1  and  C5_5 
ROOT
HETATM    1  C2  UNL     1     -34.248   6.900   6.590  1.00 20.00     0.002 C 
HETATM    2  C3  UNL     1     -34.429   5.417   6.222  1.00 20.00     0.016 C 
HETATM    3  C4  UNL     1     -33.713   7.137   5.168  1.00 20.00     0.016 C 
HETATM    4  C5  UNL     1     -34.436   5.829   4.715  1.00 20.00     0.009 C 
HETATM    5  C6  UNL     1     -35.840   6.071   4.156  1.00 20.00     0.023 C 
ENDROOT
BRANCH   4   6
HETATM    6  C1  UNL     1     -33.612   4.908   3.773  1.00 20.00     0.240 C 
HETATM    7  O7  UNL     1     -33.138   5.283   2.706  1.00 20.00    -0.306 OA
ENDBRANCH   4   6
TORSDOF 1
ENDMDL
MODEL 2
REMARK VINA RESULT:      -3.9      1.229      1.442
REMARK  1 active torsions:
REMARK  status: ('A' for Active; 'I' for Inactive)
REMARK    1  A    between atoms: C1_1  and  C5_5 
ROOT
HETATM    1  C2  UNL     1     -33.625   8.133   5.392  1.00 20.00     0.002 C 
HETATM    2  C3  UNL     1     -34.216   7.025   6.281  1.00 20.00     0.016 C 
HETATM    3  C4  UNL     1     -33.291   7.052   4.351  1.00 20.00     0.016 C 
HETATM    4  C5  UNL     1     -34.372   6.135   5.007  1.00 20.00     0.009 C 
HETATM    5  C6  UNL     1     -35.749   6.250   4.348  1.00 20.00     0.023 C 
ENDROOT
BRANCH   4   6
HETATM    6  C1  UNL     1     -33.961   4.647   5.183  1.00 20.00     0.240 C 
HETATM    7  O7  UNL     1     -33.981   3.827   4.271  1.00 20.00    -0.306 OA
ENDBRANCH   4   6
TORSDOF 1
ENDMDL
MODEL 3
REMARK VINA RESULT:      -3.9      1.636      2.641
REMARK  1 active torsions:
REMARK  status: ('A' for Active; 'I' for Inactive)
REMARK    1  A    between atoms: C1_1  and  C5_5 
ROOT
HETATM    1  C2  UNL     1     -32.706   8.468   4.078  1.00 20.00     0.002 C 
HETATM    2  C3  UNL     1     -32.714   6.937   3.928  1.00 20.00     0.016 C 
HETATM    3  C4  UNL     1     -34.152   8.376   4.592  1.00 20.00     0.016 C 
HETATM    4  C5  UNL     1     -33.893   6.878   4.950  1.00 20.00     0.009 C 
HETATM    5  C6  UNL     1     -33.437   6.668   6.395  1.00 20.00     0.023 C 
ENDROOT
BRANCH   4   6
HETATM    6  C1  UNL     1     -35.043   5.900   4.580  1.00 20.00     0.240 C 
HETATM    7  O7  UNL     1     -35.055   4.718   4.905  1.00 20.00    -0.306 OA
ENDBRANCH   4   6
TORSDOF 1
ENDMDL
MODEL 4
REMARK VINA RESULT:      -3.9      1.415      2.030
REMARK  1 active torsions:
REMARK  status: ('A' for Active; 'I' for Inactive)
REMARK    1  A    between atoms: C1_1  and  C5_5 
ROOT
HETATM    1  C2  UNL     1     -34.926   5.739   6.296  1.00 20.00     0.002 C 
HETATM    2  C3  UNL     1     -35.096   6.075   4.805  1.00 20.00     0.016 C 
HETATM    3  C4  UNL     1     -33.429   6.056   6.147  1.00 20.00     0.016 C 
HETATM    4  C5  UNL     1     -33.769   6.895   4.874  1.00 20.00     0.009 C 
HETATM    5  C6  UNL     1     -33.986   8.382   5.165  1.00 20.00     0.023 C 
ENDROOT
BRANCH   4   6
HETATM    6  C1  UNL     1     -32.804   6.697   3.673  1.00 20.00     0.240 C 
HETATM    7  O7  UNL     1     -32.148   7.606   3.175  1.00 20.00    -0.306 OA
ENDBRANCH   4   6
TORSDOF 1
ENDMDL
MODEL 5
REMARK VINA RESULT:      -3.9      1.608      2.414
REMARK  1 active torsions:
REMARK  status: ('A' for Active; 'I' for Inactive)
REMARK    1  A    between atoms: C1_1  and  C5_5 
ROOT
HETATM    1  C2  UNL     1     -34.845   5.320   5.970  1.00 20.00     0.002 C 
HETATM    2  C3  UNL     1     -33.585   6.195   6.088  1.00 20.00     0.016 C 
HETATM    3  C4  UNL     1     -35.295   6.210   4.800  1.00 20.00     0.016 C 
HETATM    4  C5  UNL     1     -33.810   6.655   4.612  1.00 20.00     0.009 C 
HETATM    5  C6  UNL     1     -33.047   5.810   3.588  1.00 20.00     0.023 C 
ENDROOT
BRANCH   4   6
HETATM    6  C1  UNL     1     -33.600   8.172   4.351  1.00 20.00     0.240 C 
HETATM    7  O7  UNL     1     -32.643   8.625   3.731  1.00 20.00    -0.306 OA
ENDBRANCH   4   6
TORSDOF 1
ENDMDL
MODEL 6
REMARK VINA RESULT:      -3.7      1.908      2.980
REMARK  1 active torsions:
REMARK  status: ('A' for Active; 'I' for Inactive)
REMARK    1  A    between atoms: C1_1  and  C5_5 
ROOT
HETATM    1  C2  UNL     1     -33.198   5.261   3.009  1.00 20.00     0.002 C 
HETATM    2  C3  UNL     1     -33.309   6.528   3.874  1.00 20.00     0.016 C 
HETATM    3  C4  UNL     1     -33.841   4.475   4.163  1.00 20.00     0.016 C 
HETATM    4  C5  UNL     1     -34.422   5.818   4.708  1.00 20.00     0.009 C 
HETATM    5  C6  UNL     1     -35.839   6.115   4.211  1.00 20.00     0.023 C 
ENDROOT
BRANCH   4   6
HETATM    6  C1  UNL     1     -34.321   6.009   6.247  1.00 20.00     0.240 C 
HETATM    7  O7  UNL     1     -34.377   7.103   6.798  1.00 20.00    -0.306 OA
ENDBRANCH   4   6
TORSDOF 1
ENDMDL
MODEL 7
REMARK VINA RESULT:      -3.5     16.340     17.240
REMARK  1 active torsions:
REMARK  status: ('A' for Active; 'I' for Inactive)
REMARK    1  A    between atoms: C1_1  and  C5_5 
ROOT
HETATM    1  C2  UNL     1     -23.730  17.874  11.872  1.00 20.00     0.002 C 
HETATM    2  C3  UNL     1     -23.886  17.033  10.593  1.00 20.00     0.016 C 
HETATM    3  C4  UNL     1     -22.398  18.396  11.307  1.00 20.00     0.016 C 
HETATM    4  C5  UNL     1     -22.888  17.999   9.878  1.00 20.00     0.009 C 
HETATM    5  C6  UNL     1     -23.576  19.143   9.131  1.00 20.00     0.023 C 
ENDROOT
BRANCH   4   6
HETATM    6  C1  UNL     1     -21.824  17.307   8.981  1.00 20.00     0.240 C 
HETATM    7  O7  UNL     1     -21.982  17.102   7.783  1.00 20.00    -0.306 OA
ENDBRANCH   4   6
TORSDOF 1
ENDMDL
MODEL 8
REMARK VINA RESULT:      -3.5      1.704      2.692
REMARK  1 active torsions:
REMARK  status: ('A' for Active; 'I' for Inactive)
REMARK    1  A    between atoms: C1_1  and  C5_5 
ROOT
HETATM    1  C2  UNL     1     -35.183   5.004   4.850  1.00 20.00     0.002 C 
HETATM    2  C3  UNL     1     -35.334   6.480   4.442  1.00 20.00     0.016 C 
HETATM    3  C4  UNL     1     -33.661   5.217   4.877  1.00 20.00     0.016 C 
HETATM    4  C5  UNL     1     -33.913   6.751   5.031  1.00 20.00     0.009 C 
HETATM    5  C6  UNL     1     -33.937   7.221   6.488  1.00 20.00     0.023 C 
ENDROOT
BRANCH   4   6
HETATM    6  C1  UNL     1     -33.000   7.664   4.167  1.00 20.00     0.240 C 
HETATM    7  O7  UNL     1     -32.179   8.442   4.640  1.00 20.00    -0.306 OA
ENDBRANCH   4   6
TORSDOF 1
ENDMDL
MODEL 9
REMARK VINA RESULT:      -3.5      1.582      2.483
REMARK  1 active torsions:
REMARK  status: ('A' for Active; 'I' for Inactive)
REMARK    1  A    between atoms: C1_1  and  C5_5 
ROOT
HETATM    1  C2  UNL     1     -32.917   8.615   5.033  1.00 20.00     0.002 C 
HETATM    2  C3  UNL     1     -34.095   8.218   4.127  1.00 20.00     0.016 C 
HETATM    3  C4  UNL     1     -33.053   7.249   5.726  1.00 20.00     0.016 C 
HETATM    4  C5  UNL     1     -33.802   6.721   4.461  1.00 20.00     0.009 C 
HETATM    5  C6  UNL     1     -32.878   6.041   3.447  1.00 20.00     0.023 C 
ENDROOT
BRANCH   4   6
HETATM    6  C1  UNL     1     -35.054   5.848   4.748  1.00 20.00     0.240 C 
HETATM    7  O7  UNL     1     -35.023   4.625   4.822  1.00 20.00    -0.306 OA
ENDBRANCH   4   6
TORSDOF 1
ENDMDL
