MODEL 1
REMARK VINA RESULT:      -5.0      0.000      0.000
REMARK  2 active torsions:
REMARK  status: ('A' for Active; 'I' for Inactive)
REMARK    1  A    between atoms: C1_1  and  C9_9 
REMARK    2  A    between atoms: C2_2  and  C8_8 
ROOT
HETATM    1  C1  UNL     1     -33.697   7.149   5.056  1.00 20.00    -0.016 C 
HETATM    2  C2  UNL     1     -32.790   7.734   4.246  1.00 20.00    -0.087 C 
HETATM    3  C3  UNL     1     -32.213   9.077   4.628  1.00 20.00     0.043 C 
ENDROOT
BRANCH   1   4
HETATM    4  C9  UNL     1     -34.447   5.825   4.943  1.00 20.00    -0.033 C 
HETATM    5  C5  UNL     1     -35.808   6.105   4.262  1.00 20.00     0.018 C 
HETATM    6  C6  UNL     1     -33.718   4.785   4.074  1.00 20.00     0.018 C 
HETATM    7  C7  UNL     1     -34.733   5.250   6.341  1.00 20.00     0.018 C 
ENDBRANCH   1   4
BRANCH   2   8
HETATM    8  C8  UNL     1     -32.222   7.154   2.973  1.00 20.00     0.029 C 
HETATM    9  C4  UNL     1     -32.240   8.143   1.815  1.00 20.00     0.010 C 
ENDBRANCH   2   8
TORSDOF 2
ENDMDL
MODEL 2
REMARK VINA RESULT:      -4.9      0.067      1.446
REMARK  2 active torsions:
REMARK  status: ('A' for Active; 'I' for Inactive)
REMARK    1  A    between atoms: C1_1  and  C9_9 
REMARK    2  A    between atoms: C2_2  and  C8_8 
ROOT
HETATM    1  C1  UNL     1     -33.722   7.154   5.035  1.00 20.00    -0.016 C 
HETATM    2  C2  UNL     1     -32.792   7.744   4.255  1.00 20.00    -0.087 C 
HETATM    3  C3  UNL     1     -32.188   9.060   4.689  1.00 20.00     0.043 C 
ENDROOT
BRANCH   1   4
HETATM    4  C9  UNL     1     -34.501   5.852   4.869  1.00 20.00    -0.033 C 
HETATM    5  C5  UNL     1     -34.730   5.251   6.277  1.00 20.00     0.018 C 
HETATM    6  C6  UNL     1     -35.890   6.052   4.237  1.00 20.00     0.018 C 
HETATM    7  C7  UNL     1     -33.682   4.838   4.054  1.00 20.00     0.018 C 
ENDBRANCH   1   4
BRANCH   2   8
HETATM    8  C8  UNL     1     -32.224   7.194   2.969  1.00 20.00     0.029 C 
HETATM    9  C4  UNL     1     -32.294   8.191   1.820  1.00 20.00     0.010 C 
ENDBRANCH   2   8
TORSDOF 2
ENDMDL
MODEL 3
REMARK VINA RESULT:      -4.0      0.931      2.284
REMARK  2 active torsions:
REMARK  status: ('A' for Active; 'I' for Inactive)
REMARK    1  A    between atoms: C1_1  and  C9_9 
REMARK    2  A    between atoms: C2_2  and  C8_8 
ROOT
HETATM    1  C1  UNL     1     -33.367   6.227   3.689  1.00 20.00    -0.016 C 
HETATM    2  C2  UNL     1     -32.873   7.462   3.459  1.00 20.00    -0.087 C 
HETATM    3  C3  UNL     1     -31.924   7.677   2.304  1.00 20.00     0.043 C 
ENDROOT
BRANCH   1   4
HETATM    4  C9  UNL     1     -34.323   5.703   4.757  1.00 20.00    -0.033 C 
HETATM    5  C5  UNL     1     -34.143   4.169   4.847  1.00 20.00     0.018 C 
HETATM    6  C6  UNL     1     -34.038   6.271   6.159  1.00 20.00     0.018 C 
HETATM    7  C7  UNL     1     -35.781   5.979   4.353  1.00 20.00     0.018 C 
ENDBRANCH   1   4
BRANCH   2   8
HETATM    8  C8  UNL     1     -33.213   8.717   4.226  1.00 20.00     0.029 C 
HETATM    9  C4  UNL     1     -32.053   9.223   5.073  1.00 20.00     0.010 C 
ENDBRANCH   2   8
TORSDOF 2
ENDMDL
MODEL 4
REMARK VINA RESULT:      -4.0      0.867      3.758
REMARK  2 active torsions:
REMARK  status: ('A' for Active; 'I' for Inactive)
REMARK    1  A    between atoms: C1_1  and  C9_9 
REMARK    2  A    between atoms: C2_2  and  C8_8 
ROOT
HETATM    1  C1  UNL     1     -33.528   7.368   5.514  1.00 20.00    -0.016 C 
HETATM    2  C2  UNL     1     -34.261   6.235   5.487  1.00 20.00    -0.087 C 
HETATM    3  C3  UNL     1     -34.714   5.615   6.788  1.00 20.00     0.043 C 
ENDROOT
BRANCH   1   4
HETATM    4  C9  UNL     1     -32.932   8.213   4.392  1.00 20.00    -0.033 C 
HETATM    5  C5  UNL     1     -31.979   9.251   5.031  1.00 20.00     0.018 C 
HETATM    6  C6  UNL     1     -32.097   7.395   3.392  1.00 20.00     0.018 C 
HETATM    7  C7  UNL     1     -34.040   8.987   3.658  1.00 20.00     0.018 C 
ENDBRANCH   1   4
BRANCH   2   8
HETATM    8  C8  UNL     1     -34.744   5.512   4.252  1.00 20.00     0.029 C 
HETATM    9  C4  UNL     1     -33.916   4.275   3.932  1.00 20.00     0.010 C 
ENDBRANCH   2   8
TORSDOF 2
ENDMDL
MODEL 5
REMARK VINA RESULT:      -3.8     11.754     13.051
REMARK  2 active torsions:
REMARK  status: ('A' for Active; 'I' for Inactive)
REMARK    1  A    between atoms: C1_1  and  C9_9 
REMARK    2  A    between atoms: C2_2  and  C8_8 
ROOT
HETATM    1  C1  UNL     1     -33.471  16.641  -2.420  1.00 20.00    -0.016 C 
HETATM    2  C2  UNL     1     -33.657  16.277  -3.706  1.00 20.00    -0.087 C 
HETATM    3  C3  UNL     1     -33.323  14.865  -4.131  1.00 20.00     0.043 C 
ENDROOT
BRANCH   1   4
HETATM    4  C9  UNL     1     -33.707  17.967  -1.702  1.00 20.00    -0.033 C 
HETATM    5  C5  UNL     1     -32.576  18.940  -2.115  1.00 20.00     0.018 C 
HETATM    6  C6  UNL     1     -35.037  18.639  -2.086  1.00 20.00     0.018 C 
HETATM    7  C7  UNL     1     -33.624  17.773  -0.179  1.00 20.00     0.018 C 
ENDBRANCH   1   4
BRANCH   2   8
HETATM    8  C8  UNL     1     -34.231  17.137  -4.806  1.00 20.00     0.029 C 
HETATM    9  C4  UNL     1     -35.603  16.666  -5.268  1.00 20.00     0.010 C 
ENDBRANCH   2   8
TORSDOF 2
ENDMDL
MODEL 6
REMARK VINA RESULT:      -3.5      1.244      3.731
REMARK  2 active torsions:
REMARK  status: ('A' for Active; 'I' for Inactive)
REMARK    1  A    between atoms: C1_1  and  C9_9 
REMARK    2  A    between atoms: C2_2  and  C8_8 
ROOT
HETATM    1  C1  UNL     1     -32.853   6.999   3.950  1.00 20.00    -0.016 C 
HETATM    2  C2  UNL     1     -33.535   5.877   3.639  1.00 20.00    -0.087 C 
HETATM    3  C3  UNL     1     -33.005   4.963   2.559  1.00 20.00     0.043 C 
ENDROOT
BRANCH   1   4
HETATM    4  C9  UNL     1     -33.129   8.100   4.969  1.00 20.00    -0.033 C 
HETATM    5  C5  UNL     1     -34.475   8.768   4.596  1.00 20.00     0.018 C 
HETATM    6  C6  UNL     1     -33.275   7.574   6.408  1.00 20.00     0.018 C 
HETATM    7  C7  UNL     1     -32.037   9.180   4.901  1.00 20.00     0.018 C 
ENDBRANCH   1   4
BRANCH   2   8
HETATM    8  C8  UNL     1     -34.794   5.382   4.309  1.00 20.00     0.029 C 
HETATM    9  C4  UNL     1     -34.539   4.819   5.701  1.00 20.00     0.010 C 
ENDBRANCH   2   8
TORSDOF 2
ENDMDL
MODEL 7
REMARK VINA RESULT:      -3.5     11.999     13.182
REMARK  2 active torsions:
REMARK  status: ('A' for Active; 'I' for Inactive)
REMARK    1  A    between atoms: C1_1  and  C9_9 
REMARK    2  A    between atoms: C2_2  and  C8_8 
ROOT
HETATM    1  C1  UNL     1     -32.464  18.496  -1.749  1.00 20.00    -0.016 C 
HETATM    2  C2  UNL     1     -32.435  18.541  -0.400  1.00 20.00    -0.087 C 
HETATM    3  C3  UNL     1     -31.221  19.111   0.297  1.00 20.00     0.043 C 
ENDROOT
BRANCH   1   4
HETATM    4  C9  UNL     1     -33.524  17.985  -2.720  1.00 20.00    -0.033 C 
HETATM    5  C5  UNL     1     -33.187  18.536  -4.126  1.00 20.00     0.018 C 
HETATM    6  C6  UNL     1     -33.554  16.451  -2.836  1.00 20.00     0.018 C 
HETATM    7  C7  UNL     1     -34.911  18.521  -2.328  1.00 20.00     0.018 C 
ENDBRANCH   1   4
BRANCH   2   8
HETATM    8  C8  UNL     1     -33.544  18.116   0.533  1.00 20.00     0.029 C 
HETATM    9  C4  UNL     1     -33.989  19.233   1.467  1.00 20.00     0.010 C 
ENDBRANCH   2   8
TORSDOF 2
ENDMDL
MODEL 8
REMARK VINA RESULT:      -3.5     11.761     13.036
REMARK  2 active torsions:
REMARK  status: ('A' for Active; 'I' for Inactive)
REMARK    1  A    between atoms: C1_1  and  C9_9 
REMARK    2  A    between atoms: C2_2  and  C8_8 
ROOT
HETATM    1  C1  UNL     1     -34.553  16.731  -4.851  1.00 20.00    -0.016 C 
HETATM    2  C2  UNL     1     -34.097  17.343  -3.738  1.00 20.00    -0.087 C 
HETATM    3  C3  UNL     1     -34.323  18.827  -3.564  1.00 20.00     0.043 C 
ENDROOT
BRANCH   1   4
HETATM    4  C9  UNL     1     -34.478  15.277  -5.307  1.00 20.00    -0.033 C 
HETATM    5  C5  UNL     1     -33.958  15.260  -6.764  1.00 20.00     0.018 C 
HETATM    6  C6  UNL     1     -33.502  14.428  -4.473  1.00 20.00     0.018 C 
HETATM    7  C7  UNL     1     -35.879  14.641  -5.304  1.00 20.00     0.018 C 
ENDBRANCH   1   4
BRANCH   2   8
HETATM    8  C8  UNL     1     -33.403  16.680  -2.573  1.00 20.00     0.029 C 
HETATM    9  C4  UNL     1     -33.656  17.392  -1.252  1.00 20.00     0.010 C 
ENDBRANCH   2   8
TORSDOF 2
ENDMDL
MODEL 9
REMARK VINA RESULT:      -3.4      8.822      9.826
REMARK  2 active torsions:
REMARK  status: ('A' for Active; 'I' for Inactive)
REMARK    1  A    between atoms: C1_1  and  C9_9 
REMARK    2  A    between atoms: C2_2  and  C8_8 
ROOT
HETATM    1  C1  UNL     1     -40.294  13.121   6.867  1.00 20.00    -0.016 C 
HETATM    2  C2  UNL     1     -39.539  12.551   5.905  1.00 20.00    -0.087 C 
HETATM    3  C3  UNL     1     -38.098  12.205   6.202  1.00 20.00     0.043 C 
ENDROOT
BRANCH   1   4
HETATM    4  C9  UNL     1     -41.750  13.580   6.870  1.00 20.00    -0.033 C 
HETATM    5  C5  UNL     1     -41.981  14.423   8.147  1.00 20.00     0.018 C 
HETATM    6  C6  UNL     1     -42.107  14.475   5.671  1.00 20.00     0.018 C 
HETATM    7  C7  UNL     1     -42.693  12.367   6.934  1.00 20.00     0.018 C 
ENDBRANCH   1   4
BRANCH   2   8
HETATM    8  C8  UNL     1     -40.000  12.155   4.523  1.00 20.00     0.029 C 
HETATM    9  C4  UNL     1     -38.876  11.593   3.664  1.00 20.00     0.010 C 
ENDBRANCH   2   8
TORSDOF 2
ENDMDL
