MODEL 1
REMARK VINA RESULT:      -5.9      0.000      0.000
REMARK  2 active torsions:
REMARK  status: ('A' for Active; 'I' for Inactive)
REMARK    1  A    between atoms: C8_8  and  C11_11 
REMARK    2  A    between atoms: C10_10  and  C11_11 
ROOT
HETATM    1  C11 UNL     1     -32.621   7.897   4.597  1.00 20.00     0.046 C 
ENDROOT
BRANCH   1   2
HETATM    2  C8  UNL     1     -32.593   8.373   3.193  1.00 20.00    -0.076 A 
HETATM    3  C4  UNL     1     -33.004   9.554   2.708  1.00 20.00     0.003 A 
HETATM    4  C3  UNL     1     -32.790   9.589   1.284  1.00 20.00    -0.003 A 
HETATM    5  C5  UNL     1     -32.247   8.431   0.883  1.00 20.00    -0.022 A 
HETATM    6  C9  UNL     1     -32.062   7.527   2.067  1.00 20.00     0.061 A 
ENDBRANCH   1   2
BRANCH   1   7
HETATM    7  C10 UNL     1     -34.007   7.404   4.973  1.00 20.00     0.034 A 
HETATM    8  C6  UNL     1     -34.084   6.955   6.410  1.00 20.00    -0.018 A 
HETATM    9  C1  UNL     1     -34.442   5.664   6.458  1.00 20.00    -0.004 A 
HETATM   10  C2  UNL     1     -34.626   5.164   5.122  1.00 20.00    -0.004 A 
HETATM   11  C7  UNL     1     -34.383   6.142   4.238  1.00 20.00    -0.018 A 
ENDBRANCH   1   7
TORSDOF 2
ENDMDL
MODEL 2
REMARK VINA RESULT:      -5.3      0.684      4.515
REMARK  2 active torsions:
REMARK  status: ('A' for Active; 'I' for Inactive)
REMARK    1  A    between atoms: C8_8  and  C11_11 
REMARK    2  A    between atoms: C10_10  and  C11_11 
ROOT
HETATM    1  C11 UNL     1     -33.798   8.554   4.745  1.00 20.00     0.046 C 
ENDROOT
BRANCH   1   2
HETATM    2  C8  UNL     1     -34.095   7.191   5.248  1.00 20.00    -0.076 A 
HETATM    3  C4  UNL     1     -33.792   6.661   6.443  1.00 20.00     0.003 A 
HETATM    4  C3  UNL     1     -34.271   5.304   6.502  1.00 20.00    -0.003 A 
HETATM    5  C5  UNL     1     -34.871   4.989   5.346  1.00 20.00    -0.022 A 
HETATM    6  C9  UNL     1     -34.823   6.167   4.417  1.00 20.00     0.061 A 
ENDBRANCH   1   2
BRANCH   1   7
HETATM    7  C10 UNL     1     -32.525   8.560   3.919  1.00 20.00     0.034 A 
HETATM    8  C6  UNL     1     -32.650   9.411   2.681  1.00 20.00    -0.018 A 
HETATM    9  C1  UNL     1     -32.448   8.654   1.593  1.00 20.00    -0.004 A 
HETATM   10  C2  UNL     1     -32.183   7.297   1.993  1.00 20.00    -0.004 A 
HETATM   11  C7  UNL     1     -32.219   7.206   3.329  1.00 20.00    -0.018 A 
ENDBRANCH   1   7
TORSDOF 2
ENDMDL
MODEL 3
REMARK VINA RESULT:      -4.7      0.783      4.649
REMARK  2 active torsions:
REMARK  status: ('A' for Active; 'I' for Inactive)
REMARK    1  A    between atoms: C8_8  and  C11_11 
REMARK    2  A    between atoms: C10_10  and  C11_11 
ROOT
HETATM    1  C11 UNL     1     -32.934   6.384   2.855  1.00 20.00     0.046 C 
ENDROOT
BRANCH   1   2
HETATM    2  C8  UNL     1     -33.510   6.416   4.221  1.00 20.00    -0.076 A 
HETATM    3  C4  UNL     1     -33.257   7.287   5.210  1.00 20.00     0.003 A 
HETATM    4  C3  UNL     1     -34.040   6.940   6.368  1.00 20.00    -0.003 A 
HETATM    5  C5  UNL     1     -34.779   5.854   6.101  1.00 20.00    -0.022 A 
HETATM    6  C9  UNL     1     -34.518   5.402   4.693  1.00 20.00     0.061 A 
ENDBRANCH   1   2
BRANCH   1   7
HETATM    7  C10 UNL     1     -32.148   7.652   2.571  1.00 20.00     0.034 A 
HETATM    8  C6  UNL     1     -32.910   8.895   2.956  1.00 20.00    -0.018 A 
HETATM    9  C1  UNL     1     -33.083   9.668   1.875  1.00 20.00    -0.004 A 
HETATM   10  C2  UNL     1     -32.481   9.038   0.730  1.00 20.00    -0.004 A 
HETATM   11  C7  UNL     1     -31.932   7.872   1.095  1.00 20.00    -0.018 A 
ENDBRANCH   1   7
TORSDOF 2
ENDMDL
MODEL 4
REMARK VINA RESULT:      -4.6     11.248     12.359
REMARK  2 active torsions:
REMARK  status: ('A' for Active; 'I' for Inactive)
REMARK    1  A    between atoms: C8_8  and  C11_11 
REMARK    2  A    between atoms: C10_10  and  C11_11 
ROOT
HETATM    1  C11 UNL     1     -33.784  17.390  -1.431  1.00 20.00     0.046 C 
ENDROOT
BRANCH   1   2
HETATM    2  C8  UNL     1     -32.859  18.090  -0.508  1.00 20.00    -0.076 A 
HETATM    3  C4  UNL     1     -31.572  18.411  -0.707  1.00 20.00     0.003 A 
HETATM    4  C3  UNL     1     -31.059  19.085   0.458  1.00 20.00    -0.003 A 
HETATM    5  C5  UNL     1     -32.026  19.184   1.381  1.00 20.00    -0.022 A 
HETATM    6  C9  UNL     1     -33.285  18.555   0.859  1.00 20.00     0.061 A 
ENDBRANCH   1   2
BRANCH   1   7
HETATM    7  C10 UNL     1     -33.159  17.233  -2.806  1.00 20.00     0.034 A 
HETATM    8  C6  UNL     1     -33.797  18.136  -3.830  1.00 20.00    -0.018 A 
HETATM    9  C1  UNL     1     -34.316  17.395  -4.820  1.00 20.00    -0.004 A 
HETATM   10  C2  UNL     1     -34.081  16.001  -4.554  1.00 20.00    -0.004 A 
HETATM   11  C7  UNL     1     -33.415  15.870  -3.398  1.00 20.00    -0.018 A 
ENDBRANCH   1   7
TORSDOF 2
ENDMDL
MODEL 5
REMARK VINA RESULT:      -4.6     11.150     12.051
REMARK  2 active torsions:
REMARK  status: ('A' for Active; 'I' for Inactive)
REMARK    1  A    between atoms: C8_8  and  C11_11 
REMARK    2  A    between atoms: C10_10  and  C11_11 
ROOT
HETATM    1  C11 UNL     1     -33.761  17.765  -0.314  1.00 20.00     0.046 C 
ENDROOT
BRANCH   1   2
HETATM    2  C8  UNL     1     -33.783  17.559  -1.783  1.00 20.00    -0.076 A 
HETATM    3  C4  UNL     1     -33.414  16.470  -2.474  1.00 20.00     0.003 A 
HETATM    4  C3  UNL     1     -33.601  16.708  -3.882  1.00 20.00    -0.003 A 
HETATM    5  C5  UNL     1     -34.085  17.944  -4.067  1.00 20.00    -0.022 A 
HETATM    6  C9  UNL     1     -34.254  18.622  -2.738  1.00 20.00     0.061 A 
ENDBRANCH   1   2
BRANCH   1   7
HETATM    7  C10 UNL     1     -32.813  18.890   0.059  1.00 20.00     0.034 A 
HETATM    8  C6  UNL     1     -31.366  18.495  -0.102  1.00 20.00    -0.018 A 
HETATM    9  C1  UNL     1     -30.739  18.598   1.078  1.00 20.00    -0.004 A 
HETATM   10  C2  UNL     1     -31.667  19.047   2.081  1.00 20.00    -0.004 A 
HETATM   11  C7  UNL     1     -32.875  19.226   1.528  1.00 20.00    -0.018 A 
ENDBRANCH   1   7
TORSDOF 2
ENDMDL
MODEL 6
REMARK VINA RESULT:      -4.5     11.163     12.347
REMARK  2 active torsions:
REMARK  status: ('A' for Active; 'I' for Inactive)
REMARK    1  A    between atoms: C8_8  and  C11_11 
REMARK    2  A    between atoms: C10_10  and  C11_11 
ROOT
HETATM    1  C11 UNL     1     -32.717  18.757  -2.202  1.00 20.00     0.046 C 
ENDROOT
BRANCH   1   2
HETATM    2  C8  UNL     1     -32.280  18.682  -0.787  1.00 20.00    -0.076 A 
HETATM    3  C4  UNL     1     -31.042  18.483  -0.310  1.00 20.00     0.003 A 
HETATM    4  C3  UNL     1     -31.077  18.483   1.130  1.00 20.00    -0.003 A 
HETATM    5  C5  UNL     1     -32.334  18.682   1.549  1.00 20.00    -0.022 A 
HETATM    6  C9  UNL     1     -33.241  18.832   0.361  1.00 20.00     0.061 A 
ENDBRANCH   1   2
BRANCH   1   7
HETATM    7  C10 UNL     1     -33.833  17.766  -2.476  1.00 20.00     0.034 A 
HETATM    8  C6  UNL     1     -33.326  16.350  -2.587  1.00 20.00    -0.018 A 
HETATM    9  C1  UNL     1     -33.626  15.860  -3.798  1.00 20.00    -0.004 A 
HETATM   10  C2  UNL     1     -34.324  16.858  -4.564  1.00 20.00    -0.004 A 
HETATM   11  C7  UNL     1     -34.462  17.972  -3.831  1.00 20.00    -0.018 A 
ENDBRANCH   1   7
TORSDOF 2
ENDMDL
MODEL 7
REMARK VINA RESULT:      -4.5     11.242     12.076
REMARK  2 active torsions:
REMARK  status: ('A' for Active; 'I' for Inactive)
REMARK    1  A    between atoms: C8_8  and  C11_11 
REMARK    2  A    between atoms: C10_10  and  C11_11 
ROOT
HETATM    1  C11 UNL     1     -33.004  18.285  -2.657  1.00 20.00     0.046 C 
ENDROOT
BRANCH   1   2
HETATM    2  C8  UNL     1     -33.511  17.202  -3.533  1.00 20.00    -0.076 A 
HETATM    3  C4  UNL     1     -33.255  15.887  -3.461  1.00 20.00     0.003 A 
HETATM    4  C3  UNL     1     -33.958  15.202  -4.515  1.00 20.00    -0.003 A 
HETATM    5  C5  UNL     1     -34.649  16.090  -5.244  1.00 20.00    -0.022 A 
HETATM    6  C9  UNL     1     -34.436  17.469  -4.690  1.00 20.00     0.061 A 
ENDBRANCH   1   2
BRANCH   1   7
HETATM    7  C10 UNL     1     -32.650  17.747  -1.282  1.00 20.00     0.034 A 
HETATM    8  C6  UNL     1     -33.778  17.914  -0.295  1.00 20.00    -0.018 A 
HETATM    9  C1  UNL     1     -33.367  18.670   0.733  1.00 20.00    -0.004 A 
HETATM   10  C2  UNL     1     -31.995  19.055   0.530  1.00 20.00    -0.004 A 
HETATM   11  C7  UNL     1     -31.549  18.540  -0.624  1.00 20.00    -0.018 A 
ENDBRANCH   1   7
TORSDOF 2
ENDMDL
MODEL 8
REMARK VINA RESULT:      -4.3     11.167     12.200
REMARK  2 active torsions:
REMARK  status: ('A' for Active; 'I' for Inactive)
REMARK    1  A    between atoms: C8_8  and  C11_11 
REMARK    2  A    between atoms: C10_10  and  C11_11 
ROOT
HETATM    1  C11 UNL     1     -33.248  16.382  -2.583  1.00 20.00     0.046 C 
ENDROOT
BRANCH   1   2
HETATM    2  C8  UNL     1     -33.785  16.157  -3.947  1.00 20.00    -0.076 A 
HETATM    3  C4  UNL     1     -34.514  16.994  -4.701  1.00 20.00     0.003 A 
HETATM    4  C3  UNL     1     -34.820  16.363  -5.959  1.00 20.00    -0.003 A 
HETATM    5  C5  UNL     1     -34.284  15.135  -5.988  1.00 20.00    -0.022 A 
HETATM    6  C9  UNL     1     -33.562  14.872  -4.698  1.00 20.00     0.061 A 
ENDBRANCH   1   2
BRANCH   1   7
HETATM    7  C10 UNL     1     -33.660  17.745  -2.058  1.00 20.00     0.034 A 
HETATM    8  C6  UNL     1     -32.572  18.775  -2.226  1.00 20.00    -0.018 A 
HETATM    9  C1  UNL     1     -32.226  19.262  -1.026  1.00 20.00    -0.004 A 
HETATM   10  C2  UNL     1     -33.016  18.630  -0.003  1.00 20.00    -0.004 A 
HETATM   11  C7  UNL     1     -33.855  17.748  -0.563  1.00 20.00    -0.018 A 
ENDBRANCH   1   7
TORSDOF 2
ENDMDL
MODEL 9
REMARK VINA RESULT:      -4.3     11.088     12.216
REMARK  2 active torsions:
REMARK  status: ('A' for Active; 'I' for Inactive)
REMARK    1  A    between atoms: C8_8  and  C11_11 
REMARK    2  A    between atoms: C10_10  and  C11_11 
ROOT
HETATM    1  C11 UNL     1     -32.899  17.697  -3.011  1.00 20.00     0.046 C 
ENDROOT
BRANCH   1   2
HETATM    2  C8  UNL     1     -32.918  17.980  -1.555  1.00 20.00    -0.076 A 
HETATM    3  C4  UNL     1     -33.942  17.855  -0.697  1.00 20.00     0.003 A 
HETATM    4  C3  UNL     1     -33.513  18.240   0.622  1.00 20.00    -0.003 A 
HETATM    5  C5  UNL     1     -32.224  18.605   0.587  1.00 20.00    -0.022 A 
HETATM    6  C9  UNL     1     -31.704  18.476  -0.816  1.00 20.00     0.061 A 
ENDBRANCH   1   2
BRANCH   1   7
HETATM    7  C10 UNL     1     -33.954  16.667  -3.374  1.00 20.00     0.034 A 
HETATM    8  C6  UNL     1     -33.347  15.355  -3.801  1.00 20.00    -0.018 A 
HETATM    9  C1  UNL     1     -33.730  15.070  -5.054  1.00 20.00    -0.004 A 
HETATM   10  C2  UNL     1     -34.583  16.118  -5.548  1.00 20.00    -0.004 A 
HETATM   11  C7  UNL     1     -34.734  17.057  -4.604  1.00 20.00    -0.018 A 
ENDBRANCH   1   7
TORSDOF 2
ENDMDL
