MODEL 1
REMARK VINA RESULT:      -5.0      0.000      0.000
REMARK  3 active torsions:
REMARK  status: ('A' for Active; 'I' for Inactive)
REMARK    1  A    between atoms: C4_4  and  C7_7 
REMARK    2  A    between atoms: C6_6  and  C7_7 
REMARK    3  A    between atoms: C7_7  and  O9_9 
ROOT
HETATM    1  C1  UNL     1     -33.875   6.666   6.208  1.00 20.00     0.035 C 
HETATM    2  C2  UNL     1     -34.708   5.409   6.345  1.00 20.00     0.168 C 
HETATM    3  C3  UNL     1     -34.080   5.632   4.112  1.00 20.00     0.174 C 
HETATM    4  C4  UNL     1     -34.078   7.011   4.748  1.00 20.00     0.040 C 
HETATM    5  O8  UNL     1     -34.661   4.741   5.076  1.00 20.00    -0.391 OA
ENDROOT
BRANCH   4   6
HETATM    6  C7  UNL     1     -33.030   7.947   4.178  1.00 20.00     0.124 C 
BRANCH   6   7
HETATM    7  C6  UNL     1     -32.199   7.261   3.089  1.00 20.00     0.027 C 
HETATM    8  C5  UNL     1     -32.206   8.035   1.777  1.00 20.00     0.007 C 
ENDBRANCH   6   7
BRANCH   6   9
HETATM    9  O9  UNL     1     -32.159   8.366   5.228  1.00 20.00    -0.395 OA
HETATM   10  H23 UNL     1     -32.709   8.853   5.861  1.00 20.00     0.210 HD
ENDBRANCH   6   9
ENDBRANCH   4   6
TORSDOF 3
ENDMDL
MODEL 2
REMARK VINA RESULT:      -4.2      0.892      1.420
REMARK  3 active torsions:
REMARK  status: ('A' for Active; 'I' for Inactive)
REMARK    1  A    between atoms: C4_4  and  C7_7 
REMARK    2  A    between atoms: C6_6  and  C7_7 
REMARK    3  A    between atoms: C7_7  and  O9_9 
ROOT
HETATM    1  C1  UNL     1     -34.278   5.956   4.270  1.00 20.00     0.035 C 
HETATM    2  C2  UNL     1     -34.830   5.074   5.370  1.00 20.00     0.168 C 
HETATM    3  C3  UNL     1     -34.078   7.058   6.332  1.00 20.00     0.174 C 
HETATM    4  C4  UNL     1     -33.314   6.836   5.038  1.00 20.00     0.040 C 
HETATM    5  O8  UNL     1     -34.831   5.859   6.571  1.00 20.00    -0.391 OA
ENDROOT
BRANCH   4   6
HETATM    6  C7  UNL     1     -32.937   8.118   4.322  1.00 20.00     0.124 C 
BRANCH   6   7
HETATM    7  C6  UNL     1     -32.230   7.831   2.994  1.00 20.00     0.027 C 
HETATM    8  C5  UNL     1     -32.588   8.843   1.913  1.00 20.00     0.007 C 
ENDBRANCH   6   7
BRANCH   6   9
HETATM    9  O9  UNL     1     -32.063   8.877   5.156  1.00 20.00    -0.395 OA
HETATM   10  H23 UNL     1     -32.545   9.041   5.981  1.00 20.00     0.210 HD
ENDBRANCH   6   9
ENDBRANCH   4   6
TORSDOF 3
ENDMDL
MODEL 3
REMARK VINA RESULT:      -4.1      1.202      1.294
REMARK  3 active torsions:
REMARK  status: ('A' for Active; 'I' for Inactive)
REMARK    1  A    between atoms: C4_4  and  C7_7 
REMARK    2  A    between atoms: C6_6  and  C7_7 
REMARK    3  A    between atoms: C7_7  and  O9_9 
ROOT
HETATM    1  C1  UNL     1     -33.740   6.707   6.096  1.00 20.00     0.035 C 
HETATM    2  C2  UNL     1     -34.832   5.697   6.382  1.00 20.00     0.168 C 
HETATM    3  C3  UNL     1     -34.131   5.414   4.178  1.00 20.00     0.174 C 
HETATM    4  C4  UNL     1     -33.837   6.846   4.592  1.00 20.00     0.040 C 
HETATM    5  O8  UNL     1     -34.912   4.837   5.236  1.00 20.00    -0.391 OA
ENDROOT
BRANCH   4   6
HETATM    6  C7  UNL     1     -32.598   7.429   3.940  1.00 20.00     0.124 C 
BRANCH   6   7
HETATM    7  C6  UNL     1     -32.776   8.918   3.631  1.00 20.00     0.027 C 
HETATM    8  C5  UNL     1     -32.756   9.210   2.136  1.00 20.00     0.007 C 
ENDBRANCH   6   7
BRANCH   6   9
HETATM    9  O9  UNL     1     -32.339   6.732   2.723  1.00 20.00    -0.395 OA
HETATM   10  H23 UNL     1     -31.421   6.930   2.483  1.00 20.00     0.210 HD
ENDBRANCH   6   9
ENDBRANCH   4   6
TORSDOF 3
ENDMDL
MODEL 4
REMARK VINA RESULT:      -4.0      1.382      3.941
REMARK  3 active torsions:
REMARK  status: ('A' for Active; 'I' for Inactive)
REMARK    1  A    between atoms: C4_4  and  C7_7 
REMARK    2  A    between atoms: C6_6  and  C7_7 
REMARK    3  A    between atoms: C7_7  and  O9_9 
ROOT
HETATM    1  C1  UNL     1     -33.567   7.838   4.463  1.00 20.00     0.035 C 
HETATM    2  C2  UNL     1     -32.393   8.560   3.836  1.00 20.00     0.168 C 
HETATM    3  C3  UNL     1     -32.670   6.524   2.739  1.00 20.00     0.174 C 
HETATM    4  C4  UNL     1     -33.248   6.394   4.138  1.00 20.00     0.040 C 
HETATM    5  O8  UNL     1     -31.994   7.790   2.694  1.00 20.00    -0.391 OA
ENDROOT
BRANCH   4   6
HETATM    6  C7  UNL     1     -34.438   5.459   4.224  1.00 20.00     0.124 C 
BRANCH   6   7
HETATM    7  C6  UNL     1     -35.199   5.641   5.541  1.00 20.00     0.027 C 
HETATM    8  C5  UNL     1     -34.358   5.272   6.756  1.00 20.00     0.007 C 
ENDBRANCH   6   7
BRANCH   6   9
HETATM    9  O9  UNL     1     -33.979   4.111   4.138  1.00 20.00    -0.395 OA
HETATM   10  H23 UNL     1     -33.078   4.150   3.781  1.00 20.00     0.210 HD
ENDBRANCH   6   9
ENDBRANCH   4   6
TORSDOF 3
ENDMDL
MODEL 5
REMARK VINA RESULT:      -4.0     12.184     13.270
REMARK  3 active torsions:
REMARK  status: ('A' for Active; 'I' for Inactive)
REMARK    1  A    between atoms: C4_4  and  C7_7 
REMARK    2  A    between atoms: C6_6  and  C7_7 
REMARK    3  A    between atoms: C7_7  and  O9_9 
ROOT
HETATM    1  C1  UNL     1     -34.436  15.958  -6.404  1.00 20.00     0.035 C 
HETATM    2  C2  UNL     1     -35.601  15.519  -7.267  1.00 20.00     0.168 C 
HETATM    3  C3  UNL     1     -35.703  14.356  -5.251  1.00 20.00     0.174 C 
HETATM    4  C4  UNL     1     -34.260  14.761  -5.495  1.00 20.00     0.040 C 
HETATM    5  O8  UNL     1     -36.423  14.670  -6.453  1.00 20.00    -0.391 OA
ENDROOT
BRANCH   4   6
HETATM    6  C7  UNL     1     -33.483  15.053  -4.226  1.00 20.00     0.124 C 
BRANCH   6   7
HETATM    7  C6  UNL     1     -33.638  16.515  -3.798  1.00 20.00     0.027 C 
HETATM    8  C5  UNL     1     -33.401  16.714  -2.307  1.00 20.00     0.007 C 
ENDBRANCH   6   7
BRANCH   6   9
HETATM    9  O9  UNL     1     -32.100  14.782  -4.453  1.00 20.00    -0.395 OA
HETATM   10  H23 UNL     1     -32.028  14.474  -5.370  1.00 20.00     0.210 HD
ENDBRANCH   6   9
ENDBRANCH   4   6
TORSDOF 3
ENDMDL
MODEL 6
REMARK VINA RESULT:      -3.9     12.010     13.443
REMARK  3 active torsions:
REMARK  status: ('A' for Active; 'I' for Inactive)
REMARK    1  A    between atoms: C4_4  and  C7_7 
REMARK    2  A    between atoms: C6_6  and  C7_7 
REMARK    3  A    between atoms: C7_7  and  O9_9 
ROOT
HETATM    1  C1  UNL     1     -35.926  15.061  -5.765  1.00 20.00     0.035 C 
HETATM    2  C2  UNL     1     -36.065  15.365  -7.242  1.00 20.00     0.168 C 
HETATM    3  C3  UNL     1     -33.799  15.136  -6.752  1.00 20.00     0.174 C 
HETATM    4  C4  UNL     1     -34.522  15.551  -5.482  1.00 20.00     0.040 C 
HETATM    5  O8  UNL     1     -34.756  15.237  -7.817  1.00 20.00    -0.391 OA
ENDROOT
BRANCH   4   6
HETATM    6  C7  UNL     1     -33.910  14.985  -4.215  1.00 20.00     0.124 C 
BRANCH   6   7
HETATM    7  C6  UNL     1     -32.953  15.985  -3.560  1.00 20.00     0.027 C 
HETATM    8  C5  UNL     1     -33.550  16.638  -2.321  1.00 20.00     0.007 C 
ENDBRANCH   6   7
BRANCH   6   9
HETATM    9  O9  UNL     1     -33.188  13.798  -4.537  1.00 20.00    -0.395 OA
HETATM   10  H23 UNL     1     -33.293  13.200  -3.781  1.00 20.00     0.210 HD
ENDBRANCH   6   9
ENDBRANCH   4   6
TORSDOF 3
ENDMDL
MODEL 7
REMARK VINA RESULT:      -3.7      1.458      3.827
REMARK  3 active torsions:
REMARK  status: ('A' for Active; 'I' for Inactive)
REMARK    1  A    between atoms: C4_4  and  C7_7 
REMARK    2  A    between atoms: C6_6  and  C7_7 
REMARK    3  A    between atoms: C7_7  and  O9_9 
ROOT
HETATM    1  C1  UNL     1     -32.626   7.169   3.521  1.00 20.00     0.035 C 
HETATM    2  C2  UNL     1     -32.173   8.512   2.990  1.00 20.00     0.168 C 
HETATM    3  C3  UNL     1     -32.835   8.787   5.207  1.00 20.00     0.174 C 
HETATM    4  C4  UNL     1     -33.562   7.581   4.638  1.00 20.00     0.040 C 
HETATM    5  O8  UNL     1     -32.169   9.418   4.103  1.00 20.00    -0.391 OA
ENDROOT
BRANCH   4   6
HETATM    6  C7  UNL     1     -33.831   6.491   5.658  1.00 20.00     0.124 C 
BRANCH   6   7
HETATM    7  C6  UNL     1     -34.783   5.427   5.103  1.00 20.00     0.027 C 
HETATM    8  C5  UNL     1     -34.043   4.263   4.457  1.00 20.00     0.007 C 
ENDBRANCH   6   7
BRANCH   6   9
HETATM    9  O9  UNL     1     -34.418   7.075   6.820  1.00 20.00    -0.395 OA
HETATM   10  H23 UNL     1     -34.714   6.338   7.377  1.00 20.00     0.210 HD
ENDBRANCH   6   9
ENDBRANCH   4   6
TORSDOF 3
ENDMDL
MODEL 8
REMARK VINA RESULT:      -3.7      9.507     10.148
REMARK  3 active torsions:
REMARK  status: ('A' for Active; 'I' for Inactive)
REMARK    1  A    between atoms: C4_4  and  C7_7 
REMARK    2  A    between atoms: C6_6  and  C7_7 
REMARK    3  A    between atoms: C7_7  and  O9_9 
ROOT
HETATM    1  C1  UNL     1     -41.746  13.792   5.410  1.00 20.00     0.035 C 
HETATM    2  C2  UNL     1     -42.821  14.548   6.163  1.00 20.00     0.168 C 
HETATM    3  C3  UNL     1     -41.038  14.170   7.614  1.00 20.00     0.174 C 
HETATM    4  C4  UNL     1     -41.012  13.099   6.538  1.00 20.00     0.040 C 
HETATM    5  O8  UNL     1     -42.269  14.889   7.442  1.00 20.00    -0.391 OA
ENDROOT
BRANCH   4   6
HETATM    6  C7  UNL     1     -39.616  12.630   6.175  1.00 20.00     0.124 C 
BRANCH   6   7
HETATM    7  C6  UNL     1     -39.658  11.429   5.225  1.00 20.00     0.027 C 
HETATM    8  C5  UNL     1     -38.949  11.705   3.906  1.00 20.00     0.007 C 
ENDBRANCH   6   7
BRANCH   6   9
HETATM    9  O9  UNL     1     -38.927  12.253   7.366  1.00 20.00    -0.395 OA
HETATM   10  H23 UNL     1     -38.001  12.515   7.241  1.00 20.00     0.210 HD
ENDBRANCH   6   9
ENDBRANCH   4   6
TORSDOF 3
ENDMDL
MODEL 9
REMARK VINA RESULT:      -3.6     12.265     12.964
REMARK  3 active torsions:
REMARK  status: ('A' for Active; 'I' for Inactive)
REMARK    1  A    between atoms: C4_4  and  C7_7 
REMARK    2  A    between atoms: C6_6  and  C7_7 
REMARK    3  A    between atoms: C7_7  and  O9_9 
ROOT
HETATM    1  C1  UNL     1     -30.957  18.385   0.232  1.00 20.00     0.035 C 
HETATM    2  C2  UNL     1     -30.655  18.604   1.699  1.00 20.00     0.168 C 
HETATM    3  C3  UNL     1     -32.915  19.045   1.343  1.00 20.00     0.174 C 
HETATM    4  C4  UNL     1     -32.174  19.263   0.034  1.00 20.00     0.040 C 
HETATM    5  O8  UNL     1     -31.911  18.844   2.350  1.00 20.00    -0.391 OA
ENDROOT
BRANCH   4   6
HETATM    6  C7  UNL     1     -32.993  18.923  -1.196  1.00 20.00     0.124 C 
BRANCH   6   7
HETATM    7  C6  UNL     1     -33.530  17.491  -1.135  1.00 20.00     0.027 C 
HETATM    8  C5  UNL     1     -33.322  16.734  -2.440  1.00 20.00     0.007 C 
ENDBRANCH   6   7
BRANCH   6   9
HETATM    9  O9  UNL     1     -32.171  19.060  -2.354  1.00 20.00    -0.395 OA
HETATM   10  H23 UNL     1     -32.737  18.864  -3.117  1.00 20.00     0.210 HD
ENDBRANCH   6   9
ENDBRANCH   4   6
TORSDOF 3
ENDMDL
