MODEL 1
REMARK VINA RESULT:      -4.5      0.000      0.000
REMARK  4 active torsions:
REMARK  status: ('A' for Active; 'I' for Inactive)
REMARK    1  A    between atoms: C2_2  and  C3_3 
REMARK    2  A    between atoms: C3_3  and  C5_5 
REMARK    3  A    between atoms: C5_5  and  C6_6 
REMARK    4  A    between atoms: C6_6  and  C7_7 
ROOT
HETATM    1  C3  UNL     1     -32.652   7.913   4.242  1.00 20.00     0.154 C 
HETATM    2  O8  UNL     1     -31.714   8.593   4.661  1.00 20.00    -0.293 OA
ENDROOT
BRANCH   1   3
HETATM    3  C2  UNL     1     -32.503   7.178   2.939  1.00 20.00    -0.025 C 
HETATM    4  C1  UNL     1     -32.688   5.854   2.852  1.00 20.00     0.022 C 
HETATM    5  C4  UNL     1     -32.137   8.006   1.742  1.00 20.00     0.051 C 
ENDBRANCH   1   3
BRANCH   1   6
HETATM    6  C5  UNL     1     -33.962   7.802   5.012  1.00 20.00     0.084 C 
BRANCH   6   7
HETATM    7  C6  UNL     1     -33.820   6.951   6.279  1.00 20.00     0.023 C 
BRANCH   7   8
HETATM    8  C7  UNL     1     -34.583   5.633   6.209  1.00 20.00     0.115 C 
HETATM    9 CL9  UNL     1     -35.513   5.478   4.702  1.00 20.00    -0.130 Cl
ENDBRANCH   7   8
ENDBRANCH   6   7
ENDBRANCH   1   6
TORSDOF 4
ENDMDL
MODEL 2
REMARK VINA RESULT:      -4.5      1.766      3.476
REMARK  4 active torsions:
REMARK  status: ('A' for Active; 'I' for Inactive)
REMARK    1  A    between atoms: C2_2  and  C3_3 
REMARK    2  A    between atoms: C3_3  and  C5_5 
REMARK    3  A    between atoms: C5_5  and  C6_6 
REMARK    4  A    between atoms: C6_6  and  C7_7 
ROOT
HETATM    1  C3  UNL     1     -33.785   7.197   5.678  1.00 20.00     0.154 C 
HETATM    2  O8  UNL     1     -33.274   7.425   6.775  1.00 20.00    -0.293 OA
ENDROOT
BRANCH   1   3
HETATM    3  C2  UNL     1     -34.643   5.975   5.505  1.00 20.00    -0.025 C 
HETATM    4  C1  UNL     1     -34.550   4.926   6.335  1.00 20.00     0.022 C 
HETATM    5  C4  UNL     1     -35.609   5.991   4.357  1.00 20.00     0.051 C 
ENDBRANCH   1   3
BRANCH   1   6
HETATM    6  C5  UNL     1     -33.564   8.124   4.488  1.00 20.00     0.084 C 
BRANCH   6   7
HETATM    7  C6  UNL     1     -32.186   7.928   3.848  1.00 20.00     0.023 C 
BRANCH   7   8
HETATM    8  C7  UNL     1     -32.247   7.272   2.473  1.00 20.00     0.115 C 
HETATM    9 CL9  UNL     1     -32.706   5.557   2.570  1.00 20.00    -0.130 Cl
ENDBRANCH   7   8
ENDBRANCH   6   7
ENDBRANCH   1   6
TORSDOF 4
ENDMDL
MODEL 3
REMARK VINA RESULT:      -4.4      1.906      2.305
REMARK  4 active torsions:
REMARK  status: ('A' for Active; 'I' for Inactive)
REMARK    1  A    between atoms: C2_2  and  C3_3 
REMARK    2  A    between atoms: C3_3  and  C5_5 
REMARK    3  A    between atoms: C5_5  and  C6_6 
REMARK    4  A    between atoms: C6_6  and  C7_7 
ROOT
HETATM    1  C3  UNL     1     -33.191   6.107   3.239  1.00 20.00     0.154 C 
HETATM    2  O8  UNL     1     -32.701   5.108   2.712  1.00 20.00    -0.293 OA
ENDROOT
BRANCH   1   3
HETATM    3  C2  UNL     1     -32.468   7.421   3.139  1.00 20.00    -0.025 C 
HETATM    4  C1  UNL     1     -32.148   8.134   4.227  1.00 20.00     0.022 C 
HETATM    5  C4  UNL     1     -32.124   7.891   1.756  1.00 20.00     0.051 C 
ENDBRANCH   1   3
BRANCH   1   6
HETATM    6  C5  UNL     1     -34.513   6.042   3.995  1.00 20.00     0.084 C 
BRANCH   6   7
HETATM    7  C6  UNL     1     -34.564   4.865   4.974  1.00 20.00     0.023 C 
BRANCH   7   8
HETATM    8  C7  UNL     1     -34.277   5.267   6.417  1.00 20.00     0.115 C 
HETATM    9 CL9  UNL     1     -34.348   7.028   6.647  1.00 20.00    -0.130 Cl
ENDBRANCH   7   8
ENDBRANCH   6   7
ENDBRANCH   1   6
TORSDOF 4
ENDMDL
MODEL 4
REMARK VINA RESULT:      -4.2      2.569      3.576
REMARK  4 active torsions:
REMARK  status: ('A' for Active; 'I' for Inactive)
REMARK    1  A    between atoms: C2_2  and  C3_3 
REMARK    2  A    between atoms: C3_3  and  C5_5 
REMARK    3  A    between atoms: C5_5  and  C6_6 
REMARK    4  A    between atoms: C6_6  and  C7_7 
ROOT
HETATM    1  C3  UNL     1     -34.298   5.929   5.988  1.00 20.00     0.154 C 
HETATM    2  O8  UNL     1     -34.413   5.085   6.877  1.00 20.00    -0.293 OA
ENDROOT
BRANCH   1   3
HETATM    3  C2  UNL     1     -34.765   5.600   4.597  1.00 20.00    -0.025 C 
HETATM    4  C1  UNL     1     -35.930   6.057   4.119  1.00 20.00     0.022 C 
HETATM    5  C4  UNL     1     -33.857   4.733   3.774  1.00 20.00     0.051 C 
ENDBRANCH   1   3
BRANCH   1   6
HETATM    6  C5  UNL     1     -33.690   7.299   6.263  1.00 20.00     0.084 C 
BRANCH   6   7
HETATM    7  C6  UNL     1     -33.639   8.173   5.006  1.00 20.00     0.023 C 
BRANCH   7   8
HETATM    8  C7  UNL     1     -32.238   8.304   4.418  1.00 20.00     0.115 C 
HETATM    9 CL9  UNL     1     -32.135   7.619   2.780  1.00 20.00    -0.130 Cl
ENDBRANCH   7   8
ENDBRANCH   6   7
ENDBRANCH   1   6
TORSDOF 4
ENDMDL
MODEL 5
REMARK VINA RESULT:      -4.1      2.495      3.972
REMARK  4 active torsions:
REMARK  status: ('A' for Active; 'I' for Inactive)
REMARK    1  A    between atoms: C2_2  and  C3_3 
REMARK    2  A    between atoms: C3_3  and  C5_5 
REMARK    3  A    between atoms: C5_5  and  C6_6 
REMARK    4  A    between atoms: C6_6  and  C7_7 
ROOT
HETATM    1  C3  UNL     1     -33.510   7.636   5.109  1.00 20.00     0.154 C 
HETATM    2  O8  UNL     1     -33.974   8.581   5.747  1.00 20.00    -0.293 OA
ENDROOT
BRANCH   1   3
HETATM    3  C2  UNL     1     -34.140   6.278   5.243  1.00 20.00    -0.025 C 
HETATM    4  C1  UNL     1     -34.637   5.844   6.409  1.00 20.00     0.022 C 
HETATM    5  C4  UNL     1     -34.183   5.435   4.002  1.00 20.00     0.051 C 
ENDBRANCH   1   3
BRANCH   1   6
HETATM    6  C5  UNL     1     -32.308   7.810   4.189  1.00 20.00     0.084 C 
BRANCH   6   7
HETATM    7  C6  UNL     1     -32.600   8.766   3.027  1.00 20.00     0.023 C 
BRANCH   7   8
HETATM    8  C7  UNL     1     -32.273   8.173   1.661  1.00 20.00     0.115 C 
HETATM    9 CL9  UNL     1     -32.664   9.293   0.336  1.00 20.00    -0.130 Cl
ENDBRANCH   7   8
ENDBRANCH   6   7
ENDBRANCH   1   6
TORSDOF 4
ENDMDL
MODEL 6
REMARK VINA RESULT:      -4.1      2.400      2.817
REMARK  4 active torsions:
REMARK  status: ('A' for Active; 'I' for Inactive)
REMARK    1  A    between atoms: C2_2  and  C3_3 
REMARK    2  A    between atoms: C3_3  and  C5_5 
REMARK    3  A    between atoms: C5_5  and  C6_6 
REMARK    4  A    between atoms: C6_6  and  C7_7 
ROOT
HETATM    1  C3  UNL     1     -34.026   4.930   4.039  1.00 20.00     0.154 C 
HETATM    2  O8  UNL     1     -33.972   3.764   4.432  1.00 20.00    -0.293 OA
ENDROOT
BRANCH   1   3
HETATM    3  C2  UNL     1     -33.136   5.366   2.908  1.00 20.00    -0.025 C 
HETATM    4  C1  UNL     1     -32.893   4.572   1.856  1.00 20.00     0.022 C 
HETATM    5  C4  UNL     1     -32.536   6.737   3.019  1.00 20.00     0.051 C 
ENDBRANCH   1   3
BRANCH   1   6
HETATM    6  C5  UNL     1     -34.970   5.943   4.674  1.00 20.00     0.084 C 
BRANCH   6   7
HETATM    7  C6  UNL     1     -34.747   6.076   6.184  1.00 20.00     0.023 C 
BRANCH   7   8
HETATM    8  C7  UNL     1     -33.687   7.110   6.549  1.00 20.00     0.115 C 
HETATM    9 CL9  UNL     1     -33.746   8.532   5.484  1.00 20.00    -0.130 Cl
ENDBRANCH   7   8
ENDBRANCH   6   7
ENDBRANCH   1   6
TORSDOF 4
ENDMDL
MODEL 7
REMARK VINA RESULT:      -4.0      1.892      2.531
REMARK  4 active torsions:
REMARK  status: ('A' for Active; 'I' for Inactive)
REMARK    1  A    between atoms: C2_2  and  C3_3 
REMARK    2  A    between atoms: C3_3  and  C5_5 
REMARK    3  A    between atoms: C5_5  and  C6_6 
REMARK    4  A    between atoms: C6_6  and  C7_7 
ROOT
HETATM    1  C3  UNL     1     -33.578   7.263   5.281  1.00 20.00     0.154 C 
HETATM    2  O8  UNL     1     -33.412   7.071   6.486  1.00 20.00    -0.293 OA
ENDROOT
BRANCH   1   3
HETATM    3  C2  UNL     1     -32.614   8.145   4.537  1.00 20.00    -0.025 C 
HETATM    4  C1  UNL     1     -32.152   9.287   5.066  1.00 20.00     0.022 C 
HETATM    5  C4  UNL     1     -32.197   7.680   3.173  1.00 20.00     0.051 C 
ENDBRANCH   1   3
BRANCH   1   6
HETATM    6  C5  UNL     1     -34.740   6.629   4.526  1.00 20.00     0.084 C 
BRANCH   6   7
HETATM    7  C6  UNL     1     -34.918   5.147   4.873  1.00 20.00     0.023 C 
BRANCH   7   8
HETATM    8  C7  UNL     1     -33.794   4.263   4.345  1.00 20.00     0.115 C 
HETATM    9 CL9  UNL     1     -33.257   4.762   2.725  1.00 20.00    -0.130 Cl
ENDBRANCH   7   8
ENDBRANCH   6   7
ENDBRANCH   1   6
TORSDOF 4
ENDMDL
MODEL 8
REMARK VINA RESULT:      -3.9      2.612      3.429
REMARK  4 active torsions:
REMARK  status: ('A' for Active; 'I' for Inactive)
REMARK    1  A    between atoms: C2_2  and  C3_3 
REMARK    2  A    between atoms: C3_3  and  C5_5 
REMARK    3  A    between atoms: C5_5  and  C6_6 
REMARK    4  A    between atoms: C6_6  and  C7_7 
ROOT
HETATM    1  C3  UNL     1     -34.940   5.716   4.697  1.00 20.00     0.154 C 
HETATM    2  O8  UNL     1     -35.988   6.016   4.124  1.00 20.00    -0.293 OA
ENDROOT
BRANCH   1   3
HETATM    3  C2  UNL     1     -33.866   4.991   3.935  1.00 20.00    -0.025 C 
HETATM    4  C1  UNL     1     -33.273   5.536   2.863  1.00 20.00     0.022 C 
HETATM    5  C4  UNL     1     -33.493   3.627   4.437  1.00 20.00     0.051 C 
ENDBRANCH   1   3
BRANCH   1   6
HETATM    6  C5  UNL     1     -34.708   6.059   6.164  1.00 20.00     0.084 C 
BRANCH   6   7
HETATM    7  C6  UNL     1     -33.578   7.078   6.349  1.00 20.00     0.023 C 
BRANCH   7   8
HETATM    8  C7  UNL     1     -33.672   8.264   5.395  1.00 20.00     0.115 C 
HETATM    9 CL9  UNL     1     -32.155   8.528   4.507  1.00 20.00    -0.130 Cl
ENDBRANCH   7   8
ENDBRANCH   6   7
ENDBRANCH   1   6
TORSDOF 4
ENDMDL
MODEL 9
REMARK VINA RESULT:      -3.9      2.578      4.119
REMARK  4 active torsions:
REMARK  status: ('A' for Active; 'I' for Inactive)
REMARK    1  A    between atoms: C2_2  and  C3_3 
REMARK    2  A    between atoms: C3_3  and  C5_5 
REMARK    3  A    between atoms: C5_5  and  C6_6 
REMARK    4  A    between atoms: C6_6  and  C7_7 
ROOT
HETATM    1  C3  UNL     1     -33.923   4.933   3.955  1.00 20.00     0.154 C 
HETATM    2  O8  UNL     1     -33.698   3.759   4.252  1.00 20.00    -0.293 OA
ENDROOT
BRANCH   1   3
HETATM    3  C2  UNL     1     -34.882   5.732   4.794  1.00 20.00    -0.025 C 
HETATM    4  C1  UNL     1     -35.951   6.336   4.259  1.00 20.00     0.022 C 
HETATM    5  C4  UNL     1     -34.577   5.817   6.261  1.00 20.00     0.051 C 
ENDBRANCH   1   3
BRANCH   1   6
HETATM    6  C5  UNL     1     -33.256   5.594   2.755  1.00 20.00     0.084 C 
BRANCH   6   7
HETATM    7  C6  UNL     1     -32.170   6.591   3.172  1.00 20.00     0.023 C 
BRANCH   7   8
HETATM    8  C7  UNL     1     -32.680   8.023   3.294  1.00 20.00     0.115 C 
HETATM    9 CL9  UNL     1     -32.570   8.631   4.961  1.00 20.00    -0.130 Cl
ENDBRANCH   7   8
ENDBRANCH   6   7
ENDBRANCH   1   6
TORSDOF 4
ENDMDL
