MODEL 1
REMARK VINA RESULT:      -4.8      0.000      0.000
REMARK  3 active torsions:
REMARK  status: ('A' for Active; 'I' for Inactive)
REMARK    1  A    between atoms: C4_4  and  C7_7 
REMARK    2  A    between atoms: C6_6  and  C7_7 
REMARK    3  A    between atoms: C7_7  and  O9_9 
ROOT
HETATM    1  C1  UNL     1     -34.106   5.854   4.251  1.00 20.00     0.035 C 
HETATM    2  C2  UNL     1     -34.864   5.131   5.344  1.00 20.00     0.168 C 
HETATM    3  C3  UNL     1     -33.788   6.969   6.290  1.00 20.00     0.174 C 
HETATM    4  C4  UNL     1     -34.014   7.255   4.816  1.00 20.00     0.040 C 
HETATM    5  O8  UNL     1     -34.506   5.760   6.584  1.00 20.00    -0.391 OA
ENDROOT
BRANCH   4   6
HETATM    6  C7  UNL     1     -32.931   8.111   4.186  1.00 20.00     0.124 C 
BRANCH   6   7
HETATM    7  C6  UNL     1     -32.172   7.342   3.099  1.00 20.00     0.027 C 
HETATM    8  C5  UNL     1     -32.184   8.066   1.758  1.00 20.00     0.007 C 
ENDBRANCH   6   7
BRANCH   6   9
HETATM    9  O9  UNL     1     -32.008   8.512   5.197  1.00 20.00    -0.395 OA
HETATM   10  H23 UNL     1     -31.489   7.726   5.422  1.00 20.00     0.210 HD
ENDBRANCH   6   9
ENDBRANCH   4   6
TORSDOF 3
ENDMDL
MODEL 2
REMARK VINA RESULT:      -4.2     11.856     13.153
REMARK  3 active torsions:
REMARK  status: ('A' for Active; 'I' for Inactive)
REMARK    1  A    between atoms: C4_4  and  C7_7 
REMARK    2  A    between atoms: C6_6  and  C7_7 
REMARK    3  A    between atoms: C7_7  and  O9_9 
ROOT
HETATM    1  C1  UNL     1     -34.144  15.336  -6.592  1.00 20.00     0.035 C 
HETATM    2  C2  UNL     1     -35.350  15.367  -7.509  1.00 20.00     0.168 C 
HETATM    3  C3  UNL     1     -35.995  14.419  -5.480  1.00 20.00     0.174 C 
HETATM    4  C4  UNL     1     -34.797  15.318  -5.227  1.00 20.00     0.040 C 
HETATM    5  O8  UNL     1     -36.400  14.654  -6.838  1.00 20.00    -0.391 OA
ENDROOT
BRANCH   4   6
HETATM    6  C7  UNL     1     -33.892  14.832  -4.111  1.00 20.00     0.124 C 
BRANCH   6   7
HETATM    7  C6  UNL     1     -32.986  15.955  -3.595  1.00 20.00     0.027 C 
HETATM    8  C5  UNL     1     -33.539  16.618  -2.340  1.00 20.00     0.007 C 
ENDBRANCH   6   7
BRANCH   6   9
HETATM    9  O9  UNL     1     -33.076  13.770  -4.603  1.00 20.00    -0.395 OA
HETATM   10  H23 UNL     1     -33.555  13.378  -5.348  1.00 20.00     0.210 HD
ENDBRANCH   6   9
ENDBRANCH   4   6
TORSDOF 3
ENDMDL
MODEL 3
REMARK VINA RESULT:      -4.0      1.203      1.284
REMARK  3 active torsions:
REMARK  status: ('A' for Active; 'I' for Inactive)
REMARK    1  A    between atoms: C4_4  and  C7_7 
REMARK    2  A    between atoms: C6_6  and  C7_7 
REMARK    3  A    between atoms: C7_7  and  O9_9 
ROOT
HETATM    1  C1  UNL     1     -34.170   5.634   4.290  1.00 20.00     0.035 C 
HETATM    2  C2  UNL     1     -35.096   5.292   5.439  1.00 20.00     0.168 C 
HETATM    3  C3  UNL     1     -33.684   7.013   6.125  1.00 20.00     0.174 C 
HETATM    4  C4  UNL     1     -33.800   7.066   4.611  1.00 20.00     0.040 C 
HETATM    5  O8  UNL     1     -34.650   6.050   6.573  1.00 20.00    -0.391 OA
ENDROOT
BRANCH   4   6
HETATM    6  C7  UNL     1     -32.542   7.554   3.917  1.00 20.00     0.124 C 
BRANCH   6   7
HETATM    7  C6  UNL     1     -32.677   9.016   3.478  1.00 20.00     0.027 C 
HETATM    8  C5  UNL     1     -32.771   9.162   1.964  1.00 20.00     0.007 C 
ENDBRANCH   6   7
BRANCH   6   9
HETATM    9  O9  UNL     1     -32.302   6.746   2.767  1.00 20.00    -0.395 OA
HETATM   10  H23 UNL     1     -31.659   7.226   2.224  1.00 20.00     0.210 HD
ENDBRANCH   6   9
ENDBRANCH   4   6
TORSDOF 3
ENDMDL
MODEL 4
REMARK VINA RESULT:      -4.0      1.522      3.969
REMARK  3 active torsions:
REMARK  status: ('A' for Active; 'I' for Inactive)
REMARK    1  A    between atoms: C4_4  and  C7_7 
REMARK    2  A    between atoms: C6_6  and  C7_7 
REMARK    3  A    between atoms: C7_7  and  O9_9 
ROOT
HETATM    1  C1  UNL     1     -33.419   8.087   5.310  1.00 20.00     0.035 C 
HETATM    2  C2  UNL     1     -32.285   8.824   4.627  1.00 20.00     0.168 C 
HETATM    3  C3  UNL     1     -32.683   6.847   3.460  1.00 20.00     0.174 C 
HETATM    4  C4  UNL     1     -33.962   7.242   4.179  1.00 20.00     0.040 C 
HETATM    5  O8  UNL     1     -31.776   7.950   3.609  1.00 20.00    -0.391 OA
ENDROOT
BRANCH   4   6
HETATM    6  C7  UNL     1     -34.800   6.062   4.630  1.00 20.00     0.124 C 
BRANCH   6   7
HETATM    7  C6  UNL     1     -34.869   5.976   6.159  1.00 20.00     0.027 C 
HETATM    8  C5  UNL     1     -33.956   4.895   6.723  1.00 20.00     0.007 C 
ENDBRANCH   6   7
BRANCH   6   9
HETATM    9  O9  UNL     1     -34.220   4.859   4.126  1.00 20.00    -0.395 OA
HETATM   10  H23 UNL     1     -33.263   4.941   4.256  1.00 20.00     0.210 HD
ENDBRANCH   6   9
ENDBRANCH   4   6
TORSDOF 3
ENDMDL
MODEL 5
REMARK VINA RESULT:      -3.9     14.933     16.122
REMARK  3 active torsions:
REMARK  status: ('A' for Active; 'I' for Inactive)
REMARK    1  A    between atoms: C4_4  and  C7_7 
REMARK    2  A    between atoms: C6_6  and  C7_7 
REMARK    3  A    between atoms: C7_7  and  O9_9 
ROOT
HETATM    1  C1  UNL     1     -22.281  17.422   9.297  1.00 20.00     0.035 C 
HETATM    2  C2  UNL     1     -21.841  17.825   7.905  1.00 20.00     0.168 C 
HETATM    3  C3  UNL     1     -23.742  19.055   8.457  1.00 20.00     0.174 C 
HETATM    4  C4  UNL     1     -23.045  18.649   9.744  1.00 20.00     0.040 C 
HETATM    5  O8  UNL     1     -22.854  18.699   7.385  1.00 20.00    -0.391 OA
ENDROOT
BRANCH   4   6
HETATM    6  C7  UNL     1     -23.994  18.405  10.902  1.00 20.00     0.124 C 
BRANCH   6   7
HETATM    7  C6  UNL     1     -23.479  17.294  11.823  1.00 20.00     0.027 C 
HETATM    8  C5  UNL     1     -24.457  16.132  11.939  1.00 20.00     0.007 C 
ENDBRANCH   6   7
BRANCH   6   9
HETATM    9  O9  UNL     1     -25.268  18.022  10.387  1.00 20.00    -0.395 OA
HETATM   10  H23 UNL     1     -25.573  17.281  10.931  1.00 20.00     0.210 HD
ENDBRANCH   6   9
ENDBRANCH   4   6
TORSDOF 3
ENDMDL
MODEL 6
REMARK VINA RESULT:      -3.8      1.407      3.744
REMARK  3 active torsions:
REMARK  status: ('A' for Active; 'I' for Inactive)
REMARK    1  A    between atoms: C4_4  and  C7_7 
REMARK    2  A    between atoms: C6_6  and  C7_7 
REMARK    3  A    between atoms: C7_7  and  O9_9 
ROOT
HETATM    1  C1  UNL     1     -32.677   8.593   4.856  1.00 20.00     0.035 C 
HETATM    2  C2  UNL     1     -32.246   8.923   3.443  1.00 20.00     0.168 C 
HETATM    3  C3  UNL     1     -32.746   6.650   3.544  1.00 20.00     0.174 C 
HETATM    4  C4  UNL     1     -33.525   7.359   4.638  1.00 20.00     0.040 C 
HETATM    5  O8  UNL     1     -32.155   7.678   2.734  1.00 20.00    -0.391 OA
ENDROOT
BRANCH   4   6
HETATM    6  C7  UNL     1     -33.733   6.519   5.884  1.00 20.00     0.124 C 
BRANCH   6   7
HETATM    7  C6  UNL     1     -34.609   5.295   5.594  1.00 20.00     0.027 C 
HETATM    8  C5  UNL     1     -35.671   5.576   4.539  1.00 20.00     0.007 C 
ENDBRANCH   6   7
BRANCH   6   9
HETATM    9  O9  UNL     1     -34.369   7.315   6.882  1.00 20.00    -0.395 OA
HETATM   10  H23 UNL     1     -35.156   7.698   6.467  1.00 20.00     0.210 HD
ENDBRANCH   6   9
ENDBRANCH   4   6
TORSDOF 3
ENDMDL
MODEL 7
REMARK VINA RESULT:      -3.8      1.415      3.981
REMARK  3 active torsions:
REMARK  status: ('A' for Active; 'I' for Inactive)
REMARK    1  A    between atoms: C4_4  and  C7_7 
REMARK    2  A    between atoms: C6_6  and  C7_7 
REMARK    3  A    between atoms: C7_7  and  O9_9 
ROOT
HETATM    1  C1  UNL     1     -32.705   6.481   2.659  1.00 20.00     0.035 C 
HETATM    2  C2  UNL     1     -31.896   7.759   2.733  1.00 20.00     0.168 C 
HETATM    3  C3  UNL     1     -33.521   7.824   4.401  1.00 20.00     0.174 C 
HETATM    4  C4  UNL     1     -33.231   6.369   4.074  1.00 20.00     0.040 C 
HETATM    5  O8  UNL     1     -32.537   8.601   3.702  1.00 20.00    -0.391 OA
ENDROOT
BRANCH   4   6
HETATM    6  C7  UNL     1     -34.435   5.458   4.220  1.00 20.00     0.124 C 
BRANCH   6   7
HETATM    7  C6  UNL     1     -35.175   5.715   5.537  1.00 20.00     0.027 C 
HETATM    8  C5  UNL     1     -34.356   5.306   6.755  1.00 20.00     0.007 C 
ENDBRANCH   6   7
BRANCH   6   9
HETATM    9  O9  UNL     1     -33.997   4.101   4.194  1.00 20.00    -0.395 OA
HETATM   10  H23 UNL     1     -33.042   4.117   4.356  1.00 20.00     0.210 HD
ENDBRANCH   6   9
ENDBRANCH   4   6
TORSDOF 3
ENDMDL
MODEL 8
REMARK VINA RESULT:      -3.8      9.146      9.671
REMARK  3 active torsions:
REMARK  status: ('A' for Active; 'I' for Inactive)
REMARK    1  A    between atoms: C4_4  and  C7_7 
REMARK    2  A    between atoms: C6_6  and  C7_7 
REMARK    3  A    between atoms: C7_7  and  O9_9 
ROOT
HETATM    1  C1  UNL     1     -41.910  12.596   6.649  1.00 20.00     0.035 C 
HETATM    2  C2  UNL     1     -42.823  13.497   7.454  1.00 20.00     0.168 C 
HETATM    3  C3  UNL     1     -40.620  14.153   7.837  1.00 20.00     0.174 C 
HETATM    4  C4  UNL     1     -40.685  13.468   6.483  1.00 20.00     0.040 C 
HETATM    5  O8  UNL     1     -41.978  14.317   8.275  1.00 20.00    -0.391 OA
ENDROOT
BRANCH   4   6
HETATM    6  C7  UNL     1     -39.424  12.708   6.121  1.00 20.00     0.124 C 
BRANCH   6   7
HETATM    7  C6  UNL     1     -39.723  11.553   5.159  1.00 20.00     0.027 C 
HETATM    8  C5  UNL     1     -38.935  11.658   3.860  1.00 20.00     0.007 C 
ENDBRANCH   6   7
BRANCH   6   9
HETATM    9  O9  UNL     1     -38.841  12.178   7.310  1.00 20.00    -0.395 OA
HETATM   10  H23 UNL     1     -39.556  12.119   7.963  1.00 20.00     0.210 HD
ENDBRANCH   6   9
ENDBRANCH   4   6
TORSDOF 3
ENDMDL
MODEL 9
REMARK VINA RESULT:      -3.8     15.802     16.385
REMARK  3 active torsions:
REMARK  status: ('A' for Active; 'I' for Inactive)
REMARK    1  A    between atoms: C4_4  and  C7_7 
REMARK    2  A    between atoms: C6_6  and  C7_7 
REMARK    3  A    between atoms: C7_7  and  O9_9 
ROOT
HETATM    1  C1  UNL     1     -24.174  18.481   9.989  1.00 20.00     0.035 C 
HETATM    2  C2  UNL     1     -25.069  18.708  11.189  1.00 20.00     0.168 C 
HETATM    3  C3  UNL     1     -23.019  17.899  11.946  1.00 20.00     0.174 C 
HETATM    4  C4  UNL     1     -22.798  18.584  10.609  1.00 20.00     0.040 C 
HETATM    5  O8  UNL     1     -24.372  18.189  12.332  1.00 20.00    -0.391 OA
ENDROOT
BRANCH   4   6
HETATM    6  C7  UNL     1     -21.693  17.961   9.778  1.00 20.00     0.124 C 
BRANCH   6   7
HETATM    7  C6  UNL     1     -21.317  18.850   8.588  1.00 20.00     0.027 C 
HETATM    8  C5  UNL     1     -21.293  18.083   7.272  1.00 20.00     0.007 C 
ENDBRANCH   6   7
BRANCH   6   9
HETATM    9  O9  UNL     1     -22.135  16.697   9.288  1.00 20.00    -0.395 OA
HETATM   10  H23 UNL     1     -21.916  16.045   9.971  1.00 20.00     0.210 HD
ENDBRANCH   6   9
ENDBRANCH   4   6
TORSDOF 3
ENDMDL
