MODEL 1
REMARK VINA RESULT:      -4.3      0.000      0.000
REMARK  3 active torsions:
REMARK  status: ('A' for Active; 'I' for Inactive)
REMARK    1  A    between atoms: C4_4  and  C7_7 
REMARK    2  A    between atoms: C6_6  and  C7_7 
REMARK    3  A    between atoms: C7_7  and  O9_9 
ROOT
HETATM    1  C1  UNL     1     -34.935   6.129   4.395  1.00 20.00     0.035 C 
HETATM    2  C2  UNL     1     -34.439   4.941   5.194  1.00 20.00     0.168 C 
HETATM    3  C3  UNL     1     -34.284   6.842   6.534  1.00 20.00     0.174 C 
HETATM    4  C4  UNL     1     -34.277   7.305   5.085  1.00 20.00     0.040 C 
HETATM    5  O8  UNL     1     -34.158   5.413   6.519  1.00 20.00    -0.391 OA
ENDROOT
BRANCH   4   6
HETATM    6  C7  UNL     1     -32.856   7.546   4.575  1.00 20.00     0.124 C 
BRANCH   6   7
HETATM    7  C6  UNL     1     -32.861   8.277   3.228  1.00 20.00     0.027 C 
HETATM    8  C5  UNL     1     -32.130   7.500   2.141  1.00 20.00     0.007 C 
ENDBRANCH   6   7
BRANCH   6   9
HETATM    9  O9  UNL     1     -32.146   8.336   5.528  1.00 20.00    -0.395 OA
HETATM   10  H23 UNL     1     -32.619   9.178   5.594  1.00 20.00     0.210 HD
ENDBRANCH   6   9
ENDBRANCH   4   6
TORSDOF 3
ENDMDL
MODEL 2
REMARK VINA RESULT:      -4.1      1.501      1.842
REMARK  3 active torsions:
REMARK  status: ('A' for Active; 'I' for Inactive)
REMARK    1  A    between atoms: C4_4  and  C7_7 
REMARK    2  A    between atoms: C6_6  and  C7_7 
REMARK    3  A    between atoms: C7_7  and  O9_9 
ROOT
HETATM    1  C1  UNL     1     -33.415   5.463   3.487  1.00 20.00     0.035 C 
HETATM    2  C2  UNL     1     -33.798   4.267   4.336  1.00 20.00     0.168 C 
HETATM    3  C3  UNL     1     -35.378   5.946   4.679  1.00 20.00     0.174 C 
HETATM    4  C4  UNL     1     -34.104   6.615   4.188  1.00 20.00     0.040 C 
HETATM    5  O8  UNL     1     -35.054   4.576   4.955  1.00 20.00    -0.391 OA
ENDROOT
BRANCH   4   6
HETATM    6  C7  UNL     1     -33.269   7.161   5.346  1.00 20.00     0.124 C 
BRANCH   6   7
HETATM    7  C6  UNL     1     -32.819   8.602   5.081  1.00 20.00     0.027 C 
HETATM    8  C5  UNL     1     -32.470   8.843   3.618  1.00 20.00     0.007 C 
ENDBRANCH   6   7
BRANCH   6   9
HETATM    9  O9  UNL     1     -34.052   7.132   6.539  1.00 20.00    -0.395 OA
HETATM   10  H23 UNL     1     -33.427   7.149   7.278  1.00 20.00     0.210 HD
ENDBRANCH   6   9
ENDBRANCH   4   6
TORSDOF 3
ENDMDL
MODEL 3
REMARK VINA RESULT:      -4.1      8.655      9.205
REMARK  3 active torsions:
REMARK  status: ('A' for Active; 'I' for Inactive)
REMARK    1  A    between atoms: C4_4  and  C7_7 
REMARK    2  A    between atoms: C6_6  and  C7_7 
REMARK    3  A    between atoms: C7_7  and  O9_9 
ROOT
HETATM    1  C1  UNL     1     -41.755  13.104   5.880  1.00 20.00     0.035 C 
HETATM    2  C2  UNL     1     -42.331  12.835   7.256  1.00 20.00     0.168 C 
HETATM    3  C3  UNL     1     -40.406  14.124   7.507  1.00 20.00     0.174 C 
HETATM    4  C4  UNL     1     -40.300  13.405   6.171  1.00 20.00     0.040 C 
HETATM    5  O8  UNL     1     -41.533  13.566   8.197  1.00 20.00    -0.391 OA
ENDROOT
BRANCH   4   6
HETATM    6  C7  UNL     1     -39.464  12.131   6.280  1.00 20.00     0.124 C 
BRANCH   6   7
HETATM    7  C6  UNL     1     -38.433  12.040   5.150  1.00 20.00     0.027 C 
HETATM    8  C5  UNL     1     -39.054  11.604   3.829  1.00 20.00     0.007 C 
ENDBRANCH   6   7
BRANCH   6   9
HETATM    9  O9  UNL     1     -38.779  12.128   7.532  1.00 20.00    -0.395 OA
HETATM   10  H23 UNL     1     -37.989  11.580   7.412  1.00 20.00     0.210 HD
ENDBRANCH   6   9
ENDBRANCH   4   6
TORSDOF 3
ENDMDL
MODEL 4
REMARK VINA RESULT:      -4.0     12.333     13.563
REMARK  3 active torsions:
REMARK  status: ('A' for Active; 'I' for Inactive)
REMARK    1  A    between atoms: C4_4  and  C7_7 
REMARK    2  A    between atoms: C6_6  and  C7_7 
REMARK    3  A    between atoms: C7_7  and  O9_9 
ROOT
HETATM    1  C1  UNL     1     -35.479  16.478  -6.323  1.00 20.00     0.035 C 
HETATM    2  C2  UNL     1     -35.495  15.457  -7.444  1.00 20.00     0.168 C 
HETATM    3  C3  UNL     1     -36.029  14.369  -5.453  1.00 20.00     0.174 C 
HETATM    4  C4  UNL     1     -35.257  15.628  -5.090  1.00 20.00     0.040 C 
HETATM    5  O8  UNL     1     -35.940  14.217  -6.876  1.00 20.00    -0.391 OA
ENDROOT
BRANCH   4   6
HETATM    6  C7  UNL     1     -33.775  15.335  -4.855  1.00 20.00     0.124 C 
BRANCH   6   7
HETATM    7  C6  UNL     1     -33.316  15.839  -3.483  1.00 20.00     0.027 C 
HETATM    8  C5  UNL     1     -33.289  17.360  -3.400  1.00 20.00     0.007 C 
ENDBRANCH   6   7
BRANCH   6   9
HETATM    9  O9  UNL     1     -33.561  13.926  -4.926  1.00 20.00    -0.395 OA
HETATM   10  H23 UNL     1     -33.420  13.716  -5.861  1.00 20.00     0.210 HD
ENDBRANCH   6   9
ENDBRANCH   4   6
TORSDOF 3
ENDMDL
MODEL 5
REMARK VINA RESULT:      -3.7      1.277      3.658
REMARK  3 active torsions:
REMARK  status: ('A' for Active; 'I' for Inactive)
REMARK    1  A    between atoms: C4_4  and  C7_7 
REMARK    2  A    between atoms: C6_6  and  C7_7 
REMARK    3  A    between atoms: C7_7  and  O9_9 
ROOT
HETATM    1  C1  UNL     1     -32.326   7.297   3.236  1.00 20.00     0.035 C 
HETATM    2  C2  UNL     1     -32.661   8.627   2.589  1.00 20.00     0.168 C 
HETATM    3  C3  UNL     1     -32.185   9.006   4.839  1.00 20.00     0.174 C 
HETATM    4  C4  UNL     1     -32.606   7.550   4.702  1.00 20.00     0.040 C 
HETATM    5  O8  UNL     1     -32.456   9.641   3.582  1.00 20.00    -0.391 OA
ENDROOT
BRANCH   4   6
HETATM    6  C7  UNL     1     -34.082   7.353   5.045  1.00 20.00     0.124 C 
BRANCH   6   7
HETATM    7  C6  UNL     1     -34.593   5.993   4.558  1.00 20.00     0.027 C 
HETATM    8  C5  UNL     1     -34.627   4.952   5.669  1.00 20.00     0.007 C 
ENDBRANCH   6   7
BRANCH   6   9
HETATM    9  O9  UNL     1     -34.246   7.429   6.461  1.00 20.00    -0.395 OA
HETATM   10  H23 UNL     1     -34.962   6.818   6.688  1.00 20.00     0.210 HD
ENDBRANCH   6   9
ENDBRANCH   4   6
TORSDOF 3
ENDMDL
MODEL 6
REMARK VINA RESULT:      -3.7     12.549     13.245
REMARK  3 active torsions:
REMARK  status: ('A' for Active; 'I' for Inactive)
REMARK    1  A    between atoms: C4_4  and  C7_7 
REMARK    2  A    between atoms: C6_6  and  C7_7 
REMARK    3  A    between atoms: C7_7  and  O9_9 
ROOT
HETATM    1  C1  UNL     1     -34.975  14.065  -4.483  1.00 20.00     0.035 C 
HETATM    2  C2  UNL     1     -35.985  14.408  -5.560  1.00 20.00     0.168 C 
HETATM    3  C3  UNL     1     -33.870  15.041  -6.309  1.00 20.00     0.174 C 
HETATM    4  C4  UNL     1     -33.818  14.993  -4.790  1.00 20.00     0.040 C 
HETATM    5  O8  UNL     1     -35.246  14.899  -6.688  1.00 20.00    -0.391 OA
ENDROOT
BRANCH   4   6
HETATM    6  C7  UNL     1     -34.017  16.377  -4.173  1.00 20.00     0.124 C 
BRANCH   6   7
HETATM    7  C6  UNL     1     -32.982  16.656  -3.078  1.00 20.00     0.027 C 
HETATM    8  C5  UNL     1     -33.625  17.082  -1.764  1.00 20.00     0.007 C 
ENDBRANCH   6   7
BRANCH   6   9
HETATM    9  O9  UNL     1     -33.888  17.366  -5.194  1.00 20.00    -0.395 OA
HETATM   10  H23 UNL     1     -34.081  18.219  -4.777  1.00 20.00     0.210 HD
ENDBRANCH   6   9
ENDBRANCH   4   6
TORSDOF 3
ENDMDL
MODEL 7
REMARK VINA RESULT:      -3.7      1.657      3.819
REMARK  3 active torsions:
REMARK  status: ('A' for Active; 'I' for Inactive)
REMARK    1  A    between atoms: C4_4  and  C7_7 
REMARK    2  A    between atoms: C6_6  and  C7_7 
REMARK    3  A    between atoms: C7_7  and  O9_9 
ROOT
HETATM    1  C1  UNL     1     -33.769   8.242   4.636  1.00 20.00     0.035 C 
HETATM    2  C2  UNL     1     -32.351   8.460   5.125  1.00 20.00     0.168 C 
HETATM    3  C3  UNL     1     -32.255   7.568   2.974  1.00 20.00     0.174 C 
HETATM    4  C4  UNL     1     -33.602   7.184   3.566  1.00 20.00     0.040 C 
HETATM    5  O8  UNL     1     -31.476   8.135   4.037  1.00 20.00    -0.391 OA
ENDROOT
BRANCH   4   6
HETATM    6  C7  UNL     1     -33.581   5.774   4.154  1.00 20.00     0.124 C 
BRANCH   6   7
HETATM    7  C6  UNL     1     -34.887   5.454   4.890  1.00 20.00     0.027 C 
HETATM    8  C5  UNL     1     -34.692   5.337   6.397  1.00 20.00     0.007 C 
ENDBRANCH   6   7
BRANCH   6   9
HETATM    9  O9  UNL     1     -33.402   4.830   3.098  1.00 20.00    -0.395 OA
HETATM   10  H23 UNL     1     -33.648   5.285   2.279  1.00 20.00     0.210 HD
ENDBRANCH   6   9
ENDBRANCH   4   6
TORSDOF 3
ENDMDL
MODEL 8
REMARK VINA RESULT:      -3.6     15.564     16.183
REMARK  3 active torsions:
REMARK  status: ('A' for Active; 'I' for Inactive)
REMARK    1  A    between atoms: C4_4  and  C7_7 
REMARK    2  A    between atoms: C6_6  and  C7_7 
REMARK    3  A    between atoms: C7_7  and  O9_9 
ROOT
HETATM    1  C1  UNL     1     -24.762  17.904  10.680  1.00 20.00     0.035 C 
HETATM    2  C2  UNL     1     -24.336  16.836  11.667  1.00 20.00     0.168 C 
HETATM    3  C3  UNL     1     -22.667  18.461  11.580  1.00 20.00     0.174 C 
HETATM    4  C4  UNL     1     -23.449  18.542  10.278  1.00 20.00     0.040 C 
HETATM    5  O8  UNL     1     -23.108  17.278  12.262  1.00 20.00    -0.391 OA
ENDROOT
BRANCH   4   6
HETATM    6  C7  UNL     1     -22.758  17.770   9.155  1.00 20.00     0.124 C 
BRANCH   6   7
HETATM    7  C6  UNL     1     -22.209  18.716   8.081  1.00 20.00     0.027 C 
HETATM    8  C5  UNL     1     -21.293  18.005   7.093  1.00 20.00     0.007 C 
ENDBRANCH   6   7
BRANCH   6   9
HETATM    9  O9  UNL     1     -21.678  17.015   9.703  1.00 20.00    -0.395 OA
HETATM   10  H23 UNL     1     -21.790  17.035  10.665  1.00 20.00     0.210 HD
ENDBRANCH   6   9
ENDBRANCH   4   6
TORSDOF 3
ENDMDL
MODEL 9
REMARK VINA RESULT:      -3.6     15.357     16.444
REMARK  3 active torsions:
REMARK  status: ('A' for Active; 'I' for Inactive)
REMARK    1  A    between atoms: C4_4  and  C7_7 
REMARK    2  A    between atoms: C6_6  and  C7_7 
REMARK    3  A    between atoms: C7_7  and  O9_9 
ROOT
HETATM    1  C1  UNL     1     -22.991  18.452  12.234  1.00 20.00     0.035 C 
HETATM    2  C2  UNL     1     -24.501  18.534  12.332  1.00 20.00     0.168 C 
HETATM    3  C3  UNL     1     -23.958  16.990  10.673  1.00 20.00     0.174 C 
HETATM    4  C4  UNL     1     -22.768  17.924  10.832  1.00 20.00     0.040 C 
HETATM    5  O8  UNL     1     -25.035  17.548  11.438  1.00 20.00    -0.391 OA
ENDROOT
BRANCH   4   6
HETATM    6  C7  UNL     1     -22.782  19.042   9.791  1.00 20.00     0.124 C 
BRANCH   6   7
HETATM    7  C6  UNL     1     -21.501  19.039   8.949  1.00 20.00     0.027 C 
HETATM    8  C5  UNL     1     -21.561  18.040   7.801  1.00 20.00     0.007 C 
ENDBRANCH   6   7
BRANCH   6   9
HETATM    9  O9  UNL     1     -23.904  18.860   8.927  1.00 20.00    -0.395 OA
HETATM   10  H23 UNL     1     -24.151  17.926   8.991  1.00 20.00     0.210 HD
ENDBRANCH   6   9
ENDBRANCH   4   6
TORSDOF 3
ENDMDL
