MODEL 1
REMARK VINA RESULT:      -5.1      0.000      0.000
REMARK  1 active torsions:
REMARK  status: ('A' for Active; 'I' for Inactive)
REMARK    1  A    between atoms: C1_1  and  C4_4 
ROOT
HETATM    1  C1  UNL     1     -33.813   6.548   4.427  1.00 20.00     0.172 C 
HETATM    2  C2  UNL     1     -32.208   7.556   3.202  1.00 20.00     0.160 C 
HETATM    3  C3  UNL     1     -32.103   8.367   4.485  1.00 20.00     0.103 C 
HETATM    4  N5  UNL     1     -33.009   6.337   3.438  1.00 20.00    -0.278 NA
HETATM    5  S9  UNL     1     -33.695   8.068   5.272  1.00 20.00    -0.104 SA
ENDROOT
BRANCH   1   6
HETATM    6  C4  UNL     1     -34.805   5.546   4.911  1.00 20.00     0.440 C 
HETATM    7  F6  UNL     1     -36.033   5.785   4.399  1.00 20.00    -0.164 F 
HETATM    8  F7  UNL     1     -34.452   4.292   4.553  1.00 20.00    -0.164 F 
HETATM    9  F8  UNL     1     -34.915   5.570   6.257  1.00 20.00    -0.164 F 
ENDBRANCH   1   6
TORSDOF 1
ENDMDL
MODEL 2
REMARK VINA RESULT:      -5.0      0.033      1.252
REMARK  1 active torsions:
REMARK  status: ('A' for Active; 'I' for Inactive)
REMARK    1  A    between atoms: C1_1  and  C4_4 
ROOT
HETATM    1  C1  UNL     1     -33.822   6.569   4.430  1.00 20.00     0.172 C 
HETATM    2  C2  UNL     1     -32.212   7.562   3.198  1.00 20.00     0.160 C 
HETATM    3  C3  UNL     1     -32.098   8.375   4.479  1.00 20.00     0.103 C 
HETATM    4  N5  UNL     1     -33.023   6.350   3.439  1.00 20.00    -0.278 NA
HETATM    5  S9  UNL     1     -33.690   8.091   5.271  1.00 20.00    -0.104 SA
ENDROOT
BRANCH   1   6
HETATM    6  C4  UNL     1     -34.821   5.577   4.918  1.00 20.00     0.440 C 
HETATM    7  F6  UNL     1     -34.944   5.626   6.263  1.00 20.00    -0.164 F 
HETATM    8  F7  UNL     1     -36.043   5.808   4.389  1.00 20.00    -0.164 F 
HETATM    9  F8  UNL     1     -34.466   4.316   4.587  1.00 20.00    -0.164 F 
ENDBRANCH   1   6
TORSDOF 1
ENDMDL
MODEL 3
REMARK VINA RESULT:      -5.0      1.273      1.445
REMARK  1 active torsions:
REMARK  status: ('A' for Active; 'I' for Inactive)
REMARK    1  A    between atoms: C1_1  and  C4_4 
ROOT
HETATM    1  C1  UNL     1     -33.821   6.682   4.680  1.00 20.00     0.172 C 
HETATM    2  C2  UNL     1     -32.530   8.523   4.883  1.00 20.00     0.160 C 
HETATM    3  C3  UNL     1     -32.351   8.242   3.399  1.00 20.00     0.103 C 
HETATM    4  N5  UNL     1     -33.661   7.733   5.414  1.00 20.00    -0.278 NA
HETATM    5  S9  UNL     1     -32.817   6.507   3.266  1.00 20.00    -0.104 SA
ENDROOT
BRANCH   1   6
HETATM    6  C4  UNL     1     -34.843   5.633   4.955  1.00 20.00     0.440 C 
HETATM    7  F6  UNL     1     -36.012   5.914   4.337  1.00 20.00    -0.164 F 
HETATM    8  F7  UNL     1     -34.433   4.421   4.520  1.00 20.00    -0.164 F 
HETATM    9  F8  UNL     1     -35.097   5.526   6.278  1.00 20.00    -0.164 F 
ENDBRANCH   1   6
TORSDOF 1
ENDMDL
MODEL 4
REMARK VINA RESULT:      -4.6      3.000      3.889
REMARK  1 active torsions:
REMARK  status: ('A' for Active; 'I' for Inactive)
REMARK    1  A    between atoms: C1_1  and  C4_4 
ROOT
HETATM    1  C1  UNL     1     -33.429   7.178   4.856  1.00 20.00     0.172 C 
HETATM    2  C2  UNL     1     -34.743   6.094   6.337  1.00 20.00     0.160 C 
HETATM    3  C3  UNL     1     -34.472   4.964   5.355  1.00 20.00     0.103 C 
HETATM    4  N5  UNL     1     -33.811   7.214   6.090  1.00 20.00    -0.278 NA
HETATM    5  S9  UNL     1     -33.967   5.846   3.868  1.00 20.00    -0.104 SA
ENDROOT
BRANCH   1   6
HETATM    6  C4  UNL     1     -32.521   8.190   4.245  1.00 20.00     0.440 C 
HETATM    7  F6  UNL     1     -33.141   8.872   3.258  1.00 20.00    -0.164 F 
HETATM    8  F7  UNL     1     -32.101   9.090   5.161  1.00 20.00    -0.164 F 
HETATM    9  F8  UNL     1     -31.424   7.609   3.712  1.00 20.00    -0.164 F 
ENDBRANCH   1   6
TORSDOF 1
ENDMDL
MODEL 5
REMARK VINA RESULT:      -4.6      2.999      3.888
REMARK  1 active torsions:
REMARK  status: ('A' for Active; 'I' for Inactive)
REMARK    1  A    between atoms: C1_1  and  C4_4 
ROOT
HETATM    1  C1  UNL     1     -33.426   7.175   4.865  1.00 20.00     0.172 C 
HETATM    2  C2  UNL     1     -34.730   6.087   6.352  1.00 20.00     0.160 C 
HETATM    3  C3  UNL     1     -34.476   4.964   5.357  1.00 20.00     0.103 C 
HETATM    4  N5  UNL     1     -33.794   7.203   6.103  1.00 20.00    -0.278 NA
HETATM    5  S9  UNL     1     -33.982   5.854   3.872  1.00 20.00    -0.104 SA
ENDROOT
BRANCH   1   6
HETATM    6  C4  UNL     1     -32.519   8.187   4.252  1.00 20.00     0.440 C 
HETATM    7  F6  UNL     1     -32.095   9.085   5.168  1.00 20.00    -0.164 F 
HETATM    8  F7  UNL     1     -31.425   7.604   3.714  1.00 20.00    -0.164 F 
HETATM    9  F8  UNL     1     -33.140   8.873   3.267  1.00 20.00    -0.164 F 
ENDBRANCH   1   6
TORSDOF 1
ENDMDL
MODEL 6
REMARK VINA RESULT:      -4.6      1.156      1.392
REMARK  1 active torsions:
REMARK  status: ('A' for Active; 'I' for Inactive)
REMARK    1  A    between atoms: C1_1  and  C4_4 
ROOT
HETATM    1  C1  UNL     1     -33.705   6.464   4.816  1.00 20.00     0.172 C 
HETATM    2  C2  UNL     1     -32.797   6.474   2.749  1.00 20.00     0.160 C 
HETATM    3  C3  UNL     1     -32.024   7.623   3.378  1.00 20.00     0.103 C 
HETATM    4  N5  UNL     1     -33.491   5.698   3.798  1.00 20.00    -0.278 NA
HETATM    5  S9  UNL     1     -33.067   8.086   4.771  1.00 20.00    -0.104 SA
ENDROOT
BRANCH   1   6
HETATM    6  C4  UNL     1     -34.430   6.024   6.041  1.00 20.00     0.440 C 
HETATM    7  F6  UNL     1     -35.617   5.456   5.732  1.00 20.00    -0.164 F 
HETATM    8  F7  UNL     1     -33.713   5.114   6.737  1.00 20.00    -0.164 F 
HETATM    9  F8  UNL     1     -34.679   7.064   6.867  1.00 20.00    -0.164 F 
ENDBRANCH   1   6
TORSDOF 1
ENDMDL
MODEL 7
REMARK VINA RESULT:      -3.8      2.664      3.232
REMARK  1 active torsions:
REMARK  status: ('A' for Active; 'I' for Inactive)
REMARK    1  A    between atoms: C1_1  and  C4_4 
ROOT
HETATM    1  C1  UNL     1     -33.530   6.247   4.094  1.00 20.00     0.172 C 
HETATM    2  C2  UNL     1     -33.967   7.430   5.967  1.00 20.00     0.160 C 
HETATM    3  C3  UNL     1     -34.448   6.056   6.409  1.00 20.00     0.103 C 
HETATM    4  N5  UNL     1     -33.166   7.311   4.730  1.00 20.00    -0.278 NA
HETATM    5  S9  UNL     1     -34.712   5.206   4.843  1.00 20.00    -0.104 SA
ENDROOT
BRANCH   1   6
HETATM    6  C4  UNL     1     -32.965   5.840   2.777  1.00 20.00     0.440 C 
HETATM    7  F6  UNL     1     -32.265   6.848   2.211  1.00 20.00    -0.164 F 
HETATM    8  F7  UNL     1     -32.129   4.786   2.904  1.00 20.00    -0.164 F 
HETATM    9  F8  UNL     1     -33.939   5.485   1.910  1.00 20.00    -0.164 F 
ENDBRANCH   1   6
TORSDOF 1
ENDMDL
MODEL 8
REMARK VINA RESULT:      -3.8      9.156      9.605
REMARK  1 active torsions:
REMARK  status: ('A' for Active; 'I' for Inactive)
REMARK    1  A    between atoms: C1_1  and  C4_4 
ROOT
HETATM    1  C1  UNL     1     -40.259  12.978   6.122  1.00 20.00     0.172 C 
HETATM    2  C2  UNL     1     -40.969  14.139   7.924  1.00 20.00     0.160 C 
HETATM    3  C3  UNL     1     -42.227  14.188   7.070  1.00 20.00     0.103 C 
HETATM    4  N5  UNL     1     -40.033  13.130   7.385  1.00 20.00    -0.278 NA
HETATM    5  S9  UNL     1     -41.598  13.845   5.418  1.00 20.00    -0.104 SA
ENDROOT
BRANCH   1   6
HETATM    6  C4  UNL     1     -39.465  12.071   5.246  1.00 20.00     0.440 C 
HETATM    7  F6  UNL     1     -39.736  10.774   5.509  1.00 20.00    -0.164 F 
HETATM    8  F7  UNL     1     -39.736  12.288   3.940  1.00 20.00    -0.164 F 
HETATM    9  F8  UNL     1     -38.138  12.253   5.422  1.00 20.00    -0.164 F 
ENDBRANCH   1   6
TORSDOF 1
ENDMDL
MODEL 9
REMARK VINA RESULT:      -3.7      9.152      9.574
REMARK  1 active torsions:
REMARK  status: ('A' for Active; 'I' for Inactive)
REMARK    1  A    between atoms: C1_1  and  C4_4 
ROOT
HETATM    1  C1  UNL     1     -40.483  12.994   5.197  1.00 20.00     0.172 C 
HETATM    2  C2  UNL     1     -42.238  14.408   5.079  1.00 20.00     0.160 C 
HETATM    3  C3  UNL     1     -41.619  14.871   6.389  1.00 20.00     0.103 C 
HETATM    4  N5  UNL     1     -41.288  13.543   4.349  1.00 20.00    -0.278 NA
HETATM    5  S9  UNL     1     -40.614  13.457   6.873  1.00 20.00    -0.104 SA
ENDROOT
BRANCH   1   6
HETATM    6  C4  UNL     1     -39.423  12.019   4.814  1.00 20.00     0.440 C 
HETATM    7  F6  UNL     1     -38.232  12.351   5.359  1.00 20.00    -0.164 F 
HETATM    8  F7  UNL     1     -39.728  10.771   5.232  1.00 20.00    -0.164 F 
HETATM    9  F8  UNL     1     -39.257  11.970   3.474  1.00 20.00    -0.164 F 
ENDBRANCH   1   6
TORSDOF 1
ENDMDL
