MODEL 1
REMARK VINA RESULT:      -5.0      0.000      0.000
REMARK  2 active torsions:
REMARK  status: ('A' for Active; 'I' for Inactive)
REMARK    1  A    between atoms: C2_2  and  C3_3 
REMARK    2  A    between atoms: C2_2  and  C4_4 
ROOT
HETATM    1  C2  UNL     1     -33.739   6.724   5.639  1.00 20.00     0.154 C 
ENDROOT
BRANCH   1   2
HETATM    2  C3  UNL     1     -33.371   7.505   4.382  1.00 20.00     0.174 C 
HETATM    3  C1  UNL     1     -32.430   8.657   4.687  1.00 20.00     0.045 C 
HETATM    4  F5  UNL     1     -32.738   6.666   3.515  1.00 20.00    -0.250 F 
ENDBRANCH   1   2
BRANCH   1   5
HETATM    5  C4  UNL     1     -34.728   5.614   5.349  1.00 20.00     0.390 C 
HETATM    6  F6  UNL     1     -35.297   5.176   6.494  1.00 20.00    -0.171 F 
HETATM    7  F7  UNL     1     -34.129   4.558   4.760  1.00 20.00    -0.171 F 
HETATM    8  F8  UNL     1     -35.719   6.039   4.536  1.00 20.00    -0.171 F 
ENDBRANCH   1   5
TORSDOF 2
ENDMDL
MODEL 2
REMARK VINA RESULT:      -5.0      0.066      1.334
REMARK  2 active torsions:
REMARK  status: ('A' for Active; 'I' for Inactive)
REMARK    1  A    between atoms: C2_2  and  C3_3 
REMARK    2  A    between atoms: C2_2  and  C4_4 
ROOT
HETATM    1  C2  UNL     1     -33.747   6.742   5.687  1.00 20.00     0.154 C 
ENDROOT
BRANCH   1   2
HETATM    2  C3  UNL     1     -33.411   7.535   4.428  1.00 20.00     0.174 C 
HETATM    3  C1  UNL     1     -32.414   8.645   4.708  1.00 20.00     0.045 C 
HETATM    4  F5  UNL     1     -32.851   6.691   3.516  1.00 20.00    -0.250 F 
ENDBRANCH   1   2
BRANCH   1   5
HETATM    5  C4  UNL     1     -34.733   5.626   5.408  1.00 20.00     0.390 C 
HETATM    6  F6  UNL     1     -34.109   4.578   4.829  1.00 20.00    -0.171 F 
HETATM    7  F7  UNL     1     -35.715   6.030   4.575  1.00 20.00    -0.171 F 
HETATM    8  F8  UNL     1     -35.308   5.183   6.547  1.00 20.00    -0.171 F 
ENDBRANCH   1   5
TORSDOF 2
ENDMDL
MODEL 3
REMARK VINA RESULT:      -5.0      0.059      1.342
REMARK  2 active torsions:
REMARK  status: ('A' for Active; 'I' for Inactive)
REMARK    1  A    between atoms: C2_2  and  C3_3 
REMARK    2  A    between atoms: C2_2  and  C4_4 
ROOT
HETATM    1  C2  UNL     1     -33.752   6.748   5.691  1.00 20.00     0.154 C 
ENDROOT
BRANCH   1   2
HETATM    2  C3  UNL     1     -33.406   7.542   4.436  1.00 20.00     0.174 C 
HETATM    3  C1  UNL     1     -32.431   8.668   4.730  1.00 20.00     0.045 C 
HETATM    4  F5  UNL     1     -32.817   6.703   3.536  1.00 20.00    -0.250 F 
ENDBRANCH   1   2
BRANCH   1   5
HETATM    5  C4  UNL     1     -34.725   5.623   5.401  1.00 20.00     0.390 C 
HETATM    6  F6  UNL     1     -35.699   6.045   4.565  1.00 20.00    -0.171 F 
HETATM    7  F7  UNL     1     -35.318   5.179   6.529  1.00 20.00    -0.171 F 
HETATM    8  F8  UNL     1     -34.106   4.577   4.814  1.00 20.00    -0.171 F 
ENDBRANCH   1   5
TORSDOF 2
ENDMDL
MODEL 4
REMARK VINA RESULT:      -5.0      1.339      3.598
REMARK  2 active torsions:
REMARK  status: ('A' for Active; 'I' for Inactive)
REMARK    1  A    between atoms: C2_2  and  C3_3 
REMARK    2  A    between atoms: C2_2  and  C4_4 
ROOT
HETATM    1  C2  UNL     1     -33.811   7.738   4.866  1.00 20.00     0.154 C 
ENDROOT
BRANCH   1   2
HETATM    2  C3  UNL     1     -34.295   6.293   4.946  1.00 20.00     0.174 C 
HETATM    3  C1  UNL     1     -34.436   5.823   6.382  1.00 20.00     0.045 C 
HETATM    4  F5  UNL     1     -35.522   6.210   4.357  1.00 20.00    -0.250 F 
ENDBRANCH   1   2
BRANCH   1   5
HETATM    5  C4  UNL     1     -32.660   7.898   3.894  1.00 20.00     0.390 C 
HETATM    6  F6  UNL     1     -32.934   8.866   2.993  1.00 20.00    -0.171 F 
HETATM    7  F7  UNL     1     -32.427   6.757   3.212  1.00 20.00    -0.171 F 
HETATM    8  F8  UNL     1     -31.522   8.243   4.533  1.00 20.00    -0.171 F 
ENDBRANCH   1   5
TORSDOF 2
ENDMDL
MODEL 5
REMARK VINA RESULT:      -4.8      1.480      3.494
REMARK  2 active torsions:
REMARK  status: ('A' for Active; 'I' for Inactive)
REMARK    1  A    between atoms: C2_2  and  C3_3 
REMARK    2  A    between atoms: C2_2  and  C4_4 
ROOT
HETATM    1  C2  UNL     1     -33.396   6.986   5.907  1.00 20.00     0.154 C 
ENDROOT
BRANCH   1   2
HETATM    2  C3  UNL     1     -34.669   6.203   5.604  1.00 20.00     0.174 C 
HETATM    3  C1  UNL     1     -34.416   5.066   4.631  1.00 20.00     0.045 C 
HETATM    4  F5  UNL     1     -35.137   5.663   6.765  1.00 20.00    -0.250 F 
ENDBRANCH   1   2
BRANCH   1   5
HETATM    5  C4  UNL     1     -33.047   7.954   4.795  1.00 20.00     0.390 C 
HETATM    6  F6  UNL     1     -34.168   8.395   4.183  1.00 20.00    -0.171 F 
HETATM    7  F7  UNL     1     -32.270   7.372   3.858  1.00 20.00    -0.171 F 
HETATM    8  F8  UNL     1     -32.389   9.033   5.272  1.00 20.00    -0.171 F 
ENDBRANCH   1   5
TORSDOF 2
ENDMDL
MODEL 6
REMARK VINA RESULT:      -4.8      1.626      2.136
REMARK  2 active torsions:
REMARK  status: ('A' for Active; 'I' for Inactive)
REMARK    1  A    between atoms: C2_2  and  C3_3 
REMARK    2  A    between atoms: C2_2  and  C4_4 
ROOT
HETATM    1  C2  UNL     1     -34.082   6.627   4.928  1.00 20.00     0.154 C 
ENDROOT
BRANCH   1   2
HETATM    2  C3  UNL     1     -33.073   7.764   5.046  1.00 20.00     0.174 C 
HETATM    3  C1  UNL     1     -32.373   8.040   3.728  1.00 20.00     0.045 C 
HETATM    4  F5  UNL     1     -33.733   8.899   5.414  1.00 20.00    -0.250 F 
ENDBRANCH   1   2
BRANCH   1   5
HETATM    5  C4  UNL     1     -34.410   6.016   6.274  1.00 20.00     0.390 C 
HETATM    6  F6  UNL     1     -35.413   5.118   6.154  1.00 20.00    -0.171 F 
HETATM    7  F7  UNL     1     -34.804   6.953   7.161  1.00 20.00    -0.171 F 
HETATM    8  F8  UNL     1     -33.344   5.371   6.793  1.00 20.00    -0.171 F 
ENDBRANCH   1   5
TORSDOF 2
ENDMDL
MODEL 7
REMARK VINA RESULT:      -4.8      1.751      1.969
REMARK  2 active torsions:
REMARK  status: ('A' for Active; 'I' for Inactive)
REMARK    1  A    between atoms: C2_2  and  C3_3 
REMARK    2  A    between atoms: C2_2  and  C4_4 
ROOT
HETATM    1  C2  UNL     1     -34.074   7.054   4.904  1.00 20.00     0.154 C 
ENDROOT
BRANCH   1   2
HETATM    2  C3  UNL     1     -32.731   7.759   4.738  1.00 20.00     0.174 C 
HETATM    3  C1  UNL     1     -32.246   7.721   3.300  1.00 20.00     0.045 C 
HETATM    4  F5  UNL     1     -32.876   9.066   5.096  1.00 20.00    -0.250 F 
ENDBRANCH   1   2
BRANCH   1   5
HETATM    5  C4  UNL     1     -34.242   6.472   6.292  1.00 20.00     0.390 C 
HETATM    6  F6  UNL     1     -34.641   7.428   7.160  1.00 20.00    -0.171 F 
HETATM    7  F7  UNL     1     -33.085   5.956   6.756  1.00 20.00    -0.171 F 
HETATM    8  F8  UNL     1     -35.171   5.493   6.305  1.00 20.00    -0.171 F 
ENDBRANCH   1   5
TORSDOF 2
ENDMDL
MODEL 8
REMARK VINA RESULT:      -4.8      2.171      3.758
REMARK  2 active torsions:
REMARK  status: ('A' for Active; 'I' for Inactive)
REMARK    1  A    between atoms: C2_2  and  C3_3 
REMARK    2  A    between atoms: C2_2  and  C4_4 
ROOT
HETATM    1  C2  UNL     1     -33.540   7.034   4.445  1.00 20.00     0.154 C 
ENDROOT
BRANCH   1   2
HETATM    2  C3  UNL     1     -34.060   6.869   5.870  1.00 20.00     0.174 C 
HETATM    3  C1  UNL     1     -34.759   5.536   6.066  1.00 20.00     0.045 C 
HETATM    4  F5  UNL     1     -33.003   6.917   6.729  1.00 20.00    -0.250 F 
ENDBRANCH   1   2
BRANCH   1   5
HETATM    5  C4  UNL     1     -32.715   8.294   4.284  1.00 20.00     0.390 C 
HETATM    6  F6  UNL     1     -33.013   9.182   5.258  1.00 20.00    -0.171 F 
HETATM    7  F7  UNL     1     -32.952   8.892   3.098  1.00 20.00    -0.171 F 
HETATM    8  F8  UNL     1     -31.394   8.029   4.361  1.00 20.00    -0.171 F 
ENDBRANCH   1   5
TORSDOF 2
ENDMDL
MODEL 9
REMARK VINA RESULT:      -4.6      1.744      2.513
REMARK  2 active torsions:
REMARK  status: ('A' for Active; 'I' for Inactive)
REMARK    1  A    between atoms: C2_2  and  C3_3 
REMARK    2  A    between atoms: C2_2  and  C4_4 
ROOT
HETATM    1  C2  UNL     1     -34.072   6.502   4.778  1.00 20.00     0.154 C 
ENDROOT
BRANCH   1   2
HETATM    2  C3  UNL     1     -34.120   5.251   3.906  1.00 20.00     0.174 C 
HETATM    3  C1  UNL     1     -33.051   5.272   2.827  1.00 20.00     0.045 C 
HETATM    4  F5  UNL     1     -33.898   4.160   4.693  1.00 20.00    -0.250 F 
ENDBRANCH   1   2
BRANCH   1   5
HETATM    5  C4  UNL     1     -34.345   6.189   6.235  1.00 20.00     0.390 C 
HETATM    6  F6  UNL     1     -33.302   5.523   6.778  1.00 20.00    -0.171 F 
HETATM    7  F7  UNL     1     -35.443   5.419   6.378  1.00 20.00    -0.171 F 
HETATM    8  F8  UNL     1     -34.528   7.318   6.953  1.00 20.00    -0.171 F 
ENDBRANCH   1   5
TORSDOF 2
ENDMDL
