MODEL 1
REMARK VINA RESULT:      -4.2      0.000      0.000
REMARK  1 active torsions:
REMARK  status: ('A' for Active; 'I' for Inactive)
REMARK    1  A    between atoms: C4_4  and  C6_6 
ROOT
HETATM    1  C1  UNL     1     -34.791   4.962   6.014  1.00 20.00     0.135 A 
HETATM    2  C2  UNL     1     -34.491   6.142   6.658  1.00 20.00     0.136 A 
HETATM    3  C3  UNL     1     -34.001   5.832   4.052  1.00 20.00     0.144 A 
HETATM    4  C4  UNL     1     -33.702   7.012   4.696  1.00 20.00     0.065 A 
HETATM    5  N7  UNL     1     -34.552   4.785   4.699  1.00 20.00    -0.270 NA
HETATM    6  N8  UNL     1     -33.940   7.189   6.011  1.00 20.00    -0.261 NA
ENDROOT
BRANCH   4   7
HETATM    7  C6  UNL     1     -33.093   8.146   3.949  1.00 20.00     0.107 C 
HETATM    8  C5  UNL     1     -32.178   9.005   4.782  1.00 20.00     0.029 C 
HETATM    9 BR9  UNL     1     -32.117   7.470   2.386  1.00 20.00    -0.085 Br
ENDBRANCH   4   7
TORSDOF 1
ENDMDL
MODEL 2
REMARK VINA RESULT:      -4.2      0.906      1.590
REMARK  1 active torsions:
REMARK  status: ('A' for Active; 'I' for Inactive)
REMARK    1  A    between atoms: C4_4  and  C6_6 
ROOT
HETATM    1  C1  UNL     1     -34.745   5.014   5.986  1.00 20.00     0.135 A 
HETATM    2  C2  UNL     1     -34.443   4.924   4.645  1.00 20.00     0.136 A 
HETATM    3  C3  UNL     1     -33.967   7.164   6.017  1.00 20.00     0.144 A 
HETATM    4  C4  UNL     1     -33.665   7.074   4.676  1.00 20.00     0.065 A 
HETATM    5  N7  UNL     1     -34.512   6.135   6.697  1.00 20.00    -0.270 NA
HETATM    6  N8  UNL     1     -33.898   5.953   3.966  1.00 20.00    -0.261 NA
ENDROOT
BRANCH   4   7
HETATM    7  C6  UNL     1     -33.064   8.231   3.959  1.00 20.00     0.107 C 
HETATM    8  C5  UNL     1     -32.116   9.046   4.800  1.00 20.00     0.029 C 
HETATM    9 BR9  UNL     1     -32.137   7.607   2.344  1.00 20.00    -0.085 Br
ENDBRANCH   4   7
TORSDOF 1
ENDMDL
MODEL 3
REMARK VINA RESULT:      -3.6     12.627     13.127
REMARK  1 active torsions:
REMARK  status: ('A' for Active; 'I' for Inactive)
REMARK    1  A    between atoms: C4_4  and  C6_6 
ROOT
HETATM    1  C1  UNL     1     -30.996  19.022   1.079  1.00 20.00     0.135 A 
HETATM    2  C2  UNL     1     -32.268  18.833   1.571  1.00 20.00     0.136 A 
HETATM    3  C3  UNL     1     -31.712  18.422  -1.008  1.00 20.00     0.144 A 
HETATM    4  C4  UNL     1     -32.985  18.233  -0.517  1.00 20.00     0.065 A 
HETATM    5  N7  UNL     1     -30.694  18.820  -0.219  1.00 20.00    -0.270 NA
HETATM    6  N8  UNL     1     -33.287  18.435   0.781  1.00 20.00    -0.261 NA
ENDROOT
BRANCH   4   7
HETATM    7  C6  UNL     1     -34.085  17.793  -1.418  1.00 20.00     0.107 C 
HETATM    8  C5  UNL     1     -34.906  18.925  -1.977  1.00 20.00     0.029 C 
HETATM    9 BR9  UNL     1     -33.353  16.723  -2.892  1.00 20.00    -0.085 Br
ENDBRANCH   4   7
TORSDOF 1
ENDMDL
MODEL 4
REMARK VINA RESULT:      -3.6      2.417      4.047
REMARK  1 active torsions:
REMARK  status: ('A' for Active; 'I' for Inactive)
REMARK    1  A    between atoms: C4_4  and  C6_6 
ROOT
HETATM    1  C1  UNL     1     -32.070   8.879   3.921  1.00 20.00     0.135 A 
HETATM    2  C2  UNL     1     -32.093   7.815   3.046  1.00 20.00     0.136 A 
HETATM    3  C3  UNL     1     -33.587   7.811   5.259  1.00 20.00     0.144 A 
HETATM    4  C4  UNL     1     -33.609   6.747   4.384  1.00 20.00     0.065 A 
HETATM    5  N7  UNL     1     -32.817   8.897   5.043  1.00 20.00    -0.270 NA
HETATM    6  N8  UNL     1     -32.863   6.729   3.262  1.00 20.00    -0.261 NA
ENDROOT
BRANCH   4   7
HETATM    7  C6  UNL     1     -34.472   5.565   4.655  1.00 20.00     0.107 C 
HETATM    8  C5  UNL     1     -33.954   4.282   4.059  1.00 20.00     0.029 C 
HETATM    9 BR9  UNL     1     -34.710   5.342   6.591  1.00 20.00    -0.085 Br
ENDBRANCH   4   7
TORSDOF 1
ENDMDL
MODEL 5
REMARK VINA RESULT:      -3.5      2.373      3.750
REMARK  1 active torsions:
REMARK  status: ('A' for Active; 'I' for Inactive)
REMARK    1  A    between atoms: C4_4  and  C6_6 
ROOT
HETATM    1  C1  UNL     1     -32.081   8.823   3.846  1.00 20.00     0.135 A 
HETATM    2  C2  UNL     1     -32.852   8.764   4.987  1.00 20.00     0.136 A 
HETATM    3  C3  UNL     1     -32.851   6.763   3.218  1.00 20.00     0.144 A 
HETATM    4  C4  UNL     1     -33.621   6.704   4.358  1.00 20.00     0.065 A 
HETATM    5  N7  UNL     1     -32.066   7.825   2.942  1.00 20.00    -0.270 NA
HETATM    6  N8  UNL     1     -33.637   7.702   5.263  1.00 20.00    -0.261 NA
ENDROOT
BRANCH   4   7
HETATM    7  C6  UNL     1     -34.476   5.516   4.631  1.00 20.00     0.107 C 
HETATM    8  C5  UNL     1     -33.934   4.231   4.061  1.00 20.00     0.029 C 
HETATM    9 BR9  UNL     1     -34.744   5.315   6.565  1.00 20.00    -0.085 Br
ENDBRANCH   4   7
TORSDOF 1
ENDMDL
MODEL 6
REMARK VINA RESULT:      -3.4      1.243      1.446
REMARK  1 active torsions:
REMARK  status: ('A' for Active; 'I' for Inactive)
REMARK    1  A    between atoms: C4_4  and  C6_6 
ROOT
HETATM    1  C1  UNL     1     -34.972   5.102   5.715  1.00 20.00     0.135 A 
HETATM    2  C2  UNL     1     -34.535   6.281   6.277  1.00 20.00     0.136 A 
HETATM    3  C3  UNL     1     -33.663   5.490   3.881  1.00 20.00     0.144 A 
HETATM    4  C4  UNL     1     -33.226   6.669   4.443  1.00 20.00     0.065 A 
HETATM    5  N7  UNL     1     -34.545   4.685   4.507  1.00 20.00    -0.270 NA
HETATM    6  N8  UNL     1     -33.652   7.086   5.651  1.00 20.00    -0.261 NA
ENDROOT
BRANCH   4   7
HETATM    7  C6  UNL     1     -32.251   7.533   3.722  1.00 20.00     0.107 C 
HETATM    8  C5  UNL     1     -32.503   7.633   2.241  1.00 20.00     0.029 C 
HETATM    9 BR9  UNL     1     -32.242   9.331   4.511  1.00 20.00    -0.085 Br
ENDBRANCH   4   7
TORSDOF 1
ENDMDL
MODEL 7
REMARK VINA RESULT:      -3.4      1.477      2.136
REMARK  1 active torsions:
REMARK  status: ('A' for Active; 'I' for Inactive)
REMARK    1  A    between atoms: C4_4  and  C6_6 
ROOT
HETATM    1  C1  UNL     1     -34.994   5.323   5.903  1.00 20.00     0.135 A 
HETATM    2  C2  UNL     1     -34.597   4.985   4.628  1.00 20.00     0.136 A 
HETATM    3  C3  UNL     1     -33.608   7.142   5.853  1.00 20.00     0.144 A 
HETATM    4  C4  UNL     1     -33.211   6.803   4.578  1.00 20.00     0.065 A 
HETATM    5  N7  UNL     1     -34.506   6.407   6.539  1.00 20.00    -0.270 NA
HETATM    6  N8  UNL     1     -33.698   5.720   3.942  1.00 20.00    -0.261 NA
ENDROOT
BRANCH   4   7
HETATM    7  C6  UNL     1     -32.217   7.638   3.850  1.00 20.00     0.107 C 
HETATM    8  C5  UNL     1     -32.458   7.720   2.366  1.00 20.00     0.029 C 
HETATM    9 BR9  UNL     1     -32.180   9.448   4.611  1.00 20.00    -0.085 Br
ENDBRANCH   4   7
TORSDOF 1
ENDMDL
MODEL 8
REMARK VINA RESULT:      -3.3     12.735     13.251
REMARK  1 active torsions:
REMARK  status: ('A' for Active; 'I' for Inactive)
REMARK    1  A    between atoms: C4_4  and  C6_6 
ROOT
HETATM    1  C1  UNL     1     -32.013  18.910   1.405  1.00 20.00     0.135 A 
HETATM    2  C2  UNL     1     -31.077  18.919   0.394  1.00 20.00     0.136 A 
HETATM    3  C3  UNL     1     -33.625  18.290  -0.094  1.00 20.00     0.144 A 
HETATM    4  C4  UNL     1     -32.689  18.299  -1.104  1.00 20.00     0.065 A 
HETATM    5  N7  UNL     1     -33.304  18.597   1.179  1.00 20.00    -0.270 NA
HETATM    6  N8  UNL     1     -31.398  18.612  -0.879  1.00 20.00    -0.261 NA
ENDROOT
BRANCH   4   7
HETATM    7  C6  UNL     1     -33.080  17.955  -2.499  1.00 20.00     0.107 C 
HETATM    8  C5  UNL     1     -33.309  16.483  -2.723  1.00 20.00     0.029 C 
HETATM    9 BR9  UNL     1     -34.692  18.955  -3.006  1.00 20.00    -0.085 Br
ENDBRANCH   4   7
TORSDOF 1
ENDMDL
MODEL 9
REMARK VINA RESULT:      -3.3     12.239     13.302
REMARK  1 active torsions:
REMARK  status: ('A' for Active; 'I' for Inactive)
REMARK    1  A    between atoms: C4_4  and  C6_6 
ROOT
HETATM    1  C1  UNL     1     -35.419  14.478  -5.232  1.00 20.00     0.135 A 
HETATM    2  C2  UNL     1     -35.710  15.803  -5.469  1.00 20.00     0.136 A 
HETATM    3  C3  UNL     1     -33.702  15.099  -3.855  1.00 20.00     0.144 A 
HETATM    4  C4  UNL     1     -33.993  16.424  -4.091  1.00 20.00     0.065 A 
HETATM    5  N7  UNL     1     -34.410  14.101  -4.422  1.00 20.00    -0.270 NA
HETATM    6  N8  UNL     1     -35.002  16.801  -4.901  1.00 20.00    -0.261 NA
ENDROOT
BRANCH   4   7
HETATM    7  C6  UNL     1     -33.190  17.500  -3.447  1.00 20.00     0.107 C 
HETATM    8  C5  UNL     1     -33.449  18.874  -4.008  1.00 20.00     0.029 C 
HETATM    9 BR9  UNL     1     -33.515  17.508  -1.511  1.00 20.00    -0.085 Br
ENDBRANCH   4   7
TORSDOF 1
ENDMDL
