MODEL 1
REMARK VINA RESULT:      -4.5      0.000      0.000
REMARK  2 active torsions:
REMARK  status: ('A' for Active; 'I' for Inactive)
REMARK    1  A    between atoms: C3_3  and  C6_6 
REMARK    2  A    between atoms: C4_4  and  C7_7 
ROOT
HETATM    1  C1  UNL     1     -33.596  15.626  -3.747  1.00 20.00    -0.176 C 
HETATM    2  C2  UNL     1     -33.972  14.452  -4.155  1.00 20.00     0.091 C 
HETATM    3  C3  UNL     1     -33.220  16.801  -3.340  1.00 20.00     0.072 C 
ENDROOT
BRANCH   3   4
HETATM    4  C6  UNL     1     -33.120  17.075  -1.915  1.00 20.00     0.017 A 
HETATM    5  C5  UNL     1     -34.084  18.045  -1.292  1.00 20.00     0.022 A 
HETATM    6  C7  UNL     1     -32.639  18.437  -1.466  1.00 20.00     0.092 A 
BRANCH   6   7
HETATM    7  C4  UNL     1     -31.812  18.493  -0.275  1.00 20.00     0.177 C 
HETATM    8  O8  UNL     1     -32.436  18.403   0.818  1.00 20.00    -0.648 OA
HETATM    9  O9  UNL     1     -30.575  18.624  -0.495  1.00 20.00    -0.648 OA
ENDBRANCH   6   7
ENDBRANCH   3   4
TORSDOF 2
ENDMDL
MODEL 2
REMARK VINA RESULT:      -4.2     11.623     12.252
REMARK  2 active torsions:
REMARK  status: ('A' for Active; 'I' for Inactive)
REMARK    1  A    between atoms: C3_3  and  C6_6 
REMARK    2  A    between atoms: C4_4  and  C7_7 
ROOT
HETATM    1  C1  UNL     1     -34.247   6.498   6.277  1.00 20.00    -0.176 C 
HETATM    2  C2  UNL     1     -34.824   5.364   6.539  1.00 20.00     0.091 C 
HETATM    3  C3  UNL     1     -33.670   7.633   6.018  1.00 20.00     0.072 C 
ENDROOT
BRANCH   3   4
HETATM    4  C6  UNL     1     -32.689   7.717   4.948  1.00 20.00     0.017 A 
HETATM    5  C5  UNL     1     -32.444   9.044   4.287  1.00 20.00     0.022 A 
HETATM    6  C7  UNL     1     -33.169   7.958   3.533  1.00 20.00     0.092 A 
BRANCH   6   7
HETATM    7  C4  UNL     1     -32.451   7.293   2.464  1.00 20.00     0.177 C 
HETATM    8  O8  UNL     1     -31.944   8.058   1.598  1.00 20.00    -0.648 OA
HETATM    9  O9  UNL     1     -32.431   6.032   2.543  1.00 20.00    -0.648 OA
ENDBRANCH   6   7
ENDBRANCH   3   4
TORSDOF 2
ENDMDL
MODEL 3
REMARK VINA RESULT:      -4.2      4.051      5.652
REMARK  2 active torsions:
REMARK  status: ('A' for Active; 'I' for Inactive)
REMARK    1  A    between atoms: C3_3  and  C6_6 
REMARK    2  A    between atoms: C4_4  and  C7_7 
ROOT
HETATM    1  C1  UNL     1     -33.510  17.060  -2.099  1.00 20.00    -0.176 C 
HETATM    2  C2  UNL     1     -33.627  17.595  -0.922  1.00 20.00     0.091 C 
HETATM    3  C3  UNL     1     -33.392  16.527  -3.278  1.00 20.00     0.072 C 
ENDROOT
BRANCH   3   4
HETATM    4  C6  UNL     1     -33.990  15.229  -3.548  1.00 20.00     0.017 A 
HETATM    5  C5  UNL     1     -33.332  14.316  -4.543  1.00 20.00     0.022 A 
HETATM    6  C7  UNL     1     -34.635  14.988  -4.896  1.00 20.00     0.092 A 
BRANCH   6   7
HETATM    7  C4  UNL     1     -35.827  14.163  -4.926  1.00 20.00     0.177 C 
HETATM    8  O8  UNL     1     -35.712  13.030  -4.381  1.00 20.00    -0.648 OA
HETATM    9  O9  UNL     1     -36.822  14.691  -5.497  1.00 20.00    -0.648 OA
ENDBRANCH   6   7
ENDBRANCH   3   4
TORSDOF 2
ENDMDL
MODEL 4
REMARK VINA RESULT:      -4.2     11.624     12.226
REMARK  2 active torsions:
REMARK  status: ('A' for Active; 'I' for Inactive)
REMARK    1  A    between atoms: C3_3  and  C6_6 
REMARK    2  A    between atoms: C4_4  and  C7_7 
ROOT
HETATM    1  C1  UNL     1     -34.240   6.500   6.286  1.00 20.00    -0.176 C 
HETATM    2  C2  UNL     1     -34.822   5.367   6.537  1.00 20.00     0.091 C 
HETATM    3  C3  UNL     1     -33.658   7.635   6.037  1.00 20.00     0.072 C 
ENDROOT
BRANCH   3   4
HETATM    4  C6  UNL     1     -32.680   7.726   4.965  1.00 20.00     0.017 A 
HETATM    5  C5  UNL     1     -32.445   9.055   4.304  1.00 20.00     0.022 A 
HETATM    6  C7  UNL     1     -33.166   7.965   3.552  1.00 20.00     0.092 A 
BRANCH   6   7
HETATM    7  C4  UNL     1     -32.447   7.305   2.479  1.00 20.00     0.177 C 
HETATM    8  O8  UNL     1     -32.424   6.045   2.542  1.00 20.00    -0.648 OA
HETATM    9  O9  UNL     1     -31.940   8.084   1.624  1.00 20.00    -0.648 OA
ENDBRANCH   6   7
ENDBRANCH   3   4
TORSDOF 2
ENDMDL
MODEL 5
REMARK VINA RESULT:      -4.1      4.316      5.788
REMARK  2 active torsions:
REMARK  status: ('A' for Active; 'I' for Inactive)
REMARK    1  A    between atoms: C3_3  and  C6_6 
REMARK    2  A    between atoms: C4_4  and  C7_7 
ROOT
HETATM    1  C1  UNL     1     -33.386  16.799  -2.355  1.00 20.00    -0.176 C 
HETATM    2  C2  UNL     1     -33.616  17.396  -1.226  1.00 20.00     0.091 C 
HETATM    3  C3  UNL     1     -33.153  16.201  -3.485  1.00 20.00     0.072 C 
ENDROOT
BRANCH   3   4
HETATM    4  C6  UNL     1     -34.265  15.730  -4.296  1.00 20.00     0.017 A 
HETATM    5  C5  UNL     1     -34.543  14.255  -4.364  1.00 20.00     0.022 A 
HETATM    6  C7  UNL     1     -33.969  14.961  -5.565  1.00 20.00     0.092 A 
BRANCH   6   7
HETATM    7  C4  UNL     1     -34.848  15.180  -6.697  1.00 20.00     0.177 C 
HETATM    8  O8  UNL     1     -35.818  14.377  -6.789  1.00 20.00    -0.648 OA
HETATM    9  O9  UNL     1     -34.524  16.148  -7.441  1.00 20.00    -0.648 OA
ENDBRANCH   6   7
ENDBRANCH   3   4
TORSDOF 2
ENDMDL
MODEL 6
REMARK VINA RESULT:      -4.1     11.798     12.538
REMARK  2 active torsions:
REMARK  status: ('A' for Active; 'I' for Inactive)
REMARK    1  A    between atoms: C3_3  and  C6_6 
REMARK    2  A    between atoms: C4_4  and  C7_7 
ROOT
HETATM    1  C1  UNL     1     -32.186   8.012   2.258  1.00 20.00    -0.176 C 
HETATM    2  C2  UNL     1     -32.185   8.380   1.013  1.00 20.00     0.091 C 
HETATM    3  C3  UNL     1     -32.185   7.644   3.504  1.00 20.00     0.072 C 
ENDROOT
BRANCH   3   4
HETATM    4  C6  UNL     1     -33.443   7.359   4.175  1.00 20.00     0.017 A 
HETATM    5  C5  UNL     1     -33.737   8.030   5.487  1.00 20.00     0.022 A 
HETATM    6  C7  UNL     1     -33.422   6.556   5.457  1.00 20.00     0.092 A 
BRANCH   6   7
HETATM    7  C4  UNL     1     -34.517   5.633   5.684  1.00 20.00     0.177 C 
HETATM    8  O8  UNL     1     -34.616   4.698   4.843  1.00 20.00    -0.648 OA
HETATM    9  O9  UNL     1     -35.226   5.891   6.698  1.00 20.00    -0.648 OA
ENDBRANCH   6   7
ENDBRANCH   3   4
TORSDOF 2
ENDMDL
MODEL 7
REMARK VINA RESULT:      -4.1     11.781     12.495
REMARK  2 active torsions:
REMARK  status: ('A' for Active; 'I' for Inactive)
REMARK    1  A    between atoms: C3_3  and  C6_6 
REMARK    2  A    between atoms: C4_4  and  C7_7 
ROOT
HETATM    1  C1  UNL     1     -32.220   8.010   2.223  1.00 20.00    -0.176 C 
HETATM    2  C2  UNL     1     -32.237   8.393   0.983  1.00 20.00     0.091 C 
HETATM    3  C3  UNL     1     -32.201   7.627   3.464  1.00 20.00     0.072 C 
ENDROOT
BRANCH   3   4
HETATM    4  C6  UNL     1     -33.452   7.363   4.158  1.00 20.00     0.017 A 
HETATM    5  C5  UNL     1     -33.704   8.025   5.483  1.00 20.00     0.022 A 
HETATM    6  C7  UNL     1     -33.423   6.545   5.431  1.00 20.00     0.092 A 
BRANCH   6   7
HETATM    7  C4  UNL     1     -34.533   5.644   5.671  1.00 20.00     0.177 C 
HETATM    8  O8  UNL     1     -35.237   5.913   6.683  1.00 20.00    -0.648 OA
HETATM    9  O9  UNL     1     -34.645   4.707   4.830  1.00 20.00    -0.648 OA
ENDBRANCH   6   7
ENDBRANCH   3   4
TORSDOF 2
ENDMDL
MODEL 8
REMARK VINA RESULT:      -4.1     11.699     12.693
REMARK  2 active torsions:
REMARK  status: ('A' for Active; 'I' for Inactive)
REMARK    1  A    between atoms: C3_3  and  C6_6 
REMARK    2  A    between atoms: C4_4  and  C7_7 
ROOT
HETATM    1  C1  UNL     1     -34.604   5.518   5.631  1.00 20.00    -0.176 C 
HETATM    2  C2  UNL     1     -34.827   6.072   6.784  1.00 20.00     0.091 C 
HETATM    3  C3  UNL     1     -34.382   4.963   4.478  1.00 20.00     0.072 C 
ENDROOT
BRANCH   3   4
HETATM    4  C6  UNL     1     -33.930   5.775   3.359  1.00 20.00     0.017 A 
HETATM    5  C5  UNL     1     -32.836   5.249   2.473  1.00 20.00     0.022 A 
HETATM    6  C7  UNL     1     -32.549   6.391   3.414  1.00 20.00     0.092 A 
BRANCH   6   7
HETATM    7  C4  UNL     1     -32.384   7.710   2.836  1.00 20.00     0.177 C 
HETATM    8  O8  UNL     1     -32.093   7.728   1.608  1.00 20.00    -0.648 OA
HETATM    9  O9  UNL     1     -32.555   8.667   3.643  1.00 20.00    -0.648 OA
ENDBRANCH   6   7
ENDBRANCH   3   4
TORSDOF 2
ENDMDL
MODEL 9
REMARK VINA RESULT:      -3.9     11.963     12.476
REMARK  2 active torsions:
REMARK  status: ('A' for Active; 'I' for Inactive)
REMARK    1  A    between atoms: C3_3  and  C6_6 
REMARK    2  A    between atoms: C4_4  and  C7_7 
ROOT
HETATM    1  C1  UNL     1     -34.383   5.075   5.383  1.00 20.00    -0.176 C 
HETATM    2  C2  UNL     1     -34.308   4.106   4.523  1.00 20.00     0.091 C 
HETATM    3  C3  UNL     1     -34.460   6.043   6.246  1.00 20.00     0.072 C 
ENDROOT
BRANCH   3   4
HETATM    4  C6  UNL     1     -33.572   7.189   6.128  1.00 20.00     0.017 A 
HETATM    5  C5  UNL     1     -34.168   8.564   6.026  1.00 20.00     0.022 A 
HETATM    6  C7  UNL     1     -33.520   7.941   4.816  1.00 20.00     0.092 A 
BRANCH   6   7
HETATM    7  C4  UNL     1     -32.234   8.466   4.400  1.00 20.00     0.177 C 
HETATM    8  O8  UNL     1     -31.619   7.770   3.545  1.00 20.00    -0.648 OA
HETATM    9  O9  UNL     1     -31.903   9.553   4.951  1.00 20.00    -0.648 OA
ENDBRANCH   6   7
ENDBRANCH   3   4
TORSDOF 2
ENDMDL
