MODEL 1
REMARK VINA RESULT:      -4.5      0.000      0.000
REMARK  0 active torsions:
REMARK  status: ('A' for Active; 'I' for Inactive)
ROOT
HETATM    1  C1  UNL     1     -33.709   6.739   5.069  1.00 20.00     0.025 A 
HETATM    2  C2  UNL     1     -32.890   7.577   4.416  1.00 20.00     0.091 A 
HETATM    3  C3  UNL     1     -34.012   5.473   4.349  1.00 20.00     0.227 A 
HETATM    4  C4  UNL     1     -34.341   6.925   6.412  1.00 20.00     0.055 C 
HETATM    5  O5  UNL     1     -34.747   4.601   4.786  1.00 20.00    -0.279 OA
HETATM    6  S6  UNL     1     -32.276   7.152   2.856  1.00 20.00    -0.036 SA
HETATM    7  S7  UNL     1     -33.208   5.344   2.801  1.00 20.00    -0.009 SA
HETATM    8 CL8  UNL     1     -32.400   9.103   5.060  1.00 20.00    -0.075 Cl
ENDROOT
TORSDOF 0
ENDMDL
MODEL 2
REMARK VINA RESULT:      -4.4      2.435      2.860
REMARK  0 active torsions:
REMARK  status: ('A' for Active; 'I' for Inactive)
ROOT
HETATM    1  C1  UNL     1     -33.835   6.112   4.660  1.00 20.00     0.025 A 
HETATM    2  C2  UNL     1     -33.107   6.232   3.539  1.00 20.00     0.091 A 
HETATM    3  C3  UNL     1     -33.762   7.278   5.581  1.00 20.00     0.227 A 
HETATM    4  C4  UNL     1     -34.696   4.965   5.084  1.00 20.00     0.055 C 
HETATM    5  O5  UNL     1     -34.347   7.338   6.651  1.00 20.00    -0.279 OA
HETATM    6  S6  UNL     1     -32.175   7.661   3.258  1.00 20.00    -0.036 SA
HETATM    7  S7  UNL     1     -32.748   8.573   4.985  1.00 20.00    -0.009 SA
HETATM    8 CL8  UNL     1     -33.043   5.005   2.327  1.00 20.00    -0.075 Cl
ENDROOT
TORSDOF 0
ENDMDL
MODEL 3
REMARK VINA RESULT:      -4.2      2.154      2.539
REMARK  0 active torsions:
REMARK  status: ('A' for Active; 'I' for Inactive)
ROOT
HETATM    1  C1  UNL     1     -33.397   6.059   3.918  1.00 20.00     0.025 A 
HETATM    2  C2  UNL     1     -33.293   7.284   4.457  1.00 20.00     0.091 A 
HETATM    3  C3  UNL     1     -34.078   5.054   4.778  1.00 20.00     0.227 A 
HETATM    4  C4  UNL     1     -32.917   5.594   2.580  1.00 20.00     0.055 C 
HETATM    5  O5  UNL     1     -34.251   3.888   4.457  1.00 20.00    -0.279 OA
HETATM    6  S6  UNL     1     -33.922   7.594   6.037  1.00 20.00    -0.036 SA
HETATM    7  S7  UNL     1     -34.619   5.702   6.311  1.00 20.00    -0.009 SA
HETATM    8 CL8  UNL     1     -32.542   8.606   3.640  1.00 20.00    -0.075 Cl
ENDROOT
TORSDOF 0
ENDMDL
MODEL 4
REMARK VINA RESULT:      -4.2      1.899      2.289
REMARK  0 active torsions:
REMARK  status: ('A' for Active; 'I' for Inactive)
ROOT
HETATM    1  C1  UNL     1     -33.753   6.014   4.445  1.00 20.00     0.025 A 
HETATM    2  C2  UNL     1     -33.592   7.114   5.197  1.00 20.00     0.091 A 
HETATM    3  C3  UNL     1     -33.029   6.033   3.146  1.00 20.00     0.227 A 
HETATM    4  C4  UNL     1     -34.560   4.794   4.755  1.00 20.00     0.055 C 
HETATM    5  O5  UNL     1     -33.070   5.125   2.330  1.00 20.00    -0.279 OA
HETATM    6  S6  UNL     1     -32.606   8.417   4.630  1.00 20.00    -0.036 SA
HETATM    7  S7  UNL     1     -32.098   7.493   2.889  1.00 20.00    -0.009 SA
HETATM    8 CL8  UNL     1     -34.336   7.311   6.742  1.00 20.00    -0.075 Cl
ENDROOT
TORSDOF 0
ENDMDL
MODEL 5
REMARK VINA RESULT:      -4.2      2.578      3.017
REMARK  0 active torsions:
REMARK  status: ('A' for Active; 'I' for Inactive)
ROOT
HETATM    1  C1  UNL     1     -33.571   7.077   5.105  1.00 20.00     0.025 A 
HETATM    2  C2  UNL     1     -33.799   5.976   4.372  1.00 20.00     0.091 A 
HETATM    3  C3  UNL     1     -32.662   8.071   4.475  1.00 20.00     0.227 A 
HETATM    4  C4  UNL     1     -34.114   7.415   6.457  1.00 20.00     0.055 C 
HETATM    5  O5  UNL     1     -32.333   9.123   5.001  1.00 20.00    -0.279 OA
HETATM    6  S6  UNL     1     -33.053   5.795   2.823  1.00 20.00    -0.036 SA
HETATM    7  S7  UNL     1     -32.099   7.591   2.889  1.00 20.00    -0.009 SA
HETATM    8 CL8  UNL     1     -34.823   4.691   4.903  1.00 20.00    -0.075 Cl
ENDROOT
TORSDOF 0
ENDMDL
MODEL 6
REMARK VINA RESULT:      -4.1      2.292      2.811
REMARK  0 active torsions:
REMARK  status: ('A' for Active; 'I' for Inactive)
ROOT
HETATM    1  C1  UNL     1     -33.042   7.435   4.437  1.00 20.00     0.025 A 
HETATM    2  C2  UNL     1     -33.817   6.615   5.164  1.00 20.00     0.091 A 
HETATM    3  C3  UNL     1     -32.630   6.895   3.113  1.00 20.00     0.227 A 
HETATM    4  C4  UNL     1     -32.555   8.803   4.794  1.00 20.00     0.055 C 
HETATM    5  O5  UNL     1     -31.916   7.496   2.325  1.00 20.00    -0.279 OA
HETATM    6  S6  UNL     1     -34.256   5.061   4.545  1.00 20.00    -0.036 SA
HETATM    7  S7  UNL     1     -33.269   5.301   2.782  1.00 20.00    -0.009 SA
HETATM    8 CL8  UNL     1     -34.415   7.032   6.729  1.00 20.00    -0.075 Cl
ENDROOT
TORSDOF 0
ENDMDL
MODEL 7
REMARK VINA RESULT:      -4.1      3.021      3.621
REMARK  0 active torsions:
REMARK  status: ('A' for Active; 'I' for Inactive)
ROOT
HETATM    1  C1  UNL     1     -33.209   6.214   3.656  1.00 20.00     0.025 A 
HETATM    2  C2  UNL     1     -33.818   6.224   4.851  1.00 20.00     0.091 A 
HETATM    3  C3  UNL     1     -32.462   7.458   3.325  1.00 20.00     0.227 A 
HETATM    4  C4  UNL     1     -33.193   5.121   2.636  1.00 20.00     0.055 C 
HETATM    5  O5  UNL     1     -31.859   7.631   2.277  1.00 20.00    -0.279 OA
HETATM    6  S6  UNL     1     -33.703   7.614   5.873  1.00 20.00    -0.036 SA
HETATM    7  S7  UNL     1     -32.524   8.665   4.590  1.00 20.00    -0.009 SA
HETATM    8 CL8  UNL     1     -34.739   4.890   5.445  1.00 20.00    -0.075 Cl
ENDROOT
TORSDOF 0
ENDMDL
MODEL 8
REMARK VINA RESULT:      -4.0      3.025      3.625
REMARK  0 active torsions:
REMARK  status: ('A' for Active; 'I' for Inactive)
ROOT
HETATM    1  C1  UNL     1     -32.982   7.018   3.881  1.00 20.00     0.025 A 
HETATM    2  C2  UNL     1     -33.451   5.771   3.722  1.00 20.00     0.091 A 
HETATM    3  C3  UNL     1     -33.366   7.672   5.161  1.00 20.00     0.227 A 
HETATM    4  C4  UNL     1     -32.135   7.814   2.940  1.00 20.00     0.055 C 
HETATM    5  O5  UNL     1     -33.041   8.808   5.470  1.00 20.00    -0.279 OA
HETATM    6  S6  UNL     1     -34.425   5.045   4.953  1.00 20.00    -0.036 SA
HETATM    7  S7  UNL     1     -34.337   6.651   6.199  1.00 20.00    -0.009 SA
HETATM    8 CL8  UNL     1     -33.130   4.821   2.316  1.00 20.00    -0.075 Cl
ENDROOT
TORSDOF 0
ENDMDL
MODEL 9
REMARK VINA RESULT:      -4.0      2.048      2.466
REMARK  0 active torsions:
REMARK  status: ('A' for Active; 'I' for Inactive)
ROOT
HETATM    1  C1  UNL     1     -33.199   7.456   4.683  1.00 20.00     0.025 A 
HETATM    2  C2  UNL     1     -32.977   6.784   3.543  1.00 20.00     0.091 A 
HETATM    3  C3  UNL     1     -34.042   6.739   5.677  1.00 20.00     0.227 A 
HETATM    4  C4  UNL     1     -32.707   8.816   5.064  1.00 20.00     0.055 C 
HETATM    5  O5  UNL     1     -34.357   7.202   6.762  1.00 20.00    -0.279 OA
HETATM    6  S6  UNL     1     -33.656   5.211   3.316  1.00 20.00    -0.036 SA
HETATM    7  S7  UNL     1     -34.547   5.151   5.144  1.00 20.00    -0.009 SA
HETATM    8 CL8  UNL     1     -32.025   7.420   2.250  1.00 20.00    -0.075 Cl
ENDROOT
TORSDOF 0
ENDMDL
