MODEL 1
REMARK VINA RESULT:      -3.8      0.000      0.000
REMARK  1 active torsions:
REMARK  status: ('A' for Active; 'I' for Inactive)
REMARK    1  A    between atoms: C3_3  and  C5_5 
ROOT
HETATM    1  C1  UNL     1     -40.441  16.599   7.855  1.00 20.00     0.012 C 
HETATM    2  C2  UNL     1     -40.573  15.424   7.649  1.00 20.00    -0.111 C 
HETATM    3  C4  UNL     1     -40.732  14.019   7.402  1.00 20.00     0.088 A 
HETATM    4  C5  UNL     1     -40.396  13.481   6.030  1.00 20.00     0.112 A 
HETATM    5  C6  UNL     1     -41.840  13.511   6.496  1.00 20.00    -0.018 A 
HETATM    6  C7  UNL     1     -42.530  12.231   6.910  1.00 20.00     0.017 C 
HETATM    7  C8  UNL     1     -42.765  14.485   5.804  1.00 20.00     0.017 C 
ENDROOT
BRANCH   4   8
HETATM    8  C3  UNL     1     -39.699  12.209   5.958  1.00 20.00     0.179 C 
HETATM    9  O9  UNL     1     -39.062  11.884   6.998  1.00 20.00    -0.648 OA
HETATM   10  O10 UNL     1     -39.826  11.598   4.860  1.00 20.00    -0.648 OA
ENDBRANCH   4   8
TORSDOF 1
ENDMDL
MODEL 2
REMARK VINA RESULT:      -3.7      8.954     10.587
REMARK  1 active torsions:
REMARK  status: ('A' for Active; 'I' for Inactive)
REMARK    1  A    between atoms: C3_3  and  C5_5 
ROOT
HETATM    1  C1  UNL     1     -32.090   8.027   1.859  1.00 20.00     0.012 C 
HETATM    2  C2  UNL     1     -32.414   7.406   2.834  1.00 20.00    -0.111 C 
HETATM    3  C4  UNL     1     -32.803   6.664   3.999  1.00 20.00     0.088 A 
HETATM    4  C5  UNL     1     -34.263   6.320   4.187  1.00 20.00     0.112 A 
HETATM    5  C6  UNL     1     -33.598   7.325   5.111  1.00 20.00    -0.018 A 
HETATM    6  C7  UNL     1     -33.249   6.936   6.528  1.00 20.00     0.017 C 
HETATM    7  C8  UNL     1     -34.033   8.766   4.983  1.00 20.00     0.017 C 
ENDROOT
BRANCH   4   8
HETATM    8  C3  UNL     1     -34.582   4.996   4.691  1.00 20.00     0.179 C 
HETATM    9  O9  UNL     1     -35.448   4.963   5.608  1.00 20.00    -0.648 OA
HETATM   10  O10 UNL     1     -33.947   4.054   4.139  1.00 20.00    -0.648 OA
ENDBRANCH   4   8
TORSDOF 1
ENDMDL
MODEL 3
REMARK VINA RESULT:      -3.7     12.220     13.025
REMARK  1 active torsions:
REMARK  status: ('A' for Active; 'I' for Inactive)
REMARK    1  A    between atoms: C3_3  and  C5_5 
ROOT
HETATM    1  C1  UNL     1     -32.475  17.893  -1.088  1.00 20.00     0.012 C 
HETATM    2  C2  UNL     1     -33.157  17.370  -1.926  1.00 20.00    -0.111 C 
HETATM    3  C4  UNL     1     -33.971  16.744  -2.928  1.00 20.00     0.088 A 
HETATM    4  C5  UNL     1     -33.305  16.219  -4.180  1.00 20.00     0.112 A 
HETATM    5  C6  UNL     1     -34.221  17.427  -4.262  1.00 20.00    -0.018 A 
HETATM    6  C7  UNL     1     -35.605  17.290  -4.852  1.00 20.00     0.017 C 
HETATM    7  C8  UNL     1     -33.575  18.758  -4.569  1.00 20.00     0.017 C 
ENDROOT
BRANCH   4   8
HETATM    8  C3  UNL     1     -33.764  14.944  -4.701  1.00 20.00     0.179 C 
HETATM    9  O9  UNL     1     -34.188  14.129  -3.836  1.00 20.00    -0.648 OA
HETATM   10  O10 UNL     1     -33.676  14.823  -5.956  1.00 20.00    -0.648 OA
ENDBRANCH   4   8
TORSDOF 1
ENDMDL
MODEL 4
REMARK VINA RESULT:      -3.7      8.949     10.694
REMARK  1 active torsions:
REMARK  status: ('A' for Active; 'I' for Inactive)
REMARK    1  A    between atoms: C3_3  and  C5_5 
ROOT
HETATM    1  C1  UNL     1     -43.417   3.598  -1.792  1.00 20.00     0.012 C 
HETATM    2  C2  UNL     1     -43.358   4.640  -1.199  1.00 20.00    -0.111 C 
HETATM    3  C4  UNL     1     -43.285   5.886  -0.491  1.00 20.00     0.088 A 
HETATM    4  C5  UNL     1     -41.932   6.528  -0.288  1.00 20.00     0.112 A 
HETATM    5  C6  UNL     1     -42.681   5.953   0.901  1.00 20.00    -0.018 A 
HETATM    6  C7  UNL     1     -43.349   6.876   1.894  1.00 20.00     0.017 C 
HETATM    7  C8  UNL     1     -42.103   4.712   1.541  1.00 20.00     0.017 C 
ENDROOT
BRANCH   4   8
HETATM    8  C3  UNL     1     -41.841   7.969  -0.440  1.00 20.00     0.179 C 
HETATM    9  O9  UNL     1     -42.851   8.521  -0.958  1.00 20.00    -0.648 OA
HETATM   10  O10 UNL     1     -40.759   8.476  -0.032  1.00 20.00    -0.648 OA
ENDBRANCH   4   8
TORSDOF 1
ENDMDL
MODEL 5
REMARK VINA RESULT:      -3.6     12.638     13.620
REMARK  1 active torsions:
REMARK  status: ('A' for Active; 'I' for Inactive)
REMARK    1  A    between atoms: C3_3  and  C5_5 
ROOT
HETATM    1  C1  UNL     1     -34.525  18.994  -5.953  1.00 20.00     0.012 C 
HETATM    2  C2  UNL     1     -34.453  17.799  -5.862  1.00 20.00    -0.111 C 
HETATM    3  C4  UNL     1     -34.369  16.371  -5.752  1.00 20.00     0.088 A 
HETATM    4  C5  UNL     1     -35.396  15.645  -4.913  1.00 20.00     0.112 A 
HETATM    5  C6  UNL     1     -33.953  15.716  -4.446  1.00 20.00    -0.018 A 
HETATM    6  C7  UNL     1     -33.065  14.498  -4.543  1.00 20.00     0.017 C 
HETATM    7  C8  UNL     1     -33.668  16.562  -3.227  1.00 20.00     0.017 C 
ENDROOT
BRANCH   4   8
HETATM    8  C3  UNL     1     -35.916  14.389  -5.424  1.00 20.00     0.179 C 
HETATM    9  O9  UNL     1     -36.295  13.565  -4.547  1.00 20.00    -0.648 OA
HETATM   10  O10 UNL     1     -35.919  14.292  -6.684  1.00 20.00    -0.648 OA
ENDBRANCH   4   8
TORSDOF 1
ENDMDL
MODEL 6
REMARK VINA RESULT:      -3.6      2.194      3.615
REMARK  1 active torsions:
REMARK  status: ('A' for Active; 'I' for Inactive)
REMARK    1  A    between atoms: C3_3  and  C5_5 
ROOT
HETATM    1  C1  UNL     1     -39.485  11.764   4.832  1.00 20.00     0.012 C 
HETATM    2  C2  UNL     1     -39.965  12.558   5.594  1.00 20.00    -0.111 C 
HETATM    3  C4  UNL     1     -40.540  13.506   6.505  1.00 20.00     0.088 A 
HETATM    4  C5  UNL     1     -41.940  13.260   7.021  1.00 20.00     0.112 A 
HETATM    5  C6  UNL     1     -41.678  14.411   6.066  1.00 20.00    -0.018 A 
HETATM    6  C7  UNL     1     -41.659  15.832   6.580  1.00 20.00     0.017 C 
HETATM    7  C8  UNL     1     -42.253  14.292   4.674  1.00 20.00     0.017 C 
ENDROOT
BRANCH   4   8
HETATM    8  C3  UNL     1     -42.199  13.544   8.421  1.00 20.00     0.179 C 
HETATM    9  O9  UNL     1     -43.417  13.658   8.732  1.00 20.00    -0.648 OA
HETATM   10  O10 UNL     1     -41.166  13.638   9.142  1.00 20.00    -0.648 OA
ENDBRANCH   4   8
TORSDOF 1
ENDMDL
MODEL 7
REMARK VINA RESULT:      -3.6     11.962     12.977
REMARK  1 active torsions:
REMARK  status: ('A' for Active; 'I' for Inactive)
REMARK    1  A    between atoms: C3_3  and  C5_5 
ROOT
HETATM    1  C1  UNL     1     -33.981  14.437  -4.140  1.00 20.00     0.012 C 
HETATM    2  C2  UNL     1     -33.594  15.497  -3.729  1.00 20.00    -0.111 C 
HETATM    3  C4  UNL     1     -33.133  16.764  -3.237  1.00 20.00     0.088 A 
HETATM    4  C5  UNL     1     -33.966  17.489  -2.205  1.00 20.00     0.112 A 
HETATM    5  C6  UNL     1     -33.851  18.049  -3.612  1.00 20.00    -0.018 A 
HETATM    6  C7  UNL     1     -32.990  19.263  -3.875  1.00 20.00     0.017 C 
HETATM    7  C8  UNL     1     -35.093  18.006  -4.471  1.00 20.00     0.017 C 
ENDROOT
BRANCH   4   8
HETATM    8  C3  UNL     1     -33.266  18.149  -1.118  1.00 20.00     0.179 C 
HETATM    9  O9  UNL     1     -32.039  17.871  -1.019  1.00 20.00    -0.648 OA
HETATM   10  O10 UNL     1     -33.983  18.917  -0.416  1.00 20.00    -0.648 OA
ENDBRANCH   4   8
TORSDOF 1
ENDMDL
MODEL 8
REMARK VINA RESULT:      -3.5      2.220      3.623
REMARK  1 active torsions:
REMARK  status: ('A' for Active; 'I' for Inactive)
REMARK    1  A    between atoms: C3_3  and  C5_5 
ROOT
HETATM    1  C1  UNL     1     -39.580  11.644   5.011  1.00 20.00     0.012 C 
HETATM    2  C2  UNL     1     -40.103  12.592   5.529  1.00 20.00    -0.111 C 
HETATM    3  C4  UNL     1     -40.728  13.725   6.149  1.00 20.00     0.088 A 
HETATM    4  C5  UNL     1     -40.779  13.790   7.659  1.00 20.00     0.112 A 
HETATM    5  C6  UNL     1     -42.058  13.580   6.869  1.00 20.00    -0.018 A 
HETATM    6  C7  UNL     1     -43.047  14.712   6.714  1.00 20.00     0.017 C 
HETATM    7  C8  UNL     1     -42.720  12.226   6.982  1.00 20.00     0.017 C 
ENDROOT
BRANCH   4   8
HETATM    8  C3  UNL     1     -40.535  15.077   8.285  1.00 20.00     0.179 C 
HETATM    9  O9  UNL     1     -40.078  15.971   7.521  1.00 20.00    -0.648 OA
HETATM   10  O10 UNL     1     -40.814  15.127   9.516  1.00 20.00    -0.648 OA
ENDBRANCH   4   8
TORSDOF 1
ENDMDL
MODEL 9
REMARK VINA RESULT:      -3.3     12.827     13.788
REMARK  1 active torsions:
REMARK  status: ('A' for Active; 'I' for Inactive)
REMARK    1  A    between atoms: C3_3  and  C5_5 
ROOT
HETATM    1  C1  UNL     1     -38.156  16.718  -5.462  1.00 20.00     0.012 C 
HETATM    2  C2  UNL     1     -37.109  16.140  -5.571  1.00 20.00    -0.111 C 
HETATM    3  C4  UNL     1     -35.857  15.452  -5.701  1.00 20.00     0.088 A 
HETATM    4  C5  UNL     1     -34.689  15.903  -4.854  1.00 20.00     0.112 A 
HETATM    5  C6  UNL     1     -34.664  16.127  -6.355  1.00 20.00    -0.018 A 
HETATM    6  C7  UNL     1     -33.788  15.266  -7.235  1.00 20.00     0.017 C 
HETATM    7  C8  UNL     1     -34.767  17.555  -6.837  1.00 20.00     0.017 C 
ENDROOT
BRANCH   4   8
HETATM    8  C3  UNL     1     -33.841  14.876  -4.275  1.00 20.00     0.179 C 
HETATM    9  O9  UNL     1     -32.645  15.218  -4.065  1.00 20.00    -0.648 OA
HETATM   10  O10 UNL     1     -34.420  13.773  -4.059  1.00 20.00    -0.648 OA
ENDBRANCH   4   8
TORSDOF 1
ENDMDL
