MODEL 1
REMARK VINA RESULT:      -3.6      0.000      0.000
REMARK  1 active torsions:
REMARK  status: ('A' for Active; 'I' for Inactive)
REMARK    1  A    between atoms: C1_1  and  C2_2 
ROOT
HETATM    1  C2  UNL     1     -43.073   5.863  -0.469  1.00 20.00     0.064 A 
HETATM    2  C3  UNL     1     -41.735   6.511  -0.146  1.00 20.00    -0.030 A 
HETATM    3  C4  UNL     1     -42.662   6.035   0.986  1.00 20.00    -0.030 A 
HETATM    4  C5  UNL     1     -41.598   7.994  -0.418  1.00 20.00     0.016 C 
HETATM    5  C6  UNL     1     -40.447   5.766  -0.419  1.00 20.00     0.016 C 
HETATM    6  C7  UNL     1     -42.271   4.828   1.810  1.00 20.00     0.016 C 
HETATM    7  C8  UNL     1     -43.417   7.058   1.806  1.00 20.00     0.016 C 
ENDROOT
BRANCH   1   8
HETATM    8  C1  UNL     1     -43.147   4.534  -1.089  1.00 20.00     0.237 C 
HETATM    9  O9  UNL     1     -43.002   4.340  -2.292  1.00 20.00    -0.306 OA
ENDBRANCH   1   8
TORSDOF 1
ENDMDL
MODEL 2
REMARK VINA RESULT:      -3.4      1.931      3.112
REMARK  1 active torsions:
REMARK  status: ('A' for Active; 'I' for Inactive)
REMARK    1  A    between atoms: C1_1  and  C2_2 
ROOT
HETATM    1  C2  UNL     1     -42.059   6.475   1.254  1.00 20.00     0.064 A 
HETATM    2  C3  UNL     1     -42.077   7.536   0.164  1.00 20.00    -0.030 A 
HETATM    3  C4  UNL     1     -42.060   6.043  -0.204  1.00 20.00    -0.030 A 
HETATM    4  C5  UNL     1     -40.821   8.361  -0.023  1.00 20.00     0.016 C 
HETATM    5  C6  UNL     1     -43.329   8.351  -0.080  1.00 20.00     0.016 C 
HETATM    6  C7  UNL     1     -43.296   5.410  -0.807  1.00 20.00     0.016 C 
HETATM    7  C8  UNL     1     -40.789   5.427  -0.748  1.00 20.00     0.016 C 
ENDROOT
BRANCH   1   8
HETATM    8  C1  UNL     1     -43.226   6.249   2.118  1.00 20.00     0.237 C 
HETATM    9  O9  UNL     1     -43.417   5.208   2.737  1.00 20.00    -0.306 OA
ENDBRANCH   1   8
TORSDOF 1
ENDMDL
MODEL 3
REMARK VINA RESULT:      -3.3     11.741     13.467
REMARK  1 active torsions:
REMARK  status: ('A' for Active; 'I' for Inactive)
REMARK    1  A    between atoms: C1_1  and  C2_2 
ROOT
HETATM    1  C2  UNL     1     -35.421  15.430  -5.024  1.00 20.00     0.064 A 
HETATM    2  C3  UNL     1     -34.474  16.140  -5.980  1.00 20.00    -0.030 A 
HETATM    3  C4  UNL     1     -33.990  15.702  -4.586  1.00 20.00    -0.030 A 
HETATM    4  C5  UNL     1     -34.730  17.608  -6.248  1.00 20.00     0.016 C 
HETATM    5  C6  UNL     1     -33.957  15.423  -7.208  1.00 20.00     0.016 C 
HETATM    6  C7  UNL     1     -33.004  14.562  -4.464  1.00 20.00     0.016 C 
HETATM    7  C8  UNL     1     -33.780  16.748  -3.512  1.00 20.00     0.016 C 
ENDROOT
BRANCH   1   8
HETATM    8  C1  UNL     1     -35.890  14.064  -5.292  1.00 20.00     0.237 C 
HETATM    9  O9  UNL     1     -36.137  13.249  -4.409  1.00 20.00    -0.306 OA
ENDBRANCH   1   8
TORSDOF 1
ENDMDL
MODEL 4
REMARK VINA RESULT:      -3.2      2.006      3.357
REMARK  1 active torsions:
REMARK  status: ('A' for Active; 'I' for Inactive)
REMARK    1  A    between atoms: C1_1  and  C2_2 
ROOT
HETATM    1  C2  UNL     1     -42.968   6.766  -0.304  1.00 20.00     0.064 A 
HETATM    2  C3  UNL     1     -42.959   5.690   0.772  1.00 20.00    -0.030 A 
HETATM    3  C4  UNL     1     -41.636   6.244   0.215  1.00 20.00    -0.030 A 
HETATM    4  C5  UNL     1     -43.409   4.302   0.369  1.00 20.00     0.016 C 
HETATM    5  C6  UNL     1     -43.374   6.030   2.187  1.00 20.00     0.016 C 
HETATM    6  C7  UNL     1     -40.768   7.120   1.092  1.00 20.00     0.016 C 
HETATM    7  C8  UNL     1     -40.811   5.390  -0.723  1.00 20.00     0.016 C 
ENDROOT
BRANCH   1   8
HETATM    8  C1  UNL     1     -43.417   8.133  -0.011  1.00 20.00     0.237 C 
HETATM    9  O9  UNL     1     -43.275   9.073  -0.786  1.00 20.00    -0.306 OA
ENDBRANCH   1   8
TORSDOF 1
ENDMDL
MODEL 5
REMARK VINA RESULT:      -3.2     12.788     13.930
REMARK  1 active torsions:
REMARK  status: ('A' for Active; 'I' for Inactive)
REMARK    1  A    between atoms: C1_1  and  C2_2 
ROOT
HETATM    1  C2  UNL     1     -34.370  16.398  -6.058  1.00 20.00     0.064 A 
HETATM    2  C3  UNL     1     -34.364  15.833  -4.646  1.00 20.00    -0.030 A 
HETATM    3  C4  UNL     1     -35.585  16.611  -5.168  1.00 20.00    -0.030 A 
HETATM    4  C5  UNL     1     -33.442  16.488  -3.640  1.00 20.00     0.016 C 
HETATM    5  C6  UNL     1     -34.469  14.340  -4.425  1.00 20.00     0.016 C 
HETATM    6  C7  UNL     1     -36.873  15.871  -5.452  1.00 20.00     0.016 C 
HETATM    7  C8  UNL     1     -35.840  18.015  -4.665  1.00 20.00     0.016 C 
ENDROOT
BRANCH   1   8
HETATM    8  C1  UNL     1     -34.430  15.515  -7.231  1.00 20.00     0.237 C 
HETATM    9  O9  UNL     1     -33.438  15.019  -7.756  1.00 20.00    -0.306 OA
ENDBRANCH   1   8
TORSDOF 1
ENDMDL
MODEL 6
REMARK VINA RESULT:      -3.1      9.580     10.753
REMARK  1 active torsions:
REMARK  status: ('A' for Active; 'I' for Inactive)
REMARK    1  A    between atoms: C1_1  and  C2_2 
ROOT
HETATM    1  C2  UNL     1     -40.648  13.695   6.977  1.00 20.00     0.064 A 
HETATM    2  C3  UNL     1     -42.090  13.481   7.411  1.00 20.00    -0.030 A 
HETATM    3  C4  UNL     1     -41.750  14.521   6.330  1.00 20.00    -0.030 A 
HETATM    4  C5  UNL     1     -42.474  13.951   8.798  1.00 20.00     0.016 C 
HETATM    5  C6  UNL     1     -42.818  12.212   7.023  1.00 20.00     0.016 C 
HETATM    6  C7  UNL     1     -42.149  14.261   4.894  1.00 20.00     0.016 C 
HETATM    7  C8  UNL     1     -41.807  15.994   6.674  1.00 20.00     0.016 C 
ENDROOT
BRANCH   1   8
HETATM    8  C1  UNL     1     -39.920  12.669   6.219  1.00 20.00     0.237 C 
HETATM    9  O9  UNL     1     -39.189  11.834   6.741  1.00 20.00    -0.306 OA
ENDBRANCH   1   8
TORSDOF 1
ENDMDL
MODEL 7
REMARK VINA RESULT:      -3.1      9.744     10.681
REMARK  1 active torsions:
REMARK  status: ('A' for Active; 'I' for Inactive)
REMARK    1  A    between atoms: C1_1  and  C2_2 
ROOT
HETATM    1  C2  UNL     1     -42.307  12.909   6.715  1.00 20.00     0.064 A 
HETATM    2  C3  UNL     1     -40.899  13.483   6.774  1.00 20.00    -0.030 A 
HETATM    3  C4  UNL     1     -41.998  14.198   5.968  1.00 20.00    -0.030 A 
HETATM    4  C5  UNL     1     -39.811  12.730   6.039  1.00 20.00     0.016 C 
HETATM    5  C6  UNL     1     -40.387  14.107   8.054  1.00 20.00     0.016 C 
HETATM    6  C7  UNL     1     -42.550  15.515   6.467  1.00 20.00     0.016 C 
HETATM    7  C8  UNL     1     -41.968  14.134   4.456  1.00 20.00     0.016 C 
ENDROOT
BRANCH   1   8
HETATM    8  C1  UNL     1     -43.178  12.905   7.898  1.00 20.00     0.237 C 
HETATM    9  O9  UNL     1     -43.151  12.026   8.754  1.00 20.00    -0.306 OA
ENDBRANCH   1   8
TORSDOF 1
ENDMDL
MODEL 8
REMARK VINA RESULT:      -3.1      8.790      9.960
REMARK  1 active torsions:
REMARK  status: ('A' for Active; 'I' for Inactive)
REMARK    1  A    between atoms: C1_1  and  C2_2 
ROOT
HETATM    1  C2  UNL     1     -33.263   5.944   4.387  1.00 20.00     0.064 A 
HETATM    2  C3  UNL     1     -34.662   6.007   4.982  1.00 20.00    -0.030 A 
HETATM    3  C4  UNL     1     -33.727   7.226   5.061  1.00 20.00    -0.030 A 
HETATM    4  C5  UNL     1     -34.922   5.190   6.230  1.00 20.00     0.016 C 
HETATM    5  C6  UNL     1     -35.871   6.051   4.074  1.00 20.00     0.016 C 
HETATM    6  C7  UNL     1     -34.032   8.453   4.229  1.00 20.00     0.016 C 
HETATM    7  C8  UNL     1     -33.087   7.586   6.384  1.00 20.00     0.016 C 
ENDROOT
BRANCH   1   8
HETATM    8  C1  UNL     1     -33.056   5.878   2.934  1.00 20.00     0.237 C 
HETATM    9  O9  UNL     1     -32.783   4.842   2.336  1.00 20.00    -0.306 OA
ENDBRANCH   1   8
TORSDOF 1
ENDMDL
MODEL 9
REMARK VINA RESULT:      -3.1     11.339     13.207
REMARK  1 active torsions:
REMARK  status: ('A' for Active; 'I' for Inactive)
REMARK    1  A    between atoms: C1_1  and  C2_2 
ROOT
HETATM    1  C2  UNL     1     -35.866  14.513  -6.016  1.00 20.00     0.064 A 
HETATM    2  C3  UNL     1     -34.757  15.550  -6.113  1.00 20.00    -0.030 A 
HETATM    3  C4  UNL     1     -36.222  15.952  -6.359  1.00 20.00    -0.030 A 
HETATM    4  C5  UNL     1     -33.809  15.445  -7.289  1.00 20.00     0.016 C 
HETATM    5  C6  UNL     1     -34.053  16.026  -4.862  1.00 20.00     0.016 C 
HETATM    6  C7  UNL     1     -36.936  16.819  -5.346  1.00 20.00     0.016 C 
HETATM    7  C8  UNL     1     -36.686  16.236  -7.771  1.00 20.00     0.016 C 
ENDROOT
BRANCH   1   8
HETATM    8  C1  UNL     1     -36.245  13.921  -4.727  1.00 20.00     0.237 C 
HETATM    9  O9  UNL     1     -35.753  12.887  -4.287  1.00 20.00    -0.306 OA
ENDBRANCH   1   8
TORSDOF 1
ENDMDL
