MODEL 1
REMARK VINA RESULT:      -4.5      0.000      0.000
REMARK  2 active torsions:
REMARK  status: ('A' for Active; 'I' for Inactive)
REMARK    1  A    between atoms: C1_1  and  C3_3 
REMARK    2  A    between atoms: C1_1  and  O7_7 
ROOT
HETATM    1  C2  UNL     1     -35.486   5.845   4.478  1.00 20.00     0.055 A 
HETATM    2  C3  UNL     1     -34.078   6.323   4.599  1.00 20.00     0.122 A 
HETATM    3  C4  UNL     1     -34.424   4.942   5.019  1.00 20.00     0.184 A 
HETATM    4  F8  UNL     1     -33.981   3.917   4.204  1.00 20.00    -0.248 F 
ENDROOT
BRANCH   2   5
HETATM    5  C1  UNL     1     -33.760   7.331   5.662  1.00 20.00     0.265 C 
HETATM    6  O6  UNL     1     -34.247   7.320   6.784  1.00 20.00    -0.265 OA
BRANCH   5   7
HETATM    7  O7  UNL     1     -32.862   8.236   5.177  1.00 20.00    -0.326 OA
HETATM    8  C5  UNL     1     -32.309   7.926   3.895  1.00 20.00     0.213 C 
ENDBRANCH   5   7
ENDBRANCH   2   5
TORSDOF 2
ENDMDL
MODEL 2
REMARK VINA RESULT:      -4.3      1.702      2.122
REMARK  2 active torsions:
REMARK  status: ('A' for Active; 'I' for Inactive)
REMARK    1  A    between atoms: C1_1  and  C3_3 
REMARK    2  A    between atoms: C1_1  and  O7_7 
ROOT
HETATM    1  C2  UNL     1     -34.133   6.708   6.269  1.00 20.00     0.055 A 
HETATM    2  C3  UNL     1     -34.096   7.587   5.064  1.00 20.00     0.122 A 
HETATM    3  C4  UNL     1     -34.446   6.153   4.917  1.00 20.00     0.184 A 
HETATM    4  F8  UNL     1     -35.768   5.863   4.635  1.00 20.00    -0.248 F 
ENDROOT
BRANCH   2   5
HETATM    5  C1  UNL     1     -32.760   8.048   4.564  1.00 20.00     0.265 C 
HETATM    6  O6  UNL     1     -32.185   9.049   4.969  1.00 20.00    -0.265 OA
BRANCH   5   7
HETATM    7  O7  UNL     1     -32.310   7.186   3.608  1.00 20.00    -0.326 OA
HETATM    8  C5  UNL     1     -32.268   7.711   2.278  1.00 20.00     0.213 C 
ENDBRANCH   5   7
ENDBRANCH   2   5
TORSDOF 2
ENDMDL
MODEL 3
REMARK VINA RESULT:      -4.2      2.482      3.495
REMARK  2 active torsions:
REMARK  status: ('A' for Active; 'I' for Inactive)
REMARK    1  A    between atoms: C1_1  and  C3_3 
REMARK    2  A    between atoms: C1_1  and  O7_7 
ROOT
HETATM    1  C2  UNL     1     -32.479   7.597   3.615  1.00 20.00     0.055 A 
HETATM    2  C3  UNL     1     -33.612   7.978   4.508  1.00 20.00     0.122 A 
HETATM    3  C4  UNL     1     -32.249   8.496   4.786  1.00 20.00     0.184 A 
HETATM    4  F8  UNL     1     -32.031   9.837   4.530  1.00 20.00    -0.248 F 
ENDROOT
BRANCH   2   5
HETATM    5  C1  UNL     1     -34.177   6.934   5.422  1.00 20.00     0.265 C 
HETATM    6  O6  UNL     1     -33.992   6.909   6.631  1.00 20.00    -0.265 OA
BRANCH   5   7
HETATM    7  O7  UNL     1     -34.911   6.043   4.696  1.00 20.00    -0.326 OA
HETATM    8  C5  UNL     1     -34.438   4.692   4.723  1.00 20.00     0.213 C 
ENDBRANCH   5   7
ENDBRANCH   2   5
TORSDOF 2
ENDMDL
MODEL 4
REMARK VINA RESULT:      -4.1      1.455      1.480
REMARK  2 active torsions:
REMARK  status: ('A' for Active; 'I' for Inactive)
REMARK    1  A    between atoms: C1_1  and  C3_3 
REMARK    2  A    between atoms: C1_1  and  O7_7 
ROOT
HETATM    1  C2  UNL     1     -35.127   6.108   4.842  1.00 20.00     0.055 A 
HETATM    2  C3  UNL     1     -33.690   6.469   5.020  1.00 20.00     0.122 A 
HETATM    3  C4  UNL     1     -34.480   5.997   6.185  1.00 20.00     0.184 A 
HETATM    4  F8  UNL     1     -34.195   4.728   6.654  1.00 20.00    -0.248 F 
ENDROOT
BRANCH   2   5
HETATM    5  C1  UNL     1     -33.310   7.917   4.959  1.00 20.00     0.265 C 
HETATM    6  O6  UNL     1     -33.911   8.809   5.541  1.00 20.00    -0.265 OA
BRANCH   5   7
HETATM    7  O7  UNL     1     -32.211   8.066   4.165  1.00 20.00    -0.326 OA
HETATM    8  C5  UNL     1     -32.205   7.278   2.970  1.00 20.00     0.213 C 
ENDBRANCH   5   7
ENDBRANCH   2   5
TORSDOF 2
ENDMDL
MODEL 5
REMARK VINA RESULT:      -4.1      1.661      2.110
REMARK  2 active torsions:
REMARK  status: ('A' for Active; 'I' for Inactive)
REMARK    1  A    between atoms: C1_1  and  C3_3 
REMARK    2  A    between atoms: C1_1  and  O7_7 
ROOT
HETATM    1  C2  UNL     1     -35.386   5.841   4.587  1.00 20.00     0.055 A 
HETATM    2  C3  UNL     1     -33.900   5.751   4.480  1.00 20.00     0.122 A 
HETATM    3  C4  UNL     1     -34.528   6.011   5.799  1.00 20.00     0.184 A 
HETATM    4  F8  UNL     1     -34.501   4.974   6.714  1.00 20.00    -0.248 F 
ENDROOT
BRANCH   2   5
HETATM    5  C1  UNL     1     -33.168   6.872   3.807  1.00 20.00     0.265 C 
HETATM    6  O6  UNL     1     -32.431   6.728   2.841  1.00 20.00    -0.265 OA
BRANCH   5   7
HETATM    7  O7  UNL     1     -33.454   8.047   4.439  1.00 20.00    -0.326 OA
HETATM    8  C5  UNL     1     -32.322   8.849   4.786  1.00 20.00     0.213 C 
ENDBRANCH   5   7
ENDBRANCH   2   5
TORSDOF 2
ENDMDL
MODEL 6
REMARK VINA RESULT:      -4.0      2.695      3.135
REMARK  2 active torsions:
REMARK  status: ('A' for Active; 'I' for Inactive)
REMARK    1  A    between atoms: C1_1  and  C3_3 
REMARK    2  A    between atoms: C1_1  and  O7_7 
ROOT
HETATM    1  C2  UNL     1     -33.666   7.818   5.102  1.00 20.00     0.055 A 
HETATM    2  C3  UNL     1     -34.541   6.610   5.035  1.00 20.00     0.122 A 
HETATM    3  C4  UNL     1     -33.841   6.942   6.301  1.00 20.00     0.184 A 
HETATM    4  F8  UNL     1     -34.624   7.423   7.334  1.00 20.00    -0.248 F 
ENDROOT
BRANCH   2   5
HETATM    5  C1  UNL     1     -34.061   5.430   4.245  1.00 20.00     0.265 C 
HETATM    6  O6  UNL     1     -34.385   4.274   4.477  1.00 20.00    -0.265 OA
BRANCH   5   7
HETATM    7  O7  UNL     1     -33.226   5.854   3.254  1.00 20.00    -0.326 OA
HETATM    8  C5  UNL     1     -32.850   4.858   2.299  1.00 20.00     0.213 C 
ENDBRANCH   5   7
ENDBRANCH   2   5
TORSDOF 2
ENDMDL
MODEL 7
REMARK VINA RESULT:      -3.9      2.608      3.695
REMARK  2 active torsions:
REMARK  status: ('A' for Active; 'I' for Inactive)
REMARK    1  A    between atoms: C1_1  and  C3_3 
REMARK    2  A    between atoms: C1_1  and  O7_7 
ROOT
HETATM    1  C2  UNL     1     -32.387   7.929   3.347  1.00 20.00     0.055 A 
HETATM    2  C3  UNL     1     -33.603   7.779   4.200  1.00 20.00     0.122 A 
HETATM    3  C4  UNL     1     -32.322   8.207   4.814  1.00 20.00     0.184 A 
HETATM    4  F8  UNL     1     -32.236   9.529   5.210  1.00 20.00    -0.248 F 
ENDROOT
BRANCH   2   5
HETATM    5  C1  UNL     1     -34.102   6.395   4.487  1.00 20.00     0.265 C 
HETATM    6  O6  UNL     1     -33.963   5.446   3.728  1.00 20.00    -0.265 OA
BRANCH   5   7
HETATM    7  O7  UNL     1     -34.719   6.377   5.703  1.00 20.00    -0.326 OA
HETATM    8  C5  UNL     1     -34.373   5.278   6.551  1.00 20.00     0.213 C 
ENDBRANCH   5   7
ENDBRANCH   2   5
TORSDOF 2
ENDMDL
MODEL 8
REMARK VINA RESULT:      -3.9      2.267      2.838
REMARK  2 active torsions:
REMARK  status: ('A' for Active; 'I' for Inactive)
REMARK    1  A    between atoms: C1_1  and  C3_3 
REMARK    2  A    between atoms: C1_1  and  O7_7 
ROOT
HETATM    1  C2  UNL     1     -34.069   8.319   5.643  1.00 20.00     0.055 A 
HETATM    2  C3  UNL     1     -33.769   7.266   4.628  1.00 20.00     0.122 A 
HETATM    3  C4  UNL     1     -33.632   6.955   6.073  1.00 20.00     0.184 A 
HETATM    4  F8  UNL     1     -34.589   6.121   6.621  1.00 20.00    -0.248 F 
ENDROOT
BRANCH   2   5
HETATM    5  C1  UNL     1     -32.522   7.406   3.809  1.00 20.00     0.265 C 
HETATM    6  O6  UNL     1     -31.568   8.103   4.127  1.00 20.00    -0.265 OA
BRANCH   5   7
HETATM    7  O7  UNL     1     -32.630   6.647   2.682  1.00 20.00    -0.326 OA
HETATM    8  C5  UNL     1     -33.017   5.285   2.893  1.00 20.00     0.213 C 
ENDBRANCH   5   7
ENDBRANCH   2   5
TORSDOF 2
ENDMDL
MODEL 9
REMARK VINA RESULT:      -3.7      2.502      3.175
REMARK  2 active torsions:
REMARK  status: ('A' for Active; 'I' for Inactive)
REMARK    1  A    between atoms: C1_1  and  C3_3 
REMARK    2  A    between atoms: C1_1  and  O7_7 
ROOT
HETATM    1  C2  UNL     1     -32.823   5.208   2.516  1.00 20.00     0.055 A 
HETATM    2  C3  UNL     1     -33.900   5.947   3.238  1.00 20.00     0.122 A 
HETATM    3  C4  UNL     1     -32.527   6.508   3.192  1.00 20.00     0.184 A 
HETATM    4  F8  UNL     1     -32.337   7.617   2.388  1.00 20.00    -0.248 F 
ENDROOT
BRANCH   2   5
HETATM    5  C1  UNL     1     -34.397   5.387   4.536  1.00 20.00     0.265 C 
HETATM    6  O6  UNL     1     -34.322   4.207   4.846  1.00 20.00    -0.265 OA
BRANCH   5   7
HETATM    7  O7  UNL     1     -34.930   6.390   5.290  1.00 20.00    -0.326 OA
HETATM    8  C5  UNL     1     -34.192   6.733   6.467  1.00 20.00     0.213 C 
ENDBRANCH   5   7
ENDBRANCH   2   5
TORSDOF 2
ENDMDL
