MODEL 1
REMARK VINA RESULT:      -3.4      0.000      0.000
REMARK  2 active torsions:
REMARK  status: ('A' for Active; 'I' for Inactive)
REMARK    1  A    between atoms: C1_1  and  C4_4 
REMARK    2  A    between atoms: C4_4  and  C5_5 
ROOT
HETATM    1  C4  UNL     1     -22.768  17.327   9.684  1.00 20.00     0.137 C 
ENDROOT
BRANCH   1   2
HETATM    2  C1  UNL     1     -22.378  18.501   8.781  1.00 20.00     0.174 C 
HETATM    3  O6  UNL     1     -22.982  18.549   7.672  1.00 20.00    -0.648 OA
HETATM    4  O7  UNL     1     -21.484  19.262   9.246  1.00 20.00    -0.648 OA
ENDBRANCH   1   2
BRANCH   1   5
HETATM    5  C5  UNL     1     -23.693  17.694  10.856  1.00 20.00     0.039 C 
HETATM    6  C2  UNL     1     -24.731  18.749  10.463  1.00 20.00     0.032 C 
HETATM    7  C3  UNL     1     -24.390  16.464  11.446  1.00 20.00     0.032 C 
HETATM    8 CL8  UNL     1     -22.657  18.407  12.157  1.00 20.00    -0.119 Cl
ENDBRANCH   1   5
TORSDOF 2
ENDMDL
MODEL 2
REMARK VINA RESULT:      -3.4      1.487      2.071
REMARK  2 active torsions:
REMARK  status: ('A' for Active; 'I' for Inactive)
REMARK    1  A    between atoms: C1_1  and  C4_4 
REMARK    2  A    between atoms: C4_4  and  C5_5 
ROOT
HETATM    1  C4  UNL     1     -23.894  18.273   9.944  1.00 20.00     0.137 C 
ENDROOT
BRANCH   1   2
HETATM    2  C1  UNL     1     -22.514  18.051   9.317  1.00 20.00     0.174 C 
HETATM    3  O6  UNL     1     -21.801  19.089   9.208  1.00 20.00    -0.648 OA
HETATM    4  O7  UNL     1     -22.269  16.863   8.964  1.00 20.00    -0.648 OA
ENDBRANCH   1   2
BRANCH   1   5
HETATM    5  C5  UNL     1     -24.000  17.879  11.427  1.00 20.00     0.039 C 
HETATM    6  C2  UNL     1     -24.377  16.405  11.606  1.00 20.00     0.032 C 
HETATM    7  C3  UNL     1     -22.714  18.191  12.199  1.00 20.00     0.032 C 
HETATM    8 CL8  UNL     1     -25.325  18.873  12.154  1.00 20.00    -0.119 Cl
ENDBRANCH   1   5
TORSDOF 2
ENDMDL
MODEL 3
REMARK VINA RESULT:      -3.4     15.600     16.398
REMARK  2 active torsions:
REMARK  status: ('A' for Active; 'I' for Inactive)
REMARK    1  A    between atoms: C1_1  and  C4_4 
REMARK    2  A    between atoms: C4_4  and  C5_5 
ROOT
HETATM    1  C4  UNL     1     -34.156   7.869   4.663  1.00 20.00     0.137 C 
ENDROOT
BRANCH   1   2
HETATM    2  C1  UNL     1     -32.755   8.300   4.219  1.00 20.00     0.174 C 
HETATM    3  O6  UNL     1     -31.940   8.526   5.158  1.00 20.00    -0.648 OA
HETATM    4  O7  UNL     1     -32.594   8.400   2.970  1.00 20.00    -0.648 OA
ENDBRANCH   1   2
BRANCH   1   5
HETATM    5  C5  UNL     1     -34.363   6.348   4.758  1.00 20.00     0.039 C 
HETATM    6  C2  UNL     1     -33.423   5.579   3.825  1.00 20.00     0.032 C 
HETATM    7  C3  UNL     1     -34.217   5.836   6.194  1.00 20.00     0.032 C 
HETATM    8 CL8  UNL     1     -36.058   6.002   4.227  1.00 20.00    -0.119 Cl
ENDBRANCH   1   5
TORSDOF 2
ENDMDL
MODEL 4
REMARK VINA RESULT:      -3.3     17.987     18.654
REMARK  2 active torsions:
REMARK  status: ('A' for Active; 'I' for Inactive)
REMARK    1  A    between atoms: C1_1  and  C4_4 
REMARK    2  A    between atoms: C4_4  and  C5_5 
ROOT
HETATM    1  C4  UNL     1     -40.216  11.654   5.790  1.00 20.00     0.137 C 
ENDROOT
BRANCH   1   2
HETATM    2  C1  UNL     1     -39.067  11.950   4.822  1.00 20.00     0.174 C 
HETATM    3  O6  UNL     1     -39.356  11.844   3.596  1.00 20.00    -0.648 OA
HETATM    4  O7  UNL     1     -37.965  12.239   5.368  1.00 20.00    -0.648 OA
ENDBRANCH   1   2
BRANCH   1   5
HETATM    5  C5  UNL     1     -41.059  12.878   6.183  1.00 20.00     0.039 C 
HETATM    6  C2  UNL     1     -40.357  13.750   7.229  1.00 20.00     0.032 C 
HETATM    7  C3  UNL     1     -41.449  13.724   4.967  1.00 20.00     0.032 C 
HETATM    8 CL8  UNL     1     -42.588  12.261   6.928  1.00 20.00    -0.119 Cl
ENDBRANCH   1   5
TORSDOF 2
ENDMDL
MODEL 5
REMARK VINA RESULT:      -3.3     15.599     16.399
REMARK  2 active torsions:
REMARK  status: ('A' for Active; 'I' for Inactive)
REMARK    1  A    between atoms: C1_1  and  C4_4 
REMARK    2  A    between atoms: C4_4  and  C5_5 
ROOT
HETATM    1  C4  UNL     1     -34.041   7.768   4.366  1.00 20.00     0.137 C 
ENDROOT
BRANCH   1   2
HETATM    2  C1  UNL     1     -32.577   8.067   4.030  1.00 20.00     0.174 C 
HETATM    3  O6  UNL     1     -31.888   8.521   4.987  1.00 20.00    -0.648 OA
HETATM    4  O7  UNL     1     -32.245   7.845   2.831  1.00 20.00    -0.648 OA
ENDBRANCH   1   2
BRANCH   1   5
HETATM    5  C5  UNL     1     -34.335   6.302   4.725  1.00 20.00     0.039 C 
HETATM    6  C2  UNL     1     -34.014   5.992   6.190  1.00 20.00     0.032 C 
HETATM    7  C3  UNL     1     -35.782   5.911   4.408  1.00 20.00     0.032 C 
HETATM    8 CL8  UNL     1     -33.256   5.271   3.702  1.00 20.00    -0.119 Cl
ENDBRANCH   1   5
TORSDOF 2
ENDMDL
MODEL 6
REMARK VINA RESULT:      -3.3     15.437     16.231
REMARK  2 active torsions:
REMARK  status: ('A' for Active; 'I' for Inactive)
REMARK    1  A    between atoms: C1_1  and  C4_4 
REMARK    2  A    between atoms: C4_4  and  C5_5 
ROOT
HETATM    1  C4  UNL     1     -34.129   7.887   4.596  1.00 20.00     0.137 C 
ENDROOT
BRANCH   1   2
HETATM    2  C1  UNL     1     -32.743   8.398   4.193  1.00 20.00     0.174 C 
HETATM    3  O6  UNL     1     -31.915   8.511   5.141  1.00 20.00    -0.648 OA
HETATM    4  O7  UNL     1     -32.606   8.667   2.966  1.00 20.00    -0.648 OA
ENDBRANCH   1   2
BRANCH   1   5
HETATM    5  C5  UNL     1     -34.252   6.357   4.685  1.00 20.00     0.039 C 
HETATM    6  C2  UNL     1     -35.684   5.878   4.424  1.00 20.00     0.032 C 
HETATM    7  C3  UNL     1     -33.277   5.645   3.742  1.00 20.00     0.032 C 
HETATM    8 CL8  UNL     1     -33.820   5.880   6.376  1.00 20.00    -0.119 Cl
ENDBRANCH   1   5
TORSDOF 2
ENDMDL
MODEL 7
REMARK VINA RESULT:      -3.3     17.942     18.635
REMARK  2 active torsions:
REMARK  status: ('A' for Active; 'I' for Inactive)
REMARK    1  A    between atoms: C1_1  and  C4_4 
REMARK    2  A    between atoms: C4_4  and  C5_5 
ROOT
HETATM    1  C4  UNL     1     -40.232  11.674   5.815  1.00 20.00     0.137 C 
ENDROOT
BRANCH   1   2
HETATM    2  C1  UNL     1     -39.081  11.968   4.848  1.00 20.00     0.174 C 
HETATM    3  O6  UNL     1     -39.375  11.885   3.622  1.00 20.00    -0.648 OA
HETATM    4  O7  UNL     1     -37.974  12.234   5.395  1.00 20.00    -0.648 OA
ENDBRANCH   1   2
BRANCH   1   5
HETATM    5  C5  UNL     1     -41.085  12.896   6.193  1.00 20.00     0.039 C 
HETATM    6  C2  UNL     1     -42.412  12.493   6.844  1.00 20.00     0.032 C 
HETATM    7  C3  UNL     1     -40.326  13.868   7.102  1.00 20.00     0.032 C 
HETATM    8 CL8  UNL     1     -41.475  13.776   4.661  1.00 20.00    -0.119 Cl
ENDBRANCH   1   5
TORSDOF 2
ENDMDL
MODEL 8
REMARK VINA RESULT:      -3.3     23.563     24.283
REMARK  2 active torsions:
REMARK  status: ('A' for Active; 'I' for Inactive)
REMARK    1  A    between atoms: C1_1  and  C4_4 
REMARK    2  A    between atoms: C4_4  and  C5_5 
ROOT
HETATM    1  C4  UNL     1     -42.255   7.155   0.879  1.00 20.00     0.137 C 
ENDROOT
BRANCH   1   2
HETATM    2  C1  UNL     1     -41.797   8.198  -0.145  1.00 20.00     0.174 C 
HETATM    3  O6  UNL     1     -40.646   8.679   0.058  1.00 20.00    -0.648 OA
HETATM    4  O7  UNL     1     -42.636   8.466  -1.050  1.00 20.00    -0.648 OA
ENDBRANCH   1   2
BRANCH   1   5
HETATM    5  C5  UNL     1     -42.197   5.699   0.387  1.00 20.00     0.039 C 
HETATM    6  C2  UNL     1     -42.087   4.703   1.546  1.00 20.00     0.032 C 
HETATM    7  C3  UNL     1     -43.393   5.344  -0.502  1.00 20.00     0.032 C 
HETATM    8 CL8  UNL     1     -40.703   5.530  -0.619  1.00 20.00    -0.119 Cl
ENDBRANCH   1   5
TORSDOF 2
ENDMDL
MODEL 9
REMARK VINA RESULT:      -3.3     17.880     18.563
REMARK  2 active torsions:
REMARK  status: ('A' for Active; 'I' for Inactive)
REMARK    1  A    between atoms: C1_1  and  C4_4 
REMARK    2  A    between atoms: C4_4  and  C5_5 
ROOT
HETATM    1  C4  UNL     1     -40.249  11.634   5.822  1.00 20.00     0.137 C 
ENDROOT
BRANCH   1   2
HETATM    2  C1  UNL     1     -39.102  11.959   4.860  1.00 20.00     0.174 C 
HETATM    3  O6  UNL     1     -39.384  11.849   3.633  1.00 20.00    -0.648 OA
HETATM    4  O7  UNL     1     -38.011  12.273   5.413  1.00 20.00    -0.648 OA
ENDBRANCH   1   2
BRANCH   1   5
HETATM    5  C5  UNL     1     -41.134  12.833   6.200  1.00 20.00     0.039 C 
HETATM    6  C2  UNL     1     -41.416  13.742   5.000  1.00 20.00     0.032 C 
HETATM    7  C3  UNL     1     -42.451  12.394   6.850  1.00 20.00     0.032 C 
HETATM    8 CL8  UNL     1     -40.225  13.810   7.421  1.00 20.00    -0.119 Cl
ENDBRANCH   1   5
TORSDOF 2
ENDMDL
