MODEL 1
REMARK VINA RESULT:      -3.4      0.000      0.000
REMARK  0 active torsions:
REMARK  status: ('A' for Active; 'I' for Inactive)
ROOT
HETATM    1  C1  UNL     1     -32.089  18.283  -0.859  1.00 20.00     0.064 C 
HETATM    2  C2  UNL     1     -33.385  16.749  -2.326  1.00 20.00     0.030 C 
HETATM    3  C3  UNL     1     -33.359  17.626  -3.571  1.00 20.00     0.075 C 
HETATM    4  C4  UNL     1     -34.480  18.718  -1.385  1.00 20.00     0.093 C 
HETATM    5  C5  UNL     1     -33.407  17.670  -1.105  1.00 20.00     0.103 C 
HETATM    6  N6  UNL     1     -31.052  18.767  -0.666  1.00 20.00    -0.197 NA
HETATM    7  S7  UNL     1     -34.410  19.049  -3.173  1.00 20.00    -0.168 SA
ENDROOT
TORSDOF 0
ENDMDL
MODEL 2
REMARK VINA RESULT:      -3.2     15.033     15.925
REMARK  0 active torsions:
REMARK  status: ('A' for Active; 'I' for Inactive)
ROOT
HETATM    1  C1  UNL     1     -22.428  17.707   8.978  1.00 20.00     0.064 C 
HETATM    2  C2  UNL     1     -22.384  18.526  11.326  1.00 20.00     0.030 C 
HETATM    3  C3  UNL     1     -23.180  17.378  11.932  1.00 20.00     0.075 C 
HETATM    4  C4  UNL     1     -24.420  18.784  10.005  1.00 20.00     0.093 C 
HETATM    5  C5  UNL     1     -22.898  18.754   9.904  1.00 20.00     0.103 C 
HETATM    6  N6  UNL     1     -22.059  16.883   8.249  1.00 20.00    -0.197 NA
HETATM    7  S7  UNL     1     -24.865  17.580  11.295  1.00 20.00    -0.168 SA
ENDROOT
TORSDOF 0
ENDMDL
MODEL 3
REMARK VINA RESULT:      -3.2     13.159     13.639
REMARK  0 active torsions:
REMARK  status: ('A' for Active; 'I' for Inactive)
ROOT
HETATM    1  C1  UNL     1     -32.997   7.753   4.525  1.00 20.00     0.064 C 
HETATM    2  C2  UNL     1     -34.246   6.909   6.503  1.00 20.00     0.030 C 
HETATM    3  C3  UNL     1     -33.736   5.475   6.439  1.00 20.00     0.075 C 
HETATM    4  C4  UNL     1     -35.039   6.360   4.260  1.00 20.00     0.093 C 
HETATM    5  C5  UNL     1     -34.330   7.440   5.072  1.00 20.00     0.103 C 
HETATM    6  N6  UNL     1     -31.948   7.999   4.094  1.00 20.00    -0.197 NA
HETATM    7  S7  UNL     1     -34.490   4.768   4.950  1.00 20.00    -0.168 SA
ENDROOT
TORSDOF 0
ENDMDL
MODEL 4
REMARK VINA RESULT:      -3.0     14.891     15.973
REMARK  0 active torsions:
REMARK  status: ('A' for Active; 'I' for Inactive)
ROOT
HETATM    1  C1  UNL     1     -24.322  18.473   9.361  1.00 20.00     0.064 C 
HETATM    2  C2  UNL     1     -24.125  16.661  11.053  1.00 20.00     0.030 C 
HETATM    3  C3  UNL     1     -24.252  17.550  12.284  1.00 20.00     0.075 C 
HETATM    4  C4  UNL     1     -22.212  18.117  10.627  1.00 20.00     0.093 C 
HETATM    5  C5  UNL     1     -23.423  17.470   9.962  1.00 20.00     0.103 C 
HETATM    6  N6  UNL     1     -25.029  19.263   8.888  1.00 20.00    -0.197 NA
HETATM    7  S7  UNL     1     -22.726  18.529  12.323  1.00 20.00    -0.168 SA
ENDROOT
TORSDOF 0
ENDMDL
MODEL 5
REMARK VINA RESULT:      -2.9      4.092      5.032
REMARK  0 active torsions:
REMARK  status: ('A' for Active; 'I' for Inactive)
ROOT
HETATM    1  C1  UNL     1     -35.314  14.163  -4.904  1.00 20.00     0.064 C 
HETATM    2  C2  UNL     1     -33.061  15.022  -4.294  1.00 20.00     0.030 C 
HETATM    3  C3  UNL     1     -33.530  16.036  -3.258  1.00 20.00     0.075 C 
HETATM    4  C4  UNL     1     -34.500  16.356  -5.745  1.00 20.00     0.093 C 
HETATM    5  C5  UNL     1     -34.139  14.921  -5.373  1.00 20.00     0.103 C 
HETATM    6  N6  UNL     1     -36.238  13.566  -4.535  1.00 20.00    -0.197 NA
HETATM    7  S7  UNL     1     -34.387  17.322  -4.206  1.00 20.00    -0.168 SA
ENDROOT
TORSDOF 0
ENDMDL
MODEL 6
REMARK VINA RESULT:      -2.9     13.394     13.927
REMARK  0 active torsions:
REMARK  status: ('A' for Active; 'I' for Inactive)
ROOT
HETATM    1  C1  UNL     1     -33.443   5.766   3.268  1.00 20.00     0.064 C 
HETATM    2  C2  UNL     1     -33.877   7.586   4.906  1.00 20.00     0.030 C 
HETATM    3  C3  UNL     1     -33.343   6.857   6.131  1.00 20.00     0.075 C 
HETATM    4  C4  UNL     1     -35.369   5.655   4.836  1.00 20.00     0.093 C 
HETATM    5  C5  UNL     1     -34.483   6.543   3.967  1.00 20.00     0.103 C 
HETATM    6  N6  UNL     1     -32.625   5.154   2.718  1.00 20.00    -0.197 NA
HETATM    7  S7  UNL     1     -34.528   5.520   6.444  1.00 20.00    -0.168 SA
ENDROOT
TORSDOF 0
ENDMDL
MODEL 7
REMARK VINA RESULT:      -2.9     15.290     16.091
REMARK  0 active torsions:
REMARK  status: ('A' for Active; 'I' for Inactive)
ROOT
HETATM    1  C1  UNL     1     -24.061  17.076  11.443  1.00 20.00     0.064 C 
HETATM    2  C2  UNL     1     -23.985  18.943   9.803  1.00 20.00     0.030 C 
HETATM    3  C3  UNL     1     -23.088  18.252   8.785  1.00 20.00     0.075 C 
HETATM    4  C4  UNL     1     -22.063  18.542  11.253  1.00 20.00     0.093 C 
HETATM    5  C5  UNL     1     -23.585  18.448  11.193  1.00 20.00     0.103 C 
HETATM    6  N6  UNL     1     -24.436  15.995  11.640  1.00 20.00    -0.197 NA
HETATM    7  S7  UNL     1     -21.464  18.135   9.584  1.00 20.00    -0.168 SA
ENDROOT
TORSDOF 0
ENDMDL
MODEL 8
REMARK VINA RESULT:      -2.9      4.313      5.275
REMARK  0 active torsions:
REMARK  status: ('A' for Active; 'I' for Inactive)
ROOT
HETATM    1  C1  UNL     1     -34.191  15.113  -6.690  1.00 20.00     0.064 C 
HETATM    2  C2  UNL     1     -35.486  16.468  -5.057  1.00 20.00     0.030 C 
HETATM    3  C3  UNL     1     -34.307  17.254  -4.499  1.00 20.00     0.075 C 
HETATM    4  C4  UNL     1     -34.158  14.580  -4.262  1.00 20.00     0.093 C 
HETATM    5  C5  UNL     1     -34.981  15.079  -5.446  1.00 20.00     0.103 C 
HETATM    6  N6  UNL     1     -33.567  15.140  -7.669  1.00 20.00    -0.197 NA
HETATM    7  S7  UNL     1     -33.323  16.044  -3.575  1.00 20.00    -0.168 SA
ENDROOT
TORSDOF 0
ENDMDL
MODEL 9
REMARK VINA RESULT:      -2.9     14.770     15.380
REMARK  0 active torsions:
REMARK  status: ('A' for Active; 'I' for Inactive)
ROOT
HETATM    1  C1  UNL     1     -42.831   5.022  -0.656  1.00 20.00     0.064 C 
HETATM    2  C2  UNL     1     -42.938   6.587   1.275  1.00 20.00     0.030 C 
HETATM    3  C3  UNL     1     -43.048   7.870   0.461  1.00 20.00     0.075 C 
HETATM    4  C4  UNL     1     -40.857   6.376   0.017  1.00 20.00     0.093 C 
HETATM    5  C5  UNL     1     -42.086   5.598   0.479  1.00 20.00     0.103 C 
HETATM    6  N6  UNL     1     -43.417   4.570  -1.549  1.00 20.00    -0.197 NA
HETATM    7  S7  UNL     1     -41.431   8.066  -0.337  1.00 20.00    -0.168 SA
ENDROOT
TORSDOF 0
ENDMDL
