MODEL 1
REMARK VINA RESULT:      -4.2      0.000      0.000
REMARK  2 active torsions:
REMARK  status: ('A' for Active; 'I' for Inactive)
REMARK    1  A    between atoms: C8_8  and  C9_9 
REMARK    2  A    between atoms: C8_8  and  N10_10 
ROOT
HETATM    1  C1  UNL     1     -33.714   7.174   5.322  1.00 20.00     0.039 C 
HETATM    2  C2  UNL     1     -33.506   5.041   4.018  1.00 20.00     0.039 C 
HETATM    3  C3  UNL     1     -33.255   7.932   4.073  1.00 20.00     0.273 C 
HETATM    4  C4  UNL     1     -33.053   5.871   2.812  1.00 20.00     0.273 C 
HETATM    5  C5  UNL     1     -34.401   5.831   4.994  1.00 20.00    -0.044 C 
HETATM    6  C6  UNL     1     -34.583   5.021   6.289  1.00 20.00     0.015 C 
HETATM    7  C7  UNL     1     -35.795   6.069   4.382  1.00 20.00     0.015 C 
HETATM    8  N10 UNL     1     -32.377   7.102   3.240  1.00 20.00     0.089 N 
ENDROOT
BRANCH   8   9
HETATM    9  C8  UNL     1     -31.906   7.857   2.081  1.00 20.00     0.287 C 
BRANCH   9  10
HETATM   10  C9  UNL     1     -32.708   9.126   1.845  1.00 20.00     0.144 C 
HETATM   11 CL11 UNL     1     -32.929   9.439   0.105  1.00 20.00    -0.129 Cl
ENDBRANCH   9  10
ENDBRANCH   8   9
TORSDOF 2
ENDMDL
MODEL 2
REMARK VINA RESULT:      -3.8     11.665     12.812
REMARK  2 active torsions:
REMARK  status: ('A' for Active; 'I' for Inactive)
REMARK    1  A    between atoms: C8_8  and  C9_9 
REMARK    2  A    between atoms: C8_8  and  N10_10 
ROOT
HETATM    1  C1  UNL     1     -33.391  16.546  -2.261  1.00 20.00     0.039 C 
HETATM    2  C2  UNL     1     -34.968  18.486  -2.472  1.00 20.00     0.039 C 
HETATM    3  C3  UNL     1     -33.417  16.414  -3.787  1.00 20.00     0.273 C 
HETATM    4  C4  UNL     1     -34.941  18.288  -3.991  1.00 20.00     0.273 C 
HETATM    5  C5  UNL     1     -33.688  17.980  -1.775  1.00 20.00    -0.044 C 
HETATM    6  C6  UNL     1     -33.908  17.967  -0.252  1.00 20.00     0.015 C 
HETATM    7  C7  UNL     1     -32.500  18.914  -2.076  1.00 20.00     0.015 C 
HETATM    8  N10 UNL     1     -34.693  16.884  -4.338  1.00 20.00     0.089 N 
ENDROOT
BRANCH   8   9
HETATM    9  C8  UNL     1     -34.722  16.703  -5.789  1.00 20.00     0.287 C 
BRANCH   9  10
HETATM   10  C9  UNL     1     -34.697  15.240  -6.195  1.00 20.00     0.144 C 
HETATM   11 CL11 UNL     1     -35.947  14.306  -5.335  1.00 20.00    -0.129 Cl
ENDBRANCH   9  10
ENDBRANCH   8   9
TORSDOF 2
ENDMDL
MODEL 3
REMARK VINA RESULT:      -3.8     11.486     12.617
REMARK  2 active torsions:
REMARK  status: ('A' for Active; 'I' for Inactive)
REMARK    1  A    between atoms: C8_8  and  C9_9 
REMARK    2  A    between atoms: C8_8  and  N10_10 
ROOT
HETATM    1  C1  UNL     1     -35.598  16.599  -5.003  1.00 20.00     0.039 C 
HETATM    2  C2  UNL     1     -34.034  14.930  -3.972  1.00 20.00     0.039 C 
HETATM    3  C3  UNL     1     -34.618  17.704  -4.598  1.00 20.00     0.273 C 
HETATM    4  C4  UNL     1     -33.106  16.092  -3.602  1.00 20.00     0.273 C 
HETATM    5  C5  UNL     1     -34.914  15.230  -5.203  1.00 20.00    -0.044 C 
HETATM    6  C6  UNL     1     -35.989  14.137  -5.339  1.00 20.00     0.015 C 
HETATM    7  C7  UNL     1     -34.068  15.227  -6.490  1.00 20.00     0.015 C 
HETATM    8  N10 UNL     1     -33.865  17.331  -3.395  1.00 20.00     0.089 N 
ENDROOT
BRANCH   8   9
HETATM    9  C8  UNL     1     -32.973  18.417  -2.992  1.00 20.00     0.287 C 
BRANCH   9  10
HETATM   10  C9  UNL     1     -32.512  18.290  -1.550  1.00 20.00     0.144 C 
HETATM   11 CL11 UNL     1     -33.823  17.696  -0.500  1.00 20.00    -0.129 Cl
ENDBRANCH   9  10
ENDBRANCH   8   9
TORSDOF 2
ENDMDL
MODEL 4
REMARK VINA RESULT:      -3.7     11.581     12.958
REMARK  2 active torsions:
REMARK  status: ('A' for Active; 'I' for Inactive)
REMARK    1  A    between atoms: C8_8  and  C9_9 
REMARK    2  A    between atoms: C8_8  and  N10_10 
ROOT
HETATM    1  C1  UNL     1     -33.705  14.946  -5.265  1.00 20.00     0.039 C 
HETATM    2  C2  UNL     1     -34.627  17.250  -5.635  1.00 20.00     0.039 C 
HETATM    3  C3  UNL     1     -33.607  15.272  -3.771  1.00 20.00     0.273 C 
HETATM    4  C4  UNL     1     -34.498  17.498  -4.129  1.00 20.00     0.273 C 
HETATM    5  C5  UNL     1     -34.800  15.758  -5.989  1.00 20.00    -0.044 C 
HETATM    6  C6  UNL     1     -34.651  15.574  -7.509  1.00 20.00     0.015 C 
HETATM    7  C7  UNL     1     -36.202  15.263  -5.585  1.00 20.00     0.015 C 
HETATM    8  N10 UNL     1     -33.403  16.709  -3.554  1.00 20.00     0.089 N 
ENDROOT
BRANCH   8   9
HETATM    9  C8  UNL     1     -33.260  16.996  -2.127  1.00 20.00     0.287 C 
BRANCH   9  10
HETATM   10  C9  UNL     1     -32.729  18.394  -1.863  1.00 20.00     0.144 C 
HETATM   11 CL11 UNL     1     -31.464  18.381  -0.608  1.00 20.00    -0.129 Cl
ENDBRANCH   9  10
ENDBRANCH   8   9
TORSDOF 2
ENDMDL
MODEL 5
REMARK VINA RESULT:      -3.4     11.976     13.084
REMARK  2 active torsions:
REMARK  status: ('A' for Active; 'I' for Inactive)
REMARK    1  A    between atoms: C8_8  and  C9_9 
REMARK    2  A    between atoms: C8_8  and  N10_10 
ROOT
HETATM    1  C1  UNL     1     -32.933  19.200  -3.040  1.00 20.00     0.039 C 
HETATM    2  C2  UNL     1     -33.059  16.796  -2.331  1.00 20.00     0.039 C 
HETATM    3  C3  UNL     1     -33.919  18.875  -4.166  1.00 20.00     0.273 C 
HETATM    4  C4  UNL     1     -34.041  16.552  -3.481  1.00 20.00     0.273 C 
HETATM    5  C5  UNL     1     -33.070  18.254  -1.827  1.00 20.00    -0.044 C 
HETATM    6  C6  UNL     1     -31.882  18.473  -0.874  1.00 20.00     0.015 C 
HETATM    7  C7  UNL     1     -34.365  18.551  -1.049  1.00 20.00     0.015 C 
HETATM    8  N10 UNL     1     -33.794  17.476  -4.594  1.00 20.00     0.089 N 
ENDROOT
BRANCH   8   9
HETATM    9  C8  UNL     1     -34.705  17.197  -5.704  1.00 20.00     0.287 C 
BRANCH   9  10
HETATM   10  C9  UNL     1     -34.453  15.840  -6.338  1.00 20.00     0.144 C 
HETATM   11 CL11 UNL     1     -35.842  14.749  -6.108  1.00 20.00    -0.129 Cl
ENDBRANCH   9  10
ENDBRANCH   8   9
TORSDOF 2
ENDMDL
MODEL 6
REMARK VINA RESULT:      -3.3     10.782     11.757
REMARK  2 active torsions:
REMARK  status: ('A' for Active; 'I' for Inactive)
REMARK    1  A    between atoms: C8_8  and  C9_9 
REMARK    2  A    between atoms: C8_8  and  N10_10 
ROOT
HETATM    1  C1  UNL     1     -41.950  16.070   6.375  1.00 20.00     0.039 C 
HETATM    2  C2  UNL     1     -40.331  15.552   8.221  1.00 20.00     0.039 C 
HETATM    3  C3  UNL     1     -42.030  14.569   6.082  1.00 20.00     0.273 C 
HETATM    4  C4  UNL     1     -40.466  14.068   7.865  1.00 20.00     0.273 C 
HETATM    5  C5  UNL     1     -41.576  16.380   7.841  1.00 20.00    -0.044 C 
HETATM    6  C6  UNL     1     -41.255  17.878   7.980  1.00 20.00     0.015 C 
HETATM    7  C7  UNL     1     -42.752  16.056   8.782  1.00 20.00     0.015 C 
HETATM    8  N10 UNL     1     -40.780  13.890   6.443  1.00 20.00     0.089 N 
ENDROOT
BRANCH   8   9
HETATM    9  C8  UNL     1     -40.855  12.469   6.109  1.00 20.00     0.287 C 
BRANCH   9  10
HETATM   10  C9  UNL     1     -39.484  11.837   5.933  1.00 20.00     0.144 C 
HETATM   11 CL11 UNL     1     -39.065  11.667   4.211  1.00 20.00    -0.129 Cl
ENDBRANCH   9  10
ENDBRANCH   8   9
TORSDOF 2
ENDMDL
MODEL 7
REMARK VINA RESULT:      -3.3     12.949     14.114
REMARK  2 active torsions:
REMARK  status: ('A' for Active; 'I' for Inactive)
REMARK    1  A    between atoms: C8_8  and  C9_9 
REMARK    2  A    between atoms: C8_8  and  N10_10 
ROOT
HETATM    1  C1  UNL     1     -26.291  -1.070  12.322  1.00 20.00     0.039 C 
HETATM    2  C2  UNL     1     -27.256  -2.748  10.725  1.00 20.00     0.039 C 
HETATM    3  C3  UNL     1     -24.935  -1.260  11.636  1.00 20.00     0.273 C 
HETATM    4  C4  UNL     1     -25.866  -2.882  10.093  1.00 20.00     0.273 C 
HETATM    5  C5  UNL     1     -27.485  -1.376  11.393  1.00 20.00    -0.044 C 
HETATM    6  C6  UNL     1     -28.779  -1.424  12.224  1.00 20.00     0.015 C 
HETATM    7  C7  UNL     1     -27.643  -0.273  10.329  1.00 20.00     0.015 C 
HETATM    8  N10 UNL     1     -24.809  -2.610  11.074  1.00 20.00     0.089 N 
ENDROOT
BRANCH   8   9
HETATM    9  C8  UNL     1     -23.490  -2.793  10.469  1.00 20.00     0.287 C 
BRANCH   9  10
HETATM   10  C9  UNL     1     -23.496  -3.827   9.357  1.00 20.00     0.144 C 
HETATM   11 CL11 UNL     1     -23.108  -3.089   7.783  1.00 20.00    -0.129 Cl
ENDBRANCH   9  10
ENDBRANCH   8   9
TORSDOF 2
ENDMDL
MODEL 8
REMARK VINA RESULT:      -3.2     10.602     11.583
REMARK  2 active torsions:
REMARK  status: ('A' for Active; 'I' for Inactive)
REMARK    1  A    between atoms: C8_8  and  C9_9 
REMARK    2  A    between atoms: C8_8  and  N10_10 
ROOT
HETATM    1  C1  UNL     1     -42.733  14.585   8.820  1.00 20.00     0.039 C 
HETATM    2  C2  UNL     1     -40.340  15.260   8.485  1.00 20.00     0.039 C 
HETATM    3  C3  UNL     1     -42.458  13.344   7.966  1.00 20.00     0.273 C 
HETATM    4  C4  UNL     1     -40.145  13.996   7.641  1.00 20.00     0.273 C 
HETATM    5  C5  UNL     1     -41.470  15.123   9.526  1.00 20.00    -0.044 C 
HETATM    6  C6  UNL     1     -41.774  16.504  10.134  1.00 20.00     0.015 C 
HETATM    7  C7  UNL     1     -41.044  14.183  10.671  1.00 20.00     0.015 C 
HETATM    8  N10 UNL     1     -41.396  13.600   6.985  1.00 20.00     0.089 N 
ENDROOT
BRANCH   8   9
HETATM    9  C8  UNL     1     -41.183  12.423   6.143  1.00 20.00     0.287 C 
BRANCH   9  10
HETATM   10  C9  UNL     1     -39.717  12.037   6.040  1.00 20.00     0.144 C 
HETATM   11 CL11 UNL     1     -39.241  11.745   4.348  1.00 20.00    -0.129 Cl
ENDBRANCH   9  10
ENDBRANCH   8   9
TORSDOF 2
ENDMDL
MODEL 9
REMARK VINA RESULT:      -3.2     10.748     11.706
REMARK  2 active torsions:
REMARK  status: ('A' for Active; 'I' for Inactive)
REMARK    1  A    between atoms: C8_8  and  C9_9 
REMARK    2  A    between atoms: C8_8  and  N10_10 
ROOT
HETATM    1  C1  UNL     1     -40.398  14.873   8.842  1.00 20.00     0.039 C 
HETATM    2  C2  UNL     1     -42.641  15.409   7.852  1.00 20.00     0.039 C 
HETATM    3  C3  UNL     1     -40.131  13.966   7.637  1.00 20.00     0.273 C 
HETATM    4  C4  UNL     1     -42.297  14.483   6.680  1.00 20.00     0.273 C 
HETATM    5  C5  UNL     1     -41.393  16.011   8.531  1.00 20.00    -0.044 C 
HETATM    6  C6  UNL     1     -41.809  16.699   9.843  1.00 20.00     0.015 C 
HETATM    7  C7  UNL     1     -40.739  17.072   7.624  1.00 20.00     0.015 C 
HETATM    8  N10 UNL     1     -41.381  13.416   7.098  1.00 20.00     0.089 N 
ENDROOT
BRANCH   8   9
HETATM    9  C8  UNL     1     -41.104  12.512   5.983  1.00 20.00     0.287 C 
BRANCH   9  10
HETATM   10  C9  UNL     1     -39.672  12.005   5.983  1.00 20.00     0.144 C 
HETATM   11 CL11 UNL     1     -39.098  11.682   4.328  1.00 20.00    -0.129 Cl
ENDBRANCH   9  10
ENDBRANCH   8   9
TORSDOF 2
ENDMDL
