MODEL 1
REMARK VINA RESULT:      -3.9      0.000      0.000
REMARK  1 active torsions:
REMARK  status: ('A' for Active; 'I' for Inactive)
REMARK    1  A    between atoms: C2_2  and  C8_8 
ROOT
HETATM    1  C1  UNL     1     -33.274  18.871  -3.330  1.00 20.00     0.203 C 
HETATM    2  C2  UNL     1     -33.869  17.520  -2.914  1.00 20.00     0.244 C 
HETATM    3  C3  UNL     1     -33.859  18.690  -0.773  1.00 20.00     0.245 C 
HETATM    4  C4  UNL     1     -32.451  19.237  -1.108  1.00 20.00     0.150 C 
HETATM    5  C5  UNL     1     -34.104  18.514   0.724  1.00 20.00     0.045 C 
HETATM    6  C6  UNL     1     -31.299  18.516  -0.410  1.00 20.00     0.042 C 
HETATM    7  N9  UNL     1     -34.108  17.422  -1.465  1.00 20.00     0.097 N 
HETATM    8  O10 UNL     1     -32.155  19.200  -2.515  1.00 20.00    -0.382 OA
HETATM    9  H27 UNL     1     -35.077  17.121  -1.299  1.00 20.00     0.317 HD
ENDROOT
BRANCH   2  10
HETATM   10  C8  UNL     1     -32.971  16.363  -3.362  1.00 20.00     0.033 C 
HETATM   11  C7  UNL     1     -33.770  15.217  -3.892  1.00 20.00     0.007 C 
ENDBRANCH   2  10
TORSDOF 1
ENDMDL
MODEL 2
REMARK VINA RESULT:      -3.9     15.485     16.377
REMARK  1 active torsions:
REMARK  status: ('A' for Active; 'I' for Inactive)
REMARK    1  A    between atoms: C2_2  and  C8_8 
ROOT
HETATM    1  C1  UNL     1     -24.700  16.947  11.345  1.00 20.00     0.203 C 
HETATM    2  C2  UNL     1     -25.190  18.339  10.931  1.00 20.00     0.244 C 
HETATM    3  C3  UNL     1     -22.923  18.370  10.030  1.00 20.00     0.245 C 
HETATM    4  C4  UNL     1     -22.424  17.702  11.333  1.00 20.00     0.150 C 
HETATM    5  C5  UNL     1     -21.878  19.263   9.365  1.00 20.00     0.045 C 
HETATM    6  C6  UNL     1     -21.751  18.649  12.324  1.00 20.00     0.042 C 
HETATM    7  N9  UNL     1     -24.147  19.141  10.270  1.00 20.00     0.097 N 
HETATM    8  O10 UNL     1     -23.473  17.038  12.059  1.00 20.00    -0.382 OA
HETATM    9  H27 UNL     1     -24.509  19.503   9.379  1.00 20.00     0.317 HD
ENDROOT
BRANCH   2  10
HETATM   10  C8  UNL     1     -25.738  19.110  12.135  1.00 20.00     0.033 C 
HETATM   11  C7  UNL     1     -27.223  18.987  12.242  1.00 20.00     0.007 C 
ENDBRANCH   2  10
TORSDOF 1
ENDMDL
MODEL 3
REMARK VINA RESULT:      -3.7     11.383     12.558
REMARK  1 active torsions:
REMARK  status: ('A' for Active; 'I' for Inactive)
REMARK    1  A    between atoms: C2_2  and  C8_8 
ROOT
HETATM    1  C1  UNL     1     -42.055  12.406   6.637  1.00 20.00     0.203 C 
HETATM    2  C2  UNL     1     -40.548  12.551   6.394  1.00 20.00     0.244 C 
HETATM    3  C3  UNL     1     -40.916  14.326   8.026  1.00 20.00     0.245 C 
HETATM    4  C4  UNL     1     -42.213  14.712   7.275  1.00 20.00     0.150 C 
HETATM    5  C5  UNL     1     -40.248  15.505   8.732  1.00 20.00     0.045 C 
HETATM    6  C6  UNL     1     -42.092  15.939   6.373  1.00 20.00     0.042 C 
HETATM    7  N9  UNL     1     -39.957  13.686   7.122  1.00 20.00     0.097 N 
HETATM    8  O10 UNL     1     -42.717  13.651   6.446  1.00 20.00    -0.382 OA
HETATM    9  H27 UNL     1     -39.141  13.360   7.657  1.00 20.00     0.317 HD
ENDROOT
BRANCH   2  10
HETATM   10  C8  UNL     1     -40.243  12.690   4.900  1.00 20.00     0.033 C 
HETATM   11  C7  UNL     1     -39.194  11.722   4.457  1.00 20.00     0.007 C 
ENDBRANCH   2  10
TORSDOF 1
ENDMDL
MODEL 4
REMARK VINA RESULT:      -3.7      1.497      4.018
REMARK  1 active torsions:
REMARK  status: ('A' for Active; 'I' for Inactive)
REMARK    1  A    between atoms: C2_2  and  C8_8 
ROOT
HETATM    1  C1  UNL     1     -32.815  18.537  -3.119  1.00 20.00     0.203 C 
HETATM    2  C2  UNL     1     -33.177  17.602  -1.958  1.00 20.00     0.244 C 
HETATM    3  C3  UNL     1     -33.487  16.105  -3.859  1.00 20.00     0.245 C 
HETATM    4  C4  UNL     1     -34.177  17.260  -4.623  1.00 20.00     0.150 C 
HETATM    5  C5  UNL     1     -33.991  14.721  -4.263  1.00 20.00     0.045 C 
HETATM    6  C6  UNL     1     -35.703  17.184  -4.663  1.00 20.00     0.042 C 
HETATM    7  N9  UNL     1     -33.628  16.276  -2.410  1.00 20.00     0.097 N 
HETATM    8  O10 UNL     1     -33.853  18.556  -4.091  1.00 20.00    -0.382 OA
HETATM    9  H27 UNL     1     -33.091  15.549  -1.922  1.00 20.00     0.317 HD
ENDROOT
BRANCH   2  10
HETATM   10  C8  UNL     1     -34.251  18.228  -1.064  1.00 20.00     0.033 C 
HETATM   11  C7  UNL     1     -33.872  18.169   0.380  1.00 20.00     0.007 C 
ENDBRANCH   2  10
TORSDOF 1
ENDMDL
MODEL 5
REMARK VINA RESULT:      -3.5     11.587     12.931
REMARK  1 active torsions:
REMARK  status: ('A' for Active; 'I' for Inactive)
REMARK    1  A    between atoms: C2_2  and  C8_8 
ROOT
HETATM    1  C1  UNL     1     -40.408  13.970   7.845  1.00 20.00     0.203 C 
HETATM    2  C2  UNL     1     -40.011  13.598   6.411  1.00 20.00     0.244 C 
HETATM    3  C3  UNL     1     -42.303  14.357   6.063  1.00 20.00     0.245 C 
HETATM    4  C4  UNL     1     -42.722  13.594   7.342  1.00 20.00     0.150 C 
HETATM    5  C5  UNL     1     -43.417  14.464   5.024  1.00 20.00     0.045 C 
HETATM    6  C6  UNL     1     -43.417  12.256   7.093  1.00 20.00     0.042 C 
HETATM    7  N9  UNL     1     -41.118  13.748   5.453  1.00 20.00     0.097 N 
HETATM    8  O10 UNL     1     -41.616  13.316   8.217  1.00 20.00    -0.382 OA
HETATM    9  H27 UNL     1     -40.805  14.319   4.657  1.00 20.00     0.317 HD
ENDROOT
BRANCH   2  10
HETATM   10  C8  UNL     1     -39.470  12.167   6.345  1.00 20.00     0.033 C 
HETATM   11  C7  UNL     1     -39.137  11.766   4.944  1.00 20.00     0.007 C 
ENDBRANCH   2  10
TORSDOF 1
ENDMDL
MODEL 6
REMARK VINA RESULT:      -3.5      3.508      4.944
REMARK  1 active torsions:
REMARK  status: ('A' for Active; 'I' for Inactive)
REMARK    1  A    between atoms: C2_2  and  C8_8 
ROOT
HETATM    1  C1  UNL     1     -34.306  15.108  -6.610  1.00 20.00     0.203 C 
HETATM    2  C2  UNL     1     -34.552  14.950  -5.105  1.00 20.00     0.244 C 
HETATM    3  C3  UNL     1     -36.192  16.670  -5.653  1.00 20.00     0.245 C 
HETATM    4  C4  UNL     1     -35.133  17.358  -6.548  1.00 20.00     0.150 C 
HETATM    5  C5  UNL     1     -37.201  17.644  -5.047  1.00 20.00     0.045 C 
HETATM    6  C6  UNL     1     -34.462  18.581  -5.926  1.00 20.00     0.042 C 
HETATM    7  N9  UNL     1     -35.554  15.895  -4.586  1.00 20.00     0.097 N 
HETATM    8  O10 UNL     1     -34.071  16.472  -6.940  1.00 20.00    -0.382 OA
HETATM    9  H27 UNL     1     -36.269  15.378  -4.058  1.00 20.00     0.317 HD
ENDROOT
BRANCH   2  10
HETATM   10  C8  UNL     1     -33.248  15.105  -4.316  1.00 20.00     0.033 C 
HETATM   11  C7  UNL     1     -33.372  16.135  -3.241  1.00 20.00     0.007 C 
ENDBRANCH   2  10
TORSDOF 1
ENDMDL
MODEL 7
REMARK VINA RESULT:      -3.5     12.166     13.238
REMARK  1 active torsions:
REMARK  status: ('A' for Active; 'I' for Inactive)
REMARK    1  A    between atoms: C2_2  and  C8_8 
ROOT
HETATM    1  C1  UNL     1     -41.686  15.812   6.613  1.00 20.00     0.203 C 
HETATM    2  C2  UNL     1     -40.481  15.442   7.487  1.00 20.00     0.244 C 
HETATM    3  C3  UNL     1     -40.664  13.445   6.097  1.00 20.00     0.245 C 
HETATM    4  C4  UNL     1     -42.200  13.495   6.273  1.00 20.00     0.150 C 
HETATM    5  C5  UNL     1     -40.119  12.032   5.899  1.00 20.00     0.045 C 
HETATM    6  C6  UNL     1     -42.763  12.505   7.291  1.00 20.00     0.042 C 
HETATM    7  N9  UNL     1     -39.985  14.080   7.230  1.00 20.00     0.097 N 
HETATM    8  O10 UNL     1     -42.678  14.793   6.666  1.00 20.00    -0.382 OA
HETATM    9  H27 UNL     1     -38.973  14.114   7.054  1.00 20.00     0.317 HD
ENDROOT
BRANCH   2  10
HETATM   10  C8  UNL     1     -40.815  15.591   8.974  1.00 20.00     0.033 C 
HETATM   11  C7  UNL     1     -40.502  14.346   9.738  1.00 20.00     0.007 C 
ENDBRANCH   2  10
TORSDOF 1
ENDMDL
MODEL 8
REMARK VINA RESULT:      -3.4      2.018      4.253
REMARK  1 active torsions:
REMARK  status: ('A' for Active; 'I' for Inactive)
REMARK    1  A    between atoms: C2_2  and  C8_8 
ROOT
HETATM    1  C1  UNL     1     -33.061  18.182  -3.735  1.00 20.00     0.203 C 
HETATM    2  C2  UNL     1     -33.223  16.947  -2.840  1.00 20.00     0.244 C 
HETATM    3  C3  UNL     1     -34.457  16.237  -4.820  1.00 20.00     0.245 C 
HETATM    4  C4  UNL     1     -35.085  17.648  -4.904  1.00 20.00     0.150 C 
HETATM    5  C5  UNL     1     -35.358  15.136  -5.378  1.00 20.00     0.045 C 
HETATM    6  C6  UNL     1     -36.517  17.747  -4.382  1.00 20.00     0.042 C 
HETATM    7  N9  UNL     1     -34.078  15.911  -3.443  1.00 20.00     0.097 N 
HETATM    8  O10 UNL     1     -34.327  18.642  -4.192  1.00 20.00    -0.382 OA
HETATM    9  H27 UNL     1     -33.585  15.009  -3.423  1.00 20.00     0.317 HD
ENDROOT
BRANCH   2  10
HETATM   10  C8  UNL     1     -33.782  17.333  -1.467  1.00 20.00     0.033 C 
HETATM   11  C7  UNL     1     -32.805  18.146  -0.681  1.00 20.00     0.007 C 
ENDBRANCH   2  10
TORSDOF 1
ENDMDL
MODEL 9
REMARK VINA RESULT:      -3.4      3.322      5.497
REMARK  1 active torsions:
REMARK  status: ('A' for Active; 'I' for Inactive)
REMARK    1  A    between atoms: C2_2  and  C8_8 
ROOT
HETATM    1  C1  UNL     1     -36.002  18.006  -4.905  1.00 20.00     0.203 C 
HETATM    2  C2  UNL     1     -34.487  17.876  -4.702  1.00 20.00     0.244 C 
HETATM    3  C3  UNL     1     -34.782  16.587  -6.752  1.00 20.00     0.245 C 
HETATM    4  C4  UNL     1     -36.052  15.951  -6.139  1.00 20.00     0.150 C 
HETATM    5  C5  UNL     1     -34.062  15.676  -7.744  1.00 20.00     0.045 C 
HETATM    6  C6  UNL     1     -35.864  14.534  -5.599  1.00 20.00     0.042 C 
HETATM    7  N9  UNL     1     -33.847  17.008  -5.704  1.00 20.00     0.097 N 
HETATM    8  O10 UNL     1     -36.600  16.724  -5.058  1.00 20.00    -0.382 OA
HETATM    9  H27 UNL     1     -33.053  17.506  -6.128  1.00 20.00     0.317 HD
ENDROOT
BRANCH   2  10
HETATM   10  C8  UNL     1     -34.164  17.356  -3.298  1.00 20.00     0.033 C 
HETATM   11  C7  UNL     1     -33.313  16.129  -3.345  1.00 20.00     0.007 C 
ENDBRANCH   2  10
TORSDOF 1
ENDMDL
