MODEL 1
REMARK VINA RESULT:      -4.6      0.000      0.000
REMARK  3 active torsions:
REMARK  status: ('A' for Active; 'I' for Inactive)
REMARK    1  A    between atoms: C3_3  and  C7_7 
REMARK    2  A    between atoms: C5_5  and  C6_6 
REMARK    3  A    between atoms: C6_6  and  C7_7 
ROOT
HETATM    1  C1  UNL     1     -32.103   7.895   2.494  1.00 20.00     0.012 C 
HETATM    2  C2  UNL     1     -32.591   8.118   3.567  1.00 20.00    -0.117 C 
HETATM    3  C5  UNL     1     -33.190   8.399   4.880  1.00 20.00     0.093 C 
ENDROOT
BRANCH   3   4
HETATM    4  C6  UNL     1     -33.283   7.143   5.756  1.00 20.00     0.023 C 
BRANCH   4   5
HETATM    5  C7  UNL     1     -34.532   6.284   5.493  1.00 20.00     0.044 C 
HETATM    6  C4  UNL     1     -34.844   5.407   6.704  1.00 20.00     0.017 C 
BRANCH   5   7
HETATM    7  C3  UNL     1     -34.380   5.370   4.290  1.00 20.00     0.235 C 
HETATM    8  O8  UNL     1     -34.159   4.164   4.346  1.00 20.00    -0.306 OA
ENDBRANCH   5   7
ENDBRANCH   4   5
ENDBRANCH   3   4
TORSDOF 3
ENDMDL
MODEL 2
REMARK VINA RESULT:      -4.6      1.014      1.536
REMARK  3 active torsions:
REMARK  status: ('A' for Active; 'I' for Inactive)
REMARK    1  A    between atoms: C3_3  and  C7_7 
REMARK    2  A    between atoms: C5_5  and  C6_6 
REMARK    3  A    between atoms: C6_6  and  C7_7 
ROOT
HETATM    1  C1  UNL     1     -32.405   8.777   0.944  1.00 20.00     0.012 C 
HETATM    2  C2  UNL     1     -32.336   8.078   1.917  1.00 20.00    -0.117 C 
HETATM    3  C5  UNL     1     -32.247   7.216   3.105  1.00 20.00     0.093 C 
ENDROOT
BRANCH   3   4
HETATM    4  C6  UNL     1     -32.950   7.831   4.322  1.00 20.00     0.023 C 
BRANCH   4   5
HETATM    5  C7  UNL     1     -34.143   7.009   4.840  1.00 20.00     0.044 C 
HETATM    6  C4  UNL     1     -34.068   6.855   6.358  1.00 20.00     0.017 C 
BRANCH   5   7
HETATM    7  C3  UNL     1     -34.208   5.616   4.238  1.00 20.00     0.235 C 
HETATM    8  O8  UNL     1     -34.714   4.639   4.781  1.00 20.00    -0.306 OA
ENDBRANCH   5   7
ENDBRANCH   4   5
ENDBRANCH   3   4
TORSDOF 3
ENDMDL
MODEL 3
REMARK VINA RESULT:      -4.5      1.513      3.574
REMARK  3 active torsions:
REMARK  status: ('A' for Active; 'I' for Inactive)
REMARK    1  A    between atoms: C3_3  and  C7_7 
REMARK    2  A    between atoms: C5_5  and  C6_6 
REMARK    3  A    between atoms: C6_6  and  C7_7 
ROOT
HETATM    1  C1  UNL     1     -34.747   4.709   4.938  1.00 20.00     0.012 C 
HETATM    2  C2  UNL     1     -34.479   5.701   5.558  1.00 20.00    -0.117 C 
HETATM    3  C5  UNL     1     -34.153   6.913   6.325  1.00 20.00     0.093 C 
ENDROOT
BRANCH   3   4
HETATM    4  C6  UNL     1     -33.897   8.122   5.417  1.00 20.00     0.023 C 
BRANCH   4   5
HETATM    5  C7  UNL     1     -32.481   8.168   4.817  1.00 20.00     0.044 C 
HETATM    6  C4  UNL     1     -31.887   9.570   4.953  1.00 20.00     0.017 C 
BRANCH   5   7
HETATM    7  C3  UNL     1     -32.448   7.797   3.344  1.00 20.00     0.235 C 
HETATM    8  O8  UNL     1     -32.452   6.650   2.908  1.00 20.00    -0.306 OA
ENDBRANCH   5   7
ENDBRANCH   4   5
ENDBRANCH   3   4
TORSDOF 3
ENDMDL
MODEL 4
REMARK VINA RESULT:      -4.3      1.705      2.499
REMARK  3 active torsions:
REMARK  status: ('A' for Active; 'I' for Inactive)
REMARK    1  A    between atoms: C3_3  and  C7_7 
REMARK    2  A    between atoms: C5_5  and  C6_6 
REMARK    3  A    between atoms: C6_6  and  C7_7 
ROOT
HETATM    1  C1  UNL     1     -32.132   7.751   3.549  1.00 20.00     0.012 C 
HETATM    2  C2  UNL     1     -32.688   6.716   3.302  1.00 20.00    -0.117 C 
HETATM    3  C5  UNL     1     -33.371   5.452   2.991  1.00 20.00     0.093 C 
ENDROOT
BRANCH   3   4
HETATM    4  C6  UNL     1     -33.609   4.598   4.244  1.00 20.00     0.023 C 
BRANCH   4   5
HETATM    5  C7  UNL     1     -34.789   5.070   5.110  1.00 20.00     0.044 C 
HETATM    6  C4  UNL     1     -35.683   6.025   4.322  1.00 20.00     0.017 C 
BRANCH   5   7
HETATM    7  C3  UNL     1     -34.347   5.791   6.373  1.00 20.00     0.235 C 
HETATM    8  O8  UNL     1     -34.224   7.006   6.482  1.00 20.00    -0.306 OA
ENDBRANCH   5   7
ENDBRANCH   4   5
ENDBRANCH   3   4
TORSDOF 3
ENDMDL
MODEL 5
REMARK VINA RESULT:      -4.3      1.326      3.503
REMARK  3 active torsions:
REMARK  status: ('A' for Active; 'I' for Inactive)
REMARK    1  A    between atoms: C3_3  and  C7_7 
REMARK    2  A    between atoms: C5_5  and  C6_6 
REMARK    3  A    between atoms: C6_6  and  C7_7 
ROOT
HETATM    1  C1  UNL     1     -34.241   5.956   6.515  1.00 20.00     0.012 C 
HETATM    2  C2  UNL     1     -34.065   6.865   5.751  1.00 20.00    -0.117 C 
HETATM    3  C5  UNL     1     -33.858   7.979   4.815  1.00 20.00     0.093 C 
ENDROOT
BRANCH   3   4
HETATM    4  C6  UNL     1     -32.403   8.071   4.335  1.00 20.00     0.023 C 
BRANCH   4   5
HETATM    5  C7  UNL     1     -32.103   7.235   3.079  1.00 20.00     0.044 C 
HETATM    6  C4  UNL     1     -32.203   8.099   1.823  1.00 20.00     0.017 C 
BRANCH   5   7
HETATM    7  C3  UNL     1     -33.052   6.062   2.907  1.00 20.00     0.235 C 
HETATM    8  O8  UNL     1     -32.730   4.949   2.503  1.00 20.00    -0.306 OA
ENDBRANCH   5   7
ENDBRANCH   4   5
ENDBRANCH   3   4
TORSDOF 3
ENDMDL
MODEL 6
REMARK VINA RESULT:      -4.2      2.364      4.030
REMARK  3 active torsions:
REMARK  status: ('A' for Active; 'I' for Inactive)
REMARK    1  A    between atoms: C3_3  and  C7_7 
REMARK    2  A    between atoms: C5_5  and  C6_6 
REMARK    3  A    between atoms: C6_6  and  C7_7 
ROOT
HETATM    1  C1  UNL     1     -34.648   5.250   6.044  1.00 20.00     0.012 C 
HETATM    2  C2  UNL     1     -34.308   6.400   5.988  1.00 20.00    -0.117 C 
HETATM    3  C5  UNL     1     -33.896   7.810   5.923  1.00 20.00     0.093 C 
ENDROOT
BRANCH   3   4
HETATM    4  C6  UNL     1     -32.678   8.017   5.013  1.00 20.00     0.023 C 
BRANCH   4   5
HETATM    5  C7  UNL     1     -32.995   7.922   3.510  1.00 20.00     0.044 C 
HETATM    6  C4  UNL     1     -32.409   6.640   2.920  1.00 20.00     0.017 C 
BRANCH   5   7
HETATM    7  C3  UNL     1     -32.440   9.090   2.713  1.00 20.00     0.235 C 
HETATM    8  O8  UNL     1     -32.978   9.588   1.729  1.00 20.00    -0.306 OA
ENDBRANCH   5   7
ENDBRANCH   4   5
ENDBRANCH   3   4
TORSDOF 3
ENDMDL
MODEL 7
REMARK VINA RESULT:      -4.1      1.990      4.197
REMARK  3 active torsions:
REMARK  status: ('A' for Active; 'I' for Inactive)
REMARK    1  A    between atoms: C3_3  and  C7_7 
REMARK    2  A    between atoms: C5_5  and  C6_6 
REMARK    3  A    between atoms: C6_6  and  C7_7 
ROOT
HETATM    1  C1  UNL     1     -34.704   5.770   6.260  1.00 20.00     0.012 C 
HETATM    2  C2  UNL     1     -34.432   5.557   5.110  1.00 20.00    -0.117 C 
HETATM    3  C5  UNL     1     -34.106   5.291   3.701  1.00 20.00     0.093 C 
ENDROOT
BRANCH   3   4
HETATM    4  C6  UNL     1     -32.768   5.917   3.287  1.00 20.00     0.023 C 
BRANCH   4   5
HETATM    5  C7  UNL     1     -32.812   7.448   3.134  1.00 20.00     0.044 C 
HETATM    6  C4  UNL     1     -32.161   7.872   1.819  1.00 20.00     0.017 C 
BRANCH   5   7
HETATM    7  C3  UNL     1     -32.096   8.176   4.258  1.00 20.00     0.235 C 
HETATM    8  O8  UNL     1     -32.642   8.654   5.247  1.00 20.00    -0.306 OA
ENDBRANCH   5   7
ENDBRANCH   4   5
ENDBRANCH   3   4
TORSDOF 3
ENDMDL
MODEL 8
REMARK VINA RESULT:      -4.1      2.035      3.047
REMARK  3 active torsions:
REMARK  status: ('A' for Active; 'I' for Inactive)
REMARK    1  A    between atoms: C3_3  and  C7_7 
REMARK    2  A    between atoms: C5_5  and  C6_6 
REMARK    3  A    between atoms: C6_6  and  C7_7 
ROOT
HETATM    1  C1  UNL     1     -32.814   5.062   2.347  1.00 20.00     0.012 C 
HETATM    2  C2  UNL     1     -33.526   4.918   3.303  1.00 20.00    -0.117 C 
HETATM    3  C5  UNL     1     -34.397   4.733   4.473  1.00 20.00     0.093 C 
ENDROOT
BRANCH   3   4
HETATM    4  C6  UNL     1     -34.891   6.068   5.045  1.00 20.00     0.023 C 
BRANCH   4   5
HETATM    5  C7  UNL     1     -33.767   6.988   5.552  1.00 20.00     0.044 C 
HETATM    6  C4  UNL     1     -34.128   7.573   6.916  1.00 20.00     0.017 C 
BRANCH   5   7
HETATM    7  C3  UNL     1     -33.483   8.149   4.614  1.00 20.00     0.235 C 
HETATM    8  O8  UNL     1     -32.440   8.309   3.988  1.00 20.00    -0.306 OA
ENDBRANCH   5   7
ENDBRANCH   4   5
ENDBRANCH   3   4
TORSDOF 3
ENDMDL
MODEL 9
REMARK VINA RESULT:      -3.9     12.472     13.004
REMARK  3 active torsions:
REMARK  status: ('A' for Active; 'I' for Inactive)
REMARK    1  A    between atoms: C3_3  and  C7_7 
REMARK    2  A    between atoms: C5_5  and  C6_6 
REMARK    3  A    between atoms: C6_6  and  C7_7 
ROOT
HETATM    1  C1  UNL     1     -33.743  14.928  -3.907  1.00 20.00     0.012 C 
HETATM    2  C2  UNL     1     -33.442  15.979  -3.410  1.00 20.00    -0.117 C 
HETATM    3  C5  UNL     1     -33.067  17.266  -2.808  1.00 20.00     0.093 C 
ENDROOT
BRANCH   3   4
HETATM    4  C6  UNL     1     -33.861  17.560  -1.528  1.00 20.00     0.023 C 
BRANCH   4   5
HETATM    5  C7  UNL     1     -32.989  17.982  -0.332  1.00 20.00     0.044 C 
HETATM    6  C4  UNL     1     -33.835  18.694   0.723  1.00 20.00     0.017 C 
BRANCH   5   7
HETATM    7  C3  UNL     1     -31.859  18.918  -0.723  1.00 20.00     0.235 C 
HETATM    8  O8  UNL     1     -30.668  18.707  -0.519  1.00 20.00    -0.306 OA
ENDBRANCH   5   7
ENDBRANCH   4   5
ENDBRANCH   3   4
TORSDOF 3
ENDMDL
