MODEL 1
REMARK VINA RESULT:      -4.8      0.000      0.000
REMARK  3 active torsions:
REMARK  status: ('A' for Active; 'I' for Inactive)
REMARK    1  A    between atoms: C3_3  and  C4_4 
REMARK    2  A    between atoms: C4_4  and  C5_5 
REMARK    3  A    between atoms: C5_5  and  C6_6 
ROOT
HETATM    1  C4  UNL     1     -33.559   6.962   6.238  1.00 20.00     0.005 C 
ENDROOT
BRANCH   1   2
HETATM    2  C3  UNL     1     -33.554   7.871   5.020  1.00 20.00    -0.014 A 
HETATM    3  C1  UNL     1     -32.481   8.912   4.855  1.00 20.00     0.005 A 
HETATM    4  C2  UNL     1     -32.503   7.706   3.957  1.00 20.00     0.005 A 
ENDBRANCH   1   2
BRANCH   1   5
HETATM    5  C5  UNL     1     -34.760   6.017   6.229  1.00 20.00     0.015 C 
BRANCH   5   6
HETATM    6  C6  UNL     1     -35.123   5.607   4.808  1.00 20.00     0.114 C 
HETATM    7 CL7  UNL     1     -34.022   4.336   4.228  1.00 20.00    -0.130 Cl
ENDBRANCH   5   6
ENDBRANCH   1   5
TORSDOF 3
ENDMDL
MODEL 2
REMARK VINA RESULT:      -4.6      1.581      3.385
REMARK  3 active torsions:
REMARK  status: ('A' for Active; 'I' for Inactive)
REMARK    1  A    between atoms: C3_3  and  C4_4 
REMARK    2  A    between atoms: C4_4  and  C5_5 
REMARK    3  A    between atoms: C5_5  and  C6_6 
ROOT
HETATM    1  C4  UNL     1     -33.513   7.236   6.039  1.00 20.00     0.005 C 
ENDROOT
BRANCH   1   2
HETATM    2  C3  UNL     1     -34.671   6.303   5.726  1.00 20.00    -0.014 A 
HETATM    3  C1  UNL     1     -34.503   5.197   4.721  1.00 20.00     0.005 A 
HETATM    4  C2  UNL     1     -34.635   4.871   6.183  1.00 20.00     0.005 A 
ENDBRANCH   1   2
BRANCH   1   5
HETATM    5  C5  UNL     1     -33.501   8.447   5.106  1.00 20.00     0.015 C 
BRANCH   5   6
HETATM    6  C6  UNL     1     -32.190   8.531   4.335  1.00 20.00     0.114 C 
HETATM    7 CL7  UNL     1     -32.206   7.401   2.961  1.00 20.00    -0.130 Cl
ENDBRANCH   5   6
ENDBRANCH   1   5
TORSDOF 3
ENDMDL
MODEL 3
REMARK VINA RESULT:      -4.6      0.917      1.438
REMARK  3 active torsions:
REMARK  status: ('A' for Active; 'I' for Inactive)
REMARK    1  A    between atoms: C3_3  and  C4_4 
REMARK    2  A    between atoms: C4_4  and  C5_5 
REMARK    3  A    between atoms: C5_5  and  C6_6 
ROOT
HETATM    1  C4  UNL     1     -34.058   7.515   5.018  1.00 20.00     0.005 C 
ENDROOT
BRANCH   1   2
HETATM    2  C3  UNL     1     -32.670   7.875   4.514  1.00 20.00    -0.014 A 
HETATM    3  C1  UNL     1     -32.193   7.372   3.180  1.00 20.00     0.005 A 
HETATM    4  C2  UNL     1     -32.505   8.831   3.366  1.00 20.00     0.005 A 
ENDBRANCH   1   2
BRANCH   1   5
HETATM    5  C5  UNL     1     -34.001   6.834   6.385  1.00 20.00     0.015 C 
BRANCH   5   6
HETATM    6  C6  UNL     1     -34.524   5.406   6.308  1.00 20.00     0.114 C 
HETATM    7 CL7  UNL     1     -34.470   4.816   4.631  1.00 20.00    -0.130 Cl
ENDBRANCH   5   6
ENDBRANCH   1   5
TORSDOF 3
ENDMDL
MODEL 4
REMARK VINA RESULT:      -4.5      1.979      3.492
REMARK  3 active torsions:
REMARK  status: ('A' for Active; 'I' for Inactive)
REMARK    1  A    between atoms: C3_3  and  C4_4 
REMARK    2  A    between atoms: C4_4  and  C5_5 
REMARK    3  A    between atoms: C5_5  and  C6_6 
ROOT
HETATM    1  C4  UNL     1     -33.708   7.957   5.160  1.00 20.00     0.005 C 
ENDROOT
BRANCH   1   2
HETATM    2  C3  UNL     1     -33.878   6.449   5.087  1.00 20.00    -0.014 A 
HETATM    3  C1  UNL     1     -34.650   5.720   6.153  1.00 20.00     0.005 A 
HETATM    4  C2  UNL     1     -35.220   5.851   4.767  1.00 20.00     0.005 A 
ENDBRANCH   1   2
BRANCH   1   5
HETATM    5  C5  UNL     1     -32.555   8.436   4.279  1.00 20.00     0.015 C 
BRANCH   5   6
HETATM    6  C6  UNL     1     -32.177   7.380   3.249  1.00 20.00     0.114 C 
HETATM    7 CL7  UNL     1     -32.182   8.078   1.614  1.00 20.00    -0.130 Cl
ENDBRANCH   5   6
ENDBRANCH   1   5
TORSDOF 3
ENDMDL
MODEL 5
REMARK VINA RESULT:      -4.0      1.356      1.400
REMARK  3 active torsions:
REMARK  status: ('A' for Active; 'I' for Inactive)
REMARK    1  A    between atoms: C3_3  and  C4_4 
REMARK    2  A    between atoms: C4_4  and  C5_5 
REMARK    3  A    between atoms: C5_5  and  C6_6 
ROOT
HETATM    1  C4  UNL     1     -34.306   7.324   5.168  1.00 20.00     0.005 C 
ENDROOT
BRANCH   1   2
HETATM    2  C3  UNL     1     -33.498   8.269   4.295  1.00 20.00    -0.014 A 
HETATM    3  C1  UNL     1     -32.172   8.796   4.772  1.00 20.00     0.005 A 
HETATM    4  C2  UNL     1     -32.224   7.800   3.647  1.00 20.00     0.005 A 
ENDBRANCH   1   2
BRANCH   1   5
HETATM    5  C5  UNL     1     -34.925   6.192   4.349  1.00 20.00     0.015 C 
BRANCH   5   6
HETATM    6  C6  UNL     1     -34.595   4.834   4.953  1.00 20.00     0.114 C 
HETATM    7 CL7  UNL     1     -34.151   5.008   6.666  1.00 20.00    -0.130 Cl
ENDBRANCH   5   6
ENDBRANCH   1   5
TORSDOF 3
ENDMDL
MODEL 6
REMARK VINA RESULT:      -3.9      2.241      3.656
REMARK  3 active torsions:
REMARK  status: ('A' for Active; 'I' for Inactive)
REMARK    1  A    between atoms: C3_3  and  C4_4 
REMARK    2  A    between atoms: C4_4  and  C5_5 
REMARK    3  A    between atoms: C5_5  and  C6_6 
ROOT
HETATM    1  C4  UNL     1     -33.600   5.934   3.738  1.00 20.00     0.005 C 
ENDROOT
BRANCH   1   2
HETATM    2  C3  UNL     1     -34.439   6.396   4.918  1.00 20.00    -0.014 A 
HETATM    3  C1  UNL     1     -34.884   5.411   5.964  1.00 20.00     0.005 A 
HETATM    4  C2  UNL     1     -33.845   6.445   6.298  1.00 20.00     0.005 A 
ENDBRANCH   1   2
BRANCH   1   5
HETATM    5  C5  UNL     1     -32.466   6.913   3.438  1.00 20.00     0.015 C 
BRANCH   5   6
HETATM    6  C6  UNL     1     -32.946   8.355   3.539  1.00 20.00     0.114 C 
HETATM    7 CL7  UNL     1     -32.155   9.178   4.902  1.00 20.00    -0.130 Cl
ENDBRANCH   5   6
ENDBRANCH   1   5
TORSDOF 3
ENDMDL
MODEL 7
REMARK VINA RESULT:      -3.9      2.257      2.991
REMARK  3 active torsions:
REMARK  status: ('A' for Active; 'I' for Inactive)
REMARK    1  A    between atoms: C3_3  and  C4_4 
REMARK    2  A    between atoms: C4_4  and  C5_5 
REMARK    3  A    between atoms: C5_5  and  C6_6 
ROOT
HETATM    1  C4  UNL     1     -34.747   5.625   4.379  1.00 20.00     0.005 C 
ENDROOT
BRANCH   1   2
HETATM    2  C3  UNL     1     -33.330   5.395   3.880  1.00 20.00    -0.014 A 
HETATM    3  C1  UNL     1     -33.087   4.983   2.454  1.00 20.00     0.005 A 
HETATM    4  C2  UNL     1     -32.701   6.361   2.915  1.00 20.00     0.005 A 
ENDBRANCH   1   2
BRANCH   1   5
HETATM    5  C5  UNL     1     -34.785   5.807   5.897  1.00 20.00     0.015 C 
BRANCH   5   6
HETATM    6  C6  UNL     1     -33.715   6.788   6.357  1.00 20.00     0.114 C 
HETATM    7 CL7  UNL     1     -33.938   8.365   5.567  1.00 20.00    -0.130 Cl
ENDBRANCH   5   6
ENDBRANCH   1   5
TORSDOF 3
ENDMDL
MODEL 8
REMARK VINA RESULT:      -3.4      2.246      3.761
REMARK  3 active torsions:
REMARK  status: ('A' for Active; 'I' for Inactive)
REMARK    1  A    between atoms: C3_3  and  C4_4 
REMARK    2  A    between atoms: C4_4  and  C5_5 
REMARK    3  A    between atoms: C5_5  and  C6_6 
ROOT
HETATM    1  C4  UNL     1     -32.085   7.224   3.062  1.00 20.00     0.005 C 
ENDROOT
BRANCH   1   2
HETATM    2  C3  UNL     1     -33.144   6.216   2.647  1.00 20.00    -0.014 A 
HETATM    3  C1  UNL     1     -32.818   4.748   2.604  1.00 20.00     0.005 A 
HETATM    4  C2  UNL     1     -33.743   5.284   3.663  1.00 20.00     0.005 A 
ENDBRANCH   1   2
BRANCH   1   5
HETATM    5  C5  UNL     1     -32.712   8.514   3.589  1.00 20.00     0.015 C 
BRANCH   5   6
HETATM    6  C6  UNL     1     -32.534   8.634   5.096  1.00 20.00     0.114 C 
HETATM    7 CL7  UNL     1     -33.837   7.772   5.946  1.00 20.00    -0.130 Cl
ENDBRANCH   5   6
ENDBRANCH   1   5
TORSDOF 3
ENDMDL
MODEL 9
REMARK VINA RESULT:      -3.4      9.164      9.471
REMARK  3 active torsions:
REMARK  status: ('A' for Active; 'I' for Inactive)
REMARK    1  A    between atoms: C3_3  and  C4_4 
REMARK    2  A    between atoms: C4_4  and  C5_5 
REMARK    3  A    between atoms: C5_5  and  C6_6 
ROOT
HETATM    1  C4  UNL     1     -40.887  12.999   5.630  1.00 20.00     0.005 C 
ENDROOT
BRANCH   1   2
HETATM    2  C3  UNL     1     -39.925  11.833   5.469  1.00 20.00    -0.014 A 
HETATM    3  C1  UNL     1     -39.115  11.686   4.211  1.00 20.00     0.005 A 
HETATM    4  C2  UNL     1     -38.440  12.065   5.500  1.00 20.00     0.005 A 
ENDBRANCH   1   2
BRANCH   1   5
HETATM    5  C5  UNL     1     -41.959  12.702   6.679  1.00 20.00     0.015 C 
BRANCH   5   6
HETATM    6  C6  UNL     1     -41.978  13.775   7.759  1.00 20.00     0.114 C 
HETATM    7 CL7  UNL     1     -40.321  14.198   8.245  1.00 20.00    -0.130 Cl
ENDBRANCH   5   6
ENDBRANCH   1   5
TORSDOF 3
ENDMDL
