MODEL 1
REMARK VINA RESULT:      -4.5      0.000      0.000
REMARK  1 active torsions:
REMARK  status: ('A' for Active; 'I' for Inactive)
REMARK    1  A    between atoms: C1_1  and  C2_2 
ROOT
HETATM    1  C1  UNL     1     -34.776   5.797   6.285  1.00 20.00     0.417 C 
HETATM    2  F3  UNL     1     -34.418   7.049   6.662  1.00 20.00    -0.208 F 
HETATM    3  F4  UNL     1     -33.868   4.948   6.821  1.00 20.00    -0.208 F 
ENDROOT
BRANCH   1   4
HETATM    4  C2  UNL     1     -34.744   5.695   4.785  1.00 20.00     0.417 C 
HETATM    5  F5  UNL     1     -34.403   4.437   4.419  1.00 20.00    -0.208 F 
HETATM    6  F6  UNL     1     -35.983   5.932   4.288  1.00 20.00    -0.208 F 
ENDBRANCH   1   4
TORSDOF 1
ENDMDL
MODEL 2
REMARK VINA RESULT:      -4.4      0.032      2.443
REMARK  1 active torsions:
REMARK  status: ('A' for Active; 'I' for Inactive)
REMARK    1  A    between atoms: C1_1  and  C2_2 
ROOT
HETATM    1  C1  UNL     1     -34.747   5.687   4.771  1.00 20.00     0.417 C 
HETATM    2  F3  UNL     1     -35.986   5.930   4.277  1.00 20.00    -0.208 F 
HETATM    3  F4  UNL     1     -34.426   4.417   4.428  1.00 20.00    -0.208 F 
ENDROOT
BRANCH   1   4
HETATM    4  C2  UNL     1     -34.768   5.819   6.268  1.00 20.00     0.417 C 
HETATM    5  F5  UNL     1     -33.864   4.973   6.816  1.00 20.00    -0.208 F 
HETATM    6  F6  UNL     1     -34.397   7.076   6.617  1.00 20.00    -0.208 F 
ENDBRANCH   1   4
TORSDOF 1
ENDMDL
MODEL 3
REMARK VINA RESULT:      -4.2      0.924      2.617
REMARK  1 active torsions:
REMARK  status: ('A' for Active; 'I' for Inactive)
REMARK    1  A    between atoms: C1_1  and  C2_2 
ROOT
HETATM    1  C1  UNL     1     -34.674   5.422   4.681  1.00 20.00     0.417 C 
HETATM    2  F3  UNL     1     -34.146   4.190   4.480  1.00 20.00    -0.208 F 
HETATM    3  F4  UNL     1     -33.832   6.313   4.107  1.00 20.00    -0.208 F 
ENDROOT
BRANCH   1   4
HETATM    4  C2  UNL     1     -34.770   5.692   6.157  1.00 20.00     0.417 C 
HETATM    5  F5  UNL     1     -33.871   4.927   6.822  1.00 20.00    -0.208 F 
HETATM    6  F6  UNL     1     -34.448   6.986   6.403  1.00 20.00    -0.208 F 
ENDBRANCH   1   4
TORSDOF 1
ENDMDL
MODEL 4
REMARK VINA RESULT:      -4.1      1.241      1.863
REMARK  1 active torsions:
REMARK  status: ('A' for Active; 'I' for Inactive)
REMARK    1  A    between atoms: C1_1  and  C2_2 
ROOT
HETATM    1  C1  UNL     1     -33.906   6.955   5.599  1.00 20.00     0.417 C 
HETATM    2  F3  UNL     1     -34.394   7.407   6.780  1.00 20.00    -0.208 F 
HETATM    3  F4  UNL     1     -34.161   7.910   4.674  1.00 20.00    -0.208 F 
ENDROOT
BRANCH   1   4
HETATM    4  C2  UNL     1     -34.608   5.681   5.220  1.00 20.00     0.417 C 
HETATM    5  F5  UNL     1     -34.961   5.002   6.338  1.00 20.00    -0.208 F 
HETATM    6  F6  UNL     1     -35.754   5.975   4.557  1.00 20.00    -0.208 F 
ENDBRANCH   1   4
TORSDOF 1
ENDMDL
MODEL 5
REMARK VINA RESULT:      -4.1      1.211      2.433
REMARK  1 active torsions:
REMARK  status: ('A' for Active; 'I' for Inactive)
REMARK    1  A    between atoms: C1_1  and  C2_2 
ROOT
HETATM    1  C1  UNL     1     -34.610   5.659   5.210  1.00 20.00     0.417 C 
HETATM    2  F3  UNL     1     -35.783   5.979   4.610  1.00 20.00    -0.208 F 
HETATM    3  F4  UNL     1     -34.912   4.901   6.291  1.00 20.00    -0.208 F 
ENDROOT
BRANCH   1   4
HETATM    4  C2  UNL     1     -33.913   6.916   5.650  1.00 20.00     0.417 C 
HETATM    5  F5  UNL     1     -34.095   7.889   4.725  1.00 20.00    -0.208 F 
HETATM    6  F6  UNL     1     -34.465   7.360   6.806  1.00 20.00    -0.208 F 
ENDBRANCH   1   4
TORSDOF 1
ENDMDL
MODEL 6
REMARK VINA RESULT:      -4.1      0.727      1.367
REMARK  1 active torsions:
REMARK  status: ('A' for Active; 'I' for Inactive)
REMARK    1  A    between atoms: C1_1  and  C2_2 
ROOT
HETATM    1  C1  UNL     1     -34.273   6.051   6.124  1.00 20.00     0.417 C 
HETATM    2  F3  UNL     1     -35.128   5.179   6.712  1.00 20.00    -0.208 F 
HETATM    3  F4  UNL     1     -34.486   7.260   6.695  1.00 20.00    -0.208 F 
ENDROOT
BRANCH   1   4
HETATM    4  C2  UNL     1     -34.564   6.125   4.651  1.00 20.00     0.417 C 
HETATM    5  F5  UNL     1     -33.930   5.116   4.007  1.00 20.00    -0.208 F 
HETATM    6  F6  UNL     1     -35.894   5.955   4.444  1.00 20.00    -0.208 F 
ENDBRANCH   1   4
TORSDOF 1
ENDMDL
MODEL 7
REMARK VINA RESULT:      -4.1      0.749      2.635
REMARK  1 active torsions:
REMARK  status: ('A' for Active; 'I' for Inactive)
REMARK    1  A    between atoms: C1_1  and  C2_2 
ROOT
HETATM    1  C1  UNL     1     -34.570   6.157   4.659  1.00 20.00     0.417 C 
HETATM    2  F3  UNL     1     -35.893   5.953   4.439  1.00 20.00    -0.208 F 
HETATM    3  F4  UNL     1     -33.904   5.186   3.991  1.00 20.00    -0.208 F 
ENDROOT
BRANCH   1   4
HETATM    4  C2  UNL     1     -34.284   6.049   6.131  1.00 20.00     0.417 C 
HETATM    5  F5  UNL     1     -34.491   7.248   6.727  1.00 20.00    -0.208 F 
HETATM    6  F6  UNL     1     -35.148   5.170   6.697  1.00 20.00    -0.208 F 
ENDBRANCH   1   4
TORSDOF 1
ENDMDL
MODEL 8
REMARK VINA RESULT:      -4.0      1.184      2.123
REMARK  1 active torsions:
REMARK  status: ('A' for Active; 'I' for Inactive)
REMARK    1  A    between atoms: C1_1  and  C2_2 
ROOT
HETATM    1  C1  UNL     1     -34.441   6.605   5.171  1.00 20.00     0.417 C 
HETATM    2  F3  UNL     1     -33.395   6.657   4.310  1.00 20.00    -0.208 F 
HETATM    3  F4  UNL     1     -34.108   7.362   6.244  1.00 20.00    -0.208 F 
ENDROOT
BRANCH   1   4
HETATM    4  C2  UNL     1     -34.666   5.183   5.603  1.00 20.00     0.417 C 
HETATM    5  F5  UNL     1     -34.154   4.337   4.678  1.00 20.00    -0.208 F 
HETATM    6  F6  UNL     1     -34.002   4.951   6.763  1.00 20.00    -0.208 F 
ENDBRANCH   1   4
TORSDOF 1
ENDMDL
MODEL 9
REMARK VINA RESULT:      -3.9      1.482      1.816
REMARK  1 active torsions:
REMARK  status: ('A' for Active; 'I' for Inactive)
REMARK    1  A    between atoms: C1_1  and  C2_2 
ROOT
HETATM    1  C1  UNL     1     -33.972   7.025   5.407  1.00 20.00     0.417 C 
HETATM    2  F3  UNL     1     -33.072   7.203   4.408  1.00 20.00    -0.208 F 
HETATM    3  F4  UNL     1     -33.273   6.984   6.566  1.00 20.00    -0.208 F 
ENDROOT
BRANCH   1   4
HETATM    4  C2  UNL     1     -34.697   5.724   5.204  1.00 20.00     0.417 C 
HETATM    5  F5  UNL     1     -35.158   5.266   6.393  1.00 20.00    -0.208 F 
HETATM    6  F6  UNL     1     -35.778   5.926   4.411  1.00 20.00    -0.208 F 
ENDBRANCH   1   4
TORSDOF 1
ENDMDL
