MODEL 1
REMARK VINA RESULT:      -3.4      0.000      0.000
REMARK  2 active torsions:
REMARK  status: ('A' for Active; 'I' for Inactive)
REMARK    1  A    between atoms: C4_4  and  C5_5 
REMARK    2  A    between atoms: C5_5  and  N6_6 
ROOT
HETATM    1  C1  UNL     1     -22.394  18.017   9.633  1.00 20.00     0.158 C 
HETATM    2  N6  UNL     1     -23.114  17.195  10.055  1.00 20.00    -0.264 NA
HETATM    3  S7  UNL     1     -21.406  19.112   9.029  1.00 20.00    -0.055 SA
ENDROOT
BRANCH   2   4
HETATM    4  C5  UNL     1     -23.832  17.582  11.281  1.00 20.00     0.060 C 
HETATM    5  C2  UNL     1     -24.524  16.328  11.828  1.00 20.00     0.041 C 
HETATM    6  C3  UNL     1     -22.801  18.082  12.296  1.00 20.00     0.041 C 
BRANCH   4   7
HETATM    7  C4  UNL     1     -24.889  18.643  10.935  1.00 20.00     0.147 C 
HETATM    8 CL8  UNL     1     -25.897  19.119  12.328  1.00 20.00    -0.128 Cl
ENDBRANCH   4   7
ENDBRANCH   2   4
TORSDOF 2
ENDMDL
MODEL 2
REMARK VINA RESULT:      -3.2      2.840      3.415
REMARK  2 active torsions:
REMARK  status: ('A' for Active; 'I' for Inactive)
REMARK    1  A    between atoms: C4_4  and  C5_5 
REMARK    2  A    between atoms: C5_5  and  N6_6 
ROOT
HETATM    1  C1  UNL     1     -25.667  19.112  11.219  1.00 20.00     0.158 C 
HETATM    2  N6  UNL     1     -24.776  19.166  10.459  1.00 20.00    -0.264 NA
HETATM    3  S7  UNL     1     -26.898  19.062  12.229  1.00 20.00    -0.055 SA
ENDROOT
BRANCH   2   4
HETATM    4  C5  UNL     1     -23.617  18.332  10.817  1.00 20.00     0.060 C 
HETATM    5  C2  UNL     1     -22.451  18.745   9.910  1.00 20.00     0.041 C 
HETATM    6  C3  UNL     1     -23.258  18.620  12.276  1.00 20.00     0.041 C 
BRANCH   4   7
HETATM    7  C4  UNL     1     -23.960  16.854  10.570  1.00 20.00     0.147 C 
HETATM    8 CL8  UNL     1     -24.380  15.966  12.059  1.00 20.00    -0.128 Cl
ENDBRANCH   4   7
ENDBRANCH   2   4
TORSDOF 2
ENDMDL
MODEL 3
REMARK VINA RESULT:      -3.2      3.165      3.730
REMARK  2 active torsions:
REMARK  status: ('A' for Active; 'I' for Inactive)
REMARK    1  A    between atoms: C4_4  and  C5_5 
REMARK    2  A    between atoms: C5_5  and  N6_6 
ROOT
HETATM    1  C1  UNL     1     -25.587  18.979  11.317  1.00 20.00     0.158 C 
HETATM    2  N6  UNL     1     -24.692  19.037  10.563  1.00 20.00    -0.264 NA
HETATM    3  S7  UNL     1     -26.823  18.924  12.321  1.00 20.00    -0.055 SA
ENDROOT
BRANCH   2   4
HETATM    4  C5  UNL     1     -23.538  18.194  10.918  1.00 20.00     0.060 C 
HETATM    5  C2  UNL     1     -23.094  18.588  12.331  1.00 20.00     0.041 C 
HETATM    6  C3  UNL     1     -23.999  16.735  10.913  1.00 20.00     0.041 C 
BRANCH   4   7
HETATM    7  C4  UNL     1     -22.393  18.459   9.927  1.00 20.00     0.147 C 
HETATM    8 CL8  UNL     1     -22.210  17.180   8.697  1.00 20.00    -0.128 Cl
ENDBRANCH   4   7
ENDBRANCH   2   4
TORSDOF 2
ENDMDL
MODEL 4
REMARK VINA RESULT:      -3.0      2.730      3.466
REMARK  2 active torsions:
REMARK  status: ('A' for Active; 'I' for Inactive)
REMARK    1  A    between atoms: C4_4  and  C5_5 
REMARK    2  A    between atoms: C5_5  and  N6_6 
ROOT
HETATM    1  C1  UNL     1     -24.069  17.009  10.791  1.00 20.00     0.158 C 
HETATM    2  N6  UNL     1     -23.357  16.899   9.867  1.00 20.00    -0.264 NA
HETATM    3  S7  UNL     1     -25.045  17.123  12.045  1.00 20.00    -0.055 SA
ENDROOT
BRANCH   2   4
HETATM    4  C5  UNL     1     -22.683  18.143   9.463  1.00 20.00     0.060 C 
HETATM    5  C2  UNL     1     -21.686  18.511  10.568  1.00 20.00     0.041 C 
HETATM    6  C3  UNL     1     -21.927  17.871   8.160  1.00 20.00     0.041 C 
BRANCH   4   7
HETATM    7  C4  UNL     1     -23.727  19.262   9.320  1.00 20.00     0.147 C 
HETATM    8 CL8  UNL     1     -24.557  19.261   7.741  1.00 20.00    -0.128 Cl
ENDBRANCH   4   7
ENDBRANCH   2   4
TORSDOF 2
ENDMDL
MODEL 5
REMARK VINA RESULT:      -2.9     15.117     15.762
REMARK  2 active torsions:
REMARK  status: ('A' for Active; 'I' for Inactive)
REMARK    1  A    between atoms: C4_4  and  C5_5 
REMARK    2  A    between atoms: C5_5  and  N6_6 
ROOT
HETATM    1  C1  UNL     1     -31.543  18.771  -0.426  1.00 20.00     0.158 C 
HETATM    2  N6  UNL     1     -31.806  18.970  -1.551  1.00 20.00    -0.264 NA
HETATM    3  S7  UNL     1     -31.151  18.515   1.097  1.00 20.00    -0.055 SA
ENDROOT
BRANCH   2   4
HETATM    4  C5  UNL     1     -33.163  18.557  -1.943  1.00 20.00     0.060 C 
HETATM    5  C2  UNL     1     -34.151  19.263  -1.007  1.00 20.00     0.041 C 
HETATM    6  C3  UNL     1     -33.401  19.019  -3.383  1.00 20.00     0.041 C 
BRANCH   4   7
HETATM    7  C4  UNL     1     -33.298  17.035  -1.778  1.00 20.00     0.147 C 
HETATM    8 CL8  UNL     1     -33.223  16.144  -3.322  1.00 20.00    -0.128 Cl
ENDBRANCH   4   7
ENDBRANCH   2   4
TORSDOF 2
ENDMDL
MODEL 6
REMARK VINA RESULT:      -2.9     18.562     19.207
REMARK  2 active torsions:
REMARK  status: ('A' for Active; 'I' for Inactive)
REMARK    1  A    between atoms: C4_4  and  C5_5 
REMARK    2  A    between atoms: C5_5  and  N6_6 
ROOT
HETATM    1  C1  UNL     1     -42.075  14.327   4.813  1.00 20.00     0.158 C 
HETATM    2  N6  UNL     1     -41.238  13.506   4.808  1.00 20.00    -0.264 NA
HETATM    3  S7  UNL     1     -43.208  15.446   4.782  1.00 20.00    -0.055 SA
ENDROOT
BRANCH   2   4
HETATM    4  C5  UNL     1     -40.927  12.942   6.132  1.00 20.00     0.060 C 
HETATM    5  C2  UNL     1     -40.410  14.086   7.012  1.00 20.00     0.041 C 
HETATM    6  C3  UNL     1     -42.223  12.384   6.725  1.00 20.00     0.041 C 
BRANCH   4   7
HETATM    7  C4  UNL     1     -39.833  11.873   5.984  1.00 20.00     0.147 C 
HETATM    8 CL8  UNL     1     -39.198  11.734   4.322  1.00 20.00    -0.128 Cl
ENDBRANCH   4   7
ENDBRANCH   2   4
TORSDOF 2
ENDMDL
MODEL 7
REMARK VINA RESULT:      -2.9     18.556     19.203
REMARK  2 active torsions:
REMARK  status: ('A' for Active; 'I' for Inactive)
REMARK    1  A    between atoms: C4_4  and  C5_5 
REMARK    2  A    between atoms: C5_5  and  N6_6 
ROOT
HETATM    1  C1  UNL     1     -42.569  12.918   7.517  1.00 20.00     0.158 C 
HETATM    2  N6  UNL     1     -41.962  12.194   6.822  1.00 20.00    -0.264 NA
HETATM    3  S7  UNL     1     -43.417  13.873   8.468  1.00 20.00    -0.055 SA
ENDROOT
BRANCH   2   4
HETATM    4  C5  UNL     1     -40.771  12.797   6.203  1.00 20.00     0.060 C 
HETATM    5  C2  UNL     1     -41.221  13.486   4.909  1.00 20.00     0.041 C 
HETATM    6  C3  UNL     1     -40.211  13.842   7.171  1.00 20.00     0.041 C 
BRANCH   4   7
HETATM    7  C4  UNL     1     -39.757  11.691   5.870  1.00 20.00     0.147 C 
HETATM    8 CL8  UNL     1     -39.175  11.747   4.184  1.00 20.00    -0.128 Cl
ENDBRANCH   4   7
ENDBRANCH   2   4
TORSDOF 2
ENDMDL
MODEL 8
REMARK VINA RESULT:      -2.9     17.900     18.549
REMARK  2 active torsions:
REMARK  status: ('A' for Active; 'I' for Inactive)
REMARK    1  A    between atoms: C4_4  and  C5_5 
REMARK    2  A    between atoms: C5_5  and  N6_6 
ROOT
HETATM    1  C1  UNL     1     -39.868  12.329   6.005  1.00 20.00     0.158 C 
HETATM    2  N6  UNL     1     -40.230  12.772   7.028  1.00 20.00    -0.264 NA
HETATM    3  S7  UNL     1     -39.346  11.715   4.630  1.00 20.00    -0.055 SA
ENDROOT
BRANCH   2   4
HETATM    4  C5  UNL     1     -41.564  13.392   6.988  1.00 20.00     0.060 C 
HETATM    5  C2  UNL     1     -41.659  14.206   5.693  1.00 20.00     0.041 C 
HETATM    6  C3  UNL     1     -42.606  12.271   6.967  1.00 20.00     0.041 C 
BRANCH   4   7
HETATM    7  C4  UNL     1     -41.724  14.329   8.196  1.00 20.00     0.147 C 
HETATM    8 CL8  UNL     1     -40.210  15.150   8.662  1.00 20.00    -0.128 Cl
ENDBRANCH   4   7
ENDBRANCH   2   4
TORSDOF 2
ENDMDL
MODEL 9
REMARK VINA RESULT:      -2.9     18.274     18.777
REMARK  2 active torsions:
REMARK  status: ('A' for Active; 'I' for Inactive)
REMARK    1  A    between atoms: C4_4  and  C5_5 
REMARK    2  A    between atoms: C5_5  and  N6_6 
ROOT
HETATM    1  C1  UNL     1     -40.993  14.917   7.168  1.00 20.00     0.158 C 
HETATM    2  N6  UNL     1     -40.329  13.978   6.943  1.00 20.00    -0.264 NA
HETATM    3  S7  UNL     1     -41.867  16.208   7.495  1.00 20.00    -0.055 SA
ENDROOT
BRANCH   2   4
HETATM    4  C5  UNL     1     -40.969  12.968   6.083  1.00 20.00     0.060 C 
HETATM    5  C2  UNL     1     -42.229  12.478   6.805  1.00 20.00     0.041 C 
HETATM    6  C3  UNL     1     -41.362  13.647   4.769  1.00 20.00     0.041 C 
BRANCH   4   7
HETATM    7  C4  UNL     1     -40.003  11.790   5.878  1.00 20.00     0.147 C 
HETATM    8 CL8  UNL     1     -39.217  11.789   4.277  1.00 20.00    -0.128 Cl
ENDBRANCH   4   7
ENDBRANCH   2   4
TORSDOF 2
ENDMDL
