MODEL 1
REMARK VINA RESULT:      -4.8      0.000      0.000
REMARK  5 active torsions:
REMARK  status: ('A' for Active; 'I' for Inactive)
REMARK    1  A    between atoms: C1_1  and  C3_3 
REMARK    2  A    between atoms: C3_3  and  C4_4 
REMARK    3  A    between atoms: C4_4  and  C5_5 
REMARK    4  A    between atoms: C5_5  and  C6_6 
REMARK    5  A    between atoms: C6_6  and  C7_7 
ROOT
HETATM    1  C4  UNL     1     -33.883   7.925   5.391  1.00 20.00     0.004 C 
ENDROOT
BRANCH   1   2
HETATM    2  C3  UNL     1     -32.487   8.304   4.892  1.00 20.00     0.028 C 
BRANCH   2   3
HETATM    3  C1  UNL     1     -32.519   8.717   3.449  1.00 20.00    -0.015 C 
HETATM    4  C2  UNL     1     -32.174   7.906   2.445  1.00 20.00     0.080 C 
HETATM    5 CL8  UNL     1     -32.221   8.383   0.801  1.00 20.00    -0.097 Cl
ENDBRANCH   2   3
ENDBRANCH   1   2
BRANCH   1   6
HETATM    6  C5  UNL     1     -33.814   6.824   6.452  1.00 20.00     0.001 C 
BRANCH   6   7
HETATM    7  C6  UNL     1     -34.701   5.634   6.075  1.00 20.00     0.015 C 
BRANCH   7   8
HETATM    8  C7  UNL     1     -35.042   5.584   4.588  1.00 20.00     0.114 C 
HETATM    9 CL9  UNL     1     -33.737   4.853   3.627  1.00 20.00    -0.130 Cl
ENDBRANCH   7   8
ENDBRANCH   6   7
ENDBRANCH   1   6
TORSDOF 5
ENDMDL
MODEL 2
REMARK VINA RESULT:      -4.6      1.042      1.402
REMARK  5 active torsions:
REMARK  status: ('A' for Active; 'I' for Inactive)
REMARK    1  A    between atoms: C1_1  and  C3_3 
REMARK    2  A    between atoms: C3_3  and  C4_4 
REMARK    3  A    between atoms: C4_4  and  C5_5 
REMARK    4  A    between atoms: C5_5  and  C6_6 
REMARK    5  A    between atoms: C6_6  and  C7_7 
ROOT
HETATM    1  C4  UNL     1     -34.323   7.111   6.402  1.00 20.00     0.004 C 
ENDROOT
BRANCH   1   2
HETATM    2  C3  UNL     1     -33.030   7.604   5.749  1.00 20.00     0.028 C 
BRANCH   2   3
HETATM    3  C1  UNL     1     -33.316   8.396   4.507  1.00 20.00    -0.015 C 
HETATM    4  C2  UNL     1     -32.472   8.473   3.474  1.00 20.00     0.080 C 
HETATM    5 CL8  UNL     1     -32.810   9.373   2.056  1.00 20.00    -0.097 Cl
ENDBRANCH   2   3
ENDBRANCH   1   2
BRANCH   1   6
HETATM    6  C5  UNL     1     -34.472   5.593   6.262  1.00 20.00     0.001 C 
BRANCH   6   7
HETATM    7  C6  UNL     1     -34.907   5.208   4.845  1.00 20.00     0.015 C 
BRANCH   7   8
HETATM    8  C7  UNL     1     -33.900   4.315   4.127  1.00 20.00     0.114 C 
HETATM    9 CL9  UNL     1     -33.111   5.153   2.771  1.00 20.00    -0.130 Cl
ENDBRANCH   7   8
ENDBRANCH   6   7
ENDBRANCH   1   6
TORSDOF 5
ENDMDL
MODEL 3
REMARK VINA RESULT:      -4.3      0.944      1.520
REMARK  5 active torsions:
REMARK  status: ('A' for Active; 'I' for Inactive)
REMARK    1  A    between atoms: C1_1  and  C3_3 
REMARK    2  A    between atoms: C3_3  and  C4_4 
REMARK    3  A    between atoms: C4_4  and  C5_5 
REMARK    4  A    between atoms: C5_5  and  C6_6 
REMARK    5  A    between atoms: C6_6  and  C7_7 
ROOT
HETATM    1  C4  UNL     1     -32.675   8.497   4.617  1.00 20.00     0.004 C 
ENDROOT
BRANCH   1   2
HETATM    2  C3  UNL     1     -32.048   7.465   3.676  1.00 20.00     0.028 C 
BRANCH   2   3
HETATM    3  C1  UNL     1     -32.295   7.819   2.239  1.00 20.00    -0.015 C 
HETATM    4  C2  UNL     1     -32.625   9.048   1.831  1.00 20.00     0.080 C 
HETATM    5 CL8  UNL     1     -32.896   9.444   0.187  1.00 20.00    -0.097 Cl
ENDBRANCH   2   3
ENDBRANCH   1   2
BRANCH   1   6
HETATM    6  C5  UNL     1     -33.988   7.980   5.213  1.00 20.00     0.001 C 
BRANCH   6   7
HETATM    7  C6  UNL     1     -33.728   6.929   6.295  1.00 20.00     0.015 C 
BRANCH   7   8
HETATM    8  C7  UNL     1     -34.650   5.717   6.193  1.00 20.00     0.114 C 
HETATM    9 CL9  UNL     1     -34.457   4.858   4.648  1.00 20.00    -0.130 Cl
ENDBRANCH   7   8
ENDBRANCH   6   7
ENDBRANCH   1   6
TORSDOF 5
ENDMDL
MODEL 4
REMARK VINA RESULT:      -4.2      1.614      2.109
REMARK  5 active torsions:
REMARK  status: ('A' for Active; 'I' for Inactive)
REMARK    1  A    between atoms: C1_1  and  C3_3 
REMARK    2  A    between atoms: C3_3  and  C4_4 
REMARK    3  A    between atoms: C4_4  and  C5_5 
REMARK    4  A    between atoms: C5_5  and  C6_6 
REMARK    5  A    between atoms: C6_6  and  C7_7 
ROOT
HETATM    1  C4  UNL     1     -32.603   8.427   5.038  1.00 20.00     0.004 C 
ENDROOT
BRANCH   1   2
HETATM    2  C3  UNL     1     -32.507   8.460   3.510  1.00 20.00     0.028 C 
BRANCH   2   3
HETATM    3  C1  UNL     1     -32.149   7.111   2.959  1.00 20.00    -0.015 C 
HETATM    4  C2  UNL     1     -33.031   6.117   2.819  1.00 20.00     0.080 C 
HETATM    5 CL8  UNL     1     -32.615   4.583   2.181  1.00 20.00    -0.097 Cl
ENDBRANCH   2   3
ENDBRANCH   1   2
BRANCH   1   6
HETATM    6  C5  UNL     1     -34.002   8.008   5.498  1.00 20.00     0.001 C 
BRANCH   6   7
HETATM    7  C6  UNL     1     -33.929   6.890   6.541  1.00 20.00     0.015 C 
BRANCH   7   8
HETATM    8  C7  UNL     1     -34.563   5.584   6.070  1.00 20.00     0.114 C 
HETATM    9 CL9  UNL     1     -35.587   5.817   4.634  1.00 20.00    -0.130 Cl
ENDBRANCH   7   8
ENDBRANCH   6   7
ENDBRANCH   1   6
TORSDOF 5
ENDMDL
MODEL 5
REMARK VINA RESULT:      -4.2      1.009      3.478
REMARK  5 active torsions:
REMARK  status: ('A' for Active; 'I' for Inactive)
REMARK    1  A    between atoms: C1_1  and  C3_3 
REMARK    2  A    between atoms: C3_3  and  C4_4 
REMARK    3  A    between atoms: C4_4  and  C5_5 
REMARK    4  A    between atoms: C5_5  and  C6_6 
REMARK    5  A    between atoms: C6_6  and  C7_7 
ROOT
HETATM    1  C4  UNL     1     -34.043   6.815   6.447  1.00 20.00     0.004 C 
ENDROOT
BRANCH   1   2
HETATM    2  C3  UNL     1     -34.840   5.638   5.878  1.00 20.00     0.028 C 
BRANCH   2   3
HETATM    3  C1  UNL     1     -34.585   5.468   4.409  1.00 20.00    -0.015 C 
HETATM    4  C2  UNL     1     -33.538   4.799   3.918  1.00 20.00     0.080 C 
HETATM    5 CL8  UNL     1     -33.260   4.603   2.239  1.00 20.00    -0.097 Cl
ENDBRANCH   2   3
ENDBRANCH   1   2
BRANCH   1   6
HETATM    6  C5  UNL     1     -34.007   7.988   5.464  1.00 20.00     0.001 C 
BRANCH   6   7
HETATM    7  C6  UNL     1     -32.570   8.325   5.056  1.00 20.00     0.015 C 
BRANCH   7   8
HETATM    8  C7  UNL     1     -32.466   8.929   3.659  1.00 20.00     0.114 C 
HETATM    9 CL9  UNL     1     -32.117   7.698   2.423  1.00 20.00    -0.130 Cl
ENDBRANCH   7   8
ENDBRANCH   6   7
ENDBRANCH   1   6
TORSDOF 5
ENDMDL
MODEL 6
REMARK VINA RESULT:      -4.2      1.901      2.938
REMARK  5 active torsions:
REMARK  status: ('A' for Active; 'I' for Inactive)
REMARK    1  A    between atoms: C1_1  and  C3_3 
REMARK    2  A    between atoms: C3_3  and  C4_4 
REMARK    3  A    between atoms: C4_4  and  C5_5 
REMARK    4  A    between atoms: C5_5  and  C6_6 
REMARK    5  A    between atoms: C6_6  and  C7_7 
ROOT
HETATM    1  C4  UNL     1     -34.772   5.312   6.116  1.00 20.00     0.004 C 
ENDROOT
BRANCH   1   2
HETATM    2  C3  UNL     1     -34.477   6.700   6.690  1.00 20.00     0.028 C 
BRANCH   2   3
HETATM    3  C1  UNL     1     -33.352   7.366   5.954  1.00 20.00    -0.015 C 
HETATM    4  C2  UNL     1     -33.478   8.536   5.323  1.00 20.00     0.080 C 
HETATM    5 CL8  UNL     1     -32.185   9.293   4.492  1.00 20.00    -0.097 Cl
ENDBRANCH   2   3
ENDBRANCH   1   2
BRANCH   1   6
HETATM    6  C5  UNL     1     -34.825   5.345   4.586  1.00 20.00     0.001 C 
BRANCH   6   7
HETATM    7  C6  UNL     1     -33.762   4.428   3.975  1.00 20.00     0.015 C 
BRANCH   7   8
HETATM    8  C7  UNL     1     -33.275   4.896   2.607  1.00 20.00     0.114 C 
HETATM    9 CL9  UNL     1     -32.395   6.439   2.702  1.00 20.00    -0.130 Cl
ENDBRANCH   7   8
ENDBRANCH   6   7
ENDBRANCH   1   6
TORSDOF 5
ENDMDL
MODEL 7
REMARK VINA RESULT:      -4.0      1.921      2.825
REMARK  5 active torsions:
REMARK  status: ('A' for Active; 'I' for Inactive)
REMARK    1  A    between atoms: C1_1  and  C3_3 
REMARK    2  A    between atoms: C3_3  and  C4_4 
REMARK    3  A    between atoms: C4_4  and  C5_5 
REMARK    4  A    between atoms: C5_5  and  C6_6 
REMARK    5  A    between atoms: C6_6  and  C7_7 
ROOT
HETATM    1  C4  UNL     1     -34.822   5.088   4.567  1.00 20.00     0.004 C 
ENDROOT
BRANCH   1   2
HETATM    2  C3  UNL     1     -33.606   4.595   3.779  1.00 20.00     0.028 C 
BRANCH   2   3
HETATM    3  C1  UNL     1     -33.222   5.571   2.705  1.00 20.00    -0.015 C 
HETATM    4  C2  UNL     1     -32.476   6.657   2.930  1.00 20.00     0.080 C 
HETATM    5 CL8  UNL     1     -32.036   7.760   1.697  1.00 20.00    -0.097 Cl
ENDBRANCH   2   3
ENDBRANCH   1   2
BRANCH   1   6
HETATM    6  C5  UNL     1     -34.529   5.132   6.069  1.00 20.00     0.001 C 
BRANCH   6   7
HETATM    7  C6  UNL     1     -34.584   6.566   6.602  1.00 20.00     0.015 C 
BRANCH   7   8
HETATM    8  C7  UNL     1     -33.302   7.353   6.347  1.00 20.00     0.114 C 
HETATM    9 CL9  UNL     1     -33.577   8.753   5.284  1.00 20.00    -0.130 Cl
ENDBRANCH   7   8
ENDBRANCH   6   7
ENDBRANCH   1   6
TORSDOF 5
ENDMDL
MODEL 8
REMARK VINA RESULT:      -4.0      2.254      2.871
REMARK  5 active torsions:
REMARK  status: ('A' for Active; 'I' for Inactive)
REMARK    1  A    between atoms: C1_1  and  C3_3 
REMARK    2  A    between atoms: C3_3  and  C4_4 
REMARK    3  A    between atoms: C4_4  and  C5_5 
REMARK    4  A    between atoms: C5_5  and  C6_6 
REMARK    5  A    between atoms: C6_6  and  C7_7 
ROOT
HETATM    1  C4  UNL     1     -33.268   5.233   2.906  1.00 20.00     0.004 C 
ENDROOT
BRANCH   1   2
HETATM    2  C3  UNL     1     -32.514   6.475   2.424  1.00 20.00     0.028 C 
BRANCH   2   3
HETATM    3  C1  UNL     1     -32.103   7.342   3.578  1.00 20.00    -0.015 C 
HETATM    4  C2  UNL     1     -32.512   8.605   3.730  1.00 20.00     0.080 C 
HETATM    5 CL8  UNL     1     -32.043   9.586   5.054  1.00 20.00    -0.097 Cl
ENDBRANCH   2   3
ENDBRANCH   1   2
BRANCH   1   6
HETATM    6  C5  UNL     1     -34.336   5.598   3.941  1.00 20.00     0.001 C 
BRANCH   6   7
HETATM    7  C6  UNL     1     -34.259   4.681   5.164  1.00 20.00     0.015 C 
BRANCH   7   8
HETATM    8  C7  UNL     1     -34.647   5.377   6.465  1.00 20.00     0.114 C 
HETATM    9 CL9  UNL     1     -34.209   7.101   6.458  1.00 20.00    -0.130 Cl
ENDBRANCH   7   8
ENDBRANCH   6   7
ENDBRANCH   1   6
TORSDOF 5
ENDMDL
MODEL 9
REMARK VINA RESULT:      -4.0      1.841      2.378
REMARK  5 active torsions:
REMARK  status: ('A' for Active; 'I' for Inactive)
REMARK    1  A    between atoms: C1_1  and  C3_3 
REMARK    2  A    between atoms: C3_3  and  C4_4 
REMARK    3  A    between atoms: C4_4  and  C5_5 
REMARK    4  A    between atoms: C5_5  and  C6_6 
REMARK    5  A    between atoms: C6_6  and  C7_7 
ROOT
HETATM    1  C4  UNL     1     -33.001   5.675   2.790  1.00 20.00     0.004 C 
ENDROOT
BRANCH   1   2
HETATM    2  C3  UNL     1     -32.374   6.910   3.440  1.00 20.00     0.028 C 
BRANCH   2   3
HETATM    3  C1  UNL     1     -32.632   8.144   2.626  1.00 20.00    -0.015 C 
HETATM    4  C2  UNL     1     -32.350   8.237   1.323  1.00 20.00     0.080 C 
HETATM    5 CL8  UNL     1     -32.656   9.647   0.400  1.00 20.00    -0.097 Cl
ENDBRANCH   2   3
ENDBRANCH   1   2
BRANCH   1   6
HETATM    6  C5  UNL     1     -33.712   4.801   3.827  1.00 20.00     0.001 C 
BRANCH   6   7
HETATM    7  C6  UNL     1     -34.861   5.560   4.496  1.00 20.00     0.015 C 
BRANCH   7   8
HETATM    8  C7  UNL     1     -34.740   5.621   6.016  1.00 20.00     0.114 C 
HETATM    9 CL9  UNL     1     -34.081   7.176   6.572  1.00 20.00    -0.130 Cl
ENDBRANCH   7   8
ENDBRANCH   6   7
ENDBRANCH   1   6
TORSDOF 5
ENDMDL
