MODEL 1
REMARK VINA RESULT:      -5.5      0.000      0.000
REMARK  2 active torsions:
REMARK  status: ('A' for Active; 'I' for Inactive)
REMARK    1  A    between atoms: C1_1  and  C2_2 
REMARK    2  A    between atoms: C2_2  and  C3_3 
ROOT
HETATM    1  C2  UNL     1     -34.001   6.826   5.788  1.00 20.00     0.365 C 
HETATM    2  F5  UNL     1     -34.870   7.056   6.813  1.00 20.00    -0.193 F 
HETATM    3  F6  UNL     1     -32.832   6.440   6.371  1.00 20.00    -0.193 F 
ENDROOT
BRANCH   1   4
HETATM    4  C1  UNL     1     -33.771   8.147   5.069  1.00 20.00     0.345 C 
HETATM    5  F4  UNL     1     -34.077   9.154   5.936  1.00 20.00    -0.226 F 
HETATM    6 CL9  UNL     1     -32.094   8.369   4.535  1.00 20.00    -0.083 Cl
ENDBRANCH   1   4
BRANCH   1   7
HETATM    7  C3  UNL     1     -34.530   5.662   4.967  1.00 20.00     0.388 C 
HETATM    8  F7  UNL     1     -35.816   5.929   4.616  1.00 20.00    -0.181 F 
HETATM    9  F8  UNL     1     -34.570   4.532   5.715  1.00 20.00    -0.181 F 
HETATM   10 CL10 UNL     1     -33.583   5.368   3.499  1.00 20.00    -0.042 Cl
ENDBRANCH   1   7
TORSDOF 2
ENDMDL
MODEL 2
REMARK VINA RESULT:      -5.3      1.946      3.386
REMARK  2 active torsions:
REMARK  status: ('A' for Active; 'I' for Inactive)
REMARK    1  A    between atoms: C1_1  and  C2_2 
REMARK    2  A    between atoms: C2_2  and  C3_3 
ROOT
HETATM    1  C2  UNL     1     -33.596   7.959   4.740  1.00 20.00     0.365 C 
HETATM    2  F5  UNL     1     -33.265   9.002   5.553  1.00 20.00    -0.193 F 
HETATM    3  F6  UNL     1     -34.762   8.317   4.133  1.00 20.00    -0.193 F 
ENDROOT
BRANCH   1   4
HETATM    4  C1  UNL     1     -33.860   6.748   5.622  1.00 20.00     0.345 C 
HETATM    5  F4  UNL     1     -34.254   7.200   6.846  1.00 20.00    -0.226 F 
HETATM    6 CL9  UNL     1     -35.133   5.688   4.989  1.00 20.00    -0.083 Cl
ENDBRANCH   1   4
BRANCH   1   7
HETATM    7  C3  UNL     1     -32.523   7.830   3.672  1.00 20.00     0.388 C 
HETATM    8  F7  UNL     1     -31.306   7.978   4.259  1.00 20.00    -0.181 F 
HETATM    9  F8  UNL     1     -32.629   8.834   2.767  1.00 20.00    -0.181 F 
HETATM   10 CL10 UNL     1     -32.571   6.271   2.833  1.00 20.00    -0.042 Cl
ENDBRANCH   1   7
TORSDOF 2
ENDMDL
MODEL 3
REMARK VINA RESULT:      -5.2      1.287      3.100
REMARK  2 active torsions:
REMARK  status: ('A' for Active; 'I' for Inactive)
REMARK    1  A    between atoms: C1_1  and  C2_2 
REMARK    2  A    between atoms: C2_2  and  C3_3 
ROOT
HETATM    1  C2  UNL     1     -33.952   6.776   5.861  1.00 20.00     0.365 C 
HETATM    2  F5  UNL     1     -32.932   6.175   6.537  1.00 20.00    -0.193 F 
HETATM    3  F6  UNL     1     -34.606   7.542   6.777  1.00 20.00    -0.193 F 
ENDROOT
BRANCH   1   4
HETATM    4  C1  UNL     1     -34.896   5.685   5.378  1.00 20.00     0.345 C 
HETATM    5  F4  UNL     1     -35.713   6.229   4.431  1.00 20.00    -0.226 F 
HETATM    6 CL9  UNL     1     -34.053   4.304   4.652  1.00 20.00    -0.083 Cl
ENDBRANCH   1   4
BRANCH   1   7
HETATM    7  C3  UNL     1     -33.350   7.698   4.814  1.00 20.00     0.388 C 
HETATM    8  F7  UNL     1     -32.365   8.432   5.397  1.00 20.00    -0.181 F 
HETATM    9  F8  UNL     1     -34.274   8.588   4.375  1.00 20.00    -0.181 F 
HETATM   10 CL10 UNL     1     -32.671   6.821   3.432  1.00 20.00    -0.042 Cl
ENDBRANCH   1   7
TORSDOF 2
ENDMDL
MODEL 4
REMARK VINA RESULT:      -5.2      1.087      3.302
REMARK  2 active torsions:
REMARK  status: ('A' for Active; 'I' for Inactive)
REMARK    1  A    between atoms: C1_1  and  C2_2 
REMARK    2  A    between atoms: C2_2  and  C3_3 
ROOT
HETATM    1  C2  UNL     1     -34.523   5.797   5.279  1.00 20.00     0.365 C 
HETATM    2  F5  UNL     1     -35.125   4.973   6.184  1.00 20.00    -0.193 F 
HETATM    3  F6  UNL     1     -35.520   6.251   4.469  1.00 20.00    -0.193 F 
ENDROOT
BRANCH   1   4
HETATM    4  C1  UNL     1     -33.567   4.954   4.448  1.00 20.00     0.345 C 
HETATM    5  F4  UNL     1     -34.166   3.752   4.213  1.00 20.00    -0.226 F 
HETATM    6 CL9  UNL     1     -33.171   5.689   2.883  1.00 20.00    -0.083 Cl
ENDBRANCH   1   4
BRANCH   1   7
HETATM    7  C3  UNL     1     -33.943   6.984   6.030  1.00 20.00     0.388 C 
HETATM    8  F7  UNL     1     -32.777   6.599   6.614  1.00 20.00    -0.181 F 
HETATM    9  F8  UNL     1     -34.766   7.357   7.040  1.00 20.00    -0.181 F 
HETATM   10 CL10 UNL     1     -33.627   8.375   4.979  1.00 20.00    -0.042 Cl
ENDBRANCH   1   7
TORSDOF 2
ENDMDL
MODEL 5
REMARK VINA RESULT:      -5.2      1.882      2.177
REMARK  2 active torsions:
REMARK  status: ('A' for Active; 'I' for Inactive)
REMARK    1  A    between atoms: C1_1  and  C2_2 
REMARK    2  A    between atoms: C2_2  and  C3_3 
ROOT
HETATM    1  C2  UNL     1     -34.000   7.365   4.903  1.00 20.00     0.365 C 
HETATM    2  F5  UNL     1     -34.844   8.212   4.247  1.00 20.00    -0.193 F 
HETATM    3  F6  UNL     1     -34.087   7.701   6.220  1.00 20.00    -0.193 F 
ENDROOT
BRANCH   1   4
HETATM    4  C1  UNL     1     -32.586   7.654   4.421  1.00 20.00     0.345 C 
HETATM    5  F4  UNL     1     -32.593   7.613   3.058  1.00 20.00    -0.226 F 
HETATM    6 CL9  UNL     1     -31.989   9.246   4.923  1.00 20.00    -0.083 Cl
ENDBRANCH   1   4
BRANCH   1   7
HETATM    7  C3  UNL     1     -34.523   5.949   4.738  1.00 20.00     0.388 C 
HETATM    8  F7  UNL     1     -33.779   5.319   3.790  1.00 20.00    -0.181 F 
HETATM    9  F8  UNL     1     -35.796   5.963   4.270  1.00 20.00    -0.181 F 
HETATM   10 CL10 UNL     1     -34.456   5.010   6.238  1.00 20.00    -0.042 Cl
ENDBRANCH   1   7
TORSDOF 2
ENDMDL
MODEL 6
REMARK VINA RESULT:      -5.1      1.487      1.810
REMARK  2 active torsions:
REMARK  status: ('A' for Active; 'I' for Inactive)
REMARK    1  A    between atoms: C1_1  and  C2_2 
REMARK    2  A    between atoms: C2_2  and  C3_3 
ROOT
HETATM    1  C2  UNL     1     -33.768   7.016   5.138  1.00 20.00     0.365 C 
HETATM    2  F5  UNL     1     -34.510   8.160   5.093  1.00 20.00    -0.193 F 
HETATM    3  F6  UNL     1     -33.093   7.057   6.320  1.00 20.00    -0.193 F 
ENDROOT
BRANCH   1   4
HETATM    4  C1  UNL     1     -32.759   7.071   4.000  1.00 20.00     0.345 C 
HETATM    5  F4  UNL     1     -33.215   6.265   2.999  1.00 20.00    -0.226 F 
HETATM    6 CL9  UNL     1     -32.541   8.703   3.341  1.00 20.00    -0.083 Cl
ENDBRANCH   1   4
BRANCH   1   7
HETATM    7  C3  UNL     1     -34.721   5.833   5.176  1.00 20.00     0.388 C 
HETATM    8  F7  UNL     1     -35.805   6.124   4.408  1.00 20.00    -0.181 F 
HETATM    9  F8  UNL     1     -35.190   5.639   6.433  1.00 20.00    -0.181 F 
HETATM   10 CL10 UNL     1     -33.983   4.336   4.583  1.00 20.00    -0.042 Cl
ENDBRANCH   1   7
TORSDOF 2
ENDMDL
MODEL 7
REMARK VINA RESULT:      -5.1      2.087      3.326
REMARK  2 active torsions:
REMARK  status: ('A' for Active; 'I' for Inactive)
REMARK    1  A    between atoms: C1_1  and  C2_2 
REMARK    2  A    between atoms: C2_2  and  C3_3 
ROOT
HETATM    1  C2  UNL     1     -33.356   7.929   4.631  1.00 20.00     0.365 C 
HETATM    2  F5  UNL     1     -32.802   8.847   5.472  1.00 20.00    -0.193 F 
HETATM    3  F6  UNL     1     -34.456   8.529   4.097  1.00 20.00    -0.193 F 
ENDROOT
BRANCH   1   4
HETATM    4  C1  UNL     1     -33.810   6.743   5.470  1.00 20.00     0.345 C 
HETATM    5  F4  UNL     1     -34.190   7.217   6.690  1.00 20.00    -0.226 F 
HETATM    6 CL9  UNL     1     -35.182   5.872   4.762  1.00 20.00    -0.083 Cl
ENDBRANCH   1   4
BRANCH   1   7
HETATM    7  C3  UNL     1     -32.370   7.657   3.507  1.00 20.00     0.388 C 
HETATM    8  F7  UNL     1     -32.530   6.373   3.090  1.00 20.00    -0.181 F 
HETATM    9  F8  UNL     1     -31.095   7.751   3.959  1.00 20.00    -0.181 F 
HETATM   10 CL10 UNL     1     -32.587   8.742   2.123  1.00 20.00    -0.042 Cl
ENDBRANCH   1   7
TORSDOF 2
ENDMDL
MODEL 8
REMARK VINA RESULT:      -5.0      2.047      3.439
REMARK  2 active torsions:
REMARK  status: ('A' for Active; 'I' for Inactive)
REMARK    1  A    between atoms: C1_1  and  C2_2 
REMARK    2  A    between atoms: C2_2  and  C3_3 
ROOT
HETATM    1  C2  UNL     1     -33.535   7.349   4.590  1.00 20.00     0.365 C 
HETATM    2  F5  UNL     1     -34.736   7.915   4.280  1.00 20.00    -0.193 F 
HETATM    3  F6  UNL     1     -33.426   6.251   3.791  1.00 20.00    -0.193 F 
ENDROOT
BRANCH   1   4
HETATM    4  C1  UNL     1     -33.597   6.890   6.039  1.00 20.00     0.345 C 
HETATM    5  F4  UNL     1     -34.311   7.817   6.740  1.00 20.00    -0.226 F 
HETATM    6 CL9  UNL     1     -34.389   5.316   6.240  1.00 20.00    -0.083 Cl
ENDBRANCH   1   4
BRANCH   1   7
HETATM    7  C3  UNL     1     -32.436   8.326   4.208  1.00 20.00     0.388 C 
HETATM    8  F7  UNL     1     -31.285   7.629   4.015  1.00 20.00    -0.181 F 
HETATM    9  F8  UNL     1     -32.189   9.186   5.227  1.00 20.00    -0.181 F 
HETATM   10 CL10 UNL     1     -32.808   9.241   2.738  1.00 20.00    -0.042 Cl
ENDBRANCH   1   7
TORSDOF 2
ENDMDL
MODEL 9
REMARK VINA RESULT:      -4.9      2.122      3.355
REMARK  2 active torsions:
REMARK  status: ('A' for Active; 'I' for Inactive)
REMARK    1  A    between atoms: C1_1  and  C2_2 
REMARK    2  A    between atoms: C2_2  and  C3_3 
ROOT
HETATM    1  C2  UNL     1     -33.655   7.182   4.529  1.00 20.00     0.365 C 
HETATM    2  F5  UNL     1     -34.865   7.753   4.264  1.00 20.00    -0.193 F 
HETATM    3  F6  UNL     1     -33.608   6.046   3.779  1.00 20.00    -0.193 F 
ENDROOT
BRANCH   1   4
HETATM    4  C1  UNL     1     -33.636   6.794   6.000  1.00 20.00     0.345 C 
HETATM    5  F4  UNL     1     -34.354   7.727   6.687  1.00 20.00    -0.226 F 
HETATM    6 CL9  UNL     1     -34.355   5.204   6.311  1.00 20.00    -0.083 Cl
ENDBRANCH   1   4
BRANCH   1   7
HETATM    7  C3  UNL     1     -32.568   8.122   4.036  1.00 20.00     0.388 C 
HETATM    8  F7  UNL     1     -33.038   8.800   2.955  1.00 20.00    -0.181 F 
HETATM    9  F8  UNL     1     -31.492   7.420   3.602  1.00 20.00    -0.181 F 
HETATM   10 CL10 UNL     1     -32.055   9.289   5.267  1.00 20.00    -0.042 Cl
ENDBRANCH   1   7
TORSDOF 2
ENDMDL
