MODEL 1
REMARK VINA RESULT:      -5.8      0.000      0.000
REMARK  2 active torsions:
REMARK  status: ('A' for Active; 'I' for Inactive)
REMARK    1  A    between atoms: C1_1  and  C2_2 
REMARK    2  A    between atoms: C2_2  and  C3_3 
ROOT
HETATM    1  C2  UNL     1     -34.529   5.921   4.846  1.00 20.00     0.396 C 
HETATM    2  F6  UNL     1     -34.020   4.780   4.317  1.00 20.00    -0.190 F 
HETATM    3  F7  UNL     1     -35.720   6.142   4.232  1.00 20.00    -0.190 F 
ENDROOT
BRANCH   1   4
HETATM    4  C1  UNL     1     -34.764   5.718   6.323  1.00 20.00     0.434 C 
HETATM    5  F4  UNL     1     -34.723   6.920   6.951  1.00 20.00    -0.207 F 
HETATM    6  F5  UNL     1     -33.772   4.964   6.856  1.00 20.00    -0.207 F 
ENDBRANCH   1   4
BRANCH   1   7
HETATM    7  C3  UNL     1     -33.598   7.064   4.533  1.00 20.00     0.460 C 
HETATM    8  F8  UNL     1     -34.294   8.202   4.322  1.00 20.00    -0.165 F 
HETATM    9  F9  UNL     1     -32.871   6.814   3.423  1.00 20.00    -0.165 F 
HETATM   10  F10 UNL     1     -32.738   7.290   5.549  1.00 20.00    -0.165 F 
ENDBRANCH   1   7
TORSDOF 2
ENDMDL
MODEL 2
REMARK VINA RESULT:      -5.8      0.008      1.196
REMARK  2 active torsions:
REMARK  status: ('A' for Active; 'I' for Inactive)
REMARK    1  A    between atoms: C1_1  and  C2_2 
REMARK    2  A    between atoms: C2_2  and  C3_3 
ROOT
HETATM    1  C2  UNL     1     -34.531   5.917   4.845  1.00 20.00     0.396 C 
HETATM    2  F6  UNL     1     -34.018   4.777   4.316  1.00 20.00    -0.190 F 
HETATM    3  F7  UNL     1     -35.723   6.133   4.231  1.00 20.00    -0.190 F 
ENDROOT
BRANCH   1   4
HETATM    4  C1  UNL     1     -34.766   5.712   6.322  1.00 20.00     0.434 C 
HETATM    5  F4  UNL     1     -34.723   6.914   6.951  1.00 20.00    -0.207 F 
HETATM    6  F5  UNL     1     -33.775   4.957   6.854  1.00 20.00    -0.207 F 
ENDBRANCH   1   4
BRANCH   1   7
HETATM    7  C3  UNL     1     -33.604   7.064   4.533  1.00 20.00     0.460 C 
HETATM    8  F8  UNL     1     -32.877   6.802   3.426  1.00 20.00    -0.165 F 
HETATM    9  F9  UNL     1     -32.742   7.285   5.549  1.00 20.00    -0.165 F 
HETATM   10  F10 UNL     1     -34.290   8.206   4.316  1.00 20.00    -0.165 F 
ENDBRANCH   1   7
TORSDOF 2
ENDMDL
MODEL 3
REMARK VINA RESULT:      -5.7      1.004      2.829
REMARK  2 active torsions:
REMARK  status: ('A' for Active; 'I' for Inactive)
REMARK    1  A    between atoms: C1_1  and  C2_2 
REMARK    2  A    between atoms: C2_2  and  C3_3 
ROOT
HETATM    1  C2  UNL     1     -34.469   6.204   4.787  1.00 20.00     0.396 C 
HETATM    2  F6  UNL     1     -34.124   7.466   4.428  1.00 20.00    -0.190 F 
HETATM    3  F7  UNL     1     -35.750   6.016   4.380  1.00 20.00    -0.190 F 
ENDROOT
BRANCH   1   4
HETATM    4  C1  UNL     1     -33.574   5.224   4.068  1.00 20.00     0.434 C 
HETATM    5  F4  UNL     1     -33.608   5.484   2.737  1.00 20.00    -0.207 F 
HETATM    6  F5  UNL     1     -34.034   3.960   4.232  1.00 20.00    -0.207 F 
ENDBRANCH   1   4
BRANCH   1   7
HETATM    7  C3  UNL     1     -34.411   6.088   6.289  1.00 20.00     0.460 C 
HETATM    8  F8  UNL     1     -34.556   7.299   6.867  1.00 20.00    -0.165 F 
HETATM    9  F9  UNL     1     -33.228   5.577   6.694  1.00 20.00    -0.165 F 
HETATM   10  F10 UNL     1     -35.391   5.287   6.759  1.00 20.00    -0.165 F 
ENDBRANCH   1   7
TORSDOF 2
ENDMDL
MODEL 4
REMARK VINA RESULT:      -5.6      1.074      3.157
REMARK  2 active torsions:
REMARK  status: ('A' for Active; 'I' for Inactive)
REMARK    1  A    between atoms: C1_1  and  C2_2 
REMARK    2  A    between atoms: C2_2  and  C3_3 
ROOT
HETATM    1  C2  UNL     1     -33.947   6.879   5.898  1.00 20.00     0.396 C 
HETATM    2  F6  UNL     1     -32.816   6.439   6.504  1.00 20.00    -0.190 F 
HETATM    3  F7  UNL     1     -34.645   7.579   6.828  1.00 20.00    -0.190 F 
ENDROOT
BRANCH   1   4
HETATM    4  C1  UNL     1     -33.570   7.803   4.765  1.00 20.00     0.434 C 
HETATM    5  F4  UNL     1     -32.625   7.205   3.997  1.00 20.00    -0.207 F 
HETATM    6  F5  UNL     1     -33.016   8.940   5.252  1.00 20.00    -0.207 F 
ENDBRANCH   1   4
BRANCH   1   7
HETATM    7  C3  UNL     1     -34.766   5.691   5.463  1.00 20.00     0.460 C 
HETATM    8  F8  UNL     1     -35.770   6.077   4.647  1.00 20.00    -0.165 F 
HETATM    9  F9  UNL     1     -35.314   5.061   6.523  1.00 20.00    -0.165 F 
HETATM   10  F10 UNL     1     -34.013   4.793   4.792  1.00 20.00    -0.165 F 
ENDBRANCH   1   7
TORSDOF 2
ENDMDL
MODEL 5
REMARK VINA RESULT:      -5.6      1.147      3.031
REMARK  2 active torsions:
REMARK  status: ('A' for Active; 'I' for Inactive)
REMARK    1  A    between atoms: C1_1  and  C2_2 
REMARK    2  A    between atoms: C2_2  and  C3_3 
ROOT
HETATM    1  C2  UNL     1     -33.962   6.787   5.880  1.00 20.00     0.396 C 
HETATM    2  F6  UNL     1     -32.865   6.308   6.519  1.00 20.00    -0.190 F 
HETATM    3  F7  UNL     1     -34.839   7.176   6.841  1.00 20.00    -0.190 F 
ENDROOT
BRANCH   1   4
HETATM    4  C1  UNL     1     -33.567   7.990   5.058  1.00 20.00     0.434 C 
HETATM    5  F4  UNL     1     -32.217   8.011   4.919  1.00 20.00    -0.207 F 
HETATM    6  F5  UNL     1     -33.911   9.132   5.702  1.00 20.00    -0.207 F 
ENDBRANCH   1   4
BRANCH   1   7
HETATM    7  C3  UNL     1     -34.583   5.679   5.070  1.00 20.00     0.460 C 
HETATM    8  F8  UNL     1     -34.715   4.560   5.815  1.00 20.00    -0.165 F 
HETATM    9  F9  UNL     1     -33.821   5.371   3.998  1.00 20.00    -0.165 F 
HETATM   10  F10 UNL     1     -35.809   6.023   4.621  1.00 20.00    -0.165 F 
ENDBRANCH   1   7
TORSDOF 2
ENDMDL
MODEL 6
REMARK VINA RESULT:      -5.6      0.699      3.020
REMARK  2 active torsions:
REMARK  status: ('A' for Active; 'I' for Inactive)
REMARK    1  A    between atoms: C1_1  and  C2_2 
REMARK    2  A    between atoms: C2_2  and  C3_3 
ROOT
HETATM    1  C2  UNL     1     -34.331   5.950   4.823  1.00 20.00     0.396 C 
HETATM    2  F6  UNL     1     -35.549   6.262   4.312  1.00 20.00    -0.190 F 
HETATM    3  F7  UNL     1     -33.991   4.737   4.316  1.00 20.00    -0.190 F 
ENDROOT
BRANCH   1   4
HETATM    4  C1  UNL     1     -33.326   6.977   4.361  1.00 20.00     0.434 C 
HETATM    5  F4  UNL     1     -33.946   8.177   4.223  1.00 20.00    -0.207 F 
HETATM    6  F5  UNL     1     -32.843   6.645   3.140  1.00 20.00    -0.207 F 
ENDBRANCH   1   4
BRANCH   1   7
HETATM    7  C3  UNL     1     -34.440   5.842   6.322  1.00 20.00     0.460 C 
HETATM    8  F8  UNL     1     -33.339   5.255   6.839  1.00 20.00    -0.165 F 
HETATM    9  F9  UNL     1     -35.510   5.100   6.682  1.00 20.00    -0.165 F 
HETATM   10  F10 UNL     1     -34.567   7.057   6.896  1.00 20.00    -0.165 F 
ENDBRANCH   1   7
TORSDOF 2
ENDMDL
MODEL 7
REMARK VINA RESULT:      -5.6      0.955      2.395
REMARK  2 active torsions:
REMARK  status: ('A' for Active; 'I' for Inactive)
REMARK    1  A    between atoms: C1_1  and  C2_2 
REMARK    2  A    between atoms: C2_2  and  C3_3 
ROOT
HETATM    1  C2  UNL     1     -34.591   5.870   5.078  1.00 20.00     0.396 C 
HETATM    2  F6  UNL     1     -35.752   6.056   4.399  1.00 20.00    -0.190 F 
HETATM    3  F7  UNL     1     -34.898   5.160   6.194  1.00 20.00    -0.190 F 
ENDROOT
BRANCH   1   4
HETATM    4  C1  UNL     1     -33.646   5.062   4.223  1.00 20.00     0.434 C 
HETATM    5  F4  UNL     1     -33.690   5.526   2.948  1.00 20.00    -0.207 F 
HETATM    6  F5  UNL     1     -34.042   3.767   4.181  1.00 20.00    -0.207 F 
ENDBRANCH   1   4
BRANCH   1   7
HETATM    7  C3  UNL     1     -34.041   7.212   5.486  1.00 20.00     0.460 C 
HETATM    8  F8  UNL     1     -34.439   7.530   6.737  1.00 20.00    -0.165 F 
HETATM    9  F9  UNL     1     -34.469   8.189   4.657  1.00 20.00    -0.165 F 
HETATM   10  F10 UNL     1     -32.691   7.217   5.469  1.00 20.00    -0.165 F 
ENDBRANCH   1   7
TORSDOF 2
ENDMDL
MODEL 8
REMARK VINA RESULT:      -5.6      1.054      2.090
REMARK  2 active torsions:
REMARK  status: ('A' for Active; 'I' for Inactive)
REMARK    1  A    between atoms: C1_1  and  C2_2 
REMARK    2  A    between atoms: C2_2  and  C3_3 
ROOT
HETATM    1  C2  UNL     1     -33.809   6.910   5.896  1.00 20.00     0.396 C 
HETATM    2  F6  UNL     1     -34.636   7.724   6.601  1.00 20.00    -0.190 F 
HETATM    3  F7  UNL     1     -32.815   6.533   6.740  1.00 20.00    -0.190 F 
ENDROOT
BRANCH   1   4
HETATM    4  C1  UNL     1     -34.578   5.686   5.461  1.00 20.00     0.434 C 
HETATM    5  F4  UNL     1     -35.629   6.070   4.692  1.00 20.00    -0.207 F 
HETATM    6  F5  UNL     1     -35.095   5.049   6.539  1.00 20.00    -0.207 F 
ENDBRANCH   1   4
BRANCH   1   7
HETATM    7  C3  UNL     1     -33.212   7.689   4.752  1.00 20.00     0.460 C 
HETATM    8  F8  UNL     1     -34.121   8.538   4.227  1.00 20.00    -0.165 F 
HETATM    9  F9  UNL     1     -32.799   6.866   3.765  1.00 20.00    -0.165 F 
HETATM   10  F10 UNL     1     -32.150   8.419   5.155  1.00 20.00    -0.165 F 
ENDBRANCH   1   7
TORSDOF 2
ENDMDL
MODEL 9
REMARK VINA RESULT:      -5.6      1.052      2.355
REMARK  2 active torsions:
REMARK  status: ('A' for Active; 'I' for Inactive)
REMARK    1  A    between atoms: C1_1  and  C2_2 
REMARK    2  A    between atoms: C2_2  and  C3_3 
ROOT
HETATM    1  C2  UNL     1     -33.811   6.910   5.897  1.00 20.00     0.396 C 
HETATM    2  F6  UNL     1     -34.635   7.723   6.605  1.00 20.00    -0.190 F 
HETATM    3  F7  UNL     1     -32.814   6.534   6.739  1.00 20.00    -0.190 F 
ENDROOT
BRANCH   1   4
HETATM    4  C1  UNL     1     -34.580   5.685   5.465  1.00 20.00     0.434 C 
HETATM    5  F4  UNL     1     -35.628   6.067   4.692  1.00 20.00    -0.207 F 
HETATM    6  F5  UNL     1     -35.101   5.053   6.544  1.00 20.00    -0.207 F 
ENDBRANCH   1   4
BRANCH   1   7
HETATM    7  C3  UNL     1     -33.218   7.688   4.751  1.00 20.00     0.460 C 
HETATM    8  F8  UNL     1     -32.159   8.415   5.166  1.00 20.00    -0.165 F 
HETATM    9  F9  UNL     1     -34.121   8.540   4.220  1.00 20.00    -0.165 F 
HETATM   10  F10 UNL     1     -32.794   6.868   3.766  1.00 20.00    -0.165 F 
ENDBRANCH   1   7
TORSDOF 2
ENDMDL
