MODEL 1
REMARK VINA RESULT:      -6.0      0.000      0.000
REMARK  0 active torsions:
REMARK  status: ('A' for Active; 'I' for Inactive)
ROOT
HETATM    1  C1  UNL     1     -32.516   7.796   3.682  1.00 20.00    -0.030 A 
HETATM    2  C2  UNL     1     -32.887   8.327   4.852  1.00 20.00    -0.030 A 
HETATM    3  C3  UNL     1     -32.902   6.420   3.236  1.00 20.00     0.036 A 
HETATM    4  C4  UNL     1     -33.733   7.609   5.858  1.00 20.00     0.036 A 
HETATM    5  C5  UNL     1     -35.272   6.248   4.275  1.00 20.00     0.020 A 
HETATM    6  C6  UNL     1     -33.888   5.658   4.105  1.00 20.00    -0.032 A 
HETATM    7  C7  UNL     1     -34.313   6.265   5.447  1.00 20.00    -0.032 A 
HETATM    8  C8  UNL     1     -33.793   4.161   3.942  1.00 20.00     0.016 C 
HETATM    9  C9  UNL     1     -34.641   5.374   6.619  1.00 20.00     0.016 C 
ENDROOT
TORSDOF 0
ENDMDL
MODEL 2
REMARK VINA RESULT:      -5.5      1.014      3.472
REMARK  0 active torsions:
REMARK  status: ('A' for Active; 'I' for Inactive)
ROOT
HETATM    1  C1  UNL     1     -34.530   5.773   6.402  1.00 20.00    -0.030 A 
HETATM    2  C2  UNL     1     -34.581   4.965   5.338  1.00 20.00    -0.030 A 
HETATM    3  C3  UNL     1     -33.866   7.115   6.395  1.00 20.00     0.036 A 
HETATM    4  C4  UNL     1     -33.979   5.304   4.009  1.00 20.00     0.036 A 
HETATM    5  C5  UNL     1     -34.379   7.867   3.966  1.00 20.00     0.020 A 
HETATM    6  C6  UNL     1     -33.358   7.632   5.059  1.00 20.00    -0.032 A 
HETATM    7  C7  UNL     1     -33.415   6.706   3.838  1.00 20.00    -0.032 A 
HETATM    8  C8  UNL     1     -32.249   8.646   5.195  1.00 20.00     0.016 C 
HETATM    9  C9  UNL     1     -32.365   6.798   2.760  1.00 20.00     0.016 C 
ENDROOT
TORSDOF 0
ENDMDL
MODEL 3
REMARK VINA RESULT:      -5.4      0.761      2.169
REMARK  0 active torsions:
REMARK  status: ('A' for Active; 'I' for Inactive)
ROOT
HETATM    1  C1  UNL     1     -32.971   5.156   2.777  1.00 20.00    -0.030 A 
HETATM    2  C2  UNL     1     -32.566   6.428   2.711  1.00 20.00    -0.030 A 
HETATM    3  C3  UNL     1     -33.795   4.604   3.899  1.00 20.00     0.036 A 
HETATM    4  C4  UNL     1     -32.886   7.456   3.752  1.00 20.00     0.036 A 
HETATM    5  C5  UNL     1     -35.257   6.673   4.454  1.00 20.00     0.020 A 
HETATM    6  C6  UNL     1     -34.312   5.591   4.932  1.00 20.00    -0.032 A 
HETATM    7  C7  UNL     1     -33.847   7.050   4.858  1.00 20.00    -0.032 A 
HETATM    8  C8  UNL     1     -34.612   4.954   6.267  1.00 20.00     0.016 C 
HETATM    9  C9  UNL     1     -33.686   7.866   6.116  1.00 20.00     0.016 C 
ENDROOT
TORSDOF 0
ENDMDL
MODEL 4
REMARK VINA RESULT:      -4.8      0.788      2.198
REMARK  0 active torsions:
REMARK  status: ('A' for Active; 'I' for Inactive)
ROOT
HETATM    1  C1  UNL     1     -33.818   7.855   6.229  1.00 20.00    -0.030 A 
HETATM    2  C2  UNL     1     -34.316   6.810   6.898  1.00 20.00    -0.030 A 
HETATM    3  C3  UNL     1     -33.396   7.797   4.793  1.00 20.00     0.036 A 
HETATM    4  C4  UNL     1     -34.511   5.454   6.292  1.00 20.00     0.036 A 
HETATM    5  C5  UNL     1     -35.146   6.121   3.868  1.00 20.00     0.020 A 
HETATM    6  C6  UNL     1     -33.694   6.516   4.032  1.00 20.00    -0.032 A 
HETATM    7  C7  UNL     1     -34.263   5.317   4.799  1.00 20.00    -0.032 A 
HETATM    8  C8  UNL     1     -32.783   6.301   2.848  1.00 20.00     0.016 C 
HETATM    9  C9  UNL     1     -33.921   3.909   4.378  1.00 20.00     0.016 C 
ENDROOT
TORSDOF 0
ENDMDL
MODEL 5
REMARK VINA RESULT:      -3.9     16.310     17.268
REMARK  0 active torsions:
REMARK  status: ('A' for Active; 'I' for Inactive)
ROOT
HETATM    1  C1  UNL     1     -25.215  19.263   9.680  1.00 20.00    -0.030 A 
HETATM    2  C2  UNL     1     -25.319  18.943  10.974  1.00 20.00    -0.030 A 
HETATM    3  C3  UNL     1     -23.922  19.263   8.926  1.00 20.00     0.036 A 
HETATM    4  C4  UNL     1     -24.153  18.546  11.826  1.00 20.00     0.036 A 
HETATM    5  C5  UNL     1     -22.718  17.276  10.079  1.00 20.00     0.020 A 
HETATM    6  C6  UNL     1     -22.696  18.726   9.647  1.00 20.00    -0.032 A 
HETATM    7  C7  UNL     1     -22.814  18.360  11.131  1.00 20.00    -0.032 A 
HETATM    8  C8  UNL     1     -21.398  19.261   9.095  1.00 20.00     0.016 C 
HETATM    9  C9  UNL     1     -21.634  18.529  12.056  1.00 20.00     0.016 C 
ENDROOT
TORSDOF 0
ENDMDL
MODEL 6
REMARK VINA RESULT:      -3.8     15.976     16.910
REMARK  0 active torsions:
REMARK  status: ('A' for Active; 'I' for Inactive)
ROOT
HETATM    1  C1  UNL     1     -23.125  19.232   8.052  1.00 20.00    -0.030 A 
HETATM    2  C2  UNL     1     -24.444  19.262   8.268  1.00 20.00    -0.030 A 
HETATM    3  C3  UNL     1     -22.121  18.853   9.096  1.00 20.00     0.036 A 
HETATM    4  C4  UNL     1     -25.077  18.922   9.582  1.00 20.00     0.036 A 
HETATM    5  C5  UNL     1     -23.467  17.059  10.398  1.00 20.00     0.020 A 
HETATM    6  C6  UNL     1     -22.657  18.337  10.422  1.00 20.00    -0.032 A 
HETATM    7  C7  UNL     1     -24.169  18.373  10.670  1.00 20.00    -0.032 A 
HETATM    8  C8  UNL     1     -21.691  18.520  11.566  1.00 20.00     0.016 C 
HETATM    9  C9  UNL     1     -24.709  18.590  12.062  1.00 20.00     0.016 C 
ENDROOT
TORSDOF 0
ENDMDL
MODEL 7
REMARK VINA RESULT:      -3.8      1.092      2.692
REMARK  0 active torsions:
REMARK  status: ('A' for Active; 'I' for Inactive)
ROOT
HETATM    1  C1  UNL     1     -31.924   7.243   2.915  1.00 20.00    -0.030 A 
HETATM    2  C2  UNL     1     -32.455   6.054   2.611  1.00 20.00    -0.030 A 
HETATM    3  C3  UNL     1     -32.440   8.128   4.006  1.00 20.00     0.036 A 
HETATM    4  C4  UNL     1     -33.631   5.463   3.327  1.00 20.00     0.036 A 
HETATM    5  C5  UNL     1     -33.195   6.341   5.728  1.00 20.00     0.020 A 
HETATM    6  C6  UNL     1     -33.531   7.564   4.902  1.00 20.00    -0.032 A 
HETATM    7  C7  UNL     1     -34.141   6.201   4.554  1.00 20.00    -0.032 A 
HETATM    8  C8  UNL     1     -34.373   8.630   5.559  1.00 20.00     0.016 C 
HETATM    9  C9  UNL     1     -35.588   5.909   4.866  1.00 20.00     0.016 C 
ENDROOT
TORSDOF 0
ENDMDL
MODEL 8
REMARK VINA RESULT:      -3.8     15.411     16.280
REMARK  0 active torsions:
REMARK  status: ('A' for Active; 'I' for Inactive)
ROOT
HETATM    1  C1  UNL     1     -24.133  19.072   9.033  1.00 20.00    -0.030 A 
HETATM    2  C2  UNL     1     -23.243  18.074   9.009  1.00 20.00    -0.030 A 
HETATM    3  C3  UNL     1     -25.135  19.263  10.129  1.00 20.00     0.036 A 
HETATM    4  C4  UNL     1     -23.142  17.026  10.073  1.00 20.00     0.036 A 
HETATM    5  C5  UNL     1     -23.756  18.434  12.163  1.00 20.00     0.020 A 
HETATM    6  C6  UNL     1     -25.024  18.352  11.340  1.00 20.00    -0.032 A 
HETATM    7  C7  UNL     1     -24.005  17.207  11.312  1.00 20.00    -0.032 A 
HETATM    8  C8  UNL     1     -26.324  18.197  12.091  1.00 20.00     0.016 C 
HETATM    9  C9  UNL     1     -24.289  15.913  12.035  1.00 20.00     0.016 C 
ENDROOT
TORSDOF 0
ENDMDL
MODEL 9
REMARK VINA RESULT:      -3.6     12.470     13.890
REMARK  0 active torsions:
REMARK  status: ('A' for Active; 'I' for Inactive)
ROOT
HETATM    1  C1  UNL     1     -34.833  16.052  -5.428  1.00 20.00    -0.030 A 
HETATM    2  C2  UNL     1     -33.874  15.369  -4.795  1.00 20.00    -0.030 A 
HETATM    3  C3  UNL     1     -35.426  17.325  -4.909  1.00 20.00     0.036 A 
HETATM    4  C4  UNL     1     -33.277  15.793  -3.489  1.00 20.00     0.036 A 
HETATM    5  C5  UNL     1     -33.343  18.371  -3.771  1.00 20.00     0.020 A 
HETATM    6  C6  UNL     1     -34.789  17.935  -3.670  1.00 20.00    -0.032 A 
HETATM    7  C7  UNL     1     -33.690  17.151  -2.944  1.00 20.00    -0.032 A 
HETATM    8  C8  UNL     1     -35.726  18.829  -2.897  1.00 20.00     0.016 C 
HETATM    9  C9  UNL     1     -33.533  17.265  -1.448  1.00 20.00     0.016 C 
ENDROOT
TORSDOF 0
ENDMDL
