MODEL 1
REMARK VINA RESULT:      -3.7      0.000      0.000
REMARK  6 active torsions:
REMARK  status: ('A' for Active; 'I' for Inactive)
REMARK    1  A    between atoms: C1_1  and  C10_10 
REMARK    2  A    between atoms: C7_7  and  C8_8 
REMARK    3  A    between atoms: C8_8  and  C12_12 
REMARK    4  A    between atoms: C9_9  and  C10_10 
REMARK    5  A    between atoms: C9_9  and  C12_12 
REMARK    6  A    between atoms: C10_10  and  C11_11 
ROOT
HETATM    1  C10 UNL     1     -40.559  13.607   6.232  1.00 20.00     0.058 C 
ENDROOT
BRANCH   1   2
HETATM    2  C1  UNL     1     -39.616  12.414   6.065  1.00 20.00     0.127 C 
HETATM    3  C2  UNL     1     -39.425  11.888   4.665  1.00 20.00     0.091 C 
HETATM    4  O13 UNL     1     -39.017  11.911   7.015  1.00 20.00    -0.298 OA
ENDBRANCH   1   2
BRANCH   1   5
HETATM    5  C9  UNL     1     -40.764  13.914   7.731  1.00 20.00     0.016 C 
BRANCH   5   6
HETATM    6  C12 UNL     1     -40.468  15.376   8.153  1.00 20.00    -0.018 C 
HETATM    7  C6  UNL     1     -40.057  15.388   9.632  1.00 20.00     0.010 C 
BRANCH   6   8
HETATM    8  C8  UNL     1     -41.676  16.304   7.895  1.00 20.00     0.004 C 
BRANCH   8   9
HETATM    9  C7  UNL     1     -41.505  17.331   6.770  1.00 20.00    -0.004 C 
HETATM   10  C3  UNL     1     -40.401  18.342   7.037  1.00 20.00     0.005 C 
ENDBRANCH   8   9
ENDBRANCH   6   8
ENDBRANCH   5   6
ENDBRANCH   1   5
BRANCH   1  11
HETATM   11  C11 UNL     1     -41.904  13.405   5.481  1.00 20.00    -0.012 C 
HETATM   12  C4  UNL     1     -43.070  13.199   6.455  1.00 20.00     0.010 C 
HETATM   13  C5  UNL     1     -42.257  14.510   4.482  1.00 20.00     0.010 C 
ENDBRANCH   1  11
TORSDOF 6
ENDMDL
MODEL 2
REMARK VINA RESULT:      -3.6     12.023     13.667
REMARK  6 active torsions:
REMARK  status: ('A' for Active; 'I' for Inactive)
REMARK    1  A    between atoms: C1_1  and  C10_10 
REMARK    2  A    between atoms: C7_7  and  C8_8 
REMARK    3  A    between atoms: C8_8  and  C12_12 
REMARK    4  A    between atoms: C9_9  and  C10_10 
REMARK    5  A    between atoms: C9_9  and  C12_12 
REMARK    6  A    between atoms: C10_10  and  C11_11 
ROOT
HETATM    1  C10 UNL     1     -35.203  16.282  -5.700  1.00 20.00     0.058 C 
ENDROOT
BRANCH   1   2
HETATM    2  C1  UNL     1     -36.694  16.456  -5.403  1.00 20.00     0.127 C 
HETATM    3  C2  UNL     1     -37.101  17.712  -4.674  1.00 20.00     0.091 C 
HETATM    4  O13 UNL     1     -37.536  15.630  -5.755  1.00 20.00    -0.298 OA
ENDBRANCH   1   2
BRANCH   1   5
HETATM    5  C9  UNL     1     -34.364  17.084  -4.681  1.00 20.00     0.016 C 
BRANCH   5   6
HETATM    6  C12 UNL     1     -33.379  16.243  -3.828  1.00 20.00    -0.018 C 
HETATM    7  C6  UNL     1     -33.571  14.761  -4.174  1.00 20.00     0.010 C 
BRANCH   6   8
HETATM    8  C8  UNL     1     -33.566  16.499  -2.317  1.00 20.00     0.004 C 
BRANCH   8   9
HETATM    9  C7  UNL     1     -32.872  17.747  -1.757  1.00 20.00    -0.004 C 
HETATM   10  C3  UNL     1     -33.376  18.153  -0.381  1.00 20.00     0.005 C 
ENDBRANCH   8   9
ENDBRANCH   6   8
ENDBRANCH   5   6
ENDBRANCH   1   5
BRANCH   1  11
HETATM   11  C11 UNL     1     -34.849  16.641  -7.169  1.00 20.00    -0.012 C 
HETATM   12  C4  UNL     1     -34.306  18.070  -7.287  1.00 20.00     0.010 C 
HETATM   13  C5  UNL     1     -33.889  15.667  -7.857  1.00 20.00     0.010 C 
ENDBRANCH   1  11
TORSDOF 6
ENDMDL
MODEL 3
REMARK VINA RESULT:      -3.5      1.532      4.743
REMARK  6 active torsions:
REMARK  status: ('A' for Active; 'I' for Inactive)
REMARK    1  A    between atoms: C1_1  and  C10_10 
REMARK    2  A    between atoms: C7_7  and  C8_8 
REMARK    3  A    between atoms: C8_8  and  C12_12 
REMARK    4  A    between atoms: C9_9  and  C10_10 
REMARK    5  A    between atoms: C9_9  and  C12_12 
REMARK    6  A    between atoms: C10_10  and  C11_11 
ROOT
HETATM    1  C10 UNL     1     -41.543  15.000   8.224  1.00 20.00     0.058 C 
ENDROOT
BRANCH   1   2
HETATM    2  C1  UNL     1     -41.258  14.344   9.577  1.00 20.00     0.127 C 
HETATM    3  C2  UNL     1     -40.276  15.046  10.480  1.00 20.00     0.091 C 
HETATM    4  O13 UNL     1     -41.813  13.305   9.934  1.00 20.00    -0.298 OA
ENDBRANCH   1   2
BRANCH   1   5
HETATM    5  C9  UNL     1     -40.492  14.549   7.186  1.00 20.00     0.016 C 
BRANCH   5   6
HETATM    6  C12 UNL     1     -41.036  13.653   6.042  1.00 20.00    -0.018 C 
HETATM    7  C6  UNL     1     -42.567  13.619   6.130  1.00 20.00     0.010 C 
BRANCH   6   8
HETATM    8  C8  UNL     1     -40.435  12.232   6.092  1.00 20.00     0.004 C 
BRANCH   8   9
HETATM    9  C7  UNL     1     -39.023  12.079   5.514  1.00 20.00    -0.004 C 
HETATM   10  C3  UNL     1     -39.010  11.680   4.046  1.00 20.00     0.005 C 
ENDBRANCH   8   9
ENDBRANCH   6   8
ENDBRANCH   5   6
ENDBRANCH   1   5
BRANCH   1  11
HETATM   11  C11 UNL     1     -41.643  16.546   8.329  1.00 20.00    -0.012 C 
HETATM   12  C4  UNL     1     -40.693  17.243   7.348  1.00 20.00     0.010 C 
HETATM   13  C5  UNL     1     -43.056  17.113   8.166  1.00 20.00     0.010 C 
ENDBRANCH   1  11
TORSDOF 6
ENDMDL
MODEL 4
REMARK VINA RESULT:      -3.5     11.981     13.468
REMARK  6 active torsions:
REMARK  status: ('A' for Active; 'I' for Inactive)
REMARK    1  A    between atoms: C1_1  and  C10_10 
REMARK    2  A    between atoms: C7_7  and  C8_8 
REMARK    3  A    between atoms: C8_8  and  C12_12 
REMARK    4  A    between atoms: C9_9  and  C10_10 
REMARK    5  A    between atoms: C9_9  and  C12_12 
REMARK    6  A    between atoms: C10_10  and  C11_11 
ROOT
HETATM    1  C10 UNL     1     -34.350  16.088  -5.344  1.00 20.00     0.058 C 
ENDROOT
BRANCH   1   2
HETATM    2  C1  UNL     1     -34.456  14.662  -4.800  1.00 20.00     0.127 C 
HETATM    3  C2  UNL     1     -35.804  13.995  -4.898  1.00 20.00     0.091 C 
HETATM    4  O13 UNL     1     -33.490  14.066  -4.323  1.00 20.00    -0.298 OA
ENDBRANCH   1   2
BRANCH   1   5
HETATM    5  C9  UNL     1     -35.135  17.060  -4.436  1.00 20.00     0.016 C 
BRANCH   5   6
HETATM    6  C12 UNL     1     -34.267  17.912  -3.475  1.00 20.00    -0.018 C 
HETATM    7  C6  UNL     1     -33.255  18.714  -4.304  1.00 20.00     0.010 C 
BRANCH   6   8
HETATM    8  C8  UNL     1     -33.562  17.040  -2.413  1.00 20.00     0.004 C 
BRANCH   8   9
HETATM    9  C7  UNL     1     -33.407  17.668  -1.023  1.00 20.00    -0.004 C 
HETATM   10  C3  UNL     1     -32.045  18.305  -0.795  1.00 20.00     0.005 C 
ENDBRANCH   8   9
ENDBRANCH   6   8
ENDBRANCH   5   6
ENDBRANCH   1   5
BRANCH   1  11
HETATM   11  C11 UNL     1     -34.787  16.185  -6.831  1.00 20.00    -0.012 C 
HETATM   12  C4  UNL     1     -35.069  17.635  -7.245  1.00 20.00     0.010 C 
HETATM   13  C5  UNL     1     -33.822  15.543  -7.831  1.00 20.00     0.010 C 
ENDBRANCH   1  11
TORSDOF 6
ENDMDL
MODEL 5
REMARK VINA RESULT:      -3.4      2.021      4.841
REMARK  6 active torsions:
REMARK  status: ('A' for Active; 'I' for Inactive)
REMARK    1  A    between atoms: C1_1  and  C10_10 
REMARK    2  A    between atoms: C7_7  and  C8_8 
REMARK    3  A    between atoms: C8_8  and  C12_12 
REMARK    4  A    between atoms: C9_9  and  C10_10 
REMARK    5  A    between atoms: C9_9  and  C12_12 
REMARK    6  A    between atoms: C10_10  and  C11_11 
ROOT
HETATM    1  C10 UNL     1     -41.222  15.604   7.451  1.00 20.00     0.058 C 
ENDROOT
BRANCH   1   2
HETATM    2  C1  UNL     1     -41.200  17.060   6.981  1.00 20.00     0.127 C 
HETATM    3  C2  UNL     1     -42.209  17.452   5.932  1.00 20.00     0.091 C 
HETATM    4  O13 UNL     1     -40.417  17.889   7.444  1.00 20.00    -0.298 OA
ENDBRANCH   1   2
BRANCH   1   5
HETATM    5  C9  UNL     1     -42.305  14.817   6.680  1.00 20.00     0.016 C 
BRANCH   5   6
HETATM    6  C12 UNL     1     -41.850  13.445   6.119  1.00 20.00    -0.018 C 
HETATM    7  C6  UNL     1     -42.532  12.332   6.925  1.00 20.00     0.010 C 
BRANCH   6   8
HETATM    8  C8  UNL     1     -40.313  13.297   6.142  1.00 20.00     0.004 C 
BRANCH   8   9
HETATM    9  C7  UNL     1     -39.769  11.891   5.858  1.00 20.00    -0.004 C 
HETATM   10  C3  UNL     1     -39.223  11.727   4.449  1.00 20.00     0.005 C 
ENDBRANCH   8   9
ENDBRANCH   6   8
ENDBRANCH   5   6
ENDBRANCH   1   5
BRANCH   1  11
HETATM   11  C11 UNL     1     -41.389  15.483   8.990  1.00 20.00    -0.012 C 
HETATM   12  C4  UNL     1     -42.840  15.183   9.381  1.00 20.00     0.010 C 
HETATM   13  C5  UNL     1     -40.455  14.474   9.663  1.00 20.00     0.010 C 
ENDBRANCH   1  11
TORSDOF 6
ENDMDL
MODEL 6
REMARK VINA RESULT:      -3.4      1.186      2.527
REMARK  6 active torsions:
REMARK  status: ('A' for Active; 'I' for Inactive)
REMARK    1  A    between atoms: C1_1  and  C10_10 
REMARK    2  A    between atoms: C7_7  and  C8_8 
REMARK    3  A    between atoms: C8_8  and  C12_12 
REMARK    4  A    between atoms: C9_9  and  C10_10 
REMARK    5  A    between atoms: C9_9  and  C12_12 
REMARK    6  A    between atoms: C10_10  and  C11_11 
ROOT
HETATM    1  C10 UNL     1     -40.701  13.535   6.520  1.00 20.00     0.058 C 
ENDROOT
BRANCH   1   2
HETATM    2  C1  UNL     1     -39.686  12.445   6.171  1.00 20.00     0.127 C 
HETATM    3  C2  UNL     1     -39.585  12.049   4.720  1.00 20.00     0.091 C 
HETATM    4  O13 UNL     1     -38.963  11.923   7.019  1.00 20.00    -0.298 OA
ENDBRANCH   1   2
BRANCH   1   5
HETATM    5  C9  UNL     1     -40.577  13.915   8.012  1.00 20.00     0.016 C 
BRANCH   5   6
HETATM    6  C12 UNL     1     -41.141  15.310   8.388  1.00 20.00    -0.018 C 
HETATM    7  C6  UNL     1     -40.444  16.371   7.527  1.00 20.00     0.010 C 
BRANCH   6   8
HETATM    8  C8  UNL     1     -40.976  15.608   9.895  1.00 20.00     0.004 C 
BRANCH   8   9
HETATM    9  C7  UNL     1     -40.570  14.419  10.773  1.00 20.00    -0.004 C 
HETATM   10  C3  UNL     1     -41.740  13.779  11.504  1.00 20.00     0.005 C 
ENDBRANCH   8   9
ENDBRANCH   6   8
ENDBRANCH   5   6
ENDBRANCH   1   5
BRANCH   1  11
HETATM   11  C11 UNL     1     -42.151  13.137   6.131  1.00 20.00    -0.012 C 
HETATM   12  C4  UNL     1     -42.878  12.446   7.290  1.00 20.00     0.010 C 
HETATM   13  C5  UNL     1     -43.012  14.283   5.594  1.00 20.00     0.010 C 
ENDBRANCH   1  11
TORSDOF 6
ENDMDL
MODEL 7
REMARK VINA RESULT:      -3.3     11.642     13.306
REMARK  6 active torsions:
REMARK  status: ('A' for Active; 'I' for Inactive)
REMARK    1  A    between atoms: C1_1  and  C10_10 
REMARK    2  A    between atoms: C7_7  and  C8_8 
REMARK    3  A    between atoms: C8_8  and  C12_12 
REMARK    4  A    between atoms: C9_9  and  C10_10 
REMARK    5  A    between atoms: C9_9  and  C12_12 
REMARK    6  A    between atoms: C10_10  and  C11_11 
ROOT
HETATM    1  C10 UNL     1     -34.481  16.184  -4.393  1.00 20.00     0.058 C 
ENDROOT
BRANCH   1   2
HETATM    2  C1  UNL     1     -34.308  14.664  -4.447  1.00 20.00     0.127 C 
HETATM    3  C2  UNL     1     -35.557  13.844  -4.651  1.00 20.00     0.091 C 
HETATM    4  O13 UNL     1     -33.206  14.123  -4.354  1.00 20.00    -0.298 OA
ENDBRANCH   1   2
BRANCH   1   5
HETATM    5  C9  UNL     1     -34.582  16.755  -5.824  1.00 20.00     0.016 C 
BRANCH   5   6
HETATM    6  C12 UNL     1     -35.951  17.385  -6.189  1.00 20.00    -0.018 C 
HETATM    7  C6  UNL     1     -35.711  18.788  -6.762  1.00 20.00     0.010 C 
BRANCH   6   8
HETATM    8  C8  UNL     1     -36.905  17.427  -4.975  1.00 20.00     0.004 C 
BRANCH   8   9
HETATM    9  C7  UNL     1     -37.115  18.804  -4.333  1.00 20.00    -0.004 C 
HETATM   10  C3  UNL     1     -36.730  18.851  -2.863  1.00 20.00     0.005 C 
ENDBRANCH   8   9
ENDBRANCH   6   8
ENDBRANCH   5   6
ENDBRANCH   1   5
BRANCH   1  11
HETATM   11  C11 UNL     1     -33.368  16.874  -3.558  1.00 20.00    -0.012 C 
HETATM   12  C4  UNL     1     -33.201  18.347  -3.947  1.00 20.00     0.010 C 
HETATM   13  C5  UNL     1     -33.534  16.757  -2.041  1.00 20.00     0.010 C 
ENDBRANCH   1  11
TORSDOF 6
ENDMDL
MODEL 8
REMARK VINA RESULT:      -3.3     11.880     13.426
REMARK  6 active torsions:
REMARK  status: ('A' for Active; 'I' for Inactive)
REMARK    1  A    between atoms: C1_1  and  C10_10 
REMARK    2  A    between atoms: C7_7  and  C8_8 
REMARK    3  A    between atoms: C8_8  and  C12_12 
REMARK    4  A    between atoms: C9_9  and  C10_10 
REMARK    5  A    between atoms: C9_9  and  C12_12 
REMARK    6  A    between atoms: C10_10  and  C11_11 
ROOT
HETATM    1  C10 UNL     1     -35.290  16.417  -5.023  1.00 20.00     0.058 C 
ENDROOT
BRANCH   1   2
HETATM    2  C1  UNL     1     -36.654  16.487  -5.712  1.00 20.00     0.127 C 
HETATM    3  C2  UNL     1     -36.962  17.745  -6.485  1.00 20.00     0.091 C 
HETATM    4  O13 UNL     1     -37.463  15.561  -5.667  1.00 20.00    -0.298 OA
ENDBRANCH   1   2
BRANCH   1   5
HETATM    5  C9  UNL     1     -34.497  17.715  -5.288  1.00 20.00     0.016 C 
BRANCH   5   6
HETATM    6  C12 UNL     1     -34.326  18.648  -4.061  1.00 20.00    -0.018 C 
HETATM    7  C6  UNL     1     -32.868  19.120  -4.001  1.00 20.00     0.010 C 
BRANCH   6   8
HETATM    8  C8  UNL     1     -34.749  17.952  -2.749  1.00 20.00     0.004 C 
BRANCH   8   9
HETATM    9  C7  UNL     1     -33.609  17.407  -1.881  1.00 20.00    -0.004 C 
HETATM   10  C3  UNL     1     -33.613  17.956  -0.463  1.00 20.00     0.005 C 
ENDBRANCH   8   9
ENDBRANCH   6   8
ENDBRANCH   5   6
ENDBRANCH   1   5
BRANCH   1  11
HETATM   11  C11 UNL     1     -34.492  15.146  -5.423  1.00 20.00    -0.012 C 
HETATM   12  C4  UNL     1     -33.895  15.271  -6.829  1.00 20.00     0.010 C 
HETATM   13  C5  UNL     1     -33.399  14.734  -4.434  1.00 20.00     0.010 C 
ENDBRANCH   1  11
TORSDOF 6
ENDMDL
MODEL 9
REMARK VINA RESULT:      -3.3     11.388     13.188
REMARK  6 active torsions:
REMARK  status: ('A' for Active; 'I' for Inactive)
REMARK    1  A    between atoms: C1_1  and  C10_10 
REMARK    2  A    between atoms: C7_7  and  C8_8 
REMARK    3  A    between atoms: C8_8  and  C12_12 
REMARK    4  A    between atoms: C9_9  and  C10_10 
REMARK    5  A    between atoms: C9_9  and  C12_12 
REMARK    6  A    between atoms: C10_10  and  C11_11 
ROOT
HETATM    1  C10 UNL     1     -34.467  16.398  -4.311  1.00 20.00     0.058 C 
ENDROOT
BRANCH   1   2
HETATM    2  C1  UNL     1     -33.997  15.109  -4.988  1.00 20.00     0.127 C 
HETATM    3  C2  UNL     1     -33.965  15.106  -6.496  1.00 20.00     0.091 C 
HETATM    4  O13 UNL     1     -33.637  14.122  -4.347  1.00 20.00    -0.298 OA
ENDBRANCH   1   2
BRANCH   1   5
HETATM    5  C9  UNL     1     -35.066  17.359  -5.361  1.00 20.00     0.016 C 
BRANCH   5   6
HETATM    6  C12 UNL     1     -36.595  17.589  -5.250  1.00 20.00    -0.018 C 
HETATM    7  C6  UNL     1     -36.892  18.290  -3.917  1.00 20.00     0.010 C 
BRANCH   6   8
HETATM    8  C8  UNL     1     -37.385  16.269  -5.382  1.00 20.00     0.004 C 
BRANCH   8   9
HETATM    9  C7  UNL     1     -38.830  16.297  -4.869  1.00 20.00    -0.004 C 
HETATM   10  C3  UNL     1     -39.236  15.029  -4.135  1.00 20.00     0.005 C 
ENDBRANCH   8   9
ENDBRANCH   6   8
ENDBRANCH   5   6
ENDBRANCH   1   5
BRANCH   1  11
HETATM   11  C11 UNL     1     -33.344  17.066  -3.472  1.00 20.00    -0.012 C 
HETATM   12  C4  UNL     1     -33.165  18.543  -3.840  1.00 20.00     0.010 C 
HETATM   13  C5  UNL     1     -33.504  16.929  -1.955  1.00 20.00     0.010 C 
ENDBRANCH   1  11
TORSDOF 6
ENDMDL
