MODEL 1
REMARK VINA RESULT:      -4.0      0.000      0.000
REMARK  4 active torsions:
REMARK  status: ('A' for Active; 'I' for Inactive)
REMARK    1  A    between atoms: C2_2  and  C8_8 
REMARK    2  A    between atoms: C3_3  and  C9_9 
REMARK    3  A    between atoms: C8_8  and  C9_9 
REMARK    4  A    between atoms: C9_9  and  C10_10 
ROOT
HETATM    1  C9  UNL     1     -40.752  13.829   6.205  1.00 20.00     0.062 C 
ENDROOT
BRANCH   1   2
HETATM    2  C3  UNL     1     -40.465  14.277   7.642  1.00 20.00     0.127 C 
HETATM    3  C5  UNL     1     -40.501  15.761   7.910  1.00 20.00     0.091 C 
HETATM    4  O11 UNL     1     -40.194  13.481   8.541  1.00 20.00    -0.298 OA
ENDBRANCH   1   2
BRANCH   1   5
HETATM    5  C8  UNL     1     -40.474  12.321   6.027  1.00 20.00     0.045 C 
BRANCH   5   6
HETATM    6  C2  UNL     1     -39.157  12.020   5.339  1.00 20.00    -0.092 C 
HETATM    7  C1  UNL     1     -37.984  12.138   5.982  1.00 20.00     0.014 C 
HETATM    8  C4  UNL     1     -39.214  11.630   3.890  1.00 20.00     0.042 C 
ENDBRANCH   5   6
ENDBRANCH   1   5
BRANCH   1   9
HETATM    9  C10 UNL     1     -42.189  14.264   5.809  1.00 20.00    -0.011 C 
HETATM   10  C6  UNL     1     -43.234  13.285   6.357  1.00 20.00     0.010 C 
HETATM   11  C7  UNL     1     -42.390  14.443   4.302  1.00 20.00     0.010 C 
ENDBRANCH   1   9
TORSDOF 4
ENDMDL
MODEL 2
REMARK VINA RESULT:      -3.7      9.436     10.361
REMARK  4 active torsions:
REMARK  status: ('A' for Active; 'I' for Inactive)
REMARK    1  A    between atoms: C2_2  and  C8_8 
REMARK    2  A    between atoms: C3_3  and  C9_9 
REMARK    3  A    between atoms: C8_8  and  C9_9 
REMARK    4  A    between atoms: C9_9  and  C10_10 
ROOT
HETATM    1  C9  UNL     1     -33.224   7.403   3.776  1.00 20.00     0.062 C 
ENDROOT
BRANCH   1   2
HETATM    2  C3  UNL     1     -32.975   8.063   5.138  1.00 20.00     0.127 C 
HETATM    3  C5  UNL     1     -33.551   7.365   6.344  1.00 20.00     0.091 C 
HETATM    4  O11 UNL     1     -32.359   9.122   5.256  1.00 20.00    -0.298 OA
ENDBRANCH   1   2
BRANCH   1   5
HETATM    5  C8  UNL     1     -32.031   7.631   2.823  1.00 20.00     0.045 C 
BRANCH   5   6
HETATM    6  C2  UNL     1     -32.368   8.483   1.615  1.00 20.00    -0.092 C 
HETATM    7  C1  UNL     1     -32.022   8.110   0.373  1.00 20.00     0.014 C 
HETATM    8  C4  UNL     1     -33.065   9.789   1.871  1.00 20.00     0.042 C 
ENDBRANCH   5   6
ENDBRANCH   1   5
BRANCH   1   9
HETATM    9  C10 UNL     1     -33.594   5.911   3.989  1.00 20.00    -0.011 C 
HETATM   10  C6  UNL     1     -33.163   5.057   2.792  1.00 20.00     0.010 C 
HETATM   11  C7  UNL     1     -35.078   5.676   4.283  1.00 20.00     0.010 C 
ENDBRANCH   1   9
TORSDOF 4
ENDMDL
MODEL 3
REMARK VINA RESULT:      -3.7      1.333      3.764
REMARK  4 active torsions:
REMARK  status: ('A' for Active; 'I' for Inactive)
REMARK    1  A    between atoms: C2_2  and  C8_8 
REMARK    2  A    between atoms: C3_3  and  C9_9 
REMARK    3  A    between atoms: C8_8  and  C9_9 
REMARK    4  A    between atoms: C9_9  and  C10_10 
ROOT
HETATM    1  C9  UNL     1     -40.905  13.303   6.993  1.00 20.00     0.062 C 
ENDROOT
BRANCH   1   2
HETATM    2  C3  UNL     1     -39.805  12.430   6.378  1.00 20.00     0.127 C 
HETATM    3  C5  UNL     1     -39.879  12.195   4.890  1.00 20.00     0.091 C 
HETATM    4  O11 UNL     1     -38.911  11.920   7.053  1.00 20.00    -0.298 OA
ENDBRANCH   1   2
BRANCH   1   5
HETATM    5  C8  UNL     1     -40.557  14.802   6.873  1.00 20.00     0.045 C 
BRANCH   5   6
HETATM    6  C2  UNL     1     -40.482  15.521   8.206  1.00 20.00    -0.092 C 
HETATM    7  C1  UNL     1     -40.211  14.864   9.344  1.00 20.00     0.014 C 
HETATM    8  C4  UNL     1     -40.773  16.994   8.207  1.00 20.00     0.042 C 
ENDBRANCH   5   6
ENDBRANCH   1   5
BRANCH   1   9
HETATM    9  C10 UNL     1     -42.274  12.914   6.373  1.00 20.00    -0.011 C 
HETATM   10  C6  UNL     1     -43.020  14.150   5.859  1.00 20.00     0.010 C 
HETATM   11  C7  UNL     1     -43.180  12.121   7.319  1.00 20.00     0.010 C 
ENDBRANCH   1   9
TORSDOF 4
ENDMDL
MODEL 4
REMARK VINA RESULT:      -3.6      1.226      3.820
REMARK  4 active torsions:
REMARK  status: ('A' for Active; 'I' for Inactive)
REMARK    1  A    between atoms: C2_2  and  C8_8 
REMARK    2  A    between atoms: C3_3  and  C9_9 
REMARK    3  A    between atoms: C8_8  and  C9_9 
REMARK    4  A    between atoms: C9_9  and  C10_10 
ROOT
HETATM    1  C9  UNL     1     -40.644  13.801   6.460  1.00 20.00     0.062 C 
ENDROOT
BRANCH   1   2
HETATM    2  C3  UNL     1     -39.760  12.574   6.206  1.00 20.00     0.127 C 
HETATM    3  C5  UNL     1     -39.705  12.060   4.789  1.00 20.00     0.091 C 
HETATM    4  O11 UNL     1     -39.138  12.010   7.106  1.00 20.00    -0.298 OA
ENDBRANCH   1   2
BRANCH   1   5
HETATM    5  C8  UNL     1     -42.008  13.659   5.749  1.00 20.00     0.045 C 
BRANCH   5   6
HETATM    6  C2  UNL     1     -42.373  14.850   4.885  1.00 20.00    -0.092 C 
HETATM    7  C1  UNL     1     -42.392  14.766   3.545  1.00 20.00     0.014 C 
HETATM    8  C4  UNL     1     -42.666  16.143   5.589  1.00 20.00     0.042 C 
ENDBRANCH   5   6
ENDBRANCH   1   5
BRANCH   1   9
HETATM    9  C10 UNL     1     -40.744  14.053   7.988  1.00 20.00    -0.011 C 
HETATM   10  C6  UNL     1     -42.169  13.811   8.497  1.00 20.00     0.010 C 
HETATM   11  C7  UNL     1     -40.271  15.444   8.419  1.00 20.00     0.010 C 
ENDBRANCH   1   9
TORSDOF 4
ENDMDL
MODEL 5
REMARK VINA RESULT:      -3.6     12.119     13.327
REMARK  4 active torsions:
REMARK  status: ('A' for Active; 'I' for Inactive)
REMARK    1  A    between atoms: C2_2  and  C8_8 
REMARK    2  A    between atoms: C3_3  and  C9_9 
REMARK    3  A    between atoms: C8_8  and  C9_9 
REMARK    4  A    between atoms: C9_9  and  C10_10 
ROOT
HETATM    1  C9  UNL     1     -35.675  15.964  -5.482  1.00 20.00     0.062 C 
ENDROOT
BRANCH   1   2
HETATM    2  C3  UNL     1     -35.470  15.319  -6.857  1.00 20.00     0.127 C 
HETATM    3  C5  UNL     1     -34.519  16.016  -7.798  1.00 20.00     0.091 C 
HETATM    4  O11 UNL     1     -36.061  14.296  -7.202  1.00 20.00    -0.298 OA
ENDBRANCH   1   2
BRANCH   1   5
HETATM    5  C8  UNL     1     -34.387  16.667  -5.001  1.00 20.00     0.045 C 
BRANCH   5   6
HETATM    6  C2  UNL     1     -33.623  15.888  -3.948  1.00 20.00    -0.092 C 
HETATM    7  C1  UNL     1     -33.204  14.632  -4.168  1.00 20.00     0.014 C 
HETATM    8  C4  UNL     1     -33.396  16.564  -2.626  1.00 20.00     0.042 C 
ENDBRANCH   5   6
ENDBRANCH   1   5
BRANCH   1   9
HETATM    9  C10 UNL     1     -36.924  16.884  -5.528  1.00 20.00    -0.011 C 
HETATM   10  C6  UNL     1     -36.712  18.148  -4.689  1.00 20.00     0.010 C 
HETATM   11  C7  UNL     1     -38.221  16.191  -5.099  1.00 20.00     0.010 C 
ENDBRANCH   1   9
TORSDOF 4
ENDMDL
MODEL 6
REMARK VINA RESULT:      -3.4     12.487     13.896
REMARK  4 active torsions:
REMARK  status: ('A' for Active; 'I' for Inactive)
REMARK    1  A    between atoms: C2_2  and  C8_8 
REMARK    2  A    between atoms: C3_3  and  C9_9 
REMARK    3  A    between atoms: C8_8  and  C9_9 
REMARK    4  A    between atoms: C9_9  and  C10_10 
ROOT
HETATM    1  C9  UNL     1     -34.532  15.703  -5.786  1.00 20.00     0.062 C 
ENDROOT
BRANCH   1   2
HETATM    2  C3  UNL     1     -34.072  15.841  -7.242  1.00 20.00     0.127 C 
HETATM    3  C5  UNL     1     -34.345  17.162  -7.916  1.00 20.00     0.091 C 
HETATM    4  O11 UNL     1     -33.527  14.922  -7.852  1.00 20.00    -0.298 OA
ENDBRANCH   1   2
BRANCH   1   5
HETATM    5  C8  UNL     1     -34.601  17.081  -5.092  1.00 20.00     0.045 C 
BRANCH   5   6
HETATM    6  C2  UNL     1     -33.677  17.210  -3.897  1.00 20.00    -0.092 C 
HETATM    7  C1  UNL     1     -33.380  16.156  -3.121  1.00 20.00     0.014 C 
HETATM    8  C4  UNL     1     -33.144  18.580  -3.589  1.00 20.00     0.042 C 
ENDBRANCH   5   6
ENDBRANCH   1   5
BRANCH   1   9
HETATM    9  C10 UNL     1     -35.858  14.899  -5.741  1.00 20.00    -0.011 C 
HETATM   10  C6  UNL     1     -37.058  15.824  -5.507  1.00 20.00     0.010 C 
HETATM   11  C7  UNL     1     -35.866  13.772  -4.704  1.00 20.00     0.010 C 
ENDBRANCH   1   9
TORSDOF 4
ENDMDL
MODEL 7
REMARK VINA RESULT:      -3.3      9.484     10.617
REMARK  4 active torsions:
REMARK  status: ('A' for Active; 'I' for Inactive)
REMARK    1  A    between atoms: C2_2  and  C8_8 
REMARK    2  A    between atoms: C3_3  and  C9_9 
REMARK    3  A    between atoms: C8_8  and  C9_9 
REMARK    4  A    between atoms: C9_9  and  C10_10 
ROOT
HETATM    1  C9  UNL     1     -33.134   6.194   4.233  1.00 20.00     0.062 C 
ENDROOT
BRANCH   1   2
HETATM    2  C3  UNL     1     -33.412   4.805   3.645  1.00 20.00     0.127 C 
HETATM    3  C5  UNL     1     -33.035   4.593   2.200  1.00 20.00     0.091 C 
HETATM    4  O11 UNL     1     -33.938   3.905   4.299  1.00 20.00    -0.298 OA
ENDBRANCH   1   2
BRANCH   1   5
HETATM    5  C8  UNL     1     -32.523   7.134   3.170  1.00 20.00     0.045 C 
BRANCH   5   6
HETATM    6  C2  UNL     1     -32.514   8.593   3.580  1.00 20.00    -0.092 C 
HETATM    7  C1  UNL     1     -32.183   8.973   4.824  1.00 20.00     0.014 C 
HETATM    8  C4  UNL     1     -32.938   9.597   2.547  1.00 20.00     0.042 C 
ENDBRANCH   5   6
ENDBRANCH   1   5
BRANCH   1   9
HETATM    9  C10 UNL     1     -34.426   6.737   4.898  1.00 20.00    -0.011 C 
HETATM   10  C6  UNL     1     -34.406   6.511   6.414  1.00 20.00     0.010 C 
HETATM   11  C7  UNL     1     -35.717   6.163   4.307  1.00 20.00     0.010 C 
ENDBRANCH   1   9
TORSDOF 4
ENDMDL
MODEL 8
REMARK VINA RESULT:      -3.2     12.014     13.679
REMARK  4 active torsions:
REMARK  status: ('A' for Active; 'I' for Inactive)
REMARK    1  A    between atoms: C2_2  and  C8_8 
REMARK    2  A    between atoms: C3_3  and  C9_9 
REMARK    3  A    between atoms: C8_8  and  C9_9 
REMARK    4  A    between atoms: C9_9  and  C10_10 
ROOT
HETATM    1  C9  UNL     1     -35.212  16.352  -5.668  1.00 20.00     0.062 C 
ENDROOT
BRANCH   1   2
HETATM    2  C3  UNL     1     -36.339  15.323  -5.530  1.00 20.00     0.127 C 
HETATM    3  C5  UNL     1     -35.974  13.995  -4.915  1.00 20.00     0.091 C 
HETATM    4  O11 UNL     1     -37.486  15.543  -5.920  1.00 20.00    -0.298 OA
ENDBRANCH   1   2
BRANCH   1   5
HETATM    5  C8  UNL     1     -34.027  16.005  -4.740  1.00 20.00     0.045 C 
BRANCH   5   6
HETATM    6  C2  UNL     1     -33.828  16.993  -3.608  1.00 20.00    -0.092 C 
HETATM    7  C1  UNL     1     -33.377  16.603  -2.405  1.00 20.00     0.014 C 
HETATM    8  C4  UNL     1     -34.202  18.423  -3.873  1.00 20.00     0.042 C 
ENDBRANCH   5   6
ENDBRANCH   1   5
BRANCH   1   9
HETATM    9  C10 UNL     1     -34.828  16.496  -7.165  1.00 20.00    -0.011 C 
HETATM   10  C6  UNL     1     -33.782  15.453  -7.572  1.00 20.00     0.010 C 
HETATM   11  C7  UNL     1     -34.338  17.896  -7.547  1.00 20.00     0.010 C 
ENDBRANCH   1   9
TORSDOF 4
ENDMDL
MODEL 9
REMARK VINA RESULT:      -3.2      1.599      4.188
REMARK  4 active torsions:
REMARK  status: ('A' for Active; 'I' for Inactive)
REMARK    1  A    between atoms: C2_2  and  C8_8 
REMARK    2  A    between atoms: C3_3  and  C9_9 
REMARK    3  A    between atoms: C8_8  and  C9_9 
REMARK    4  A    between atoms: C9_9  and  C10_10 
ROOT
HETATM    1  C9  UNL     1     -40.712  13.514   6.400  1.00 20.00     0.062 C 
ENDROOT
BRANCH   1   2
HETATM    2  C3  UNL     1     -42.227  13.330   6.247  1.00 20.00     0.127 C 
HETATM    3  C5  UNL     1     -42.866  12.252   7.087  1.00 20.00     0.091 C 
HETATM    4  O11 UNL     1     -42.898  14.003   5.466  1.00 20.00    -0.298 OA
ENDBRANCH   1   2
BRANCH   1   5
HETATM    5  C8  UNL     1     -40.351  13.980   7.827  1.00 20.00     0.045 C 
BRANCH   5   6
HETATM    6  C2  UNL     1     -40.924  15.335   8.191  1.00 20.00    -0.092 C 
HETATM    7  C1  UNL     1     -40.611  16.440   7.497  1.00 20.00     0.014 C 
HETATM    8  C4  UNL     1     -41.822  15.399   9.393  1.00 20.00     0.042 C 
ENDBRANCH   5   6
ENDBRANCH   1   5
BRANCH   1   9
HETATM    9  C10 UNL     1     -39.990  12.217   5.950  1.00 20.00    -0.011 C 
HETATM   10  C6  UNL     1     -38.676  12.021   6.715  1.00 20.00     0.010 C 
HETATM   11  C7  UNL     1     -39.726  12.144   4.443  1.00 20.00     0.010 C 
ENDBRANCH   1   9
TORSDOF 4
ENDMDL
