MODEL 1
REMARK VINA RESULT:      -3.8      0.000      0.000
REMARK  6 active torsions:
REMARK  status: ('A' for Active; 'I' for Inactive)
REMARK    1  A    between atoms: C5_5  and  C6_6 
REMARK    2  A    between atoms: C5_5  and  C7_7 
REMARK    3  A    between atoms: C6_6  and  C9_9 
REMARK    4  A    between atoms: C7_7  and  O11_11 
REMARK    5  A    between atoms: C8_8  and  C9_9 
REMARK    6  A    between atoms: C9_9  and  C10_10 
ROOT
HETATM    1  C9  UNL     1     -33.067  18.063  -2.395  1.00 20.00     0.007 C 
ENDROOT
BRANCH   1   2
HETATM    2  C6  UNL     1     -33.511  16.574  -2.437  1.00 20.00     0.008 C 
BRANCH   2   3
HETATM    3  C5  UNL     1     -33.009  15.809  -3.672  1.00 20.00     0.027 C 
BRANCH   3   4
HETATM    4  C7  UNL     1     -33.998  14.742  -4.127  1.00 20.00     0.167 C 
BRANCH   4   5
HETATM    5  O11 UNL     1     -34.500  15.065  -5.415  1.00 20.00    -0.396 OA
HETATM    6  C4  UNL     1     -35.812  14.554  -5.608  1.00 20.00     0.201 C 
ENDBRANCH   4   5
ENDBRANCH   3   4
ENDBRANCH   2   3
ENDBRANCH   1   2
BRANCH   1   7
HETATM    7  C8  UNL     1     -32.789  18.582  -0.944  1.00 20.00    -0.017 C 
HETATM    8  C1  UNL     1     -33.745  17.975   0.091  1.00 20.00     0.010 C 
HETATM    9  C2  UNL     1     -31.347  18.436  -0.452  1.00 20.00     0.010 C 
ENDBRANCH   1   7
BRANCH   1  10
HETATM   10  C10 UNL     1     -33.984  18.982  -3.259  1.00 20.00     0.082 C 
HETATM   11  C3  UNL     1     -35.437  18.502  -3.295  1.00 20.00     0.027 C 
HETATM   12 CL12 UNL     1     -33.416  19.166  -4.946  1.00 20.00    -0.125 Cl
ENDBRANCH   1  10
TORSDOF 6
ENDMDL
MODEL 2
REMARK VINA RESULT:      -3.6      2.554      4.935
REMARK  6 active torsions:
REMARK  status: ('A' for Active; 'I' for Inactive)
REMARK    1  A    between atoms: C5_5  and  C6_6 
REMARK    2  A    between atoms: C5_5  and  C7_7 
REMARK    3  A    between atoms: C6_6  and  C9_9 
REMARK    4  A    between atoms: C7_7  and  O11_11 
REMARK    5  A    between atoms: C8_8  and  C9_9 
REMARK    6  A    between atoms: C9_9  and  C10_10 
ROOT
HETATM    1  C9  UNL     1     -33.926  16.755  -4.224  1.00 20.00     0.007 C 
ENDROOT
BRANCH   1   2
HETATM    2  C6  UNL     1     -33.263  16.361  -2.874  1.00 20.00     0.008 C 
BRANCH   2   3
HETATM    3  C5  UNL     1     -33.621  17.296  -1.709  1.00 20.00     0.027 C 
BRANCH   3   4
HETATM    4  C7  UNL     1     -32.453  18.196  -1.317  1.00 20.00     0.167 C 
BRANCH   4   5
HETATM    5  O11 UNL     1     -32.406  18.339   0.095  1.00 20.00    -0.396 OA
HETATM    6  C4  UNL     1     -31.080  18.567   0.553  1.00 20.00     0.201 C 
ENDBRANCH   4   5
ENDBRANCH   3   4
ENDBRANCH   2   3
ENDBRANCH   1   2
BRANCH   1   7
HETATM    7  C8  UNL     1     -34.831  18.029  -4.118  1.00 20.00    -0.017 C 
HETATM    8  C1  UNL     1     -34.228  19.240  -4.840  1.00 20.00     0.010 C 
HETATM    9  C2  UNL     1     -36.286  17.847  -4.554  1.00 20.00     0.010 C 
ENDBRANCH   1   7
BRANCH   1  10
HETATM   10  C10 UNL     1     -34.584  15.537  -4.942  1.00 20.00     0.082 C 
HETATM   11  C3  UNL     1     -34.366  14.221  -4.192  1.00 20.00     0.027 C 
HETATM   12 CL12 UNL     1     -34.021  15.318  -6.626  1.00 20.00    -0.125 Cl
ENDBRANCH   1  10
TORSDOF 6
ENDMDL
MODEL 3
REMARK VINA RESULT:      -3.5      2.233      4.763
REMARK  6 active torsions:
REMARK  status: ('A' for Active; 'I' for Inactive)
REMARK    1  A    between atoms: C5_5  and  C6_6 
REMARK    2  A    between atoms: C5_5  and  C7_7 
REMARK    3  A    between atoms: C6_6  and  C9_9 
REMARK    4  A    between atoms: C7_7  and  O11_11 
REMARK    5  A    between atoms: C8_8  and  C9_9 
REMARK    6  A    between atoms: C9_9  and  C10_10 
ROOT
HETATM    1  C9  UNL     1     -34.180  16.939  -3.467  1.00 20.00     0.007 C 
ENDROOT
BRANCH   1   2
HETATM    2  C6  UNL     1     -32.976  16.885  -2.485  1.00 20.00     0.008 C 
BRANCH   2   3
HETATM    3  C5  UNL     1     -33.126  17.806  -1.265  1.00 20.00     0.027 C 
BRANCH   3   4
HETATM    4  C7  UNL     1     -32.157  18.982  -1.312  1.00 20.00     0.167 C 
BRANCH   4   5
HETATM    5  O11 UNL     1     -30.928  18.623  -0.698  1.00 20.00    -0.396 OA
HETATM    6  C4  UNL     1     -31.066  18.491   0.710  1.00 20.00     0.201 C 
ENDBRANCH   4   5
ENDBRANCH   3   4
ENDBRANCH   2   3
ENDBRANCH   1   2
BRANCH   1   7
HETATM    7  C8  UNL     1     -34.049  15.932  -4.659  1.00 20.00    -0.017 C 
HETATM    8  C1  UNL     1     -33.138  14.744  -4.327  1.00 20.00     0.010 C 
HETATM    9  C2  UNL     1     -35.367  15.416  -5.239  1.00 20.00     0.010 C 
ENDBRANCH   1   7
BRANCH   1  10
HETATM   10  C10 UNL     1     -34.549  18.399  -3.874  1.00 20.00     0.082 C 
HETATM   11  C3  UNL     1     -36.033  18.712  -3.667  1.00 20.00     0.027 C 
HETATM   12 CL12 UNL     1     -34.128  18.791  -5.568  1.00 20.00    -0.125 Cl
ENDBRANCH   1  10
TORSDOF 6
ENDMDL
MODEL 4
REMARK VINA RESULT:      -3.5      1.725      3.033
REMARK  6 active torsions:
REMARK  status: ('A' for Active; 'I' for Inactive)
REMARK    1  A    between atoms: C5_5  and  C6_6 
REMARK    2  A    between atoms: C5_5  and  C7_7 
REMARK    3  A    between atoms: C6_6  and  C9_9 
REMARK    4  A    between atoms: C7_7  and  O11_11 
REMARK    5  A    between atoms: C8_8  and  C9_9 
REMARK    6  A    between atoms: C9_9  and  C10_10 
ROOT
HETATM    1  C9  UNL     1     -33.970  17.407  -2.458  1.00 20.00     0.007 C 
ENDROOT
BRANCH   1   2
HETATM    2  C6  UNL     1     -33.025  16.469  -3.259  1.00 20.00     0.008 C 
BRANCH   2   3
HETATM    3  C5  UNL     1     -33.710  15.201  -3.791  1.00 20.00     0.027 C 
BRANCH   3   4
HETATM    4  C7  UNL     1     -34.490  15.466  -5.075  1.00 20.00     0.167 C 
BRANCH   4   5
HETATM    5  O11 UNL     1     -33.771  14.962  -6.190  1.00 20.00    -0.396 OA
HETATM    6  C4  UNL     1     -34.181  15.583  -7.401  1.00 20.00     0.201 C 
ENDBRANCH   4   5
ENDBRANCH   3   4
ENDBRANCH   2   3
ENDBRANCH   1   2
BRANCH   1   7
HETATM    7  C8  UNL     1     -34.387  18.689  -3.255  1.00 20.00    -0.017 C 
HETATM    8  C1  UNL     1     -33.404  19.024  -4.384  1.00 20.00     0.010 C 
HETATM    9  C2  UNL     1     -35.815  18.694  -3.805  1.00 20.00     0.010 C 
ENDBRANCH   1   7
BRANCH   1  10
HETATM   10  C10 UNL     1     -33.459  17.670  -1.008  1.00 20.00     0.082 C 
HETATM   11  C3  UNL     1     -34.335  18.665  -0.244  1.00 20.00     0.027 C 
HETATM   12 CL12 UNL     1     -31.769  18.253  -0.946  1.00 20.00    -0.125 Cl
ENDBRANCH   1  10
TORSDOF 6
ENDMDL
MODEL 5
REMARK VINA RESULT:      -3.4      2.221      4.819
REMARK  6 active torsions:
REMARK  status: ('A' for Active; 'I' for Inactive)
REMARK    1  A    between atoms: C5_5  and  C6_6 
REMARK    2  A    between atoms: C5_5  and  C7_7 
REMARK    3  A    between atoms: C6_6  and  C9_9 
REMARK    4  A    between atoms: C7_7  and  O11_11 
REMARK    5  A    between atoms: C8_8  and  C9_9 
REMARK    6  A    between atoms: C9_9  and  C10_10 
ROOT
HETATM    1  C9  UNL     1     -34.287  16.896  -4.248  1.00 20.00     0.007 C 
ENDROOT
BRANCH   1   2
HETATM    2  C6  UNL     1     -33.153  17.050  -3.197  1.00 20.00     0.008 C 
BRANCH   2   3
HETATM    3  C5  UNL     1     -33.657  17.167  -1.750  1.00 20.00     0.027 C 
BRANCH   3   4
HETATM    4  C7  UNL     1     -33.184  18.453  -1.080  1.00 20.00     0.167 C 
BRANCH   4   5
HETATM    5  O11 UNL     1     -31.788  18.620  -1.285  1.00 20.00    -0.396 OA
HETATM    6  C4  UNL     1     -31.099  18.812  -0.057  1.00 20.00     0.201 C 
ENDBRANCH   4   5
ENDBRANCH   3   4
ENDBRANCH   2   3
ENDBRANCH   1   2
BRANCH   1   7
HETATM    7  C8  UNL     1     -34.197  15.559  -5.059  1.00 20.00    -0.017 C 
HETATM    8  C1  UNL     1     -33.392  14.480  -4.326  1.00 20.00     0.010 C 
HETATM    9  C2  UNL     1     -35.533  14.972  -5.521  1.00 20.00     0.010 C 
ENDBRANCH   1   7
BRANCH   1  10
HETATM   10  C10 UNL     1     -34.477  18.180  -5.112  1.00 20.00     0.082 C 
HETATM   11  C3  UNL     1     -33.433  19.257  -4.806  1.00 20.00     0.027 C 
HETATM   12 CL12 UNL     1     -36.100  18.913  -4.945  1.00 20.00    -0.125 Cl
ENDBRANCH   1  10
TORSDOF 6
ENDMDL
MODEL 6
REMARK VINA RESULT:      -3.4     11.046     12.014
REMARK  6 active torsions:
REMARK  status: ('A' for Active; 'I' for Inactive)
REMARK    1  A    between atoms: C5_5  and  C6_6 
REMARK    2  A    between atoms: C5_5  and  C7_7 
REMARK    3  A    between atoms: C6_6  and  C9_9 
REMARK    4  A    between atoms: C7_7  and  O11_11 
REMARK    5  A    between atoms: C8_8  and  C9_9 
REMARK    6  A    between atoms: C9_9  and  C10_10 
ROOT
HETATM    1  C9  UNL     1     -33.446   7.226   3.959  1.00 20.00     0.007 C 
ENDROOT
BRANCH   1   2
HETATM    2  C6  UNL     1     -32.082   7.316   3.218  1.00 20.00     0.008 C 
BRANCH   2   3
HETATM    3  C5  UNL     1     -32.177   7.932   1.813  1.00 20.00     0.027 C 
BRANCH   3   4
HETATM    4  C7  UNL     1     -32.761   9.341   1.844  1.00 20.00     0.167 C 
BRANCH   4   5
HETATM    5  O11 UNL     1     -32.825   9.866   0.526  1.00 20.00    -0.396 OA
HETATM    6  C4  UNL     1     -32.993   8.838  -0.440  1.00 20.00     0.201 C 
ENDBRANCH   4   5
ENDBRANCH   3   4
ENDBRANCH   2   3
ENDBRANCH   1   2
BRANCH   1   7
HETATM    7  C8  UNL     1     -33.513   8.128   5.237  1.00 20.00    -0.017 C 
HETATM    8  C1  UNL     1     -33.710   7.315   6.522  1.00 20.00     0.010 C 
HETATM    9  C2  UNL     1     -32.347   9.101   5.424  1.00 20.00     0.010 C 
ENDBRANCH   1   7
BRANCH   1  10
HETATM   10  C10 UNL     1     -33.913   5.752   4.167  1.00 20.00     0.082 C 
HETATM   11  C3  UNL     1     -33.493   4.832   3.019  1.00 20.00     0.027 C 
HETATM   12 CL12 UNL     1     -35.681   5.594   4.390  1.00 20.00    -0.125 Cl
ENDBRANCH   1  10
TORSDOF 6
ENDMDL
MODEL 7
REMARK VINA RESULT:      -3.3     12.004     13.562
REMARK  6 active torsions:
REMARK  status: ('A' for Active; 'I' for Inactive)
REMARK    1  A    between atoms: C5_5  and  C6_6 
REMARK    2  A    between atoms: C5_5  and  C7_7 
REMARK    3  A    between atoms: C6_6  and  C9_9 
REMARK    4  A    between atoms: C7_7  and  O11_11 
REMARK    5  A    between atoms: C8_8  and  C9_9 
REMARK    6  A    between atoms: C9_9  and  C10_10 
ROOT
HETATM    1  C9  UNL     1     -40.860  13.510   5.794  1.00 20.00     0.007 C 
ENDROOT
BRANCH   1   2
HETATM    2  C6  UNL     1     -40.989  13.755   7.324  1.00 20.00     0.008 C 
BRANCH   2   3
HETATM    3  C5  UNL     1     -40.467  15.126   7.781  1.00 20.00     0.027 C 
BRANCH   3   4
HETATM    4  C7  UNL     1     -40.139  15.146   9.270  1.00 20.00     0.167 C 
BRANCH   4   5
HETATM    5  O11 UNL     1     -40.484  13.901   9.859  1.00 20.00    -0.396 OA
HETATM    6  C4  UNL     1     -41.284  14.076  11.021  1.00 20.00     0.201 C 
ENDBRANCH   4   5
ENDBRANCH   3   4
ENDBRANCH   2   3
ENDBRANCH   1   2
BRANCH   1   7
HETATM    7  C8  UNL     1     -42.211  13.697   5.025  1.00 20.00    -0.017 C 
HETATM    8  C1  UNL     1     -43.416  13.797   5.968  1.00 20.00     0.010 C 
HETATM    9  C2  UNL     1     -42.251  14.854   4.024  1.00 20.00     0.010 C 
ENDBRANCH   1   7
BRANCH   1  10
HETATM   10  C10 UNL     1     -40.090  12.195   5.465  1.00 20.00     0.082 C 
HETATM   11  C3  UNL     1     -38.969  11.901   6.464  1.00 20.00     0.027 C 
HETATM   12 CL12 UNL     1     -39.388  12.177   3.819  1.00 20.00    -0.125 Cl
ENDBRANCH   1  10
TORSDOF 6
ENDMDL
MODEL 8
REMARK VINA RESULT:      -3.3      2.714      4.017
REMARK  6 active torsions:
REMARK  status: ('A' for Active; 'I' for Inactive)
REMARK    1  A    between atoms: C5_5  and  C6_6 
REMARK    2  A    between atoms: C5_5  and  C7_7 
REMARK    3  A    between atoms: C6_6  and  C9_9 
REMARK    4  A    between atoms: C7_7  and  O11_11 
REMARK    5  A    between atoms: C8_8  and  C9_9 
REMARK    6  A    between atoms: C9_9  and  C10_10 
ROOT
HETATM    1  C9  UNL     1     -34.468  16.534  -4.448  1.00 20.00     0.007 C 
ENDROOT
BRANCH   1   2
HETATM    2  C6  UNL     1     -34.940  17.541  -5.534  1.00 20.00     0.008 C 
BRANCH   2   3
HETATM    3  C5  UNL     1     -36.452  17.810  -5.517  1.00 20.00     0.027 C 
BRANCH   3   4
HETATM    4  C7  UNL     1     -37.175  17.090  -6.651  1.00 20.00     0.167 C 
BRANCH   4   5
HETATM    5  O11 UNL     1     -37.839  15.940  -6.147  1.00 20.00    -0.396 OA
HETATM    6  C4  UNL     1     -38.509  16.216  -4.925  1.00 20.00     0.201 C 
ENDBRANCH   4   5
ENDBRANCH   3   4
ENDBRANCH   2   3
ENDBRANCH   1   2
BRANCH   1   7
HETATM    7  C8  UNL     1     -33.332  17.103  -3.532  1.00 20.00    -0.017 C 
HETATM    8  C1  UNL     1     -33.101  18.604  -3.746  1.00 20.00     0.010 C 
HETATM    9  C2  UNL     1     -33.483  16.820  -2.036  1.00 20.00     0.010 C 
ENDBRANCH   1   7
BRANCH   1  10
HETATM   10  C10 UNL     1     -34.194  15.114  -5.032  1.00 20.00     0.082 C 
HETATM   11  C3  UNL     1     -33.988  15.128  -6.548  1.00 20.00     0.027 C 
HETATM   12 CL12 UNL     1     -35.483  13.932  -4.655  1.00 20.00    -0.125 Cl
ENDBRANCH   1  10
TORSDOF 6
ENDMDL
MODEL 9
REMARK VINA RESULT:      -3.2     11.199     12.576
REMARK  6 active torsions:
REMARK  status: ('A' for Active; 'I' for Inactive)
REMARK    1  A    between atoms: C5_5  and  C6_6 
REMARK    2  A    between atoms: C5_5  and  C7_7 
REMARK    3  A    between atoms: C6_6  and  C9_9 
REMARK    4  A    between atoms: C7_7  and  O11_11 
REMARK    5  A    between atoms: C8_8  and  C9_9 
REMARK    6  A    between atoms: C9_9  and  C10_10 
ROOT
HETATM    1  C9  UNL     1     -40.983  13.418   6.371  1.00 20.00     0.007 C 
ENDROOT
BRANCH   1   2
HETATM    2  C6  UNL     1     -42.502  13.112   6.243  1.00 20.00     0.008 C 
BRANCH   2   3
HETATM    3  C5  UNL     1     -43.282  14.160   5.434  1.00 20.00     0.027 C 
BRANCH   3   4
HETATM    4  C7  UNL     1     -42.364  15.009   4.560  1.00 20.00     0.167 C 
BRANCH   4   5
HETATM    5  O11 UNL     1     -42.280  14.447   3.259  1.00 20.00    -0.396 OA
HETATM    6  C4  UNL     1     -42.484  15.428   2.251  1.00 20.00     0.201 C 
ENDBRANCH   4   5
ENDBRANCH   3   4
ENDBRANCH   2   3
ENDBRANCH   1   2
BRANCH   1   7
HETATM    7  C8  UNL     1     -40.076  12.195   6.006  1.00 20.00    -0.017 C 
HETATM    8  C1  UNL     1     -39.753  12.128   4.508  1.00 20.00     0.010 C 
HETATM    9  C2  UNL     1     -38.781  12.065   6.812  1.00 20.00     0.010 C 
ENDBRANCH   1   7
BRANCH   1  10
HETATM   10  C10 UNL     1     -40.629  14.123   7.716  1.00 20.00     0.082 C 
HETATM   11  C3  UNL     1     -41.716  13.947   8.779  1.00 20.00     0.027 C 
HETATM   12 CL12 UNL     1     -40.305  15.874   7.535  1.00 20.00    -0.125 Cl
ENDBRANCH   1  10
TORSDOF 6
ENDMDL
