MODEL 1
REMARK VINA RESULT:      -4.2      0.000      0.000
REMARK  2 active torsions:
REMARK  status: ('A' for Active; 'I' for Inactive)
REMARK    1  A    between atoms: C3_3  and  C8_8 
REMARK    2  A    between atoms: C4_4  and  C7_7 
ROOT
HETATM    1  C1  UNL     1     -31.858  18.429  -0.333  1.00 20.00     0.065 C 
HETATM    2  C8  UNL     1     -33.292  18.084  -0.280  1.00 20.00     0.183 C 
HETATM    3  N9  UNL     1     -30.730  18.698  -0.385  1.00 20.00    -0.197 NA
ENDROOT
BRANCH   2   4
HETATM    4  C3  UNL     1     -33.854  17.934  -1.637  1.00 20.00     0.055 A 
HETATM    5  C2  UNL     1     -34.795  18.760  -2.215  1.00 20.00     0.079 A 
HETATM    6  S11 UNL     1     -35.150  18.206  -3.800  1.00 20.00    -0.084 SA
HETATM    7  C4  UNL     1     -34.030  16.926  -3.577  1.00 20.00     0.079 A 
HETATM    8  N10 UNL     1     -33.414  16.882  -2.417  1.00 20.00    -0.249 NA
BRANCH   7   9
HETATM    9  C7  UNL     1     -33.760  15.886  -4.678  1.00 20.00     0.045 A 
HETATM   10  C5  UNL     1     -34.803  14.825  -4.943  1.00 20.00     0.012 A 
HETATM   11  C6  UNL     1     -33.518  14.450  -4.273  1.00 20.00     0.012 A 
ENDBRANCH   7   9
ENDBRANCH   2   4
TORSDOF 2
ENDMDL
MODEL 2
REMARK VINA RESULT:      -4.2     12.219     12.954
REMARK  2 active torsions:
REMARK  status: ('A' for Active; 'I' for Inactive)
REMARK    1  A    between atoms: C3_3  and  C8_8 
REMARK    2  A    between atoms: C4_4  and  C7_7 
ROOT
HETATM    1  C1  UNL     1     -41.448  14.021  10.314  1.00 20.00     0.065 C 
HETATM    2  C8  UNL     1     -41.071  15.010   9.284  1.00 20.00     0.183 C 
HETATM    3  N9  UNL     1     -41.747  13.238  11.116  1.00 20.00    -0.197 NA
ENDROOT
BRANCH   2   4
HETATM    4  C3  UNL     1     -41.092  14.408   7.936  1.00 20.00     0.055 A 
HETATM    5  C2  UNL     1     -41.862  14.835   6.875  1.00 20.00     0.079 A 
HETATM    6  S11 UNL     1     -41.560  13.842   5.509  1.00 20.00    -0.084 SA
HETATM    7  C4  UNL     1     -40.441  12.938   6.444  1.00 20.00     0.079 A 
HETATM    8  N10 UNL     1     -40.277  13.320   7.691  1.00 20.00    -0.249 NA
BRANCH   7   9
HETATM    9  C7  UNL     1     -39.672  11.744   5.854  1.00 20.00     0.045 A 
HETATM   10  C5  UNL     1     -38.265  11.968   5.352  1.00 20.00     0.012 A 
HETATM   11  C6  UNL     1     -39.373  11.736   4.374  1.00 20.00     0.012 A 
ENDBRANCH   7   9
ENDBRANCH   2   4
TORSDOF 2
ENDMDL
MODEL 3
REMARK VINA RESULT:      -4.0      1.904      5.064
REMARK  2 active torsions:
REMARK  status: ('A' for Active; 'I' for Inactive)
REMARK    1  A    between atoms: C3_3  and  C8_8 
REMARK    2  A    between atoms: C4_4  and  C7_7 
ROOT
HETATM    1  C1  UNL     1     -35.109  14.597  -5.856  1.00 20.00     0.065 C 
HETATM    2  C8  UNL     1     -33.996  14.681  -4.891  1.00 20.00     0.183 C 
HETATM    3  N9  UNL     1     -35.988  14.540  -6.612  1.00 20.00    -0.197 NA
ENDROOT
BRANCH   2   4
HETATM    4  C3  UNL     1     -33.931  16.018  -4.267  1.00 20.00     0.055 A 
HETATM    5  C2  UNL     1     -34.396  17.190  -4.825  1.00 20.00     0.079 A 
HETATM    6  S11 UNL     1     -34.112  18.493  -3.745  1.00 20.00    -0.084 SA
HETATM    7  C4  UNL     1     -33.400  17.390  -2.641  1.00 20.00     0.079 A 
HETATM    8  N10 UNL     1     -33.360  16.131  -3.015  1.00 20.00    -0.249 NA
BRANCH   7   9
HETATM    9  C7  UNL     1     -32.840  17.851  -1.285  1.00 20.00     0.045 A 
HETATM   10  C5  UNL     1     -33.793  18.003  -0.122  1.00 20.00     0.012 A 
HETATM   11  C6  UNL     1     -33.217  19.221  -0.773  1.00 20.00     0.012 A 
ENDBRANCH   7   9
ENDBRANCH   2   4
TORSDOF 2
ENDMDL
MODEL 4
REMARK VINA RESULT:      -4.0     11.089     11.941
REMARK  2 active torsions:
REMARK  status: ('A' for Active; 'I' for Inactive)
REMARK    1  A    between atoms: C3_3  and  C8_8 
REMARK    2  A    between atoms: C4_4  and  C7_7 
ROOT
HETATM    1  C1  UNL     1     -42.703  15.224   3.240  1.00 20.00     0.065 C 
HETATM    2  C8  UNL     1     -43.071  15.430   4.654  1.00 20.00     0.183 C 
HETATM    3  N9  UNL     1     -42.404  15.059   2.130  1.00 20.00    -0.197 NA
ENDROOT
BRANCH   2   4
HETATM    4  C3  UNL     1     -42.118  14.753   5.556  1.00 20.00     0.055 A 
HETATM    5  C2  UNL     1     -41.788  15.159   6.832  1.00 20.00     0.079 A 
HETATM    6  S11 UNL     1     -40.644  14.071   7.504  1.00 20.00    -0.084 SA
HETATM    7  C4  UNL     1     -40.687  13.165   6.047  1.00 20.00     0.079 A 
HETATM    8  N10 UNL     1     -41.487  13.610   5.104  1.00 20.00    -0.249 NA
BRANCH   7   9
HETATM    9  C7  UNL     1     -39.835  11.899   5.857  1.00 20.00     0.045 A 
HETATM   10  C5  UNL     1     -38.366  12.056   5.540  1.00 20.00     0.012 A 
HETATM   11  C6  UNL     1     -39.307  11.583   4.477  1.00 20.00     0.012 A 
ENDBRANCH   7   9
ENDBRANCH   2   4
TORSDOF 2
ENDMDL
MODEL 5
REMARK VINA RESULT:      -3.9     11.353     12.294
REMARK  2 active torsions:
REMARK  status: ('A' for Active; 'I' for Inactive)
REMARK    1  A    between atoms: C3_3  and  C8_8 
REMARK    2  A    between atoms: C4_4  and  C7_7 
ROOT
HETATM    1  C1  UNL     1     -32.407   8.722   0.903  1.00 20.00     0.065 C 
HETATM    2  C8  UNL     1     -31.825   7.748   1.846  1.00 20.00     0.183 C 
HETATM    3  N9  UNL     1     -32.873   9.490   0.168  1.00 20.00    -0.197 NA
ENDROOT
BRANCH   2   4
HETATM    4  C3  UNL     1     -32.457   7.851   3.176  1.00 20.00     0.055 A 
HETATM    5  C2  UNL     1     -32.263   8.871   4.084  1.00 20.00     0.079 A 
HETATM    6  S11 UNL     1     -33.201   8.576   5.490  1.00 20.00    -0.084 SA
HETATM    7  C4  UNL     1     -33.776   7.127   4.773  1.00 20.00     0.079 A 
HETATM    8  N10 UNL     1     -33.324   6.851   3.570  1.00 20.00    -0.249 NA
BRANCH   7   9
HETATM    9  C7  UNL     1     -34.768   6.203   5.499  1.00 20.00     0.045 A 
HETATM   10  C5  UNL     1     -34.231   5.213   6.505  1.00 20.00     0.012 A 
HETATM   11  C6  UNL     1     -34.742   4.725   5.186  1.00 20.00     0.012 A 
ENDBRANCH   7   9
ENDBRANCH   2   4
TORSDOF 2
ENDMDL
MODEL 6
REMARK VINA RESULT:      -3.9     11.552     12.997
REMARK  2 active torsions:
REMARK  status: ('A' for Active; 'I' for Inactive)
REMARK    1  A    between atoms: C3_3  and  C8_8 
REMARK    2  A    between atoms: C4_4  and  C7_7 
ROOT
HETATM    1  C1  UNL     1     -39.206  11.792   4.288  1.00 20.00     0.065 C 
HETATM    2  C8  UNL     1     -39.382  11.781   5.754  1.00 20.00     0.183 C 
HETATM    3  N9  UNL     1     -39.076  11.807   3.135  1.00 20.00    -0.197 NA
ENDROOT
BRANCH   2   4
HETATM    4  C3  UNL     1     -40.310  12.844   6.186  1.00 20.00     0.055 A 
HETATM    5  C2  UNL     1     -41.241  13.475   5.388  1.00 20.00     0.079 A 
HETATM    6  S11 UNL     1     -42.098  14.639   6.313  1.00 20.00    -0.084 SA
HETATM    7  C4  UNL     1     -41.159  14.205   7.682  1.00 20.00     0.079 A 
HETATM    8  N10 UNL     1     -40.262  13.262   7.502  1.00 20.00    -0.249 NA
BRANCH   7   9
HETATM    9  C7  UNL     1     -41.359  14.883   9.048  1.00 20.00     0.045 A 
HETATM   10  C5  UNL     1     -40.777  16.260   9.264  1.00 20.00     0.012 A 
HETATM   11  C6  UNL     1     -40.157  15.079   9.942  1.00 20.00     0.012 A 
ENDBRANCH   7   9
ENDBRANCH   2   4
TORSDOF 2
ENDMDL
MODEL 7
REMARK VINA RESULT:      -3.8     11.013     11.746
REMARK  2 active torsions:
REMARK  status: ('A' for Active; 'I' for Inactive)
REMARK    1  A    between atoms: C3_3  and  C8_8 
REMARK    2  A    between atoms: C4_4  and  C7_7 
ROOT
HETATM    1  C1  UNL     1     -42.676  16.868   4.014  1.00 20.00     0.065 C 
HETATM    2  C8  UNL     1     -42.887  15.421   3.817  1.00 20.00     0.183 C 
HETATM    3  N9  UNL     1     -42.506  18.005   4.178  1.00 20.00    -0.197 NA
ENDROOT
BRANCH   2   4
HETATM    4  C3  UNL     1     -42.196  14.636   4.859  1.00 20.00     0.055 A 
HETATM    5  C2  UNL     1     -42.283  14.849   6.219  1.00 20.00     0.079 A 
HETATM    6  S11 UNL     1     -41.315  13.698   7.045  1.00 20.00    -0.084 SA
HETATM    7  C4  UNL     1     -40.868  13.025   5.531  1.00 20.00     0.079 A 
HETATM    8  N10 UNL     1     -41.385  13.590   4.463  1.00 20.00    -0.249 NA
BRANCH   7   9
HETATM    9  C7  UNL     1     -39.914  11.823   5.430  1.00 20.00     0.045 A 
HETATM   10  C5  UNL     1     -38.425  12.077   5.454  1.00 20.00     0.012 A 
HETATM   11  C6  UNL     1     -39.086  11.659   4.178  1.00 20.00     0.012 A 
ENDBRANCH   7   9
ENDBRANCH   2   4
TORSDOF 2
ENDMDL
MODEL 8
REMARK VINA RESULT:      -3.7      1.679      2.093
REMARK  2 active torsions:
REMARK  status: ('A' for Active; 'I' for Inactive)
REMARK    1  A    between atoms: C3_3  and  C8_8 
REMARK    2  A    between atoms: C4_4  and  C7_7 
ROOT
HETATM    1  C1  UNL     1     -32.457  18.286  -1.614  1.00 20.00     0.065 C 
HETATM    2  C8  UNL     1     -33.289  17.087  -1.833  1.00 20.00     0.183 C 
HETATM    3  N9  UNL     1     -31.803  19.232  -1.451  1.00 20.00    -0.197 NA
ENDROOT
BRANCH   2   4
HETATM    4  C3  UNL     1     -33.906  17.105  -3.174  1.00 20.00     0.055 A 
HETATM    5  C2  UNL     1     -34.605  18.159  -3.725  1.00 20.00     0.079 A 
HETATM    6  S11 UNL     1     -35.139  17.735  -5.299  1.00 20.00    -0.084 SA
HETATM    7  C4  UNL     1     -34.401  16.197  -5.108  1.00 20.00     0.079 A 
HETATM    8  N10 UNL     1     -33.789  15.980  -3.966  1.00 20.00    -0.249 NA
BRANCH   7   9
HETATM    9  C7  UNL     1     -34.452  15.132  -6.216  1.00 20.00     0.045 A 
HETATM   10  C5  UNL     1     -33.827  15.449  -7.554  1.00 20.00     0.012 A 
HETATM   11  C6  UNL     1     -35.317  15.388  -7.428  1.00 20.00     0.012 A 
ENDBRANCH   7   9
ENDBRANCH   2   4
TORSDOF 2
ENDMDL
MODEL 9
REMARK VINA RESULT:      -3.6      2.792      5.411
REMARK  2 active torsions:
REMARK  status: ('A' for Active; 'I' for Inactive)
REMARK    1  A    between atoms: C3_3  and  C8_8 
REMARK    2  A    between atoms: C4_4  and  C7_7 
ROOT
HETATM    1  C1  UNL     1     -37.701  16.412  -5.785  1.00 20.00     0.065 C 
HETATM    2  C8  UNL     1     -36.362  16.821  -6.253  1.00 20.00     0.183 C 
HETATM    3  N9  UNL     1     -38.749  16.083  -5.411  1.00 20.00    -0.197 NA
ENDROOT
BRANCH   2   4
HETATM    4  C3  UNL     1     -35.301  16.218  -5.423  1.00 20.00     0.055 A 
HETATM    5  C2  UNL     1     -34.819  14.931  -5.540  1.00 20.00     0.079 A 
HETATM    6  S11 UNL     1     -33.592  14.667  -4.370  1.00 20.00    -0.084 SA
HETATM    7  C4  UNL     1     -33.810  16.276  -3.814  1.00 20.00     0.079 A 
HETATM    8  N10 UNL     1     -34.723  16.990  -4.434  1.00 20.00    -0.249 NA
BRANCH   7   9
HETATM    9  C7  UNL     1     -32.980  16.851  -2.654  1.00 20.00     0.045 A 
HETATM   10  C5  UNL     1     -33.692  17.246  -1.382  1.00 20.00     0.012 A 
HETATM   11  C6  UNL     1     -33.156  18.307  -2.291  1.00 20.00     0.012 A 
ENDBRANCH   7   9
ENDBRANCH   2   4
TORSDOF 2
ENDMDL
