MODEL 1
REMARK VINA RESULT:      -3.9      0.000      0.000
REMARK  2 active torsions:
REMARK  status: ('A' for Active; 'I' for Inactive)
REMARK    1  A    between atoms: C5_5  and  C6_6 
REMARK    2  A    between atoms: C5_5  and  C7_7 
ROOT
HETATM    1  C1  UNL     1     -32.550   7.561   3.156  1.00 20.00     0.079 C 
HETATM    2  C6  UNL     1     -33.245   7.945   4.390  1.00 20.00     0.189 C 
HETATM    3  N8  UNL     1     -32.003   7.253   2.179  1.00 20.00    -0.196 NA
HETATM    4 CL9  UNL     1     -32.271   9.273   5.111  1.00 20.00    -0.109 Cl
ENDROOT
BRANCH   2   5
HETATM    5  C5  UNL     1     -33.353   6.797   5.406  1.00 20.00     0.043 C 
BRANCH   5   6
HETATM    6  C7  UNL     1     -34.440   5.711   5.148  1.00 20.00    -0.049 C 
HETATM    7  C2  UNL     1     -35.650   6.261   4.376  1.00 20.00     0.014 C 
HETATM    8  C3  UNL     1     -33.854   4.515   4.379  1.00 20.00     0.014 C 
HETATM    9  C4  UNL     1     -34.937   5.207   6.520  1.00 20.00     0.014 C 
ENDBRANCH   5   6
ENDBRANCH   2   5
TORSDOF 2
ENDMDL
MODEL 2
REMARK VINA RESULT:      -3.5     12.621     13.401
REMARK  2 active torsions:
REMARK  status: ('A' for Active; 'I' for Inactive)
REMARK    1  A    between atoms: C5_5  and  C6_6 
REMARK    2  A    between atoms: C5_5  and  C7_7 
ROOT
HETATM    1  C1  UNL     1     -31.682  18.548  -0.578  1.00 20.00     0.079 C 
HETATM    2  C6  UNL     1     -33.101  18.431  -0.933  1.00 20.00     0.189 C 
HETATM    3  N8  UNL     1     -30.558  18.641  -0.303  1.00 20.00    -0.196 NA
HETATM    4 CL9  UNL     1     -33.960  18.037   0.596  1.00 20.00    -0.109 Cl
ENDROOT
BRANCH   2   5
HETATM    5  C5  UNL     1     -33.379  17.324  -1.961  1.00 20.00     0.043 C 
BRANCH   5   6
HETATM    6  C7  UNL     1     -33.931  17.759  -3.352  1.00 20.00    -0.049 C 
HETATM    7  C2  UNL     1     -33.049  18.820  -4.029  1.00 20.00     0.014 C 
HETATM    8  C3  UNL     1     -34.074  16.550  -4.293  1.00 20.00     0.014 C 
HETATM    9  C4  UNL     1     -35.331  18.370  -3.133  1.00 20.00     0.014 C 
ENDBRANCH   5   6
ENDBRANCH   2   5
TORSDOF 2
ENDMDL
MODEL 3
REMARK VINA RESULT:      -3.5      1.852      2.362
REMARK  2 active torsions:
REMARK  status: ('A' for Active; 'I' for Inactive)
REMARK    1  A    between atoms: C5_5  and  C6_6 
REMARK    2  A    between atoms: C5_5  and  C7_7 
ROOT
HETATM    1  C1  UNL     1     -32.156   8.799   4.819  1.00 20.00     0.079 C 
HETATM    2  C6  UNL     1     -32.619   7.525   4.258  1.00 20.00     0.189 C 
HETATM    3  N8  UNL     1     -31.791   9.806   5.267  1.00 20.00    -0.196 NA
HETATM    4 CL9  UNL     1     -32.255   7.601   2.499  1.00 20.00    -0.109 Cl
ENDROOT
BRANCH   2   5
HETATM    5  C5  UNL     1     -34.125   7.292   4.447  1.00 20.00     0.043 C 
BRANCH   5   6
HETATM    6  C7  UNL     1     -34.594   5.836   4.743  1.00 20.00    -0.049 C 
HETATM    7  C2  UNL     1     -33.759   4.785   3.995  1.00 20.00     0.014 C 
HETATM    8  C3  UNL     1     -34.546   5.536   6.251  1.00 20.00     0.014 C 
HETATM    9  C4  UNL     1     -36.058   5.708   4.271  1.00 20.00     0.014 C 
ENDBRANCH   5   6
ENDBRANCH   2   5
TORSDOF 2
ENDMDL
MODEL 4
REMARK VINA RESULT:      -3.3     12.619     13.475
REMARK  2 active torsions:
REMARK  status: ('A' for Active; 'I' for Inactive)
REMARK    1  A    between atoms: C5_5  and  C6_6 
REMARK    2  A    between atoms: C5_5  and  C7_7 
ROOT
HETATM    1  C1  UNL     1     -34.589  16.933  -4.457  1.00 20.00     0.079 C 
HETATM    2  C6  UNL     1     -33.312  16.662  -3.785  1.00 20.00     0.189 C 
HETATM    3  N8  UNL     1     -35.598  17.152  -4.986  1.00 20.00    -0.196 NA
HETATM    4 CL9  UNL     1     -32.920  14.946  -4.147  1.00 20.00    -0.109 Cl
ENDROOT
BRANCH   2   5
HETATM    5  C5  UNL     1     -33.379  16.849  -2.261  1.00 20.00     0.043 C 
BRANCH   5   6
HETATM    6  C7  UNL     1     -33.072  18.269  -1.698  1.00 20.00    -0.049 C 
HETATM    7  C2  UNL     1     -31.892  18.270  -0.714  1.00 20.00     0.014 C 
HETATM    8  C3  UNL     1     -32.778  19.262  -2.836  1.00 20.00     0.014 C 
HETATM    9  C4  UNL     1     -34.326  18.757  -0.942  1.00 20.00     0.014 C 
ENDBRANCH   5   6
ENDBRANCH   2   5
TORSDOF 2
ENDMDL
MODEL 5
REMARK VINA RESULT:      -3.3     12.299     13.279
REMARK  2 active torsions:
REMARK  status: ('A' for Active; 'I' for Inactive)
REMARK    1  A    between atoms: C5_5  and  C6_6 
REMARK    2  A    between atoms: C5_5  and  C7_7 
ROOT
HETATM    1  C1  UNL     1     -35.291  14.188  -4.674  1.00 20.00     0.079 C 
HETATM    2  C6  UNL     1     -34.703  15.484  -5.033  1.00 20.00     0.189 C 
HETATM    3  N8  UNL     1     -35.757  13.165  -4.387  1.00 20.00    -0.196 NA
HETATM    4 CL9  UNL     1     -33.927  15.246  -6.637  1.00 20.00    -0.109 Cl
ENDROOT
BRANCH   2   5
HETATM    5  C5  UNL     1     -33.643  15.966  -4.031  1.00 20.00     0.043 C 
BRANCH   5   6
HETATM    6  C7  UNL     1     -33.889  17.334  -3.329  1.00 20.00    -0.049 C 
HETATM    7  C2  UNL     1     -32.936  18.431  -3.826  1.00 20.00     0.014 C 
HETATM    8  C3  UNL     1     -35.342  17.803  -3.525  1.00 20.00     0.014 C 
HETATM    9  C4  UNL     1     -33.645  17.138  -1.817  1.00 20.00     0.014 C 
ENDBRANCH   5   6
ENDBRANCH   2   5
TORSDOF 2
ENDMDL
MODEL 6
REMARK VINA RESULT:      -3.3     12.640     13.693
REMARK  2 active torsions:
REMARK  status: ('A' for Active; 'I' for Inactive)
REMARK    1  A    between atoms: C5_5  and  C6_6 
REMARK    2  A    between atoms: C5_5  and  C7_7 
ROOT
HETATM    1  C1  UNL     1     -33.995  15.300  -6.426  1.00 20.00     0.079 C 
HETATM    2  C6  UNL     1     -33.992  15.526  -4.976  1.00 20.00     0.189 C 
HETATM    3  N8  UNL     1     -33.994  15.126  -7.574  1.00 20.00    -0.196 NA
HETATM    4 CL9  UNL     1     -34.790  14.086  -4.253  1.00 20.00    -0.109 Cl
ENDROOT
BRANCH   2   5
HETATM    5  C5  UNL     1     -34.764  16.787  -4.558  1.00 20.00     0.043 C 
BRANCH   5   6
HETATM    6  C7  UNL     1     -34.151  17.660  -3.423  1.00 20.00    -0.049 C 
HETATM    7  C2  UNL     1     -35.212  18.476  -2.670  1.00 20.00     0.014 C 
HETATM    8  C3  UNL     1     -33.376  16.792  -2.416  1.00 20.00     0.014 C 
HETATM    9  C4  UNL     1     -33.159  18.648  -4.073  1.00 20.00     0.014 C 
ENDBRANCH   5   6
ENDBRANCH   2   5
TORSDOF 2
ENDMDL
MODEL 7
REMARK VINA RESULT:      -3.2      2.249      3.939
REMARK  2 active torsions:
REMARK  status: ('A' for Active; 'I' for Inactive)
REMARK    1  A    between atoms: C5_5  and  C6_6 
REMARK    2  A    between atoms: C5_5  and  C7_7 
ROOT
HETATM    1  C1  UNL     1     -34.455   5.489   5.003  1.00 20.00     0.079 C 
HETATM    2  C6  UNL     1     -33.742   6.723   5.355  1.00 20.00     0.189 C 
HETATM    3  N8  UNL     1     -35.017   4.513   4.721  1.00 20.00    -0.196 NA
HETATM    4 CL9  UNL     1     -34.403   7.236   6.945  1.00 20.00    -0.109 Cl
ENDROOT
BRANCH   2   5
HETATM    5  C5  UNL     1     -33.952   7.854   4.337  1.00 20.00     0.043 C 
BRANCH   5   6
HETATM    6  C7  UNL     1     -32.683   8.471   3.679  1.00 20.00    -0.049 C 
HETATM    7  C2  UNL     1     -31.774   7.409   3.042  1.00 20.00     0.014 C 
HETATM    8  C3  UNL     1     -33.064   9.511   2.611  1.00 20.00     0.014 C 
HETATM    9  C4  UNL     1     -31.879   9.187   4.785  1.00 20.00     0.014 C 
ENDBRANCH   5   6
ENDBRANCH   2   5
TORSDOF 2
ENDMDL
MODEL 8
REMARK VINA RESULT:      -3.1     12.384     13.276
REMARK  2 active torsions:
REMARK  status: ('A' for Active; 'I' for Inactive)
REMARK    1  A    between atoms: C5_5  and  C6_6 
REMARK    2  A    between atoms: C5_5  and  C7_7 
ROOT
HETATM    1  C1  UNL     1     -33.633  17.260  -2.393  1.00 20.00     0.079 C 
HETATM    2  C6  UNL     1     -33.471  17.196  -3.850  1.00 20.00     0.189 C 
HETATM    3  N8  UNL     1     -33.762  17.306  -1.240  1.00 20.00    -0.196 NA
HETATM    4 CL9  UNL     1     -33.186  18.887  -4.388  1.00 20.00    -0.109 Cl
ENDROOT
BRANCH   2   5
HETATM    5  C5  UNL     1     -34.708  16.643  -4.573  1.00 20.00     0.043 C 
BRANCH   5   6
HETATM    6  C7  UNL     1     -34.574  15.253  -5.263  1.00 20.00    -0.049 C 
HETATM    7  C2  UNL     1     -35.906  14.488  -5.309  1.00 20.00     0.014 C 
HETATM    8  C3  UNL     1     -34.028  15.397  -6.695  1.00 20.00     0.014 C 
HETATM    9  C4  UNL     1     -33.569  14.416  -4.444  1.00 20.00     0.014 C 
ENDBRANCH   5   6
ENDBRANCH   2   5
TORSDOF 2
ENDMDL
MODEL 9
REMARK VINA RESULT:      -3.1     10.497     11.217
REMARK  2 active torsions:
REMARK  status: ('A' for Active; 'I' for Inactive)
REMARK    1  A    between atoms: C5_5  and  C6_6 
REMARK    2  A    between atoms: C5_5  and  C7_7 
ROOT
HETATM    1  C1  UNL     1     -40.829  16.290   8.036  1.00 20.00     0.079 C 
HETATM    2  C6  UNL     1     -41.063  14.846   8.159  1.00 20.00     0.189 C 
HETATM    3  N8  UNL     1     -40.645  17.432   7.934  1.00 20.00    -0.196 NA
HETATM    4 CL9  UNL     1     -40.493  14.394   9.803  1.00 20.00    -0.109 Cl
ENDROOT
BRANCH   2   5
HETATM    5  C5  UNL     1     -40.295  14.018   7.118  1.00 20.00     0.043 C 
BRANCH   5   6
HETATM    6  C7  UNL     1     -41.126  13.079   6.193  1.00 20.00    -0.049 C 
HETATM    7  C2  UNL     1     -42.350  12.483   6.906  1.00 20.00     0.014 C 
HETATM    8  C3  UNL     1     -41.593  13.822   4.929  1.00 20.00     0.014 C 
HETATM    9  C4  UNL     1     -40.211  11.915   5.759  1.00 20.00     0.014 C 
ENDBRANCH   5   6
ENDBRANCH   2   5
TORSDOF 2
ENDMDL
