MODEL 1
REMARK VINA RESULT:      -5.2      0.000      0.000
REMARK  3 active torsions:
REMARK  status: ('A' for Active; 'I' for Inactive)
REMARK    1  A    between atoms: C3_3  and  C4_4 
REMARK    2  A    between atoms: C4_4  and  C5_5 
REMARK    3  A    between atoms: C4_4  and  O6_6 
ROOT
HETATM    1  C1  UNL     1     -32.252   8.685   4.583  1.00 20.00     0.012 C 
HETATM    2  C2  UNL     1     -33.123   8.115   5.182  1.00 20.00    -0.115 C 
HETATM    3  C3  UNL     1     -34.191   7.419   5.919  1.00 20.00     0.133 C 
ENDROOT
BRANCH   3   4
HETATM    4  C4  UNL     1     -34.059   5.900   5.788  1.00 20.00     0.236 C 
BRANCH   4   5
HETATM    5  C5  UNL     1     -34.415   5.427   4.392  1.00 20.00     0.413 C 
HETATM    6  F7  UNL     1     -35.657   5.831   4.044  1.00 20.00    -0.168 F 
HETATM    7  F8  UNL     1     -33.551   5.903   3.470  1.00 20.00    -0.168 F 
HETATM    8  F9  UNL     1     -34.394   4.078   4.322  1.00 20.00    -0.168 F 
ENDBRANCH   4   5
BRANCH   4   9
HETATM    9  O6  UNL     1     -34.951   5.281   6.714  1.00 20.00    -0.386 OA
HETATM   10  H14 UNL     1     -34.403   4.950   7.442  1.00 20.00     0.210 HD
ENDBRANCH   4   9
ENDBRANCH   3   4
TORSDOF 3
ENDMDL
MODEL 2
REMARK VINA RESULT:      -5.2      1.375      1.481
REMARK  3 active torsions:
REMARK  status: ('A' for Active; 'I' for Inactive)
REMARK    1  A    between atoms: C3_3  and  C4_4 
REMARK    2  A    between atoms: C4_4  and  C5_5 
REMARK    3  A    between atoms: C4_4  and  O6_6 
ROOT
HETATM    1  C1  UNL     1     -32.026   7.611   2.746  1.00 20.00     0.012 C 
HETATM    2  C2  UNL     1     -32.791   7.772   3.658  1.00 20.00    -0.115 C 
HETATM    3  C3  UNL     1     -33.729   7.972   4.775  1.00 20.00     0.133 C 
ENDROOT
BRANCH   3   4
HETATM    4  C4  UNL     1     -33.804   6.733   5.669  1.00 20.00     0.236 C 
BRANCH   4   5
HETATM    5  C5  UNL     1     -34.653   5.644   5.043  1.00 20.00     0.413 C 
HETATM    6  F7  UNL     1     -35.699   6.170   4.368  1.00 20.00    -0.168 F 
HETATM    7  F8  UNL     1     -33.939   4.892   4.179  1.00 20.00    -0.168 F 
HETATM    8  F9  UNL     1     -35.156   4.823   5.990  1.00 20.00    -0.168 F 
ENDBRANCH   4   5
BRANCH   4   9
HETATM    9  O6  UNL     1     -34.392   7.102   6.915  1.00 20.00    -0.386 OA
HETATM   10  H14 UNL     1     -34.430   6.294   7.450  1.00 20.00     0.210 HD
ENDBRANCH   4   9
ENDBRANCH   3   4
TORSDOF 3
ENDMDL
MODEL 3
REMARK VINA RESULT:      -5.1      2.115      2.486
REMARK  3 active torsions:
REMARK  status: ('A' for Active; 'I' for Inactive)
REMARK    1  A    between atoms: C3_3  and  C4_4 
REMARK    2  A    between atoms: C4_4  and  C5_5 
REMARK    3  A    between atoms: C4_4  and  O6_6 
ROOT
HETATM    1  C1  UNL     1     -32.397   8.623   4.219  1.00 20.00     0.012 C 
HETATM    2  C2  UNL     1     -32.892   7.532   4.148  1.00 20.00    -0.115 C 
HETATM    3  C3  UNL     1     -33.498   6.193   4.060  1.00 20.00     0.133 C 
ENDROOT
BRANCH   3   4
HETATM    4  C4  UNL     1     -34.760   6.094   4.919  1.00 20.00     0.236 C 
BRANCH   4   5
HETATM    5  C5  UNL     1     -34.436   6.178   6.398  1.00 20.00     0.413 C 
HETATM    6  F7  UNL     1     -33.196   5.702   6.652  1.00 20.00    -0.168 F 
HETATM    7  F8  UNL     1     -34.491   7.449   6.848  1.00 20.00    -0.168 F 
HETATM    8  F9  UNL     1     -35.307   5.444   7.124  1.00 20.00    -0.168 F 
ENDBRANCH   4   5
BRANCH   4   9
HETATM    9  O6  UNL     1     -35.389   4.838   4.668  1.00 20.00    -0.386 OA
HETATM   10  H14 UNL     1     -34.767   4.156   4.965  1.00 20.00     0.210 HD
ENDBRANCH   4   9
ENDBRANCH   3   4
TORSDOF 3
ENDMDL
MODEL 4
REMARK VINA RESULT:      -5.1      2.117      2.482
REMARK  3 active torsions:
REMARK  status: ('A' for Active; 'I' for Inactive)
REMARK    1  A    between atoms: C3_3  and  C4_4 
REMARK    2  A    between atoms: C4_4  and  C5_5 
REMARK    3  A    between atoms: C4_4  and  O6_6 
ROOT
HETATM    1  C1  UNL     1     -32.402   8.617   4.164  1.00 20.00     0.012 C 
HETATM    2  C2  UNL     1     -32.899   7.525   4.116  1.00 20.00    -0.115 C 
HETATM    3  C3  UNL     1     -33.507   6.186   4.056  1.00 20.00     0.133 C 
ENDROOT
BRANCH   3   4
HETATM    4  C4  UNL     1     -34.768   6.106   4.917  1.00 20.00     0.236 C 
BRANCH   4   5
HETATM    5  C5  UNL     1     -34.438   6.170   6.397  1.00 20.00     0.413 C 
HETATM    6  F7  UNL     1     -35.322   5.450   7.123  1.00 20.00    -0.168 F 
HETATM    7  F8  UNL     1     -33.204   5.688   6.652  1.00 20.00    -0.168 F 
HETATM    8  F9  UNL     1     -34.487   7.443   6.846  1.00 20.00    -0.168 F 
ENDBRANCH   4   5
BRANCH   4   9
HETATM    9  O6  UNL     1     -35.425   4.868   4.655  1.00 20.00    -0.386 OA
HETATM   10  H14 UNL     1     -35.901   4.633   5.468  1.00 20.00     0.210 HD
ENDBRANCH   4   9
ENDBRANCH   3   4
TORSDOF 3
ENDMDL
MODEL 5
REMARK VINA RESULT:      -5.1      2.117      2.489
REMARK  3 active torsions:
REMARK  status: ('A' for Active; 'I' for Inactive)
REMARK    1  A    between atoms: C3_3  and  C4_4 
REMARK    2  A    between atoms: C4_4  and  C5_5 
REMARK    3  A    between atoms: C4_4  and  O6_6 
ROOT
HETATM    1  C1  UNL     1     -32.418   8.616   4.156  1.00 20.00     0.012 C 
HETATM    2  C2  UNL     1     -32.911   7.522   4.115  1.00 20.00    -0.115 C 
HETATM    3  C3  UNL     1     -33.514   6.180   4.063  1.00 20.00     0.133 C 
ENDROOT
BRANCH   3   4
HETATM    4  C4  UNL     1     -34.783   6.105   4.915  1.00 20.00     0.236 C 
BRANCH   4   5
HETATM    5  C5  UNL     1     -34.466   6.193   6.395  1.00 20.00     0.413 C 
HETATM    6  F7  UNL     1     -34.500   7.474   6.825  1.00 20.00    -0.168 F 
HETATM    7  F8  UNL     1     -35.346   5.485   7.135  1.00 20.00    -0.168 F 
HETATM    8  F9  UNL     1     -33.229   5.714   6.651  1.00 20.00    -0.168 F 
ENDBRANCH   4   5
BRANCH   4   9
HETATM    9  O6  UNL     1     -35.430   4.858   4.666  1.00 20.00    -0.386 OA
HETATM   10  H14 UNL     1     -35.626   4.473   5.534  1.00 20.00     0.210 HD
ENDBRANCH   4   9
ENDBRANCH   3   4
TORSDOF 3
ENDMDL
MODEL 6
REMARK VINA RESULT:      -5.0      2.213      3.326
REMARK  3 active torsions:
REMARK  status: ('A' for Active; 'I' for Inactive)
REMARK    1  A    between atoms: C3_3  and  C4_4 
REMARK    2  A    between atoms: C4_4  and  C5_5 
REMARK    3  A    between atoms: C4_4  and  O6_6 
ROOT
HETATM    1  C1  UNL     1     -34.525   5.253   6.568  1.00 20.00     0.012 C 
HETATM    2  C2  UNL     1     -34.503   5.951   5.591  1.00 20.00    -0.115 C 
HETATM    3  C3  UNL     1     -34.477   6.804   4.391  1.00 20.00     0.133 C 
ENDROOT
BRANCH   3   4
HETATM    4  C4  UNL     1     -33.352   7.839   4.467  1.00 20.00     0.236 C 
BRANCH   4   5
HETATM    5  C5  UNL     1     -32.305   7.605   3.394  1.00 20.00     0.413 C 
HETATM    6  F7  UNL     1     -32.469   8.460   2.361  1.00 20.00    -0.168 F 
HETATM    7  F8  UNL     1     -31.055   7.770   3.875  1.00 20.00    -0.168 F 
HETATM    8  F9  UNL     1     -32.397   6.351   2.899  1.00 20.00    -0.168 F 
ENDBRANCH   4   5
BRANCH   4   9
HETATM    9  O6  UNL     1     -32.720   7.737   5.742  1.00 20.00    -0.386 OA
HETATM   10  H14 UNL     1     -33.198   8.339   6.333  1.00 20.00     0.210 HD
ENDBRANCH   4   9
ENDBRANCH   3   4
TORSDOF 3
ENDMDL
MODEL 7
REMARK VINA RESULT:      -4.9      2.178      3.397
REMARK  3 active torsions:
REMARK  status: ('A' for Active; 'I' for Inactive)
REMARK    1  A    between atoms: C3_3  and  C4_4 
REMARK    2  A    between atoms: C4_4  and  C5_5 
REMARK    3  A    between atoms: C4_4  and  O6_6 
ROOT
HETATM    1  C1  UNL     1     -34.488   5.027   6.394  1.00 20.00     0.012 C 
HETATM    2  C2  UNL     1     -34.522   5.847   5.518  1.00 20.00    -0.115 C 
HETATM    3  C3  UNL     1     -34.565   6.852   4.442  1.00 20.00     0.133 C 
ENDROOT
BRANCH   3   4
HETATM    4  C4  UNL     1     -33.423   7.861   4.575  1.00 20.00     0.236 C 
BRANCH   4   5
HETATM    5  C5  UNL     1     -32.377   7.666   3.494  1.00 20.00     0.413 C 
HETATM    6  F7  UNL     1     -32.458   6.428   2.958  1.00 20.00    -0.168 F 
HETATM    7  F8  UNL     1     -32.522   8.560   2.494  1.00 20.00    -0.168 F 
HETATM    8  F9  UNL     1     -31.132   7.807   3.999  1.00 20.00    -0.168 F 
ENDBRANCH   4   5
BRANCH   4   9
HETATM    9  O6  UNL     1     -32.797   7.680   5.845  1.00 20.00    -0.386 OA
HETATM   10  H14 UNL     1     -32.397   8.533   6.076  1.00 20.00     0.210 HD
ENDBRANCH   4   9
ENDBRANCH   3   4
TORSDOF 3
ENDMDL
MODEL 8
REMARK VINA RESULT:      -4.8      2.331      3.004
REMARK  3 active torsions:
REMARK  status: ('A' for Active; 'I' for Inactive)
REMARK    1  A    between atoms: C3_3  and  C4_4 
REMARK    2  A    between atoms: C4_4  and  C5_5 
REMARK    3  A    between atoms: C4_4  and  O6_6 
ROOT
HETATM    1  C1  UNL     1     -32.905   4.969   2.470  1.00 20.00     0.012 C 
HETATM    2  C2  UNL     1     -33.174   5.883   3.200  1.00 20.00    -0.115 C 
HETATM    3  C3  UNL     1     -33.502   7.005   4.096  1.00 20.00     0.133 C 
ENDROOT
BRANCH   3   4
HETATM    4  C4  UNL     1     -34.665   6.655   5.026  1.00 20.00     0.236 C 
BRANCH   4   5
HETATM    5  C5  UNL     1     -34.180   6.310   6.421  1.00 20.00     0.413 C 
HETATM    6  F7  UNL     1     -34.036   4.974   6.569  1.00 20.00    -0.168 F 
HETATM    7  F8  UNL     1     -32.990   6.887   6.691  1.00 20.00    -0.168 F 
HETATM    8  F9  UNL     1     -35.064   6.726   7.354  1.00 20.00    -0.168 F 
ENDBRANCH   4   5
BRANCH   4   9
HETATM    9  O6  UNL     1     -35.352   5.522   4.495  1.00 20.00    -0.386 OA
HETATM   10  H14 UNL     1     -36.276   5.792   4.380  1.00 20.00     0.210 HD
ENDBRANCH   4   9
ENDBRANCH   3   4
TORSDOF 3
ENDMDL
MODEL 9
REMARK VINA RESULT:      -4.7      2.782      3.718
REMARK  3 active torsions:
REMARK  status: ('A' for Active; 'I' for Inactive)
REMARK    1  A    between atoms: C3_3  and  C4_4 
REMARK    2  A    between atoms: C4_4  and  C5_5 
REMARK    3  A    between atoms: C4_4  and  O6_6 
ROOT
HETATM    1  C1  UNL     1     -34.701   5.428   6.603  1.00 20.00     0.012 C 
HETATM    2  C2  UNL     1     -34.491   5.688   5.450  1.00 20.00    -0.115 C 
HETATM    3  C3  UNL     1     -34.235   6.006   4.035  1.00 20.00     0.133 C 
ENDROOT
BRANCH   3   4
HETATM    4  C4  UNL     1     -32.879   6.691   3.853  1.00 20.00     0.236 C 
BRANCH   4   5
HETATM    5  C5  UNL     1     -32.965   8.180   4.129  1.00 20.00     0.413 C 
HETATM    6  F7  UNL     1     -34.233   8.550   4.412  1.00 20.00    -0.168 F 
HETATM    7  F8  UNL     1     -32.187   8.538   5.173  1.00 20.00    -0.168 F 
HETATM    8  F9  UNL     1     -32.567   8.892   3.052  1.00 20.00    -0.168 F 
ENDBRANCH   4   5
BRANCH   4   9
HETATM    9  O6  UNL     1     -32.449   6.507   2.505  1.00 20.00    -0.386 OA
HETATM   10  H14 UNL     1     -33.222   6.190   2.012  1.00 20.00     0.210 HD
ENDBRANCH   4   9
ENDBRANCH   3   4
TORSDOF 3
ENDMDL
