MODEL 1
REMARK VINA RESULT:      -3.7      0.000      0.000
REMARK  1 active torsions:
REMARK  status: ('A' for Active; 'I' for Inactive)
REMARK    1  A    between atoms: C8_8  and  N10_10 
ROOT
HETATM    1  C1  UNL     1     -31.794  18.535  -0.972  1.00 20.00     0.065 C 
HETATM    2  C4  UNL     1     -33.403  16.904  -1.950  1.00 20.00     0.051 C 
HETATM    3  C5  UNL     1     -33.475  16.692  -3.457  1.00 20.00     0.274 C 
HETATM    4  C6  UNL     1     -32.846  18.907  -3.190  1.00 20.00     0.292 C 
HETATM    5  C7  UNL     1     -33.017  18.372  -1.768  1.00 20.00     0.122 C 
HETATM    6  N9  UNL     1     -30.828  18.663  -0.343  1.00 20.00    -0.197 NA
HETATM    7  N10 UNL     1     -33.656  18.027  -4.045  1.00 20.00     0.094 N 
ENDROOT
BRANCH   7   8
HETATM    8  C8  UNL     1     -35.084  18.437  -4.094  1.00 20.00     0.223 A 
HETATM    9  C2  UNL     1     -35.700  18.897  -5.387  1.00 20.00     0.038 A 
HETATM   10  C3  UNL     1     -36.102  17.578  -4.792  1.00 20.00     0.038 A 
ENDBRANCH   7   8
TORSDOF 1
ENDMDL
MODEL 2
REMARK VINA RESULT:      -3.6      1.919      5.209
REMARK  1 active torsions:
REMARK  status: ('A' for Active; 'I' for Inactive)
REMARK    1  A    between atoms: C8_8  and  N10_10 
ROOT
HETATM    1  C1  UNL     1     -33.618  17.359  -2.873  1.00 20.00     0.065 C 
HETATM    2  C4  UNL     1     -34.008  17.734  -0.442  1.00 20.00     0.051 C 
HETATM    3  C5  UNL     1     -33.577  19.036   0.222  1.00 20.00     0.274 C 
HETATM    4  C6  UNL     1     -32.053  18.700  -1.490  1.00 20.00     0.292 C 
HETATM    5  C7  UNL     1     -32.987  17.493  -1.555  1.00 20.00     0.122 C 
HETATM    6  N9  UNL     1     -34.116  17.253  -3.915  1.00 20.00    -0.197 NA
HETATM    7  N10 UNL     1     -32.159  19.213  -0.116  1.00 20.00     0.094 N 
ENDROOT
BRANCH   7   8
HETATM    8  C8  UNL     1     -31.256  18.502   0.828  1.00 20.00     0.223 A 
HETATM    9  C2  UNL     1     -30.227  19.263   1.616  1.00 20.00     0.038 A 
HETATM   10  C3  UNL     1     -31.418  18.671   2.313  1.00 20.00     0.038 A 
ENDBRANCH   7   8
TORSDOF 1
ENDMDL
MODEL 3
REMARK VINA RESULT:      -3.5      2.278      4.973
REMARK  1 active torsions:
REMARK  status: ('A' for Active; 'I' for Inactive)
REMARK    1  A    between atoms: C8_8  and  N10_10 
ROOT
HETATM    1  C1  UNL     1     -35.639  14.912  -6.202  1.00 20.00     0.065 C 
HETATM    2  C4  UNL     1     -35.545  17.112  -5.037  1.00 20.00     0.051 C 
HETATM    3  C5  UNL     1     -34.206  17.776  -4.739  1.00 20.00     0.274 C 
HETATM    4  C6  UNL     1     -33.777  15.500  -4.668  1.00 20.00     0.292 C 
HETATM    5  C7  UNL     1     -35.273  15.609  -4.963  1.00 20.00     0.122 C 
HETATM    6  N9  UNL     1     -35.928  14.362  -7.180  1.00 20.00    -0.197 NA
HETATM    7  N10 UNL     1     -33.404  16.770  -4.029  1.00 20.00     0.094 N 
ENDROOT
BRANCH   7   8
HETATM    8  C8  UNL     1     -33.662  16.769  -2.565  1.00 20.00     0.223 A 
HETATM    9  C2  UNL     1     -32.770  17.542  -1.634  1.00 20.00     0.038 A 
HETATM   10  C3  UNL     1     -34.178  18.002  -1.878  1.00 20.00     0.038 A 
ENDBRANCH   7   8
TORSDOF 1
ENDMDL
MODEL 4
REMARK VINA RESULT:      -3.4      1.945      2.387
REMARK  1 active torsions:
REMARK  status: ('A' for Active; 'I' for Inactive)
REMARK    1  A    between atoms: C8_8  and  N10_10 
ROOT
HETATM    1  C1  UNL     1     -32.908  18.501  -2.547  1.00 20.00     0.065 C 
HETATM    2  C4  UNL     1     -33.465  16.091  -2.843  1.00 20.00     0.051 C 
HETATM    3  C5  UNL     1     -33.305  15.418  -4.200  1.00 20.00     0.274 C 
HETATM    4  C6  UNL     1     -33.827  17.624  -4.680  1.00 20.00     0.292 C 
HETATM    5  C7  UNL     1     -33.838  17.541  -3.154  1.00 20.00     0.122 C 
HETATM    6  N9  UNL     1     -32.174  19.259  -2.068  1.00 20.00    -0.197 NA
HETATM    7  N10 UNL     1     -34.050  16.250  -5.155  1.00 20.00     0.094 N 
ENDROOT
BRANCH   7   8
HETATM    8  C8  UNL     1     -35.492  15.895  -5.215  1.00 20.00     0.223 A 
HETATM    9  C2  UNL     1     -36.092  15.360  -6.485  1.00 20.00     0.038 A 
HETATM   10  C3  UNL     1     -35.922  14.457  -5.298  1.00 20.00     0.038 A 
ENDBRANCH   7   8
TORSDOF 1
ENDMDL
MODEL 5
REMARK VINA RESULT:      -3.4     16.064     17.150
REMARK  1 active torsions:
REMARK  status: ('A' for Active; 'I' for Inactive)
REMARK    1  A    between atoms: C8_8  and  N10_10 
ROOT
HETATM    1  C1  UNL     1     -22.132  17.549   8.933  1.00 20.00     0.065 C 
HETATM    2  C4  UNL     1     -22.224  18.470  11.246  1.00 20.00     0.051 C 
HETATM    3  C5  UNL     1     -23.068  17.793  12.318  1.00 20.00     0.274 C 
HETATM    4  C6  UNL     1     -24.179  17.379  10.327  1.00 20.00     0.292 C 
HETATM    5  C7  UNL     1     -22.968  18.224   9.933  1.00 20.00     0.122 C 
HETATM    6  N9  UNL     1     -21.471  17.016   8.144  1.00 20.00    -0.197 NA
HETATM    7  N10 UNL     1     -24.417  17.664  11.750  1.00 20.00     0.094 N 
ENDROOT
BRANCH   7   8
HETATM    8  C8  UNL     1     -25.240  18.885  11.956  1.00 20.00     0.223 A 
HETATM    9  C2  UNL     1     -26.303  19.263  10.963  1.00 20.00     0.038 A 
HETATM   10  C3  UNL     1     -26.692  18.774  12.327  1.00 20.00     0.038 A 
ENDBRANCH   7   8
TORSDOF 1
ENDMDL
MODEL 6
REMARK VINA RESULT:      -3.3     24.937     25.855
REMARK  1 active torsions:
REMARK  status: ('A' for Active; 'I' for Inactive)
REMARK    1  A    between atoms: C8_8  and  N10_10 
ROOT
HETATM    1  C1  UNL     1     -30.083  -2.593  11.428  1.00 20.00     0.065 C 
HETATM    2  C4  UNL     1     -27.887  -1.697  12.188  1.00 20.00     0.051 C 
HETATM    3  C5  UNL     1     -26.918  -1.070  11.194  1.00 20.00     0.274 C 
HETATM    4  C6  UNL     1     -28.066  -2.677   9.982  1.00 20.00     0.292 C 
HETATM    5  C7  UNL     1     -28.627  -2.779  11.400  1.00 20.00     0.122 C 
HETATM    6  N9  UNL     1     -31.233  -2.447  11.450  1.00 20.00    -0.197 NA
HETATM    7  N10 UNL     1     -26.739  -2.060  10.123  1.00 20.00     0.094 N 
ENDROOT
BRANCH   7   8
HETATM    8  C8  UNL     1     -25.680  -3.053  10.438  1.00 20.00     0.223 A 
HETATM    9  C2  UNL     1     -24.438  -3.136   9.594  1.00 20.00     0.038 A 
HETATM   10  C3  UNL     1     -24.357  -2.608  10.997  1.00 20.00     0.038 A 
ENDBRANCH   7   8
TORSDOF 1
ENDMDL
MODEL 7
REMARK VINA RESULT:      -3.2      1.688      2.456
REMARK  1 active torsions:
REMARK  status: ('A' for Active; 'I' for Inactive)
REMARK    1  A    between atoms: C8_8  and  N10_10 
ROOT
HETATM    1  C1  UNL     1     -32.265  18.677   0.194  1.00 20.00     0.065 C 
HETATM    2  C4  UNL     1     -32.598  19.232  -2.212  1.00 20.00     0.051 C 
HETATM    3  C5  UNL     1     -33.900  18.874  -2.918  1.00 20.00     0.274 C 
HETATM    4  C6  UNL     1     -33.621  17.234  -1.304  1.00 20.00     0.292 C 
HETATM    5  C7  UNL     1     -32.394  18.136  -1.165  1.00 20.00     0.122 C 
HETATM    6  N9  UNL     1     -32.162  19.104   1.267  1.00 20.00    -0.197 NA
HETATM    7  N10 UNL     1     -34.112  17.441  -2.675  1.00 20.00     0.094 N 
ENDROOT
BRANCH   7   8
HETATM    8  C8  UNL     1     -33.408  16.586  -3.667  1.00 20.00     0.223 A 
HETATM    9  C2  UNL     1     -33.797  15.145  -3.842  1.00 20.00     0.038 A 
HETATM   10  C3  UNL     1     -34.104  16.141  -4.922  1.00 20.00     0.038 A 
ENDBRANCH   7   8
TORSDOF 1
ENDMDL
MODEL 8
REMARK VINA RESULT:      -3.2     12.300     13.270
REMARK  1 active torsions:
REMARK  status: ('A' for Active; 'I' for Inactive)
REMARK    1  A    between atoms: C8_8  and  N10_10 
ROOT
HETATM    1  C1  UNL     1     -42.658  15.982   7.098  1.00 20.00     0.065 C 
HETATM    2  C4  UNL     1     -42.693  13.735   6.024  1.00 20.00     0.051 C 
HETATM    3  C5  UNL     1     -41.917  12.572   6.631  1.00 20.00     0.274 C 
HETATM    4  C6  UNL     1     -40.697  14.463   7.182  1.00 20.00     0.292 C 
HETATM    5  C7  UNL     1     -41.876  14.983   6.361  1.00 20.00     0.122 C 
HETATM    6  N9  UNL     1     -43.277  16.772   7.681  1.00 20.00    -0.197 NA
HETATM    7  N10 UNL     1     -40.539  13.051   6.803  1.00 20.00     0.094 N 
ENDROOT
BRANCH   7   8
HETATM    8  C8  UNL     1     -39.720  12.880   5.575  1.00 20.00     0.223 A 
HETATM    9  C2  UNL     1     -38.438  12.096   5.617  1.00 20.00     0.038 A 
HETATM   10  C3  UNL     1     -39.632  11.541   4.896  1.00 20.00     0.038 A 
ENDBRANCH   7   8
TORSDOF 1
ENDMDL
MODEL 9
REMARK VINA RESULT:      -3.2      1.846      2.594
REMARK  1 active torsions:
REMARK  status: ('A' for Active; 'I' for Inactive)
REMARK    1  A    between atoms: C8_8  and  N10_10 
ROOT
HETATM    1  C1  UNL     1     -31.804  18.737   1.608  1.00 20.00     0.065 C 
HETATM    2  C4  UNL     1     -33.795  18.226   0.201  1.00 20.00     0.051 C 
HETATM    3  C5  UNL     1     -33.651  17.417  -1.082  1.00 20.00     0.274 C 
HETATM    4  C6  UNL     1     -31.646  18.556  -0.863  1.00 20.00     0.292 C 
HETATM    5  C7  UNL     1     -32.484  19.003   0.335  1.00 20.00     0.122 C 
HETATM    6  N9  UNL     1     -31.267  18.528   2.614  1.00 20.00    -0.197 NA
HETATM    7  N10 UNL     1     -32.609  18.088  -1.870  1.00 20.00     0.094 N 
ENDROOT
BRANCH   7   8
HETATM    8  C8  UNL     1     -33.149  19.197  -2.700  1.00 20.00     0.223 A 
HETATM    9  C2  UNL     1     -33.124  19.107  -4.201  1.00 20.00     0.038 A 
HETATM   10  C3  UNL     1     -34.431  19.023  -3.466  1.00 20.00     0.038 A 
ENDBRANCH   7   8
TORSDOF 1
ENDMDL
