MODEL 1
REMARK VINA RESULT:      -4.0      0.000      0.000
REMARK  1 active torsions:
REMARK  status: ('A' for Active; 'I' for Inactive)
REMARK    1  A    between atoms: C8_8  and  N10_10 
ROOT
HETATM    1  C1  UNL     1     -34.233   4.498   4.484  1.00 20.00     0.065 C 
HETATM    2  C4  UNL     1     -34.105   5.886   6.535  1.00 20.00     0.051 C 
HETATM    3  C5  UNL     1     -34.131   7.401   6.633  1.00 20.00     0.274 C 
HETATM    4  C6  UNL     1     -34.854   6.912   4.466  1.00 20.00     0.292 C 
HETATM    5  C7  UNL     1     -34.858   5.590   5.241  1.00 20.00     0.122 C 
HETATM    6  N9  UNL     1     -33.739   3.635   3.885  1.00 20.00    -0.197 NA
HETATM    7  N10 UNL     1     -34.049   7.871   5.244  1.00 20.00     0.094 N 
ENDROOT
BRANCH   7   8
HETATM    8  C8  UNL     1     -32.647   7.953   4.756  1.00 20.00     0.223 A 
HETATM    9  C2  UNL     1     -32.298   7.501   3.365  1.00 20.00     0.038 A 
HETATM   10  C3  UNL     1     -32.260   8.961   3.709  1.00 20.00     0.038 A 
ENDBRANCH   7   8
TORSDOF 1
ENDMDL
MODEL 2
REMARK VINA RESULT:      -3.7     12.363     13.713
REMARK  1 active torsions:
REMARK  status: ('A' for Active; 'I' for Inactive)
REMARK    1  A    between atoms: C8_8  and  N10_10 
ROOT
HETATM    1  C1  UNL     1     -35.797  13.995  -5.047  1.00 20.00     0.065 C 
HETATM    2  C4  UNL     1     -36.719  16.244  -5.533  1.00 20.00     0.051 C 
HETATM    3  C5  UNL     1     -35.956  17.548  -5.681  1.00 20.00     0.274 C 
HETATM    4  C6  UNL     1     -34.335  15.869  -5.796  1.00 20.00     0.292 C 
HETATM    5  C7  UNL     1     -35.697  15.176  -5.912  1.00 20.00     0.122 C 
HETATM    6  N9  UNL     1     -35.874  13.060  -4.363  1.00 20.00    -0.197 NA
HETATM    7  N10 UNL     1     -34.580  17.228  -5.279  1.00 20.00     0.094 N 
ENDROOT
BRANCH   7   8
HETATM    8  C8  UNL     1     -34.386  17.312  -3.807  1.00 20.00     0.223 A 
HETATM    9  C2  UNL     1     -33.367  16.443  -3.124  1.00 20.00     0.038 A 
HETATM   10  C3  UNL     1     -33.137  17.921  -3.234  1.00 20.00     0.038 A 
ENDBRANCH   7   8
TORSDOF 1
ENDMDL
MODEL 3
REMARK VINA RESULT:      -3.6      9.312     10.610
REMARK  1 active torsions:
REMARK  status: ('A' for Active; 'I' for Inactive)
REMARK    1  A    between atoms: C8_8  and  N10_10 
ROOT
HETATM    1  C1  UNL     1     -41.461  13.985   8.728  1.00 20.00     0.065 C 
HETATM    2  C4  UNL     1     -41.929  15.041   6.533  1.00 20.00     0.051 C 
HETATM    3  C5  UNL     1     -41.995  14.366   5.174  1.00 20.00     0.274 C 
HETATM    4  C6  UNL     1     -42.073  12.625   6.730  1.00 20.00     0.292 C 
HETATM    5  C7  UNL     1     -42.283  13.926   7.513  1.00 20.00     0.122 C 
HETATM    6  N9  UNL     1     -40.811  14.030   9.688  1.00 20.00    -0.197 NA
HETATM    7  N10 UNL     1     -41.529  12.993   5.410  1.00 20.00     0.094 N 
ENDROOT
BRANCH   7   8
HETATM    8  C8  UNL     1     -40.047  12.884   5.364  1.00 20.00     0.223 A 
HETATM    9  C2  UNL     1     -39.343  11.772   6.091  1.00 20.00     0.038 A 
HETATM   10  C3  UNL     1     -39.386  11.775   4.592  1.00 20.00     0.038 A 
ENDBRANCH   7   8
TORSDOF 1
ENDMDL
MODEL 4
REMARK VINA RESULT:      -3.3      9.704     10.885
REMARK  1 active torsions:
REMARK  status: ('A' for Active; 'I' for Inactive)
REMARK    1  A    between atoms: C8_8  and  N10_10 
ROOT
HETATM    1  C1  UNL     1     -42.539  14.768   3.960  1.00 20.00     0.065 C 
HETATM    2  C4  UNL     1     -43.417  13.607   5.967  1.00 20.00     0.051 C 
HETATM    3  C5  UNL     1     -42.634  13.110   7.169  1.00 20.00     0.274 C 
HETATM    4  C6  UNL     1     -41.181  14.549   6.039  1.00 20.00     0.292 C 
HETATM    5  C7  UNL     1     -42.572  14.756   5.428  1.00 20.00     0.122 C 
HETATM    6  N9  UNL     1     -42.512  14.778   2.800  1.00 20.00    -0.197 NA
HETATM    7  N10 UNL     1     -41.223  13.288   6.800  1.00 20.00     0.094 N 
ENDROOT
BRANCH   7   8
HETATM    8  C8  UNL     1     -40.695  12.141   6.015  1.00 20.00     0.223 A 
HETATM    9  C2  UNL     1     -39.789  12.377   4.838  1.00 20.00     0.038 A 
HETATM   10  C3  UNL     1     -39.241  11.766   6.094  1.00 20.00     0.038 A 
ENDBRANCH   7   8
TORSDOF 1
ENDMDL
MODEL 5
REMARK VINA RESULT:      -3.3     13.051     14.412
REMARK  1 active torsions:
REMARK  status: ('A' for Active; 'I' for Inactive)
REMARK    1  A    between atoms: C8_8  and  N10_10 
ROOT
HETATM    1  C1  UNL     1     -35.973  15.510  -6.955  1.00 20.00     0.065 C 
HETATM    2  C4  UNL     1     -36.816  17.275  -5.431  1.00 20.00     0.051 C 
HETATM    3  C5  UNL     1     -36.003  18.202  -4.544  1.00 20.00     0.274 C 
HETATM    4  C6  UNL     1     -34.464  17.267  -6.034  1.00 20.00     0.292 C 
HETATM    5  C7  UNL     1     -35.859  16.921  -6.565  1.00 20.00     0.122 C 
HETATM    6  N9  UNL     1     -36.062  14.395  -7.262  1.00 20.00    -0.197 NA
HETATM    7  N10 UNL     1     -34.626  17.698  -4.633  1.00 20.00     0.094 N 
ENDROOT
BRANCH   7   8
HETATM    8  C8  UNL     1     -34.365  16.593  -3.673  1.00 20.00     0.223 A 
HETATM    9  C2  UNL     1     -33.132  15.743  -3.808  1.00 20.00     0.038 A 
HETATM   10  C3  UNL     1     -33.257  16.704  -2.663  1.00 20.00     0.038 A 
ENDBRANCH   7   8
TORSDOF 1
ENDMDL
MODEL 6
REMARK VINA RESULT:      -3.3     12.308     13.922
REMARK  1 active torsions:
REMARK  status: ('A' for Active; 'I' for Inactive)
REMARK    1  A    between atoms: C8_8  and  N10_10 
ROOT
HETATM    1  C1  UNL     1     -33.505  16.802  -2.232  1.00 20.00     0.065 C 
HETATM    2  C4  UNL     1     -33.749  14.973  -3.888  1.00 20.00     0.051 C 
HETATM    3  C5  UNL     1     -34.223  15.081  -5.327  1.00 20.00     0.274 C 
HETATM    4  C6  UNL     1     -33.754  17.272  -4.667  1.00 20.00     0.292 C 
HETATM    5  C7  UNL     1     -33.171  16.353  -3.589  1.00 20.00     0.122 C 
HETATM    6  N9  UNL     1     -33.770  17.158  -1.160  1.00 20.00    -0.197 NA
HETATM    7  N10 UNL     1     -34.693  16.465  -5.467  1.00 20.00     0.094 N 
ENDROOT
BRANCH   7   8
HETATM    8  C8  UNL     1     -36.101  16.632  -5.018  1.00 20.00     0.223 A 
HETATM    9  C2  UNL     1     -36.634  17.997  -4.680  1.00 20.00     0.038 A 
HETATM   10  C3  UNL     1     -37.115  17.290  -5.913  1.00 20.00     0.038 A 
ENDBRANCH   7   8
TORSDOF 1
ENDMDL
MODEL 7
REMARK VINA RESULT:      -3.2     12.976     14.045
REMARK  1 active torsions:
REMARK  status: ('A' for Active; 'I' for Inactive)
REMARK    1  A    between atoms: C8_8  and  N10_10 
ROOT
HETATM    1  C1  UNL     1     -31.823  18.429  -0.431  1.00 20.00     0.065 C 
HETATM    2  C4  UNL     1     -34.153  19.263  -0.273  1.00 20.00     0.051 C 
HETATM    3  C5  UNL     1     -35.300  19.001  -1.233  1.00 20.00     0.274 C 
HETATM    4  C6  UNL     1     -33.660  17.432  -1.789  1.00 20.00     0.292 C 
HETATM    5  C7  UNL     1     -33.242  18.052  -0.451  1.00 20.00     0.122 C 
HETATM    6  N9  UNL     1     -30.702  18.726  -0.416  1.00 20.00    -0.197 NA
HETATM    7  N10 UNL     1     -34.686  18.313  -2.377  1.00 20.00     0.094 N 
ENDROOT
BRANCH   7   8
HETATM    8  C8  UNL     1     -34.109  19.263  -3.365  1.00 20.00     0.223 A 
HETATM    9  C2  UNL     1     -32.924  18.865  -4.200  1.00 20.00     0.038 A 
HETATM   10  C3  UNL     1     -34.272  19.022  -4.840  1.00 20.00     0.038 A 
ENDBRANCH   7   8
TORSDOF 1
ENDMDL
MODEL 8
REMARK VINA RESULT:      -3.2     12.768     13.789
REMARK  1 active torsions:
REMARK  status: ('A' for Active; 'I' for Inactive)
REMARK    1  A    between atoms: C8_8  and  N10_10 
ROOT
HETATM    1  C1  UNL     1     -36.090  18.866  -2.652  1.00 20.00     0.065 C 
HETATM    2  C4  UNL     1     -34.163  18.215  -1.235  1.00 20.00     0.051 C 
HETATM    3  C5  UNL     1     -32.838  17.626  -1.684  1.00 20.00     0.274 C 
HETATM    4  C6  UNL     1     -33.834  18.455  -3.628  1.00 20.00     0.292 C 
HETATM    5  C7  UNL     1     -34.643  19.005  -2.448  1.00 20.00     0.122 C 
HETATM    6  N9  UNL     1     -37.234  18.756  -2.814  1.00 20.00    -0.197 NA
HETATM    7  N10 UNL     1     -33.016  17.341  -3.114  1.00 20.00     0.094 N 
ENDROOT
BRANCH   7   8
HETATM    8  C8  UNL     1     -33.654  16.020  -3.352  1.00 20.00     0.223 A 
HETATM    9  C2  UNL     1     -34.229  15.685  -4.701  1.00 20.00     0.038 A 
HETATM   10  C3  UNL     1     -32.984  14.994  -4.225  1.00 20.00     0.038 A 
ENDBRANCH   7   8
TORSDOF 1
ENDMDL
MODEL 9
REMARK VINA RESULT:      -3.2     12.733     13.898
REMARK  1 active torsions:
REMARK  status: ('A' for Active; 'I' for Inactive)
REMARK    1  A    between atoms: C8_8  and  N10_10 
ROOT
HETATM    1  C1  UNL     1     -23.744  -3.280   9.166  1.00 20.00     0.065 C 
HETATM    2  C4  UNL     1     -23.890  -2.057  11.318  1.00 20.00     0.051 C 
HETATM    3  C5  UNL     1     -25.060  -2.018  12.285  1.00 20.00     0.274 C 
HETATM    4  C6  UNL     1     -25.514  -3.798  10.843  1.00 20.00     0.292 C 
HETATM    5  C7  UNL     1     -24.058  -3.391  10.596  1.00 20.00     0.122 C 
HETATM    6  N9  UNL     1     -23.498  -3.193   8.035  1.00 20.00    -0.197 NA
HETATM    7  N10 UNL     1     -26.156  -2.696  11.581  1.00 20.00     0.094 N 
ENDROOT
BRANCH   7   8
HETATM    8  C8  UNL     1     -26.903  -1.777  10.681  1.00 20.00     0.223 A 
HETATM    9  C2  UNL     1     -28.016  -2.300   9.815  1.00 20.00     0.038 A 
HETATM   10  C3  UNL     1     -28.330  -1.407  10.980  1.00 20.00     0.038 A 
ENDBRANCH   7   8
TORSDOF 1
ENDMDL
