MODEL 1
REMARK VINA RESULT:      -4.2      0.000      0.000
REMARK  1 active torsions:
REMARK  status: ('A' for Active; 'I' for Inactive)
REMARK    1  A    between atoms: C2_2  and  C7_7 
ROOT
HETATM    1  C1  UNL     1     -22.899  18.301  12.332  1.00 20.00     0.310 C 
HETATM    2  C2  UNL     1     -22.636  18.249  10.075  1.00 20.00     0.356 C 
HETATM    3  C3  UNL     1     -24.202  17.811  11.705  1.00 20.00     0.083 C 
HETATM    4  C4  UNL     1     -25.408  18.589  12.219  1.00 20.00     0.047 C 
HETATM    5  C5  UNL     1     -24.422  16.306  11.892  1.00 20.00     0.047 C 
HETATM    6  N8  UNL     1     -21.897  17.974  11.314  1.00 20.00     0.115 N 
HETATM    7  O9  UNL     1     -24.045  18.071  10.299  1.00 20.00    -0.345 OA
HETATM    8  H24 UNL     1     -21.086  18.584  11.395  1.00 20.00     0.319 HD
ENDROOT
BRANCH   2   9
HETATM    9  C7  UNL     1     -22.192  17.345   8.937  1.00 20.00     0.059 C 
HETATM   10  C6  UNL     1     -21.655  18.124   7.778  1.00 20.00     0.009 C 
ENDBRANCH   2   9
TORSDOF 1
ENDMDL
MODEL 2
REMARK VINA RESULT:      -4.0      1.136      3.597
REMARK  1 active torsions:
REMARK  status: ('A' for Active; 'I' for Inactive)
REMARK    1  A    between atoms: C2_2  and  C7_7 
ROOT
HETATM    1  C1  UNL     1     -22.306  18.430  11.110  1.00 20.00     0.310 C 
HETATM    2  C2  UNL     1     -23.976  17.072  11.837  1.00 20.00     0.356 C 
HETATM    3  C3  UNL     1     -23.054  17.890   9.894  1.00 20.00     0.083 C 
HETATM    4  C4  UNL     1     -22.104  17.288   8.864  1.00 20.00     0.047 C 
HETATM    5  C5  UNL     1     -23.954  18.941   9.235  1.00 20.00     0.047 C 
HETATM    6  N8  UNL     1     -23.299  18.328  12.182  1.00 20.00     0.115 N 
HETATM    7  O9  UNL     1     -23.892  16.846  10.420  1.00 20.00    -0.345 OA
HETATM    8  H24 UNL     1     -22.845  18.257  13.091  1.00 20.00     0.319 HD
ENDROOT
BRANCH   2   9
HETATM    9  C7  UNL     1     -25.438  17.082  12.256  1.00 20.00     0.059 C 
HETATM   10  C6  UNL     1     -25.991  18.470  12.329  1.00 20.00     0.009 C 
ENDBRANCH   2   9
TORSDOF 1
ENDMDL
MODEL 3
REMARK VINA RESULT:      -3.8     17.964     18.715
REMARK  1 active torsions:
REMARK  status: ('A' for Active; 'I' for Inactive)
REMARK    1  A    between atoms: C2_2  and  C7_7 
ROOT
HETATM    1  C1  UNL     1     -42.094  14.027   5.978  1.00 20.00     0.310 C 
HETATM    2  C2  UNL     1     -40.566  12.347   5.893  1.00 20.00     0.356 C 
HETATM    3  C3  UNL     1     -41.383  13.951   7.327  1.00 20.00     0.083 C 
HETATM    4  C4  UNL     1     -42.371  13.897   8.488  1.00 20.00     0.047 C 
HETATM    5  C5  UNL     1     -40.382  15.092   7.535  1.00 20.00     0.047 C 
HETATM    6  N8  UNL     1     -41.129  13.417   5.060  1.00 20.00     0.115 N 
HETATM    7  O9  UNL     1     -40.652  12.713   7.280  1.00 20.00    -0.345 OA
HETATM    8  H24 UNL     1     -41.599  13.031   4.243  1.00 20.00     0.319 HD
ENDROOT
BRANCH   2   9
HETATM    9  C7  UNL     1     -39.115  12.058   5.541  1.00 20.00     0.059 C 
HETATM   10  C6  UNL     1     -38.951  11.684   4.102  1.00 20.00     0.009 C 
ENDBRANCH   2   9
TORSDOF 1
ENDMDL
MODEL 4
REMARK VINA RESULT:      -3.8     15.524     16.419
REMARK  1 active torsions:
REMARK  status: ('A' for Active; 'I' for Inactive)
REMARK    1  A    between atoms: C2_2  and  C7_7 
ROOT
HETATM    1  C1  UNL     1     -34.369   6.090   6.223  1.00 20.00     0.310 C 
HETATM    2  C2  UNL     1     -33.479   7.961   5.291  1.00 20.00     0.356 C 
HETATM    3  C3  UNL     1     -34.572   6.020   4.712  1.00 20.00     0.083 C 
HETATM    4  C4  UNL     1     -36.021   5.717   4.346  1.00 20.00     0.047 C 
HETATM    5  C5  UNL     1     -33.632   5.019   4.032  1.00 20.00     0.047 C 
HETATM    6  N8  UNL     1     -33.223   6.991   6.363  1.00 20.00     0.115 N 
HETATM    7  O9  UNL     1     -34.240   7.339   4.242  1.00 20.00    -0.345 OA
HETATM    8  H24 UNL     1     -33.229   7.447   7.273  1.00 20.00     0.319 HD
ENDROOT
BRANCH   2   9
HETATM    9  C7  UNL     1     -32.189   8.518   4.709  1.00 20.00     0.059 C 
HETATM   10  C6  UNL     1     -32.027   8.164   3.265  1.00 20.00     0.009 C 
ENDBRANCH   2   9
TORSDOF 1
ENDMDL
MODEL 5
REMARK VINA RESULT:      -3.8     16.175     17.032
REMARK  1 active torsions:
REMARK  status: ('A' for Active; 'I' for Inactive)
REMARK    1  A    between atoms: C2_2  and  C7_7 
ROOT
HETATM    1  C1  UNL     1     -33.845   4.587   3.965  1.00 20.00     0.310 C 
HETATM    2  C2  UNL     1     -32.621   6.459   3.565  1.00 20.00     0.356 C 
HETATM    3  C3  UNL     1     -34.439   5.734   4.777  1.00 20.00     0.083 C 
HETATM    4  C4  UNL     1     -34.623   5.358   6.244  1.00 20.00     0.047 C 
HETATM    5  C5  UNL     1     -35.756   6.256   4.194  1.00 20.00     0.047 C 
HETATM    6  N8  UNL     1     -33.150   5.276   2.875  1.00 20.00     0.115 N 
HETATM    7  O9  UNL     1     -33.460   6.785   4.686  1.00 20.00    -0.345 OA
HETATM    8  H24 UNL     1     -32.394   4.702   2.507  1.00 20.00     0.319 HD
ENDROOT
BRANCH   2   9
HETATM    9  C7  UNL     1     -32.532   7.663   2.641  1.00 20.00     0.059 C 
HETATM   10  C6  UNL     1     -32.544   8.953   3.399  1.00 20.00     0.009 C 
ENDBRANCH   2   9
TORSDOF 1
ENDMDL
MODEL 6
REMARK VINA RESULT:      -3.7     19.049     20.094
REMARK  1 active torsions:
REMARK  status: ('A' for Active; 'I' for Inactive)
REMARK    1  A    between atoms: C2_2  and  C7_7 
ROOT
HETATM    1  C1  UNL     1     -34.489  15.525  -7.277  1.00 20.00     0.310 C 
HETATM    2  C2  UNL     1     -33.947  14.944  -5.149  1.00 20.00     0.356 C 
HETATM    3  C3  UNL     1     -35.213  16.468  -6.320  1.00 20.00     0.083 C 
HETATM    4  C4  UNL     1     -36.704  16.558  -6.628  1.00 20.00     0.047 C 
HETATM    5  C5  UNL     1     -34.594  17.869  -6.285  1.00 20.00     0.047 C 
HETATM    6  N8  UNL     1     -33.349  15.058  -6.485  1.00 20.00     0.115 N 
HETATM    7  O9  UNL     1     -35.041  15.867  -5.024  1.00 20.00    -0.345 OA
HETATM    8  H24 UNL     1     -33.025  14.151  -6.816  1.00 20.00     0.319 HD
ENDROOT
BRANCH   2   9
HETATM    9  C7  UNL     1     -32.933  15.218  -4.049  1.00 20.00     0.059 C 
HETATM   10  C6  UNL     1     -33.425  16.243  -3.077  1.00 20.00     0.009 C 
ENDBRANCH   2   9
TORSDOF 1
ENDMDL
MODEL 7
REMARK VINA RESULT:      -3.7     18.091     18.959
REMARK  1 active torsions:
REMARK  status: ('A' for Active; 'I' for Inactive)
REMARK    1  A    between atoms: C2_2  and  C7_7 
ROOT
HETATM    1  C1  UNL     1     -41.218  14.276   7.443  1.00 20.00     0.310 C 
HETATM    2  C2  UNL     1     -39.950  13.183   5.906  1.00 20.00     0.356 C 
HETATM    3  C3  UNL     1     -42.150  13.557   6.471  1.00 20.00     0.083 C 
HETATM    4  C4  UNL     1     -43.219  14.490   5.912  1.00 20.00     0.047 C 
HETATM    5  C5  UNL     1     -42.800  12.312   7.083  1.00 20.00     0.047 C 
HETATM    6  N8  UNL     1     -39.974  13.511   7.337  1.00 20.00     0.115 N 
HETATM    7  O9  UNL     1     -41.293  13.134   5.395  1.00 20.00    -0.345 OA
HETATM    8  H24 UNL     1     -39.172  14.085   7.591  1.00 20.00     0.319 HD
ENDROOT
BRANCH   2   9
HETATM    9  C7  UNL     1     -39.266  11.852   5.640  1.00 20.00     0.059 C 
HETATM   10  C6  UNL     1     -39.037  11.621   4.179  1.00 20.00     0.009 C 
ENDBRANCH   2   9
TORSDOF 1
ENDMDL
MODEL 8
REMARK VINA RESULT:      -3.7     18.796     19.720
REMARK  1 active torsions:
REMARK  status: ('A' for Active; 'I' for Inactive)
REMARK    1  A    between atoms: C2_2  and  C7_7 
ROOT
HETATM    1  C1  UNL     1     -36.169  16.724  -5.335  1.00 20.00     0.310 C 
HETATM    2  C2  UNL     1     -34.061  16.609  -4.496  1.00 20.00     0.356 C 
HETATM    3  C3  UNL     1     -35.513  15.446  -5.852  1.00 20.00     0.083 C 
HETATM    4  C4  UNL     1     -35.636  15.315  -7.366  1.00 20.00     0.047 C 
HETATM    5  C5  UNL     1     -36.047  14.185  -5.164  1.00 20.00     0.047 C 
HETATM    6  N8  UNL     1     -35.419  17.011  -4.111  1.00 20.00     0.115 N 
HETATM    7  O9  UNL     1     -34.123  15.591  -5.509  1.00 20.00    -0.345 OA
HETATM    8  H24 UNL     1     -35.454  18.004  -3.888  1.00 20.00     0.319 HD
ENDROOT
BRANCH   2   9
HETATM    9  C7  UNL     1     -33.266  16.086  -3.310  1.00 20.00     0.059 C 
HETATM   10  C6  UNL     1     -33.503  16.897  -2.075  1.00 20.00     0.009 C 
ENDBRANCH   2   9
TORSDOF 1
ENDMDL
MODEL 9
REMARK VINA RESULT:      -3.5     14.734     15.599
REMARK  1 active torsions:
REMARK  status: ('A' for Active; 'I' for Inactive)
REMARK    1  A    between atoms: C2_2  and  C7_7 
ROOT
HETATM    1  C1  UNL     1     -34.352  18.659  -1.242  1.00 20.00     0.310 C 
HETATM    2  C2  UNL     1     -32.208  19.131  -0.656  1.00 20.00     0.356 C 
HETATM    3  C3  UNL     1     -33.434  18.238  -2.387  1.00 20.00     0.083 C 
HETATM    4  C4  UNL     1     -33.900  18.801  -3.726  1.00 20.00     0.047 C 
HETATM    5  C5  UNL     1     -33.262  16.718  -2.482  1.00 20.00     0.047 C 
HETATM    6  N8  UNL     1     -33.463  18.635  -0.078  1.00 20.00     0.115 N 
HETATM    7  O9  UNL     1     -32.158  18.815  -2.058  1.00 20.00    -0.345 OA
HETATM    8  H24 UNL     1     -33.801  19.262   0.649  1.00 20.00     0.319 HD
ENDROOT
BRANCH   2   9
HETATM    9  C7  UNL     1     -30.991  18.535   0.033  1.00 20.00     0.059 C 
HETATM   10  C6  UNL     1     -31.191  18.406   1.511  1.00 20.00     0.009 C 
ENDBRANCH   2   9
TORSDOF 1
ENDMDL
