MODEL 1
REMARK VINA RESULT:      -4.2      0.000      0.000
REMARK  1 active torsions:
REMARK  status: ('A' for Active; 'I' for Inactive)
REMARK    1  A    between atoms: C3_3  and  C7_7 
ROOT
HETATM    1  C1  UNL     1     -32.728   8.401   4.760  1.00 20.00     0.304 C 
HETATM    2  C2  UNL     1     -32.424   7.401   3.660  1.00 20.00     0.148 C 
HETATM    3  C3  UNL     1     -34.393   6.847   4.677  1.00 20.00     0.360 C 
HETATM    4  C4  UNL     1     -31.964   8.044   2.367  1.00 20.00     0.041 C 
HETATM    5  N8  UNL     1     -33.584   7.606   5.632  1.00 20.00     0.115 N 
HETATM    6  O9  UNL     1     -33.662   6.705   3.448  1.00 20.00    -0.350 OA
HETATM    7  H24 UNL     1     -32.997   6.961   6.162  1.00 20.00     0.319 HD
ENDROOT
BRANCH   3   8
HETATM    8  C7  UNL     1     -34.726   5.471   5.225  1.00 20.00     0.036 C 
HETATM    9  C5  UNL     1     -34.082   4.376   4.372  1.00 20.00     0.014 C 
HETATM   10  C6  UNL     1     -34.276   5.342   6.682  1.00 20.00     0.014 C 
ENDBRANCH   3   8
TORSDOF 1
ENDMDL
MODEL 2
REMARK VINA RESULT:      -3.8     12.439     13.000
REMARK  1 active torsions:
REMARK  status: ('A' for Active; 'I' for Inactive)
REMARK    1  A    between atoms: C3_3  and  C7_7 
ROOT
HETATM    1  C1  UNL     1     -31.080  19.038   3.631  1.00 20.00     0.304 C 
HETATM    2  C2  UNL     1     -29.910  18.512   2.821  1.00 20.00     0.148 C 
HETATM    3  C3  UNL     1     -31.545  19.261   1.412  1.00 20.00     0.360 C 
HETATM    4  C4  UNL     1     -28.561  18.979   3.333  1.00 20.00     0.041 C 
HETATM    5  N8  UNL     1     -32.173  18.883   2.679  1.00 20.00     0.115 N 
HETATM    6  O9  UNL     1     -30.131  19.016   1.494  1.00 20.00    -0.350 OA
HETATM    7  H24 UNL     1     -32.434  17.897   2.643  1.00 20.00     0.319 HD
ENDROOT
BRANCH   3   8
HETATM    8  C7  UNL     1     -32.127  18.460   0.261  1.00 20.00     0.036 C 
HETATM    9  C5  UNL     1     -33.605  18.151   0.507  1.00 20.00     0.014 C 
HETATM   10  C6  UNL     1     -31.953  19.206  -1.063  1.00 20.00     0.014 C 
ENDBRANCH   3   8
TORSDOF 1
ENDMDL
MODEL 3
REMARK VINA RESULT:      -3.7     12.342     13.061
REMARK  1 active torsions:
REMARK  status: ('A' for Active; 'I' for Inactive)
REMARK    1  A    between atoms: C3_3  and  C7_7 
ROOT
HETATM    1  C1  UNL     1     -32.064  18.890   2.348  1.00 20.00     0.304 C 
HETATM    2  C2  UNL     1     -30.733  18.409   1.801  1.00 20.00     0.148 C 
HETATM    3  C3  UNL     1     -32.078  19.072   0.078  1.00 20.00     0.360 C 
HETATM    4  C4  UNL     1     -29.537  18.940   2.567  1.00 20.00     0.041 C 
HETATM    5  N8  UNL     1     -32.933  18.677   1.198  1.00 20.00     0.115 N 
HETATM    6  O9  UNL     1     -30.701  18.891   0.448  1.00 20.00    -0.350 OA
HETATM    7  H24 UNL     1     -33.140  17.681   1.127  1.00 20.00     0.319 HD
ENDROOT
BRANCH   3   8
HETATM    8  C7  UNL     1     -32.381  18.235  -1.153  1.00 20.00     0.036 C 
HETATM    9  C5  UNL     1     -33.637  17.388  -0.939  1.00 20.00     0.014 C 
HETATM   10  C6  UNL     1     -32.543  19.123  -2.388  1.00 20.00     0.014 C 
ENDBRANCH   3   8
TORSDOF 1
ENDMDL
MODEL 4
REMARK VINA RESULT:      -3.7      1.623      2.049
REMARK  1 active torsions:
REMARK  status: ('A' for Active; 'I' for Inactive)
REMARK    1  A    between atoms: C3_3  and  C7_7 
ROOT
HETATM    1  C1  UNL     1     -32.507   6.931   2.909  1.00 20.00     0.304 C 
HETATM    2  C2  UNL     1     -32.826   5.468   3.150  1.00 20.00     0.148 C 
HETATM    3  C3  UNL     1     -34.241   6.776   4.378  1.00 20.00     0.360 C 
HETATM    4  C4  UNL     1     -32.871   4.641   1.881  1.00 20.00     0.041 C 
HETATM    5  N8  UNL     1     -33.014   7.535   4.135  1.00 20.00     0.115 N 
HETATM    6  O9  UNL     1     -34.119   5.476   3.775  1.00 20.00    -0.350 OA
HETATM    7  H24 UNL     1     -32.349   7.349   4.887  1.00 20.00     0.319 HD
ENDROOT
BRANCH   3   8
HETATM    8  C7  UNL     1     -34.491   6.617   5.867  1.00 20.00     0.036 C 
HETATM    9  C5  UNL     1     -34.545   5.137   6.255  1.00 20.00     0.014 C 
HETATM   10  C6  UNL     1     -33.416   7.340   6.680  1.00 20.00     0.014 C 
ENDBRANCH   3   8
TORSDOF 1
ENDMDL
MODEL 5
REMARK VINA RESULT:      -3.6      1.381      3.834
REMARK  1 active torsions:
REMARK  status: ('A' for Active; 'I' for Inactive)
REMARK    1  A    between atoms: C3_3  and  C7_7 
ROOT
HETATM    1  C1  UNL     1     -34.217   4.703   4.360  1.00 20.00     0.304 C 
HETATM    2  C2  UNL     1     -33.939   5.559   5.581  1.00 20.00     0.148 C 
HETATM    3  C3  UNL     1     -33.535   6.770   3.686  1.00 20.00     0.360 C 
HETATM    4  C4  UNL     1     -35.011   5.457   6.648  1.00 20.00     0.041 C 
HETATM    5  N8  UNL     1     -33.372   5.352   3.364  1.00 20.00     0.115 N 
HETATM    6  O9  UNL     1     -33.876   6.902   5.077  1.00 20.00    -0.350 OA
HETATM    7  H24 UNL     1     -32.404   5.078   3.533  1.00 20.00     0.319 HD
ENDROOT
BRANCH   3   8
HETATM    8  C7  UNL     1     -32.255   7.537   3.408  1.00 20.00     0.036 C 
HETATM    9  C5  UNL     1     -32.194   7.980   1.944  1.00 20.00     0.014 C 
HETATM   10  C6  UNL     1     -32.134   8.748   4.335  1.00 20.00     0.014 C 
ENDBRANCH   3   8
TORSDOF 1
ENDMDL
MODEL 6
REMARK VINA RESULT:      -3.6      1.446      2.148
REMARK  1 active torsions:
REMARK  status: ('A' for Active; 'I' for Inactive)
REMARK    1  A    between atoms: C3_3  and  C7_7 
ROOT
HETATM    1  C1  UNL     1     -32.351   7.422   3.149  1.00 20.00     0.304 C 
HETATM    2  C2  UNL     1     -32.963   8.212   4.291  1.00 20.00     0.148 C 
HETATM    3  C3  UNL     1     -33.257   5.977   4.659  1.00 20.00     0.360 C 
HETATM    4  C4  UNL     1     -32.075   9.331   4.797  1.00 20.00     0.041 C 
HETATM    5  N8  UNL     1     -33.122   6.187   3.217  1.00 20.00     0.115 N 
HETATM    6  O9  UNL     1     -33.173   7.244   5.331  1.00 20.00    -0.350 OA
HETATM    7  H24 UNL     1     -34.045   6.359   2.815  1.00 20.00     0.319 HD
ENDROOT
BRANCH   3   8
HETATM    8  C7  UNL     1     -34.588   5.323   4.987  1.00 20.00     0.036 C 
HETATM    9  C5  UNL     1     -34.853   5.356   6.494  1.00 20.00     0.014 C 
HETATM   10  C6  UNL     1     -35.730   6.004   4.231  1.00 20.00     0.014 C 
ENDBRANCH   3   8
TORSDOF 1
ENDMDL
MODEL 7
REMARK VINA RESULT:      -3.6      1.636      1.941
REMARK  1 active torsions:
REMARK  status: ('A' for Active; 'I' for Inactive)
REMARK    1  A    between atoms: C3_3  and  C7_7 
ROOT
HETATM    1  C1  UNL     1     -33.945   7.523   6.333  1.00 20.00     0.304 C 
HETATM    2  C2  UNL     1     -32.848   7.761   5.312  1.00 20.00     0.148 C 
HETATM    3  C3  UNL     1     -34.432   6.372   4.428  1.00 20.00     0.360 C 
HETATM    4  C4  UNL     1     -32.431   9.214   5.198  1.00 20.00     0.041 C 
HETATM    5  N8  UNL     1     -34.472   6.240   5.885  1.00 20.00     0.115 N 
HETATM    6  O9  UNL     1     -33.407   7.313   4.067  1.00 20.00    -0.350 OA
HETATM    7  H24 UNL     1     -33.824   5.505   6.173  1.00 20.00     0.319 HD
ENDROOT
BRANCH   3   8
HETATM    8  C7  UNL     1     -34.140   5.034   3.772  1.00 20.00     0.036 C 
HETATM    9  C5  UNL     1     -33.047   5.176   2.711  1.00 20.00     0.014 C 
HETATM   10  C6  UNL     1     -33.735   3.993   4.817  1.00 20.00     0.014 C 
ENDBRANCH   3   8
TORSDOF 1
ENDMDL
MODEL 8
REMARK VINA RESULT:      -3.6     12.338     12.958
REMARK  1 active torsions:
REMARK  status: ('A' for Active; 'I' for Inactive)
REMARK    1  A    between atoms: C3_3  and  C7_7 
ROOT
HETATM    1  C1  UNL     1     -33.603  17.681  -3.869  1.00 20.00     0.304 C 
HETATM    2  C2  UNL     1     -33.162  16.357  -3.273  1.00 20.00     0.148 C 
HETATM    3  C3  UNL     1     -33.800  17.778  -1.602  1.00 20.00     0.360 C 
HETATM    4  C4  UNL     1     -33.719  15.150  -4.001  1.00 20.00     0.041 C 
HETATM    5  N8  UNL     1     -33.376  18.584  -2.747  1.00 20.00     0.115 N 
HETATM    6  O9  UNL     1     -33.653  16.385  -1.924  1.00 20.00    -0.350 OA
HETATM    7  H24 UNL     1     -32.374  18.767  -2.676  1.00 20.00     0.319 HD
ENDROOT
BRANCH   3   8
HETATM    8  C7  UNL     1     -32.964  18.101  -0.375  1.00 20.00     0.036 C 
HETATM    9  C5  UNL     1     -31.838  19.074  -0.726  1.00 20.00     0.014 C 
HETATM   10  C6  UNL     1     -33.837  18.677   0.741  1.00 20.00     0.014 C 
ENDBRANCH   3   8
TORSDOF 1
ENDMDL
MODEL 9
REMARK VINA RESULT:      -3.5      8.985      9.705
REMARK  1 active torsions:
REMARK  status: ('A' for Active; 'I' for Inactive)
REMARK    1  A    between atoms: C3_3  and  C7_7 
ROOT
HETATM    1  C1  UNL     1     -38.820  12.165   6.123  1.00 20.00     0.304 C 
HETATM    2  C2  UNL     1     -39.687  11.825   4.925  1.00 20.00     0.148 C 
HETATM    3  C3  UNL     1     -40.569  13.621   6.027  1.00 20.00     0.360 C 
HETATM    4  C4  UNL     1     -38.895  11.554   3.661  1.00 20.00     0.041 C 
HETATM    5  N8  UNL     1     -39.783  12.841   6.983  1.00 20.00     0.115 N 
HETATM    6  O9  UNL     1     -40.523  12.978   4.742  1.00 20.00    -0.350 OA
HETATM    7  H24 UNL     1     -40.382  12.137   7.415  1.00 20.00     0.319 HD
ENDROOT
BRANCH   3   8
HETATM    8  C7  UNL     1     -42.014  13.732   6.480  1.00 20.00     0.036 C 
HETATM    9  C5  UNL     1     -42.901  14.253   5.347  1.00 20.00     0.014 C 
HETATM   10  C6  UNL     1     -42.532  12.384   6.983  1.00 20.00     0.014 C 
ENDBRANCH   3   8
TORSDOF 1
ENDMDL
