MODEL 1
REMARK VINA RESULT:      -4.6      0.000      0.000
REMARK  2 active torsions:
REMARK  status: ('A' for Active; 'I' for Inactive)
REMARK    1  A    between atoms: C1_1  and  C9_9 
REMARK    2  A    between atoms: C8_8  and  C9_9 
ROOT
HETATM    1  C2  UNL     1     -34.448   4.910   6.189  1.00 20.00     0.005 C 
HETATM    2  C3  UNL     1     -33.881   4.505   4.821  1.00 20.00     0.005 C 
HETATM    3  C4  UNL     1     -35.402   6.298   4.507  1.00 20.00     0.009 C 
HETATM    4  C5  UNL     1     -33.690   7.275   5.838  1.00 20.00     0.010 C 
HETATM    5  C6  UNL     1     -34.919   6.355   5.954  1.00 20.00    -0.014 C 
HETATM    6  C7  UNL     1     -34.061   5.783   3.981  1.00 20.00    -0.010 C 
HETATM    7  C8  UNL     1     -33.060   6.846   4.495  1.00 20.00    -0.004 C 
ENDROOT
BRANCH   7   8
HETATM    8  C9  UNL     1     -32.896   8.017   3.532  1.00 20.00     0.074 C 
BRANCH   8   9
HETATM    9  C1  UNL     1     -32.207   7.619   2.255  1.00 20.00     0.231 C 
HETATM   10  O10 UNL     1     -32.190   8.288   1.226  1.00 20.00    -0.307 OA
ENDBRANCH   8   9
ENDBRANCH   7   8
TORSDOF 2
ENDMDL
MODEL 2
REMARK VINA RESULT:      -4.4      1.311      1.482
REMARK  2 active torsions:
REMARK  status: ('A' for Active; 'I' for Inactive)
REMARK    1  A    between atoms: C1_1  and  C9_9 
REMARK    2  A    between atoms: C8_8  and  C9_9 
ROOT
HETATM    1  C2  UNL     1     -34.230   4.188   4.969  1.00 20.00     0.005 C 
HETATM    2  C3  UNL     1     -33.560   4.908   3.790  1.00 20.00     0.005 C 
HETATM    3  C4  UNL     1     -35.465   6.157   4.454  1.00 20.00     0.009 C 
HETATM    4  C5  UNL     1     -34.060   6.261   6.371  1.00 20.00     0.010 C 
HETATM    5  C6  UNL     1     -35.032   5.310   5.649  1.00 20.00    -0.014 C 
HETATM    6  C7  UNL     1     -34.030   6.365   3.964  1.00 20.00    -0.010 C 
HETATM    7  C8  UNL     1     -33.324   6.957   5.206  1.00 20.00    -0.004 C 
ENDROOT
BRANCH   7   8
HETATM    8  C9  UNL     1     -33.433   8.477   5.279  1.00 20.00     0.074 C 
BRANCH   8   9
HETATM    9  C1  UNL     1     -32.453   9.168   4.369  1.00 20.00     0.231 C 
HETATM   10  O10 UNL     1     -32.491   9.142   3.143  1.00 20.00    -0.307 OA
ENDBRANCH   8   9
ENDBRANCH   7   8
TORSDOF 2
ENDMDL
MODEL 3
REMARK VINA RESULT:      -4.3      0.773      1.037
REMARK  2 active torsions:
REMARK  status: ('A' for Active; 'I' for Inactive)
REMARK    1  A    between atoms: C1_1  and  C9_9 
REMARK    2  A    between atoms: C8_8  and  C9_9 
ROOT
HETATM    1  C2  UNL     1     -34.517   6.083   6.521  1.00 20.00     0.005 C 
HETATM    2  C3  UNL     1     -34.293   4.766   5.763  1.00 20.00     0.005 C 
HETATM    3  C4  UNL     1     -35.397   6.291   4.320  1.00 20.00     0.009 C 
HETATM    4  C5  UNL     1     -33.310   7.356   4.728  1.00 20.00     0.010 C 
HETATM    5  C6  UNL     1     -34.680   7.110   5.389  1.00 20.00    -0.014 C 
HETATM    6  C7  UNL     1     -34.315   5.210   4.288  1.00 20.00    -0.010 C 
HETATM    7  C8  UNL     1     -33.027   6.021   4.007  1.00 20.00    -0.004 C 
ENDROOT
BRANCH   7   8
HETATM    8  C9  UNL     1     -32.764   6.213   2.517  1.00 20.00     0.074 C 
BRANCH   8   9
HETATM    9  C1  UNL     1     -32.220   7.581   2.201  1.00 20.00     0.231 C 
HETATM   10  O10 UNL     1     -32.176   8.080   1.081  1.00 20.00    -0.307 OA
ENDBRANCH   8   9
ENDBRANCH   7   8
TORSDOF 2
ENDMDL
MODEL 4
REMARK VINA RESULT:      -4.3     15.460     16.374
REMARK  2 active torsions:
REMARK  status: ('A' for Active; 'I' for Inactive)
REMARK    1  A    between atoms: C1_1  and  C9_9 
REMARK    2  A    between atoms: C8_8  and  C9_9 
ROOT
HETATM    1  C2  UNL     1     -25.437  17.120  12.323  1.00 20.00     0.005 C 
HETATM    2  C3  UNL     1     -25.443  18.618  11.986  1.00 20.00     0.005 C 
HETATM    3  C4  UNL     1     -23.195  17.917  12.276  1.00 20.00     0.009 C 
HETATM    4  C5  UNL     1     -23.910  16.658  10.388  1.00 20.00     0.010 C 
HETATM    5  C6  UNL     1     -24.019  16.681  11.924  1.00 20.00    -0.014 C 
HETATM    6  C7  UNL     1     -24.038  18.843  11.397  1.00 20.00    -0.010 C 
HETATM    7  C8  UNL     1     -23.976  18.154  10.013  1.00 20.00    -0.004 C 
ENDROOT
BRANCH   7   8
HETATM    8  C9  UNL     1     -22.773  18.597   9.186  1.00 20.00     0.074 C 
BRANCH   8   9
HETATM    9  C1  UNL     1     -21.926  17.436   8.737  1.00 20.00     0.231 C 
HETATM   10  O10 UNL     1     -21.831  17.040   7.580  1.00 20.00    -0.307 OA
ENDBRANCH   8   9
ENDBRANCH   7   8
TORSDOF 2
ENDMDL
MODEL 5
REMARK VINA RESULT:      -3.7     12.564     13.374
REMARK  2 active torsions:
REMARK  status: ('A' for Active; 'I' for Inactive)
REMARK    1  A    between atoms: C1_1  and  C9_9 
REMARK    2  A    between atoms: C8_8  and  C9_9 
ROOT
HETATM    1  C2  UNL     1     -34.403  17.701  -2.970  1.00 20.00     0.005 C 
HETATM    2  C3  UNL     1     -33.269  16.853  -2.376  1.00 20.00     0.005 C 
HETATM    3  C4  UNL     1     -32.615  19.133  -2.322  1.00 20.00     0.009 C 
HETATM    4  C5  UNL     1     -34.507  19.084  -0.880  1.00 20.00     0.010 C 
HETATM    5  C6  UNL     1     -34.140  19.095  -2.376  1.00 20.00    -0.014 C 
HETATM    6  C7  UNL     1     -32.520  17.859  -1.481  1.00 20.00    -0.010 C 
HETATM    7  C8  UNL     1     -33.416  18.183  -0.262  1.00 20.00    -0.004 C 
ENDROOT
BRANCH   7   8
HETATM    8  C9  UNL     1     -32.656  18.884   0.860  1.00 20.00     0.074 C 
BRANCH   8   9
HETATM    9  C1  UNL     1     -31.206  18.483   0.909  1.00 20.00     0.231 C 
HETATM   10  O10 UNL     1     -30.259  19.263   0.889  1.00 20.00    -0.307 OA
ENDBRANCH   8   9
ENDBRANCH   7   8
TORSDOF 2
ENDMDL
MODEL 6
REMARK VINA RESULT:      -3.7      9.332     10.316
REMARK  2 active torsions:
REMARK  status: ('A' for Active; 'I' for Inactive)
REMARK    1  A    between atoms: C1_1  and  C9_9 
REMARK    2  A    between atoms: C8_8  and  C9_9 
ROOT
HETATM    1  C2  UNL     1     -41.873  15.528   6.716  1.00 20.00     0.005 C 
HETATM    2  C3  UNL     1     -40.640  15.042   7.492  1.00 20.00     0.005 C 
HETATM    3  C4  UNL     1     -42.154  13.229   7.267  1.00 20.00     0.009 C 
HETATM    4  C5  UNL     1     -41.557  13.712   5.015  1.00 20.00     0.010 C 
HETATM    5  C6  UNL     1     -42.462  14.225   6.151  1.00 20.00    -0.014 C 
HETATM    6  C7  UNL     1     -40.652  13.522   7.240  1.00 20.00    -0.010 C 
HETATM    7  C8  UNL     1     -40.278  13.272   5.760  1.00 20.00    -0.004 C 
ENDROOT
BRANCH   7   8
HETATM    8  C9  UNL     1     -39.917  11.818   5.480  1.00 20.00     0.074 C 
BRANCH   8   9
HETATM    9  C1  UNL     1     -38.927  11.678   4.355  1.00 20.00     0.231 C 
HETATM   10  O10 UNL     1     -39.170  11.892   3.171  1.00 20.00    -0.307 OA
ENDBRANCH   8   9
ENDBRANCH   7   8
TORSDOF 2
ENDMDL
MODEL 7
REMARK VINA RESULT:      -3.7     15.722     16.735
REMARK  2 active torsions:
REMARK  status: ('A' for Active; 'I' for Inactive)
REMARK    1  A    between atoms: C1_1  and  C9_9 
REMARK    2  A    between atoms: C8_8  and  C9_9 
ROOT
HETATM    1  C2  UNL     1     -22.294  18.072   7.849  1.00 20.00     0.005 C 
HETATM    2  C3  UNL     1     -22.093  17.018   8.947  1.00 20.00     0.005 C 
HETATM    3  C4  UNL     1     -22.177  19.159   9.963  1.00 20.00     0.009 C 
HETATM    4  C5  UNL     1     -24.344  18.934   9.009  1.00 20.00     0.010 C 
HETATM    5  C6  UNL     1     -22.891  19.262   8.618  1.00 20.00    -0.014 C 
HETATM    6  C7  UNL     1     -22.639  17.721  10.204  1.00 20.00    -0.010 C 
HETATM    7  C8  UNL     1     -24.176  17.826  10.072  1.00 20.00    -0.004 C 
ENDROOT
BRANCH   7   8
HETATM    8  C9  UNL     1     -24.860  18.180  11.388  1.00 20.00     0.074 C 
BRANCH   8   9
HETATM    9  C1  UNL     1     -25.106  16.972  12.251  1.00 20.00     0.231 C 
HETATM   10  O10 UNL     1     -24.599  15.868  12.079  1.00 20.00    -0.307 OA
ENDBRANCH   8   9
ENDBRANCH   7   8
TORSDOF 2
ENDMDL
MODEL 8
REMARK VINA RESULT:      -3.7     12.243     13.331
REMARK  2 active torsions:
REMARK  status: ('A' for Active; 'I' for Inactive)
REMARK    1  A    between atoms: C1_1  and  C9_9 
REMARK    2  A    between atoms: C8_8  and  C9_9 
ROOT
HETATM    1  C2  UNL     1     -32.525  19.263  -1.943  1.00 20.00     0.005 C 
HETATM    2  C3  UNL     1     -32.405  17.964  -1.133  1.00 20.00     0.005 C 
HETATM    3  C4  UNL     1     -34.606  18.108  -2.008  1.00 20.00     0.009 C 
HETATM    4  C5  UNL     1     -33.259  17.971  -3.964  1.00 20.00     0.010 C 
HETATM    5  C6  UNL     1     -33.706  18.975  -2.885  1.00 20.00    -0.014 C 
HETATM    6  C7  UNL     1     -33.508  17.076  -1.740  1.00 20.00    -0.010 C 
HETATM    7  C8  UNL     1     -33.069  16.664  -3.165  1.00 20.00    -0.004 C 
ENDROOT
BRANCH   7   8
HETATM    8  C9  UNL     1     -33.898  15.515  -3.730  1.00 20.00     0.074 C 
BRANCH   8   9
HETATM    9  C1  UNL     1     -34.230  15.708  -5.186  1.00 20.00     0.231 C 
HETATM   10  O10 UNL     1     -34.055  14.870  -6.065  1.00 20.00    -0.307 OA
ENDBRANCH   8   9
ENDBRANCH   7   8
TORSDOF 2
ENDMDL
MODEL 9
REMARK VINA RESULT:      -3.6      2.142      3.989
REMARK  2 active torsions:
REMARK  status: ('A' for Active; 'I' for Inactive)
REMARK    1  A    between atoms: C1_1  and  C9_9 
REMARK    2  A    between atoms: C8_8  and  C9_9 
ROOT
HETATM    1  C2  UNL     1     -32.715   8.835   2.437  1.00 20.00     0.005 C 
HETATM    2  C3  UNL     1     -32.568   7.307   2.454  1.00 20.00     0.005 C 
HETATM    3  C4  UNL     1     -31.687   8.172   4.479  1.00 20.00     0.009 C 
HETATM    4  C5  UNL     1     -33.987   8.767   4.597  1.00 20.00     0.010 C 
HETATM    5  C6  UNL     1     -32.670   9.203   3.929  1.00 20.00    -0.014 C 
HETATM    6  C7  UNL     1     -32.497   6.984   3.958  1.00 20.00    -0.010 C 
HETATM    7  C8  UNL     1     -33.896   7.225   4.572  1.00 20.00    -0.004 C 
ENDROOT
BRANCH   7   8
HETATM    8  C9  UNL     1     -34.046   6.615   5.961  1.00 20.00     0.074 C 
BRANCH   8   9
HETATM    9  C1  UNL     1     -34.623   5.225   5.919  1.00 20.00     0.231 C 
HETATM   10  O10 UNL     1     -34.749   4.545   4.906  1.00 20.00    -0.307 OA
ENDBRANCH   8   9
ENDBRANCH   7   8
TORSDOF 2
ENDMDL
