MODEL 1
REMARK VINA RESULT:      -4.9      0.000      0.000
REMARK  1 active torsions:
REMARK  status: ('A' for Active; 'I' for Inactive)
REMARK    1  A    between atoms: C3_3  and  C5_5 
ROOT
HETATM    1  C1  UNL     1     -33.083   6.130   2.846  1.00 20.00     0.030 A 
HETATM    2  C2  UNL     1     -33.626   5.933   4.132  1.00 20.00    -0.044 A 
HETATM    3  C3  UNL     1     -32.515   7.390   2.746  1.00 20.00     0.043 A 
HETATM    4  C4  UNL     1     -33.454   7.022   4.940  1.00 20.00    -0.010 A 
HETATM    5  C6  UNL     1     -34.337   4.843   4.842  1.00 20.00     0.040 C 
HETATM    6  C7  UNL     1     -34.009   6.855   6.303  1.00 20.00     0.047 C 
HETATM    7  C8  UNL     1     -34.882   5.576   6.109  1.00 20.00     0.010 C 
HETATM    8  S10 UNL     1     -32.654   8.298   4.214  1.00 20.00    -0.091 SA
ENDROOT
BRANCH   3   9
HETATM    9  C5  UNL     1     -31.862   7.990   1.627  1.00 20.00     0.277 C 
HETATM   10  O9  UNL     1     -32.437   8.706   0.781  1.00 20.00    -0.301 OA
ENDBRANCH   3   9
TORSDOF 1
ENDMDL
MODEL 2
REMARK VINA RESULT:      -4.1     11.943     13.058
REMARK  1 active torsions:
REMARK  status: ('A' for Active; 'I' for Inactive)
REMARK    1  A    between atoms: C3_3  and  C5_5 
ROOT
HETATM    1  C1  UNL     1     -33.146  16.668  -2.492  1.00 20.00     0.030 A 
HETATM    2  C2  UNL     1     -33.680  16.087  -3.660  1.00 20.00    -0.044 A 
HETATM    3  C3  UNL     1     -33.133  18.049  -2.597  1.00 20.00     0.043 A 
HETATM    4  C4  UNL     1     -34.043  17.025  -4.586  1.00 20.00    -0.010 A 
HETATM    5  C6  UNL     1     -33.954  14.715  -4.148  1.00 20.00     0.040 C 
HETATM    6  C7  UNL     1     -34.611  16.456  -5.830  1.00 20.00     0.047 C 
HETATM    7  C8  UNL     1     -34.222  14.953  -5.668  1.00 20.00     0.010 C 
HETATM    8  S10 UNL     1     -33.770  18.604  -4.109  1.00 20.00    -0.091 SA
ENDROOT
BRANCH   3   9
HETATM    9  C5  UNL     1     -32.679  19.014  -1.649  1.00 20.00     0.277 C 
HETATM   10  O9  UNL     1     -31.499  19.105  -1.252  1.00 20.00    -0.301 OA
ENDBRANCH   3   9
TORSDOF 1
ENDMDL
MODEL 3
REMARK VINA RESULT:      -4.0     16.231     16.887
REMARK  1 active torsions:
REMARK  status: ('A' for Active; 'I' for Inactive)
REMARK    1  A    between atoms: C3_3  and  C5_5 
ROOT
HETATM    1  C1  UNL     1     -24.870  18.887  10.006  1.00 20.00     0.030 A 
HETATM    2  C2  UNL     1     -23.605  18.731   9.404  1.00 20.00    -0.044 A 
HETATM    3  C3  UNL     1     -24.804  18.595  11.359  1.00 20.00     0.043 A 
HETATM    4  C4  UNL     1     -22.650  18.336  10.299  1.00 20.00    -0.010 A 
HETATM    5  C6  UNL     1     -23.035  18.888   8.044  1.00 20.00     0.040 C 
HETATM    6  C7  UNL     1     -21.303  18.162   9.707  1.00 20.00     0.047 C 
HETATM    7  C8  UNL     1     -21.648  18.185   8.185  1.00 20.00     0.010 C 
HETATM    8  S10 UNL     1     -23.211  18.141  11.862  1.00 20.00    -0.091 SA
ENDROOT
BRANCH   3   9
HETATM    9  C5  UNL     1     -25.848  18.626  12.332  1.00 20.00     0.277 C 
HETATM   10  O9  UNL     1     -27.023  18.971  12.089  1.00 20.00    -0.301 OA
ENDBRANCH   3   9
TORSDOF 1
ENDMDL
MODEL 4
REMARK VINA RESULT:      -3.9     12.181     12.841
REMARK  1 active torsions:
REMARK  status: ('A' for Active; 'I' for Inactive)
REMARK    1  A    between atoms: C3_3  and  C5_5 
ROOT
HETATM    1  C1  UNL     1     -33.328  15.779  -3.747  1.00 20.00     0.030 A 
HETATM    2  C2  UNL     1     -33.612  16.865  -2.894  1.00 20.00    -0.044 A 
HETATM    3  C3  UNL     1     -34.044  15.887  -4.928  1.00 20.00     0.043 A 
HETATM    4  C4  UNL     1     -34.512  17.734  -3.446  1.00 20.00    -0.010 A 
HETATM    5  C6  UNL     1     -33.186  17.314  -1.548  1.00 20.00     0.040 C 
HETATM    6  C7  UNL     1     -34.838  18.892  -2.581  1.00 20.00     0.047 C 
HETATM    7  C8  UNL     1     -34.239  18.420  -1.220  1.00 20.00     0.010 C 
HETATM    8  S10 UNL     1     -35.041  17.301  -4.971  1.00 20.00    -0.091 SA
ENDROOT
BRANCH   3   9
HETATM    9  C5  UNL     1     -34.051  15.009  -6.053  1.00 20.00     0.277 C 
HETATM   10  O9  UNL     1     -35.079  14.684  -6.684  1.00 20.00    -0.301 OA
ENDBRANCH   3   9
TORSDOF 1
ENDMDL
MODEL 5
REMARK VINA RESULT:      -3.8     12.031     13.292
REMARK  1 active torsions:
REMARK  status: ('A' for Active; 'I' for Inactive)
REMARK    1  A    between atoms: C3_3  and  C5_5 
ROOT
HETATM    1  C1  UNL     1     -34.678  17.276  -5.672  1.00 20.00     0.030 A 
HETATM    2  C2  UNL     1     -34.150  17.572  -4.399  1.00 20.00    -0.044 A 
HETATM    3  C3  UNL     1     -34.683  15.908  -5.891  1.00 20.00     0.043 A 
HETATM    4  C4  UNL     1     -33.783  16.446  -3.716  1.00 20.00    -0.010 A 
HETATM    5  C6  UNL     1     -33.890  18.794  -3.602  1.00 20.00     0.040 C 
HETATM    6  C7  UNL     1     -33.223  16.713  -2.371  1.00 20.00     0.047 C 
HETATM    7  C8  UNL     1     -32.978  18.252  -2.456  1.00 20.00     0.010 C 
HETATM    8  S10 UNL     1     -34.049  15.020  -4.547  1.00 20.00    -0.091 SA
ENDROOT
BRANCH   3   9
HETATM    9  C5  UNL     1     -35.130  15.188  -7.039  1.00 20.00     0.277 C 
HETATM   10  O9  UNL     1     -36.010  14.302  -7.013  1.00 20.00    -0.301 OA
ENDBRANCH   3   9
TORSDOF 1
ENDMDL
MODEL 6
REMARK VINA RESULT:      -3.6     12.475     12.710
REMARK  1 active torsions:
REMARK  status: ('A' for Active; 'I' for Inactive)
REMARK    1  A    between atoms: C3_3  and  C5_5 
ROOT
HETATM    1  C1  UNL     1     -30.649  18.611   0.584  1.00 20.00     0.030 A 
HETATM    2  C2  UNL     1     -31.985  18.524   0.141  1.00 20.00    -0.044 A 
HETATM    3  C3  UNL     1     -30.602  19.008   1.911  1.00 20.00     0.043 A 
HETATM    4  C4  UNL     1     -32.879  18.850   1.123  1.00 20.00    -0.010 A 
HETATM    5  C6  UNL     1     -32.677  18.166  -1.120  1.00 20.00     0.040 C 
HETATM    6  C7  UNL     1     -34.296  18.770   0.698  1.00 20.00     0.047 C 
HETATM    7  C8  UNL     1     -34.133  18.665  -0.850  1.00 20.00     0.010 C 
HETATM    8  S10 UNL     1     -32.177  19.263   2.583  1.00 20.00    -0.091 SA
ENDROOT
BRANCH   3   9
HETATM    9  C5  UNL     1     -29.460  19.219   2.740  1.00 20.00     0.277 C 
HETATM   10  O9  UNL     1     -28.799  18.301   3.270  1.00 20.00    -0.301 OA
ENDBRANCH   3   9
TORSDOF 1
ENDMDL
MODEL 7
REMARK VINA RESULT:      -3.4     12.578     12.978
REMARK  1 active torsions:
REMARK  status: ('A' for Active; 'I' for Inactive)
REMARK    1  A    between atoms: C3_3  and  C5_5 
ROOT
HETATM    1  C1  UNL     1     -28.767  18.747   2.921  1.00 20.00     0.030 A 
HETATM    2  C2  UNL     1     -30.066  18.762   2.373  1.00 20.00    -0.044 A 
HETATM    3  C3  UNL     1     -28.809  19.007   4.281  1.00 20.00     0.043 A 
HETATM    4  C4  UNL     1     -31.022  19.028   3.315  1.00 20.00    -0.010 A 
HETATM    5  C6  UNL     1     -30.671  18.561   1.035  1.00 20.00     0.040 C 
HETATM    6  C7  UNL     1     -32.404  19.052   2.781  1.00 20.00     0.047 C 
HETATM    7  C8  UNL     1     -32.124  19.094   1.246  1.00 20.00     0.010 C 
HETATM    8  S10 UNL     1     -30.422  19.263   4.857  1.00 20.00    -0.091 SA
ENDROOT
BRANCH   3   9
HETATM    9  C5  UNL     1     -27.729  19.084   5.210  1.00 20.00     0.277 C 
HETATM   10  O9  UNL     1     -26.596  18.598   5.011  1.00 20.00    -0.301 OA
ENDBRANCH   3   9
TORSDOF 1
ENDMDL
MODEL 8
REMARK VINA RESULT:      -3.4     13.600     14.194
REMARK  1 active torsions:
REMARK  status: ('A' for Active; 'I' for Inactive)
REMARK    1  A    between atoms: C3_3  and  C5_5 
ROOT
HETATM    1  C1  UNL     1     -25.213  -3.125  10.167  1.00 20.00     0.030 A 
HETATM    2  C2  UNL     1     -26.262  -2.237  10.480  1.00 20.00    -0.044 A 
HETATM    3  C3  UNL     1     -24.108  -2.875  10.965  1.00 20.00     0.043 A 
HETATM    4  C4  UNL     1     -25.923  -1.368  11.480  1.00 20.00    -0.010 A 
HETATM    5  C6  UNL     1     -27.646  -2.000  10.008  1.00 20.00     0.040 C 
HETATM    6  C7  UNL     1     -26.999  -0.417  11.842  1.00 20.00     0.047 C 
HETATM    7  C8  UNL     1     -27.979  -0.613  10.643  1.00 20.00     0.010 C 
HETATM    8  S10 UNL     1     -24.374  -1.572  12.074  1.00 20.00    -0.091 SA
ENDROOT
BRANCH   3   9
HETATM    9  C5  UNL     1     -22.844  -3.538  10.975  1.00 20.00     0.277 C 
HETATM   10  O9  UNL     1     -22.369  -4.156  10.000  1.00 20.00    -0.301 OA
ENDBRANCH   3   9
TORSDOF 1
ENDMDL
MODEL 9
REMARK VINA RESULT:      -3.3     12.435     12.871
REMARK  1 active torsions:
REMARK  status: ('A' for Active; 'I' for Inactive)
REMARK    1  A    between atoms: C3_3  and  C5_5 
ROOT
HETATM    1  C1  UNL     1     -32.657  18.159  -2.093  1.00 20.00     0.030 A 
HETATM    2  C2  UNL     1     -32.229  18.454  -0.783  1.00 20.00    -0.044 A 
HETATM    3  C3  UNL     1     -34.006  18.442  -2.240  1.00 20.00     0.043 A 
HETATM    4  C4  UNL     1     -33.243  18.938  -0.003  1.00 20.00    -0.010 A 
HETATM    5  C6  UNL     1     -30.957  18.379  -0.026  1.00 20.00     0.040 C 
HETATM    6  C7  UNL     1     -32.834  19.263   1.383  1.00 20.00     0.047 C 
HETATM    7  C8  UNL     1     -31.439  18.567   1.448  1.00 20.00     0.010 C 
HETATM    8  S10 UNL     1     -34.715  19.059  -0.785  1.00 20.00    -0.091 SA
ENDROOT
BRANCH   3   9
HETATM    9  C5  UNL     1     -34.831  18.291  -3.394  1.00 20.00     0.277 C 
HETATM   10  O9  UNL     1     -34.823  17.286  -4.135  1.00 20.00    -0.301 OA
ENDBRANCH   3   9
TORSDOF 1
ENDMDL
