MODEL 1
REMARK VINA RESULT:      -4.5      0.000      0.000
REMARK  0 active torsions:
REMARK  status: ('A' for Active; 'I' for Inactive)
ROOT
HETATM    1  C1  UNL     1     -31.938   8.000   1.224  1.00 20.00     0.107 C 
HETATM    2  C2  UNL     1     -33.063   6.268   2.605  1.00 20.00     0.038 A 
HETATM    3  C3  UNL     1     -32.526   7.526   2.431  1.00 20.00     0.086 A 
HETATM    4  C4  UNL     1     -33.579   6.080   3.923  1.00 20.00    -0.043 A 
HETATM    5  C5  UNL     1     -33.403   7.211   4.698  1.00 20.00    -0.010 A 
HETATM    6  C6  UNL     1     -34.213   4.835   4.462  1.00 20.00     0.040 C 
HETATM    7  C7  UNL     1     -33.852   7.358   6.117  1.00 20.00     0.046 C 
HETATM    8  C8  UNL     1     -34.983   5.106   5.764  1.00 20.00     0.005 C 
HETATM    9  C9  UNL     1     -34.172   5.985   6.728  1.00 20.00     0.005 C 
HETATM   10  N10 UNL     1     -31.459   8.386   0.240  1.00 20.00    -0.191 NA
HETATM   11  S11 UNL     1     -32.641   8.475   3.851  1.00 20.00    -0.083 SA
ENDROOT
TORSDOF 0
ENDMDL
MODEL 2
REMARK VINA RESULT:      -4.3     12.280     13.463
REMARK  0 active torsions:
REMARK  status: ('A' for Active; 'I' for Inactive)
ROOT
HETATM    1  C1  UNL     1     -35.487  15.136  -6.751  1.00 20.00     0.107 C 
HETATM    2  C2  UNL     1     -34.399  15.568  -4.560  1.00 20.00     0.038 A 
HETATM    3  C3  UNL     1     -34.916  15.991  -5.766  1.00 20.00     0.086 A 
HETATM    4  C4  UNL     1     -33.895  16.652  -3.780  1.00 20.00    -0.043 A 
HETATM    5  C5  UNL     1     -34.048  17.858  -4.438  1.00 20.00    -0.010 A 
HETATM    6  C6  UNL     1     -33.250  16.556  -2.433  1.00 20.00     0.040 C 
HETATM    7  C7  UNL     1     -33.650  19.192  -3.890  1.00 20.00     0.046 C 
HETATM    8  C8  UNL     1     -33.180  17.924  -1.735  1.00 20.00     0.005 C 
HETATM    9  C9  UNL     1     -32.701  19.024  -2.693  1.00 20.00     0.005 C 
HETATM   10  N10 UNL     1     -35.953  14.439  -7.554  1.00 20.00    -0.191 NA
HETATM   11  S11 UNL     1     -34.793  17.687  -5.959  1.00 20.00    -0.083 SA
ENDROOT
TORSDOF 0
ENDMDL
MODEL 3
REMARK VINA RESULT:      -4.0     12.140     13.435
REMARK  0 active torsions:
REMARK  status: ('A' for Active; 'I' for Inactive)
ROOT
HETATM    1  C1  UNL     1     -35.473  15.015  -6.687  1.00 20.00     0.107 C 
HETATM    2  C2  UNL     1     -34.881  17.164  -5.590  1.00 20.00     0.038 A 
HETATM    3  C3  UNL     1     -34.882  15.786  -5.646  1.00 20.00     0.086 A 
HETATM    4  C4  UNL     1     -34.214  17.655  -4.427  1.00 20.00    -0.043 A 
HETATM    5  C5  UNL     1     -33.741  16.619  -3.644  1.00 20.00    -0.010 A 
HETATM    6  C6  UNL     1     -34.042  19.090  -4.038  1.00 20.00     0.040 C 
HETATM    7  C7  UNL     1     -32.974  16.786  -2.370  1.00 20.00     0.046 C 
HETATM    8  C8  UNL     1     -32.966  19.262  -2.955  1.00 20.00     0.005 C 
HETATM    9  C9  UNL     1     -33.117  18.220  -1.837  1.00 20.00     0.005 C 
HETATM   10  N10 UNL     1     -35.954  14.386  -7.536  1.00 20.00    -0.191 NA
HETATM   11  S11 UNL     1     -34.085  15.087  -4.303  1.00 20.00    -0.083 SA
ENDROOT
TORSDOF 0
ENDMDL
MODEL 4
REMARK VINA RESULT:      -3.9     12.645     12.932
REMARK  0 active torsions:
REMARK  status: ('A' for Active; 'I' for Inactive)
ROOT
HETATM    1  C1  UNL     1     -28.777  18.871   3.927  1.00 20.00     0.107 C 
HETATM    2  C2  UNL     1     -29.911  18.683   1.724  1.00 20.00     0.038 A 
HETATM    3  C3  UNL     1     -29.926  18.902   3.085  1.00 20.00     0.086 A 
HETATM    4  C4  UNL     1     -31.213  18.778   1.149  1.00 20.00    -0.043 A 
HETATM    5  C5  UNL     1     -32.167  19.062   2.109  1.00 20.00    -0.010 A 
HETATM    6  C6  UNL     1     -31.568  18.580  -0.292  1.00 20.00     0.040 C 
HETATM    7  C7  UNL     1     -33.627  19.253   1.840  1.00 20.00     0.046 C 
HETATM    8  C8  UNL     1     -32.968  19.125  -0.614  1.00 20.00     0.005 C 
HETATM    9  C9  UNL     1     -33.995  18.712   0.449  1.00 20.00     0.005 C 
HETATM   10  N10 UNL     1     -27.841  18.846   4.613  1.00 20.00    -0.191 NA
HETATM   11  S11 UNL     1     -31.503  19.220   3.668  1.00 20.00    -0.083 SA
ENDROOT
TORSDOF 0
ENDMDL
MODEL 5
REMARK VINA RESULT:      -3.6     13.578     14.399
REMARK  0 active torsions:
REMARK  status: ('A' for Active; 'I' for Inactive)
ROOT
HETATM    1  C1  UNL     1     -22.734  -3.855  11.183  1.00 20.00     0.107 C 
HETATM    2  C2  UNL     1     -25.070  -3.411  10.465  1.00 20.00     0.038 A 
HETATM    3  C3  UNL     1     -23.951  -3.117  11.214  1.00 20.00     0.086 A 
HETATM    4  C4  UNL     1     -26.138  -2.496  10.708  1.00 20.00    -0.043 A 
HETATM    5  C5  UNL     1     -25.780  -1.543  11.644  1.00 20.00    -0.010 A 
HETATM    6  C6  UNL     1     -27.499  -2.528  10.085  1.00 20.00     0.040 C 
HETATM    7  C7  UNL     1     -26.655  -0.422  12.107  1.00 20.00     0.046 C 
HETATM    8  C8  UNL     1     -28.246  -1.199  10.279  1.00 20.00     0.005 C 
HETATM    9  C9  UNL     1     -28.120  -0.685  11.720  1.00 20.00     0.005 C 
HETATM   10  N10 UNL     1     -21.741  -4.456  11.157  1.00 20.00    -0.191 NA
HETATM   11  S11 UNL     1     -24.187  -1.744  12.208  1.00 20.00    -0.083 SA
ENDROOT
TORSDOF 0
ENDMDL
MODEL 6
REMARK VINA RESULT:      -3.6     12.311     13.292
REMARK  0 active torsions:
REMARK  status: ('A' for Active; 'I' for Inactive)
ROOT
HETATM    1  C1  UNL     1     -32.636  18.559   0.606  1.00 20.00     0.107 C 
HETATM    2  C2  UNL     1     -32.923  17.390  -1.567  1.00 20.00     0.038 A 
HETATM    3  C3  UNL     1     -33.296  18.335  -0.636  1.00 20.00     0.086 A 
HETATM    4  C4  UNL     1     -33.773  17.398  -2.714  1.00 20.00    -0.043 A 
HETATM    5  C5  UNL     1     -34.765  18.353  -2.597  1.00 20.00    -0.010 A 
HETATM    6  C6  UNL     1     -33.671  16.496  -3.905  1.00 20.00     0.040 C 
HETATM    7  C7  UNL     1     -35.806  18.642  -3.632  1.00 20.00     0.046 C 
HETATM    8  C8  UNL     1     -34.489  17.027  -5.093  1.00 20.00     0.005 C 
HETATM    9  C9  UNL     1     -35.884  17.496  -4.654  1.00 20.00     0.005 C 
HETATM   10  N10 UNL     1     -32.098  18.742   1.618  1.00 20.00    -0.191 NA
HETATM   11  S11 UNL     1     -34.666  19.228  -1.140  1.00 20.00    -0.083 SA
ENDROOT
TORSDOF 0
ENDMDL
MODEL 7
REMARK VINA RESULT:      -3.6     12.550     13.774
REMARK  0 active torsions:
REMARK  status: ('A' for Active; 'I' for Inactive)
ROOT
HETATM    1  C1  UNL     1     -32.629  18.635  -2.371  1.00 20.00     0.107 C 
HETATM    2  C2  UNL     1     -34.165  18.390  -4.308  1.00 20.00     0.038 A 
HETATM    3  C3  UNL     1     -33.363  17.865  -3.318  1.00 20.00     0.086 A 
HETATM    4  C4  UNL     1     -34.772  17.374  -5.105  1.00 20.00    -0.043 A 
HETATM    5  C5  UNL     1     -34.396  16.112  -4.684  1.00 20.00    -0.010 A 
HETATM    6  C6  UNL     1     -35.683  17.583  -6.275  1.00 20.00     0.040 C 
HETATM    7  C7  UNL     1     -34.871  14.827  -5.285  1.00 20.00     0.046 C 
HETATM    8  C8  UNL     1     -36.439  16.298  -6.646  1.00 20.00     0.005 C 
HETATM    9  C9  UNL     1     -35.507  15.078  -6.662  1.00 20.00     0.005 C 
HETATM   10  N10 UNL     1     -32.032  19.263  -1.599  1.00 20.00    -0.191 NA
HETATM   11  S11 UNL     1     -33.340  16.154  -3.349  1.00 20.00    -0.083 SA
ENDROOT
TORSDOF 0
ENDMDL
MODEL 8
REMARK VINA RESULT:      -3.6     12.389     13.701
REMARK  0 active torsions:
REMARK  status: ('A' for Active; 'I' for Inactive)
ROOT
HETATM    1  C1  UNL     1     -37.017  16.455  -7.003  1.00 20.00     0.107 C 
HETATM    2  C2  UNL     1     -36.207  17.737  -5.035  1.00 20.00     0.038 A 
HETATM    3  C3  UNL     1     -36.143  16.664  -5.898  1.00 20.00     0.086 A 
HETATM    4  C4  UNL     1     -35.202  17.675  -4.023  1.00 20.00    -0.043 A 
HETATM    5  C5  UNL     1     -34.418  16.545  -4.162  1.00 20.00    -0.010 A 
HETATM    6  C6  UNL     1     -34.992  18.659  -2.915  1.00 20.00     0.040 C 
HETATM    7  C7  UNL     1     -33.260  16.189  -3.284  1.00 20.00     0.046 C 
HETATM    8  C8  UNL     1     -33.613  18.490  -2.257  1.00 20.00     0.005 C 
HETATM    9  C9  UNL     1     -33.292  17.013  -1.987  1.00 20.00     0.005 C 
HETATM   10  N10 UNL     1     -37.729  16.286  -7.904  1.00 20.00    -0.191 NA
HETATM   11  S11 UNL     1     -34.879  15.585  -5.490  1.00 20.00    -0.083 SA
ENDROOT
TORSDOF 0
ENDMDL
MODEL 9
REMARK VINA RESULT:      -3.5     12.605     13.865
REMARK  0 active torsions:
REMARK  status: ('A' for Active; 'I' for Inactive)
ROOT
HETATM    1  C1  UNL     1     -36.963  16.639  -7.002  1.00 20.00     0.107 C 
HETATM    2  C2  UNL     1     -35.264  16.102  -5.272  1.00 20.00     0.038 A 
HETATM    3  C3  UNL     1     -36.077  16.989  -5.943  1.00 20.00     0.086 A 
HETATM    4  C4  UNL     1     -34.487  16.743  -4.261  1.00 20.00    -0.043 A 
HETATM    5  C5  UNL     1     -34.743  18.100  -4.215  1.00 20.00    -0.010 A 
HETATM    6  C6  UNL     1     -33.487  16.090  -3.357  1.00 20.00     0.040 C 
HETATM    7  C7  UNL     1     -34.118  19.061  -3.254  1.00 20.00     0.046 C 
HETATM    8  C8  UNL     1     -33.130  16.987  -2.161  1.00 20.00     0.005 C 
HETATM    9  C9  UNL     1     -32.876  18.437  -2.596  1.00 20.00     0.005 C 
HETATM   10  N10 UNL     1     -37.686  16.354  -7.865  1.00 20.00    -0.191 NA
HETATM   11  S11 UNL     1     -35.905  18.588  -5.360  1.00 20.00    -0.083 SA
ENDROOT
TORSDOF 0
ENDMDL
