MODEL 1
REMARK VINA RESULT:      -3.9      0.000      0.000
REMARK  2 active torsions:
REMARK  status: ('A' for Active; 'I' for Inactive)
REMARK    1  A    between atoms: C1_1  and  C3_3 
REMARK    2  A    between atoms: C3_3  and  C5_5 
ROOT
HETATM    1  C3  UNL     1     -32.737   8.152   4.392  1.00 20.00     0.168 C 
HETATM    2  O6  UNL     1     -32.375   9.128   5.045  1.00 20.00    -0.292 OA
ENDROOT
BRANCH   1   3
HETATM    3  C1  UNL     1     -33.815   7.248   4.884  1.00 20.00     0.063 C 
HETATM    4  C2  UNL     1     -33.708   6.662   6.078  1.00 20.00     0.088 C 
HETATM    5 CL7  UNL     1     -34.911   5.611   6.703  1.00 20.00    -0.097 Cl
ENDBRANCH   1   3
BRANCH   1   6
HETATM    6  C5  UNL     1     -32.100   7.764   3.068  1.00 20.00     0.152 C 
HETATM    7  C4  UNL     1     -32.545   6.374   2.648  1.00 20.00     0.035 C 
HETATM    8 CL8  UNL     1     -32.576   8.959   1.834  1.00 20.00    -0.117 Cl
ENDBRANCH   1   6
TORSDOF 2
ENDMDL
MODEL 2
REMARK VINA RESULT:      -3.8      1.142      3.931
REMARK  2 active torsions:
REMARK  status: ('A' for Active; 'I' for Inactive)
REMARK    1  A    between atoms: C1_1  and  C3_3 
REMARK    2  A    between atoms: C3_3  and  C5_5 
ROOT
HETATM    1  C3  UNL     1     -32.986   7.620   4.497  1.00 20.00     0.168 C 
HETATM    2  O6  UNL     1     -32.529   8.431   5.299  1.00 20.00    -0.292 OA
ENDROOT
BRANCH   1   3
HETATM    3  C1  UNL     1     -32.398   7.459   3.136  1.00 20.00     0.063 C 
HETATM    4  C2  UNL     1     -32.536   8.426   2.227  1.00 20.00     0.088 C 
HETATM    5 CL7  UNL     1     -31.886   8.305   0.645  1.00 20.00    -0.097 Cl
ENDBRANCH   1   3
BRANCH   1   6
HETATM    6  C5  UNL     1     -34.195   6.752   4.802  1.00 20.00     0.152 C 
HETATM    7  C4  UNL     1     -34.089   5.416   4.086  1.00 20.00     0.035 C 
HETATM    8 CL8  UNL     1     -34.285   6.497   6.564  1.00 20.00    -0.117 Cl
ENDBRANCH   1   6
TORSDOF 2
ENDMDL
MODEL 3
REMARK VINA RESULT:      -3.6      1.594      3.804
REMARK  2 active torsions:
REMARK  status: ('A' for Active; 'I' for Inactive)
REMARK    1  A    between atoms: C1_1  and  C3_3 
REMARK    2  A    between atoms: C3_3  and  C5_5 
ROOT
HETATM    1  C3  UNL     1     -33.758   7.275   5.320  1.00 20.00     0.168 C 
HETATM    2  O6  UNL     1     -33.834   7.849   6.404  1.00 20.00    -0.292 OA
ENDROOT
BRANCH   1   3
HETATM    3  C1  UNL     1     -33.164   7.945   4.128  1.00 20.00     0.063 C 
HETATM    4  C2  UNL     1     -32.607   7.219   3.158  1.00 20.00     0.088 C 
HETATM    5 CL7  UNL     1     -31.906   7.925   1.762  1.00 20.00    -0.097 Cl
ENDBRANCH   1   3
BRANCH   1   6
HETATM    6  C5  UNL     1     -34.291   5.870   5.093  1.00 20.00     0.152 C 
HETATM    7  C4  UNL     1     -34.495   5.155   6.418  1.00 20.00     0.035 C 
HETATM    8 CL8  UNL     1     -35.837   5.981   4.212  1.00 20.00    -0.117 Cl
ENDBRANCH   1   6
TORSDOF 2
ENDMDL
MODEL 4
REMARK VINA RESULT:      -3.5     11.753     11.967
REMARK  2 active torsions:
REMARK  status: ('A' for Active; 'I' for Inactive)
REMARK    1  A    between atoms: C1_1  and  C3_3 
REMARK    2  A    between atoms: C3_3  and  C5_5 
ROOT
HETATM    1  C3  UNL     1     -31.640  18.605   0.010  1.00 20.00     0.168 C 
HETATM    2  O6  UNL     1     -30.637  18.592  -0.700  1.00 20.00    -0.292 OA
ENDROOT
BRANCH   1   3
HETATM    3  C1  UNL     1     -31.536  18.623   1.498  1.00 20.00     0.063 C 
HETATM    4  C2  UNL     1     -30.356  18.823   2.086  1.00 20.00     0.088 C 
HETATM    5 CL7  UNL     1     -30.166  18.854   3.790  1.00 20.00    -0.097 Cl
ENDBRANCH   1   3
BRANCH   1   6
HETATM    6  C5  UNL     1     -33.050  18.565  -0.555  1.00 20.00     0.152 C 
HETATM    7  C4  UNL     1     -33.196  17.426  -1.549  1.00 20.00     0.035 C 
HETATM    8 CL8  UNL     1     -34.198  18.355   0.792  1.00 20.00    -0.117 Cl
ENDBRANCH   1   6
TORSDOF 2
ENDMDL
MODEL 5
REMARK VINA RESULT:      -3.5     11.698     12.287
REMARK  2 active torsions:
REMARK  status: ('A' for Active; 'I' for Inactive)
REMARK    1  A    between atoms: C1_1  and  C3_3 
REMARK    2  A    between atoms: C3_3  and  C5_5 
ROOT
HETATM    1  C3  UNL     1     -32.722  18.357  -1.911  1.00 20.00     0.168 C 
HETATM    2  O6  UNL     1     -32.348  19.092  -2.821  1.00 20.00    -0.292 OA
ENDROOT
BRANCH   1   3
HETATM    3  C1  UNL     1     -33.268  16.997  -2.187  1.00 20.00     0.063 C 
HETATM    4  C2  UNL     1     -33.241  16.501  -3.425  1.00 20.00     0.088 C 
HETATM    5 CL7  UNL     1     -33.852  14.947  -3.812  1.00 20.00    -0.097 Cl
ENDBRANCH   1   3
BRANCH   1   6
HETATM    6  C5  UNL     1     -32.699  18.776  -0.450  1.00 20.00     0.152 C 
HETATM    7  C4  UNL     1     -33.764  18.032   0.337  1.00 20.00     0.035 C 
HETATM    8 CL8  UNL     1     -31.085  18.424   0.219  1.00 20.00    -0.117 Cl
ENDBRANCH   1   6
TORSDOF 2
ENDMDL
MODEL 6
REMARK VINA RESULT:      -3.5      2.402      3.845
REMARK  2 active torsions:
REMARK  status: ('A' for Active; 'I' for Inactive)
REMARK    1  A    between atoms: C1_1  and  C3_3 
REMARK    2  A    between atoms: C3_3  and  C5_5 
ROOT
HETATM    1  C3  UNL     1     -33.600   6.088   3.983  1.00 20.00     0.168 C 
HETATM    2  O6  UNL     1     -32.954   5.713   3.006  1.00 20.00    -0.292 OA
ENDROOT
BRANCH   1   3
HETATM    3  C1  UNL     1     -33.290   7.375   4.669  1.00 20.00     0.063 C 
HETATM    4  C2  UNL     1     -32.294   8.147   4.231  1.00 20.00     0.088 C 
HETATM    5 CL7  UNL     1     -31.885   9.637   4.974  1.00 20.00    -0.097 Cl
ENDBRANCH   1   3
BRANCH   1   6
HETATM    6  C5  UNL     1     -34.726   5.268   4.590  1.00 20.00     0.152 C 
HETATM    7  C4  UNL     1     -34.610   5.240   6.105  1.00 20.00     0.035 C 
HETATM    8 CL8  UNL     1     -36.282   5.990   4.108  1.00 20.00    -0.117 Cl
ENDBRANCH   1   6
TORSDOF 2
ENDMDL
MODEL 7
REMARK VINA RESULT:      -3.4     11.573     12.143
REMARK  2 active torsions:
REMARK  status: ('A' for Active; 'I' for Inactive)
REMARK    1  A    between atoms: C1_1  and  C3_3 
REMARK    2  A    between atoms: C3_3  and  C5_5 
ROOT
HETATM    1  C3  UNL     1     -33.700  15.076  -4.408  1.00 20.00     0.168 C 
HETATM    2  O6  UNL     1     -33.367  13.913  -4.191  1.00 20.00    -0.292 OA
ENDROOT
BRANCH   1   3
HETATM    3  C1  UNL     1     -33.107  16.209  -3.639  1.00 20.00     0.063 C 
HETATM    4  C2  UNL     1     -33.518  16.464  -2.396  1.00 20.00     0.088 C 
HETATM    5 CL7  UNL     1     -32.880  17.749  -1.458  1.00 20.00    -0.097 Cl
ENDBRANCH   1   3
BRANCH   1   6
HETATM    6  C5  UNL     1     -34.756  15.453  -5.433  1.00 20.00     0.152 C 
HETATM    7  C4  UNL     1     -34.179  15.402  -6.838  1.00 20.00     0.035 C 
HETATM    8 CL8  UNL     1     -36.122  14.318  -5.289  1.00 20.00    -0.117 Cl
ENDBRANCH   1   6
TORSDOF 2
ENDMDL
MODEL 8
REMARK VINA RESULT:      -3.4      2.062      2.216
REMARK  2 active torsions:
REMARK  status: ('A' for Active; 'I' for Inactive)
REMARK    1  A    between atoms: C1_1  and  C3_3 
REMARK    2  A    between atoms: C3_3  and  C5_5 
ROOT
HETATM    1  C3  UNL     1     -32.989   6.307   3.300  1.00 20.00     0.168 C 
HETATM    2  O6  UNL     1     -33.027   5.333   2.552  1.00 20.00    -0.292 OA
ENDROOT
BRANCH   1   3
HETATM    3  C1  UNL     1     -33.919   6.432   4.460  1.00 20.00     0.063 C 
HETATM    4  C2  UNL     1     -34.059   5.421   5.319  1.00 20.00     0.088 C 
HETATM    5 CL7  UNL     1     -35.110   5.498   6.672  1.00 20.00    -0.097 Cl
ENDBRANCH   1   3
BRANCH   1   6
HETATM    6  C5  UNL     1     -32.033   7.470   3.090  1.00 20.00     0.152 C 
HETATM    7  C4  UNL     1     -32.225   8.077   1.711  1.00 20.00     0.035 C 
HETATM    8 CL8  UNL     1     -32.342   8.696   4.347  1.00 20.00    -0.117 Cl
ENDBRANCH   1   6
TORSDOF 2
ENDMDL
MODEL 9
REMARK VINA RESULT:      -3.3     11.919     12.161
REMARK  2 active torsions:
REMARK  status: ('A' for Active; 'I' for Inactive)
REMARK    1  A    between atoms: C1_1  and  C3_3 
REMARK    2  A    between atoms: C3_3  and  C5_5 
ROOT
HETATM    1  C3  UNL     1     -32.489  18.543  -0.820  1.00 20.00     0.168 C 
HETATM    2  O6  UNL     1     -31.785  19.074  -1.675  1.00 20.00    -0.292 OA
ENDROOT
BRANCH   1   3
HETATM    3  C1  UNL     1     -32.114  18.575   0.623  1.00 20.00     0.063 C 
HETATM    4  C2  UNL     1     -30.830  18.530   0.984  1.00 20.00     0.088 C 
HETATM    5 CL7  UNL     1     -30.330  18.562   2.623  1.00 20.00    -0.097 Cl
ENDBRANCH   1   3
BRANCH   1   6
HETATM    6  C5  UNL     1     -33.764  17.786  -1.155  1.00 20.00     0.152 C 
HETATM    7  C4  UNL     1     -34.824  18.734  -1.689  1.00 20.00     0.035 C 
HETATM    8 CL8  UNL     1     -33.384  16.542  -2.374  1.00 20.00    -0.117 Cl
ENDBRANCH   1   6
TORSDOF 2
ENDMDL
