MODEL 1
REMARK VINA RESULT:      -4.5      0.000      0.000
REMARK  2 active torsions:
REMARK  status: ('A' for Active; 'I' for Inactive)
REMARK    1  A    between atoms: C4_4  and  C6_6 
REMARK    2  A    between atoms: C6_6  and  N7_7 
ROOT
HETATM    1  C1  UNL     1     -32.395   8.501   4.259  1.00 20.00     0.332 C 
HETATM    2  N7  UNL     1     -32.630   7.714   3.428  1.00 20.00    -0.242 NA
HETATM    3  O8  UNL     1     -32.156   9.305   5.084  1.00 20.00    -0.260 OA
ENDROOT
BRANCH   2   4
HETATM    4  C6  UNL     1     -33.009   6.387   3.957  1.00 20.00     0.112 C 
HETATM    5  C5  UNL     1     -33.051   5.410   2.775  1.00 20.00     0.035 C 
BRANCH   4   6
HETATM    6  C4  UNL     1     -34.307   6.476   4.681  1.00 20.00     0.010 A 
HETATM    7  C2  UNL     1     -34.970   5.231   5.201  1.00 20.00     0.007 A 
HETATM    8  C3  UNL     1     -34.366   6.215   6.161  1.00 20.00     0.007 A 
ENDBRANCH   4   6
ENDBRANCH   2   4
TORSDOF 2
ENDMDL
MODEL 2
REMARK VINA RESULT:      -4.4      2.631      3.915
REMARK  2 active torsions:
REMARK  status: ('A' for Active; 'I' for Inactive)
REMARK    1  A    between atoms: C4_4  and  C6_6 
REMARK    2  A    between atoms: C6_6  and  N7_7 
ROOT
HETATM    1  C1  UNL     1     -34.433   4.916   4.500  1.00 20.00     0.332 C 
HETATM    2  N7  UNL     1     -34.802   5.991   4.770  1.00 20.00    -0.242 NA
HETATM    3  O8  UNL     1     -34.077   3.829   4.222  1.00 20.00    -0.260 OA
ENDROOT
BRANCH   2   4
HETATM    4  C6  UNL     1     -33.752   6.849   5.358  1.00 20.00     0.112 C 
HETATM    5  C5  UNL     1     -34.234   7.287   6.748  1.00 20.00     0.035 C 
BRANCH   4   6
HETATM    6  C4  UNL     1     -33.464   7.998   4.457  1.00 20.00     0.010 A 
HETATM    7  C2  UNL     1     -32.290   8.897   4.728  1.00 20.00     0.007 A 
HETATM    8  C3  UNL     1     -32.265   7.966   3.550  1.00 20.00     0.007 A 
ENDBRANCH   4   6
ENDBRANCH   2   4
TORSDOF 2
ENDMDL
MODEL 3
REMARK VINA RESULT:      -4.3      1.985      2.734
REMARK  2 active torsions:
REMARK  status: ('A' for Active; 'I' for Inactive)
REMARK    1  A    between atoms: C4_4  and  C6_6 
REMARK    2  A    between atoms: C6_6  and  N7_7 
ROOT
HETATM    1  C1  UNL     1     -32.653   6.060   2.837  1.00 20.00     0.332 C 
HETATM    2  N7  UNL     1     -32.364   7.126   3.218  1.00 20.00    -0.242 NA
HETATM    3  O8  UNL     1     -32.932   4.987   2.443  1.00 20.00    -0.260 OA
ENDROOT
BRANCH   2   4
HETATM    4  C6  UNL     1     -33.232   7.625   4.305  1.00 20.00     0.112 C 
HETATM    5  C5  UNL     1     -32.539   8.841   4.933  1.00 20.00     0.035 C 
BRANCH   4   6
HETATM    6  C4  UNL     1     -33.497   6.538   5.287  1.00 20.00     0.010 A 
HETATM    7  C2  UNL     1     -34.280   6.824   6.539  1.00 20.00     0.007 A 
HETATM    8  C3  UNL     1     -34.887   5.988   5.449  1.00 20.00     0.007 A 
ENDBRANCH   4   6
ENDBRANCH   2   4
TORSDOF 2
ENDMDL
MODEL 4
REMARK VINA RESULT:      -4.2      1.708      2.293
REMARK  2 active torsions:
REMARK  status: ('A' for Active; 'I' for Inactive)
REMARK    1  A    between atoms: C4_4  and  C6_6 
REMARK    2  A    between atoms: C6_6  and  N7_7 
ROOT
HETATM    1  C1  UNL     1     -32.248   7.691   3.178  1.00 20.00     0.332 C 
HETATM    2  N7  UNL     1     -32.365   7.863   4.328  1.00 20.00    -0.242 NA
HETATM    3  O8  UNL     1     -32.113   7.523   2.021  1.00 20.00    -0.260 OA
ENDROOT
BRANCH   2   4
HETATM    4  C6  UNL     1     -33.714   7.546   4.841  1.00 20.00     0.112 C 
HETATM    5  C5  UNL     1     -33.739   7.897   6.334  1.00 20.00     0.035 C 
BRANCH   4   6
HETATM    6  C4  UNL     1     -34.039   6.117   4.577  1.00 20.00     0.010 A 
HETATM    7  C2  UNL     1     -34.608   5.255   5.671  1.00 20.00     0.007 A 
HETATM    8  C3  UNL     1     -35.473   5.667   4.513  1.00 20.00     0.007 A 
ENDBRANCH   4   6
ENDBRANCH   2   4
TORSDOF 2
ENDMDL
MODEL 5
REMARK VINA RESULT:      -4.0      2.313      3.217
REMARK  2 active torsions:
REMARK  status: ('A' for Active; 'I' for Inactive)
REMARK    1  A    between atoms: C4_4  and  C6_6 
REMARK    2  A    between atoms: C6_6  and  N7_7 
ROOT
HETATM    1  C1  UNL     1     -34.648   5.112   5.666  1.00 20.00     0.332 C 
HETATM    2  N7  UNL     1     -34.437   4.787   4.564  1.00 20.00    -0.242 NA
HETATM    3  O8  UNL     1     -34.865   5.424   6.780  1.00 20.00    -0.260 OA
ENDROOT
BRANCH   2   4
HETATM    4  C6  UNL     1     -33.893   5.870   3.719  1.00 20.00     0.112 C 
HETATM    5  C5  UNL     1     -32.970   5.227   2.675  1.00 20.00     0.035 C 
BRANCH   4   6
HETATM    6  C4  UNL     1     -33.195   6.878   4.565  1.00 20.00     0.010 A 
HETATM    7  C2  UNL     1     -32.347   7.943   3.929  1.00 20.00     0.007 A 
HETATM    8  C3  UNL     1     -33.655   8.310   4.569  1.00 20.00     0.007 A 
ENDBRANCH   4   6
ENDBRANCH   2   4
TORSDOF 2
ENDMDL
MODEL 6
REMARK VINA RESULT:      -3.8      2.214      3.525
REMARK  2 active torsions:
REMARK  status: ('A' for Active; 'I' for Inactive)
REMARK    1  A    between atoms: C4_4  and  C6_6 
REMARK    2  A    between atoms: C6_6  and  N7_7 
ROOT
HETATM    1  C1  UNL     1     -34.313   6.365   6.124  1.00 20.00     0.332 C 
HETATM    2  N7  UNL     1     -34.015   7.464   5.862  1.00 20.00    -0.242 NA
HETATM    3  O8  UNL     1     -34.626   5.264   6.397  1.00 20.00    -0.260 OA
ENDROOT
BRANCH   2   4
HETATM    4  C6  UNL     1     -32.859   7.564   4.947  1.00 20.00     0.112 C 
HETATM    5  C5  UNL     1     -32.334   9.004   5.014  1.00 20.00     0.035 C 
BRANCH   4   6
HETATM    6  C4  UNL     1     -33.258   7.157   3.571  1.00 20.00     0.010 A 
HETATM    7  C2  UNL     1     -32.267   7.231   2.442  1.00 20.00     0.007 A 
HETATM    8  C3  UNL     1     -32.709   5.894   2.966  1.00 20.00     0.007 A 
ENDBRANCH   4   6
ENDBRANCH   2   4
TORSDOF 2
ENDMDL
MODEL 7
REMARK VINA RESULT:      -3.8      9.304      9.845
REMARK  2 active torsions:
REMARK  status: ('A' for Active; 'I' for Inactive)
REMARK    1  A    between atoms: C4_4  and  C6_6 
REMARK    2  A    between atoms: C6_6  and  N7_7 
ROOT
HETATM    1  C1  UNL     1     -40.382  14.357   8.331  1.00 20.00     0.332 C 
HETATM    2  N7  UNL     1     -40.742  13.418   7.737  1.00 20.00    -0.242 NA
HETATM    3  O8  UNL     1     -40.027  15.297   8.943  1.00 20.00    -0.260 OA
ENDROOT
BRANCH   2   4
HETATM    4  C6  UNL     1     -40.315  13.409   6.323  1.00 20.00     0.112 C 
HETATM    5  C5  UNL     1     -41.544  13.733   5.463  1.00 20.00     0.035 C 
BRANCH   4   6
HETATM    6  C4  UNL     1     -39.699  12.097   5.982  1.00 20.00     0.010 A 
HETATM    7  C2  UNL     1     -39.364  11.766   4.554  1.00 20.00     0.007 A 
HETATM    8  C3  UNL     1     -38.262  12.028   5.542  1.00 20.00     0.007 A 
ENDBRANCH   4   6
ENDBRANCH   2   4
TORSDOF 2
ENDMDL
MODEL 8
REMARK VINA RESULT:      -3.7      1.286      1.286
REMARK  2 active torsions:
REMARK  status: ('A' for Active; 'I' for Inactive)
REMARK    1  A    between atoms: C4_4  and  C6_6 
REMARK    2  A    between atoms: C6_6  and  N7_7 
ROOT
HETATM    1  C1  UNL     1     -32.798   8.784   3.241  1.00 20.00     0.332 C 
HETATM    2  N7  UNL     1     -32.873   8.363   4.328  1.00 20.00    -0.242 NA
HETATM    3  O8  UNL     1     -32.720   9.224   2.152  1.00 20.00    -0.260 OA
ENDROOT
BRANCH   2   4
HETATM    4  C6  UNL     1     -33.041   6.895   4.386  1.00 20.00     0.112 C 
HETATM    5  C5  UNL     1     -32.786   6.342   2.978  1.00 20.00     0.035 C 
BRANCH   4   6
HETATM    6  C4  UNL     1     -34.393   6.554   4.907  1.00 20.00     0.010 A 
HETATM    7  C2  UNL     1     -34.851   5.123   4.944  1.00 20.00     0.007 A 
HETATM    8  C3  UNL     1     -34.540   5.844   6.224  1.00 20.00     0.007 A 
ENDBRANCH   4   6
ENDBRANCH   2   4
TORSDOF 2
ENDMDL
MODEL 9
REMARK VINA RESULT:      -3.6     15.144     15.660
REMARK  2 active torsions:
REMARK  status: ('A' for Active; 'I' for Inactive)
REMARK    1  A    between atoms: C4_4  and  C6_6 
REMARK    2  A    between atoms: C6_6  and  N7_7 
ROOT
HETATM    1  C1  UNL     1     -21.976  17.288   8.549  1.00 20.00     0.332 C 
HETATM    2  N7  UNL     1     -22.203  17.528   9.670  1.00 20.00    -0.242 NA
HETATM    3  O8  UNL     1     -21.731  17.047   7.424  1.00 20.00    -0.260 OA
ENDROOT
BRANCH   2   4
HETATM    4  C6  UNL     1     -23.641  17.484  10.007  1.00 20.00     0.112 C 
HETATM    5  C5  UNL     1     -24.274  18.794   9.519  1.00 20.00     0.035 C 
BRANCH   4   6
HETATM    6  C4  UNL     1     -23.818  17.265  11.469  1.00 20.00     0.010 A 
HETATM    7  C2  UNL     1     -25.182  17.378  12.092  1.00 20.00     0.007 A 
HETATM    8  C3  UNL     1     -24.522  16.034  11.970  1.00 20.00     0.007 A 
ENDBRANCH   4   6
ENDBRANCH   2   4
TORSDOF 2
ENDMDL
