MODEL 1
REMARK VINA RESULT:      -4.7      0.000      0.000
REMARK  1 active torsions:
REMARK  status: ('A' for Active; 'I' for Inactive)
REMARK    1  A    between atoms: C11_11  and  N13_13 
ROOT
HETATM    1  C1  UNL     1     -35.167  16.414  -5.085  1.00 20.00     0.086 C 
HETATM    2  C11 UNL     1     -34.881  17.735  -4.533  1.00 20.00     0.357 C 
HETATM    3  N12 UNL     1     -35.400  15.365  -5.524  1.00 20.00    -0.196 NA
ENDROOT
BRANCH   2   4
HETATM    4  N13 UNL     1     -33.432  17.811  -4.131  1.00 20.00    -0.059 N 
HETATM    5  C8  UNL     1     -33.038  19.138  -3.533  1.00 20.00     0.236 C 
HETATM    6  C6  UNL     1     -33.536  19.263  -2.097  1.00 20.00     0.037 C 
HETATM    7  C10 UNL     1     -33.105  18.081  -1.197  1.00 20.00    -0.037 C 
HETATM    8  C4  UNL     1     -31.607  18.137  -0.842  1.00 20.00     0.010 C 
HETATM    9  C5  UNL     1     -33.738  18.195   0.200  1.00 20.00     0.010 C 
HETATM   10  C7  UNL     1     -33.492  16.753  -1.871  1.00 20.00     0.037 C 
HETATM   11  C2  UNL     1     -31.500  19.158   0.290  1.00 20.00     0.001 C 
HETATM   12  C3  UNL     1     -32.879  19.209   0.947  1.00 20.00     0.001 C 
HETATM   13  C9  UNL     1     -32.971  16.642  -3.298  1.00 20.00     0.236 C 
HETATM   14  H32 UNL     1     -32.890  17.740  -5.040  1.00 20.00     0.281 HD
ENDBRANCH   2   4
TORSDOF 1
ENDMDL
MODEL 2
REMARK VINA RESULT:      -4.6      2.960      5.600
REMARK  1 active torsions:
REMARK  status: ('A' for Active; 'I' for Inactive)
REMARK    1  A    between atoms: C11_11  and  N13_13 
ROOT
HETATM    1  C1  UNL     1     -30.281  18.648   2.591  1.00 20.00     0.086 C 
HETATM    2  C11 UNL     1     -31.617  18.250   2.157  1.00 20.00     0.357 C 
HETATM    3  N12 UNL     1     -29.219  18.961   2.938  1.00 20.00    -0.196 NA
ENDROOT
BRANCH   2   4
HETATM    4  N13 UNL     1     -32.141  19.243   1.155  1.00 20.00    -0.059 N 
HETATM    5  C8  UNL     1     -31.373  19.256  -0.143  1.00 20.00     0.236 C 
HETATM    6  C6  UNL     1     -31.737  18.054  -1.009  1.00 20.00     0.037 C 
HETATM    7  C10 UNL     1     -33.260  17.914  -1.247  1.00 20.00    -0.037 C 
HETATM    8  C4  UNL     1     -33.794  18.974  -2.229  1.00 20.00     0.010 C 
HETATM    9  C5  UNL     1     -33.578  16.620  -2.016  1.00 20.00     0.010 C 
HETATM   10  C7  UNL     1     -33.998  17.949   0.102  1.00 20.00     0.037 C 
HETATM   11  C2  UNL     1     -33.434  18.452  -3.620  1.00 20.00     0.001 C 
HETATM   12  C3  UNL     1     -33.275  16.939  -3.477  1.00 20.00     0.001 C 
HETATM   13  C9  UNL     1     -33.631  19.164   0.943  1.00 20.00     0.236 C 
HETATM   14  H32 UNL     1     -31.968  20.194   1.593  1.00 20.00     0.281 HD
ENDBRANCH   2   4
TORSDOF 1
ENDMDL
MODEL 3
REMARK VINA RESULT:      -4.2      1.309      2.600
REMARK  1 active torsions:
REMARK  status: ('A' for Active; 'I' for Inactive)
REMARK    1  A    between atoms: C11_11  and  N13_13 
ROOT
HETATM    1  C1  UNL     1     -35.267  15.245  -6.806  1.00 20.00     0.086 C 
HETATM    2  C11 UNL     1     -34.445  16.085  -5.940  1.00 20.00     0.357 C 
HETATM    3  N12 UNL     1     -35.918  14.578  -7.498  1.00 20.00    -0.196 NA
ENDROOT
BRANCH   2   4
HETATM    4  N13 UNL     1     -35.011  16.081  -4.546  1.00 20.00    -0.059 N 
HETATM    5  C8  UNL     1     -34.042  15.592  -3.499  1.00 20.00     0.236 C 
HETATM    6  C6  UNL     1     -33.004  16.659  -3.170  1.00 20.00     0.037 C 
HETATM    7  C10 UNL     1     -33.630  18.018  -2.777  1.00 20.00    -0.037 C 
HETATM    8  C4  UNL     1     -34.260  17.983  -1.372  1.00 20.00     0.010 C 
HETATM    9  C5  UNL     1     -32.542  19.088  -2.581  1.00 20.00     0.010 C 
HETATM   10  C7  UNL     1     -34.640  18.451  -3.855  1.00 20.00     0.037 C 
HETATM   11  C2  UNL     1     -33.089  18.138  -0.403  1.00 20.00     0.001 C 
HETATM   12  C3  UNL     1     -31.977  18.830  -1.188  1.00 20.00     0.001 C 
HETATM   13  C9  UNL     1     -35.677  17.376  -4.156  1.00 20.00     0.236 C 
HETATM   14  H32 UNL     1     -35.790  15.360  -4.567  1.00 20.00     0.281 HD
ENDBRANCH   2   4
TORSDOF 1
ENDMDL
MODEL 4
REMARK VINA RESULT:      -4.0      1.465      2.242
REMARK  1 active torsions:
REMARK  status: ('A' for Active; 'I' for Inactive)
REMARK    1  A    between atoms: C11_11  and  N13_13 
ROOT
HETATM    1  C1  UNL     1     -36.310  15.447  -6.319  1.00 20.00     0.086 C 
HETATM    2  C11 UNL     1     -36.600  16.513  -5.364  1.00 20.00     0.357 C 
HETATM    3  N12 UNL     1     -36.084  14.597  -7.076  1.00 20.00    -0.196 NA
ENDROOT
BRANCH   2   4
HETATM    4  N13 UNL     1     -35.505  17.545  -5.411  1.00 20.00    -0.059 N 
HETATM    5  C8  UNL     1     -35.679  18.659  -4.410  1.00 20.00     0.236 C 
HETATM    6  C6  UNL     1     -35.306  18.198  -3.005  1.00 20.00     0.037 C 
HETATM    7  C10 UNL     1     -33.894  17.572  -2.923  1.00 20.00    -0.037 C 
HETATM    8  C4  UNL     1     -32.781  18.631  -3.033  1.00 20.00     0.010 C 
HETATM    9  C5  UNL     1     -33.622  17.012  -1.516  1.00 20.00     0.010 C 
HETATM   10  C7  UNL     1     -33.755  16.472  -3.990  1.00 20.00     0.037 C 
HETATM   11  C2  UNL     1     -32.685  19.259  -1.643  1.00 20.00     0.001 C 
HETATM   12  C3  UNL     1     -33.246  18.223  -0.670  1.00 20.00     0.001 C 
HETATM   13  C9  UNL     1     -34.116  16.958  -5.388  1.00 20.00     0.236 C 
HETATM   14  H32 UNL     1     -35.600  18.004  -6.363  1.00 20.00     0.281 HD
ENDBRANCH   2   4
TORSDOF 1
ENDMDL
MODEL 5
REMARK VINA RESULT:      -3.9      1.846      5.482
REMARK  1 active torsions:
REMARK  status: ('A' for Active; 'I' for Inactive)
REMARK    1  A    between atoms: C11_11  and  N13_13 
ROOT
HETATM    1  C1  UNL     1     -32.157  18.785  -1.672  1.00 20.00     0.086 C 
HETATM    2  C11 UNL     1     -33.069  18.801  -2.812  1.00 20.00     0.357 C 
HETATM    3  N12 UNL     1     -31.429  18.775  -0.769  1.00 20.00    -0.196 NA
ENDROOT
BRANCH   2   4
HETATM    4  N13 UNL     1     -34.124  17.744  -2.630  1.00 20.00    -0.059 N 
HETATM    5  C8  UNL     1     -35.260  17.845  -3.616  1.00 20.00     0.236 C 
HETATM    6  C6  UNL     1     -34.845  17.321  -4.987  1.00 20.00     0.037 C 
HETATM    7  C10 UNL     1     -34.254  15.892  -4.941  1.00 20.00    -0.037 C 
HETATM    8  C4  UNL     1     -35.336  14.824  -4.694  1.00 20.00     0.010 C 
HETATM    9  C5  UNL     1     -33.738  15.466  -6.326  1.00 20.00     0.010 C 
HETATM   10  C7  UNL     1     -33.130  15.833  -3.892  1.00 20.00     0.037 C 
HETATM   11  C2  UNL     1     -36.002  14.604  -6.051  1.00 20.00     0.001 C 
HETATM   12  C3  UNL     1     -34.980  15.038  -7.101  1.00 20.00     0.001 C 
HETATM   13  C9  UNL     1     -33.571  16.345  -2.527  1.00 20.00     0.236 C 
HETATM   14  H32 UNL     1     -34.556  17.946  -1.682  1.00 20.00     0.281 HD
ENDBRANCH   2   4
TORSDOF 1
ENDMDL
MODEL 6
REMARK VINA RESULT:      -3.7      1.804      5.638
REMARK  1 active torsions:
REMARK  status: ('A' for Active; 'I' for Inactive)
REMARK    1  A    between atoms: C11_11  and  N13_13 
ROOT
HETATM    1  C1  UNL     1     -33.210  18.060  -0.783  1.00 20.00     0.086 C 
HETATM    2  C11 UNL     1     -33.668  16.995  -1.671  1.00 20.00     0.357 C 
HETATM    3  N12 UNL     1     -32.849  18.904  -0.073  1.00 20.00    -0.196 NA
ENDROOT
BRANCH   2   4
HETATM    4  N13 UNL     1     -33.096  17.204  -3.047  1.00 20.00    -0.059 N 
HETATM    5  C8  UNL     1     -32.876  15.925  -3.814  1.00 20.00     0.236 C 
HETATM    6  C6  UNL     1     -34.193  15.371  -4.348  1.00 20.00     0.037 C 
HETATM    7  C10 UNL     1     -34.997  16.402  -5.176  1.00 20.00    -0.037 C 
HETATM    8  C4  UNL     1     -34.368  16.653  -6.559  1.00 20.00     0.010 C 
HETATM    9  C5  UNL     1     -36.368  15.833  -5.580  1.00 20.00     0.010 C 
HETATM   10  C7  UNL     1     -35.156  17.701  -4.367  1.00 20.00     0.037 C 
HETATM   11  C2  UNL     1     -34.813  15.474  -7.423  1.00 20.00     0.001 C 
HETATM   12  C3  UNL     1     -36.089  14.934  -6.780  1.00 20.00     0.001 C 
HETATM   13  C9  UNL     1     -33.828  18.244  -3.857  1.00 20.00     0.236 C 
HETATM   14  H32 UNL     1     -32.127  17.605  -2.885  1.00 20.00     0.281 HD
ENDBRANCH   2   4
TORSDOF 1
ENDMDL
MODEL 7
REMARK VINA RESULT:      -3.6     24.714     25.653
REMARK  1 active torsions:
REMARK  status: ('A' for Active; 'I' for Inactive)
REMARK    1  A    between atoms: C11_11  and  N13_13 
ROOT
HETATM    1  C1  UNL     1     -30.091  -2.137  11.889  1.00 20.00     0.086 C 
HETATM    2  C11 UNL     1     -28.755  -1.696  12.282  1.00 20.00     0.357 C 
HETATM    3  N12 UNL     1     -31.153  -2.487  11.582  1.00 20.00    -0.196 NA
ENDROOT
BRANCH   2   4
HETATM    4  N13 UNL     1     -27.913  -1.477  11.054  1.00 20.00    -0.059 N 
HETATM    5  C8  UNL     1     -26.582  -0.829  11.339  1.00 20.00     0.236 C 
HETATM    6  C6  UNL     1     -25.602  -1.831  11.940  1.00 20.00     0.037 C 
HETATM    7  C10 UNL     1     -25.442  -3.114  11.090  1.00 20.00    -0.037 C 
HETATM    8  C4  UNL     1     -24.631  -2.862   9.806  1.00 20.00     0.010 C 
HETATM    9  C5  UNL     1     -24.544  -4.138  11.805  1.00 20.00     0.010 C 
HETATM   10  C7  UNL     1     -26.829  -3.710  10.793  1.00 20.00     0.037 C 
HETATM   11  C2  UNL     1     -23.168  -2.862  10.248  1.00 20.00     0.001 C 
HETATM   12  C3  UNL     1     -23.117  -3.666  11.546  1.00 20.00     0.001 C 
HETATM   13  C9  UNL     1     -27.787  -2.697  10.178  1.00 20.00     0.236 C 
HETATM   14  H32 UNL     1     -28.452  -0.769  10.474  1.00 20.00     0.281 HD
ENDBRANCH   2   4
TORSDOF 1
ENDMDL
MODEL 8
REMARK VINA RESULT:      -3.4     25.225     26.213
REMARK  1 active torsions:
REMARK  status: ('A' for Active; 'I' for Inactive)
REMARK    1  A    between atoms: C11_11  and  N13_13 
ROOT
HETATM    1  C1  UNL     1     -30.074  -3.003  11.280  1.00 20.00     0.086 C 
HETATM    2  C11 UNL     1     -28.842  -3.687  10.897  1.00 20.00     0.357 C 
HETATM    3  N12 UNL     1     -31.055  -2.461  11.580  1.00 20.00    -0.196 NA
ENDROOT
BRANCH   2   4
HETATM    4  N13 UNL     1     -27.754  -3.358  11.884  1.00 20.00    -0.059 N 
HETATM    5  C8  UNL     1     -26.741  -4.461  12.059  1.00 20.00     0.236 C 
HETATM    6  C6  UNL     1     -25.777  -4.515  10.879  1.00 20.00     0.037 C 
HETATM    7  C10 UNL     1     -25.097  -3.157  10.585  1.00 20.00    -0.037 C 
HETATM    8  C4  UNL     1     -24.027  -2.803  11.636  1.00 20.00     0.010 C 
HETATM    9  C5  UNL     1     -24.236  -3.237   9.312  1.00 20.00     0.010 C 
HETATM   10  C7  UNL     1     -26.169  -2.060  10.457  1.00 20.00     0.037 C 
HETATM   11  C2  UNL     1     -22.792  -3.612  11.241  1.00 20.00     0.001 C 
HETATM   12  C3  UNL     1     -22.939  -3.908   9.750  1.00 20.00     0.001 C 
HETATM   13  C9  UNL     1     -27.110  -2.014  11.654  1.00 20.00     0.236 C 
HETATM   14  H32 UNL     1     -28.246  -3.277  12.821  1.00 20.00     0.281 HD
ENDBRANCH   2   4
TORSDOF 1
ENDMDL
MODEL 9
REMARK VINA RESULT:      -3.4      2.210      5.146
REMARK  1 active torsions:
REMARK  status: ('A' for Active; 'I' for Inactive)
REMARK    1  A    between atoms: C11_11  and  N13_13 
ROOT
HETATM    1  C1  UNL     1     -31.098  18.501   0.744  1.00 20.00     0.086 C 
HETATM    2  C11 UNL     1     -31.370  18.155  -0.648  1.00 20.00     0.357 C 
HETATM    3  N12 UNL     1     -30.878  18.773   1.851  1.00 20.00    -0.196 NA
ENDROOT
BRANCH   2   4
HETATM    4  N13 UNL     1     -32.710  18.708  -1.054  1.00 20.00    -0.059 N 
HETATM    5  C8  UNL     1     -32.737  19.263  -2.455  1.00 20.00     0.236 C 
HETATM    6  C6  UNL     1     -32.787  18.142  -3.489  1.00 20.00     0.037 C 
HETATM    7  C10 UNL     1     -33.942  17.141  -3.248  1.00 20.00    -0.037 C 
HETATM    8  C4  UNL     1     -35.314  17.740  -3.610  1.00 20.00     0.010 C 
HETATM    9  C5  UNL     1     -33.867  15.968  -4.240  1.00 20.00     0.010 C 
HETATM   10  C7  UNL     1     -33.893  16.639  -1.795  1.00 20.00     0.037 C 
HETATM   11  C2  UNL     1     -35.412  17.630  -5.131  1.00 20.00     0.001 C 
HETATM   12  C3  UNL     1     -34.465  16.503  -5.537  1.00 20.00     0.001 C 
HETATM   13  C9  UNL     1     -33.860  17.774  -0.779  1.00 20.00     0.236 C 
HETATM   14  H32 UNL     1     -32.867  19.543  -0.418  1.00 20.00     0.281 HD
ENDBRANCH   2   4
TORSDOF 1
ENDMDL
