MODEL 1
REMARK VINA RESULT:      -3.8      0.000      0.000
REMARK  3 active torsions:
REMARK  status: ('A' for Active; 'I' for Inactive)
REMARK    1  A    between atoms: C6_6  and  N10_10 
REMARK    2  A    between atoms: C7_7  and  C8_8 
REMARK    3  A    between atoms: C8_8  and  N10_10 
ROOT
HETATM    1  C1  UNL     1     -33.688  17.780  -0.757  1.00 20.00     0.013 C 
HETATM    2  C2  UNL     1     -33.486  17.240  -1.810  1.00 20.00    -0.087 C 
HETATM    3  C6  UNL     1     -33.233  16.580  -3.093  1.00 20.00     0.364 C 
ENDROOT
BRANCH   3   4
HETATM    4  N10 UNL     1     -34.376  16.754  -3.999  1.00 20.00     0.100 N 
HETATM    5  C5  UNL     1     -34.190  17.967  -4.806  1.00 20.00     0.311 C 
BRANCH   4   6
HETATM    6  C8  UNL     1     -34.554  15.592  -4.840  1.00 20.00     0.232 C 
HETATM    7  C4  UNL     1     -33.522  14.528  -4.482  1.00 20.00     0.044 C 
BRANCH   6   8
HETATM    8  C7  UNL     1     -34.457  15.968  -6.324  1.00 20.00     0.159 C 
HETATM    9  C3  UNL     1     -35.381  15.175  -7.151  1.00 20.00     0.061 C 
HETATM   10  N9  UNL     1     -36.108  14.552  -7.806  1.00 20.00    -0.197 NA
ENDBRANCH   6   8
ENDBRANCH   4   6
ENDBRANCH   3   4
TORSDOF 3
ENDMDL
MODEL 2
REMARK VINA RESULT:      -3.6      1.551      2.016
REMARK  3 active torsions:
REMARK  status: ('A' for Active; 'I' for Inactive)
REMARK    1  A    between atoms: C6_6  and  N10_10 
REMARK    2  A    between atoms: C7_7  and  C8_8 
REMARK    3  A    between atoms: C8_8  and  N10_10 
ROOT
HETATM    1  C1  UNL     1     -33.330  17.398  -1.428  1.00 20.00     0.013 C 
HETATM    2  C2  UNL     1     -33.350  16.884  -2.512  1.00 20.00    -0.087 C 
HETATM    3  C6  UNL     1     -33.369  16.255  -3.835  1.00 20.00     0.364 C 
ENDROOT
BRANCH   3   4
HETATM    4  N10 UNL     1     -34.537  16.701  -4.604  1.00 20.00     0.100 N 
HETATM    5  C5  UNL     1     -34.460  18.150  -4.830  1.00 20.00     0.311 C 
BRANCH   4   6
HETATM    6  C8  UNL     1     -34.640  15.985  -5.856  1.00 20.00     0.232 C 
HETATM    7  C4  UNL     1     -34.563  16.965  -7.022  1.00 20.00     0.044 C 
BRANCH   6   8
HETATM    8  C7  UNL     1     -35.937  15.167  -5.916  1.00 20.00     0.159 C 
HETATM    9  C3  UNL     1     -35.883  13.991  -5.034  1.00 20.00     0.061 C 
HETATM   10  N9  UNL     1     -35.844  13.063  -4.338  1.00 20.00    -0.197 NA
ENDBRANCH   6   8
ENDBRANCH   4   6
ENDBRANCH   3   4
TORSDOF 3
ENDMDL
MODEL 3
REMARK VINA RESULT:      -3.6      3.159      6.401
REMARK  3 active torsions:
REMARK  status: ('A' for Active; 'I' for Inactive)
REMARK    1  A    between atoms: C6_6  and  N10_10 
REMARK    2  A    between atoms: C7_7  and  C8_8 
REMARK    3  A    between atoms: C8_8  and  N10_10 
ROOT
HETATM    1  C1  UNL     1     -33.079  15.157  -4.081  1.00 20.00     0.013 C 
HETATM    2  C2  UNL     1     -33.396  16.022  -3.311  1.00 20.00    -0.087 C 
HETATM    3  C6  UNL     1     -33.789  17.075  -2.372  1.00 20.00     0.364 C 
ENDROOT
BRANCH   3   4
HETATM    4  N10 UNL     1     -32.633  17.906  -2.013  1.00 20.00     0.100 N 
HETATM    5  C5  UNL     1     -32.761  19.231  -2.634  1.00 20.00     0.311 C 
BRANCH   4   6
HETATM    6  C8  UNL     1     -32.496  18.015  -0.578  1.00 20.00     0.232 C 
HETATM    7  C4  UNL     1     -33.812  18.485   0.034  1.00 20.00     0.044 C 
BRANCH   6   8
HETATM    8  C7  UNL     1     -31.352  18.967  -0.206  1.00 20.00     0.159 C 
HETATM    9  C3  UNL     1     -30.808  18.673   1.129  1.00 20.00     0.061 C 
HETATM   10  N9  UNL     1     -30.377  18.443   2.182  1.00 20.00    -0.197 NA
ENDBRANCH   6   8
ENDBRANCH   4   6
ENDBRANCH   3   4
TORSDOF 3
ENDMDL
MODEL 4
REMARK VINA RESULT:      -3.6      2.439      4.262
REMARK  3 active torsions:
REMARK  status: ('A' for Active; 'I' for Inactive)
REMARK    1  A    between atoms: C6_6  and  N10_10 
REMARK    2  A    between atoms: C7_7  and  C8_8 
REMARK    3  A    between atoms: C8_8  and  N10_10 
ROOT
HETATM    1  C1  UNL     1     -30.550  18.457   2.032  1.00 20.00     0.013 C 
HETATM    2  C2  UNL     1     -30.983  18.520   0.914  1.00 20.00    -0.087 C 
HETATM    3  C6  UNL     1     -31.505  18.600  -0.452  1.00 20.00     0.364 C 
ENDROOT
BRANCH   3   4
HETATM    4  N10 UNL     1     -32.892  18.124  -0.505  1.00 20.00     0.100 N 
HETATM    5  C5  UNL     1     -33.740  18.967   0.348  1.00 20.00     0.311 C 
BRANCH   4   6
HETATM    6  C8  UNL     1     -33.383  18.101  -1.864  1.00 20.00     0.232 C 
HETATM    7  C4  UNL     1     -34.805  18.653  -1.913  1.00 20.00     0.044 C 
BRANCH   6   8
HETATM    8  C7  UNL     1     -33.329  16.682  -2.445  1.00 20.00     0.159 C 
HETATM    9  C3  UNL     1     -33.854  16.632  -3.819  1.00 20.00     0.061 C 
HETATM   10  N9  UNL     1     -34.267  16.590  -4.902  1.00 20.00    -0.197 NA
ENDBRANCH   6   8
ENDBRANCH   4   6
ENDBRANCH   3   4
TORSDOF 3
ENDMDL
MODEL 5
REMARK VINA RESULT:      -3.5     11.233     12.338
REMARK  3 active torsions:
REMARK  status: ('A' for Active; 'I' for Inactive)
REMARK    1  A    between atoms: C6_6  and  N10_10 
REMARK    2  A    between atoms: C7_7  and  C8_8 
REMARK    3  A    between atoms: C8_8  and  N10_10 
ROOT
HETATM    1  C1  UNL     1     -34.756   5.382   6.534  1.00 20.00     0.013 C 
HETATM    2  C2  UNL     1     -34.419   6.129   5.657  1.00 20.00    -0.087 C 
HETATM    3  C6  UNL     1     -34.012   7.044   4.588  1.00 20.00     0.364 C 
ENDROOT
BRANCH   3   4
HETATM    4  N10 UNL     1     -32.815   6.540   3.902  1.00 20.00     0.100 N 
HETATM    5  C5  UNL     1     -33.197   5.508   2.929  1.00 20.00     0.311 C 
BRANCH   4   6
HETATM    6  C8  UNL     1     -32.091   7.615   3.262  1.00 20.00     0.232 C 
HETATM    7  C4  UNL     1     -32.678   8.959   3.683  1.00 20.00     0.044 C 
BRANCH   6   8
HETATM    8  C7  UNL     1     -32.117   7.462   1.736  1.00 20.00     0.159 C 
HETATM    9  C3  UNL     1     -32.466   8.724   1.065  1.00 20.00     0.061 C 
HETATM   10  N9  UNL     1     -32.742   9.718   0.534  1.00 20.00    -0.197 NA
ENDBRANCH   6   8
ENDBRANCH   4   6
ENDBRANCH   3   4
TORSDOF 3
ENDMDL
MODEL 6
REMARK VINA RESULT:      -3.5     11.115     12.814
REMARK  3 active torsions:
REMARK  status: ('A' for Active; 'I' for Inactive)
REMARK    1  A    between atoms: C6_6  and  N10_10 
REMARK    2  A    between atoms: C7_7  and  C8_8 
REMARK    3  A    between atoms: C8_8  and  N10_10 
ROOT
HETATM    1  C1  UNL     1     -38.966  11.649   3.959  1.00 20.00     0.013 C 
HETATM    2  C2  UNL     1     -39.547  11.887   4.983  1.00 20.00    -0.087 C 
HETATM    3  C6  UNL     1     -40.250  12.175   6.235  1.00 20.00     0.364 C 
ENDROOT
BRANCH   3   4
HETATM    4  N10 UNL     1     -41.548  12.806   5.967  1.00 20.00     0.100 N 
HETATM    5  C5  UNL     1     -42.527  12.378   6.974  1.00 20.00     0.311 C 
BRANCH   4   6
HETATM    6  C8  UNL     1     -41.429  14.247   5.938  1.00 20.00     0.232 C 
HETATM    7  C4  UNL     1     -41.331  14.789   7.361  1.00 20.00     0.044 C 
BRANCH   6   8
HETATM    8  C7  UNL     1     -42.611  14.881   5.193  1.00 20.00     0.159 C 
HETATM    9  C3  UNL     1     -42.429  14.830   3.734  1.00 20.00     0.061 C 
HETATM   10  N9  UNL     1     -42.288  14.791   2.583  1.00 20.00    -0.197 NA
ENDBRANCH   6   8
ENDBRANCH   4   6
ENDBRANCH   3   4
TORSDOF 3
ENDMDL
MODEL 7
REMARK VINA RESULT:      -3.4     11.784     13.997
REMARK  3 active torsions:
REMARK  status: ('A' for Active; 'I' for Inactive)
REMARK    1  A    between atoms: C6_6  and  N10_10 
REMARK    2  A    between atoms: C7_7  and  C8_8 
REMARK    3  A    between atoms: C8_8  and  N10_10 
ROOT
HETATM    1  C1  UNL     1     -38.976  11.654   4.192  1.00 20.00     0.013 C 
HETATM    2  C2  UNL     1     -39.774  12.042   5.001  1.00 20.00    -0.087 C 
HETATM    3  C6  UNL     1     -40.748  12.508   5.990  1.00 20.00     0.364 C 
ENDROOT
BRANCH   3   4
HETATM    4  N10 UNL     1     -41.035  13.935   5.802  1.00 20.00     0.100 N 
HETATM    5  C5  UNL     1     -41.993  14.109   4.702  1.00 20.00     0.311 C 
BRANCH   4   6
HETATM    6  C8  UNL     1     -41.531  14.532   7.021  1.00 20.00     0.232 C 
HETATM    7  C4  UNL     1     -42.384  15.753   6.693  1.00 20.00     0.044 C 
BRANCH   6   8
HETATM    8  C7  UNL     1     -40.375  14.909   7.958  1.00 20.00     0.159 C 
HETATM    9  C3  UNL     1     -40.563  14.358   9.309  1.00 20.00     0.061 C 
HETATM   10  N9  UNL     1     -40.709  13.924  10.375  1.00 20.00    -0.197 NA
ENDBRANCH   6   8
ENDBRANCH   4   6
ENDBRANCH   3   4
TORSDOF 3
ENDMDL
MODEL 8
REMARK VINA RESULT:      -3.4     11.485     13.103
REMARK  3 active torsions:
REMARK  status: ('A' for Active; 'I' for Inactive)
REMARK    1  A    between atoms: C6_6  and  N10_10 
REMARK    2  A    between atoms: C7_7  and  C8_8 
REMARK    3  A    between atoms: C8_8  and  N10_10 
ROOT
HETATM    1  C1  UNL     1     -40.658  17.042   7.580  1.00 20.00     0.013 C 
HETATM    2  C2  UNL     1     -40.519  15.919   7.981  1.00 20.00    -0.087 C 
HETATM    3  C6  UNL     1     -40.344  14.552   8.474  1.00 20.00     0.364 C 
ENDROOT
BRANCH   3   4
HETATM    4  N10 UNL     1     -41.064  13.598   7.622  1.00 20.00     0.100 N 
HETATM    5  C5  UNL     1     -42.471  14.003   7.501  1.00 20.00     0.311 C 
BRANCH   4   6
HETATM    6  C8  UNL     1     -40.442  13.489   6.322  1.00 20.00     0.232 C 
HETATM    7  C4  UNL     1     -41.487  13.683   5.227  1.00 20.00     0.044 C 
BRANCH   6   8
HETATM    8  C7  UNL     1     -39.732  12.138   6.164  1.00 20.00     0.159 C 
HETATM    9  C3  UNL     1     -39.316  11.897   4.774  1.00 20.00     0.061 C 
HETATM   10  N9  UNL     1     -38.987  11.704   3.677  1.00 20.00    -0.197 NA
ENDBRANCH   6   8
ENDBRANCH   4   6
ENDBRANCH   3   4
TORSDOF 3
ENDMDL
MODEL 9
REMARK VINA RESULT:      -3.4     11.416     13.631
REMARK  3 active torsions:
REMARK  status: ('A' for Active; 'I' for Inactive)
REMARK    1  A    between atoms: C6_6  and  N10_10 
REMARK    2  A    between atoms: C7_7  and  C8_8 
REMARK    3  A    between atoms: C8_8  and  N10_10 
ROOT
HETATM    1  C1  UNL     1     -38.925  11.702   3.884  1.00 20.00     0.013 C 
HETATM    2  C2  UNL     1     -39.591  11.898   4.863  1.00 20.00    -0.087 C 
HETATM    3  C6  UNL     1     -40.404  12.132   6.059  1.00 20.00     0.364 C 
ENDROOT
BRANCH   3   4
HETATM    4  N10 UNL     1     -40.763  13.551   6.171  1.00 20.00     0.100 N 
HETATM    5  C5  UNL     1     -41.692  13.915   5.093  1.00 20.00     0.311 C 
BRANCH   4   6
HETATM    6  C8  UNL     1     -41.332  13.843   7.467  1.00 20.00     0.232 C 
HETATM    7  C4  UNL     1     -42.729  14.434   7.301  1.00 20.00     0.044 C 
BRANCH   6   8
HETATM    8  C7  UNL     1     -40.429  14.794   8.263  1.00 20.00     0.159 C 
HETATM    9  C3  UNL     1     -40.517  16.176   7.766  1.00 20.00     0.061 C 
HETATM   10  N9  UNL     1     -40.585  17.267   7.377  1.00 20.00    -0.197 NA
ENDBRANCH   6   8
ENDBRANCH   4   6
ENDBRANCH   3   4
TORSDOF 3
ENDMDL
