MODEL 1
REMARK VINA RESULT:      -4.4      0.000      0.000
REMARK  3 active torsions:
REMARK  status: ('A' for Active; 'I' for Inactive)
REMARK    1  A    between atoms: C5_5  and  C7_7 
REMARK    2  A    between atoms: C6_6  and  C7_7 
REMARK    3  A    between atoms: C7_7  and  O8_8 
ROOT
HETATM    1  C1  UNL     1     -32.513   8.505   4.630  1.00 20.00     0.012 C 
HETATM    2  C2  UNL     1     -33.178   7.726   5.257  1.00 20.00    -0.115 C 
HETATM    3  C5  UNL     1     -33.990   6.774   6.034  1.00 20.00     0.130 C 
ENDROOT
BRANCH   3   4
HETATM    4  C7  UNL     1     -34.580   5.636   5.174  1.00 20.00     0.064 C 
HETATM    5  C4  UNL     1     -35.642   6.211   4.224  1.00 20.00     0.046 C 
BRANCH   4   6
HETATM    6  C6  UNL     1     -33.530   4.817   4.394  1.00 20.00     0.034 C 
HETATM    7  C3  UNL     1     -33.359   5.195   2.930  1.00 20.00     0.008 C 
ENDBRANCH   4   6
BRANCH   4   8
HETATM    8  O8  UNL     1     -35.257   4.713   6.041  1.00 20.00    -0.389 OA
HETATM    9  H20 UNL     1     -35.517   3.967   5.483  1.00 20.00     0.210 HD
ENDBRANCH   4   8
ENDBRANCH   3   4
TORSDOF 3
ENDMDL
MODEL 2
REMARK VINA RESULT:      -4.2      1.410      2.692
REMARK  3 active torsions:
REMARK  status: ('A' for Active; 'I' for Inactive)
REMARK    1  A    between atoms: C5_5  and  C7_7 
REMARK    2  A    between atoms: C6_6  and  C7_7 
REMARK    3  A    between atoms: C7_7  and  O8_8 
ROOT
HETATM    1  C1  UNL     1     -32.114   7.190   2.517  1.00 20.00     0.012 C 
HETATM    2  C2  UNL     1     -32.817   6.349   3.005  1.00 20.00    -0.115 C 
HETATM    3  C5  UNL     1     -33.679   5.311   3.597  1.00 20.00     0.130 C 
ENDROOT
BRANCH   3   4
HETATM    4  C7  UNL     1     -34.568   5.839   4.742  1.00 20.00     0.064 C 
HETATM    5  C4  UNL     1     -34.443   4.907   5.957  1.00 20.00     0.046 C 
BRANCH   4   6
HETATM    6  C6  UNL     1     -34.289   7.303   5.141  1.00 20.00     0.034 C 
HETATM    7  C3  UNL     1     -33.621   7.499   6.495  1.00 20.00     0.008 C 
ENDBRANCH   4   6
BRANCH   4   8
HETATM    8  O8  UNL     1     -35.939   5.785   4.319  1.00 20.00    -0.389 OA
HETATM    9  H20 UNL     1     -36.254   6.699   4.324  1.00 20.00     0.210 HD
ENDBRANCH   4   8
ENDBRANCH   3   4
TORSDOF 3
ENDMDL
MODEL 3
REMARK VINA RESULT:      -4.0      1.638      3.022
REMARK  3 active torsions:
REMARK  status: ('A' for Active; 'I' for Inactive)
REMARK    1  A    between atoms: C5_5  and  C7_7 
REMARK    2  A    between atoms: C6_6  and  C7_7 
REMARK    3  A    between atoms: C7_7  and  O8_8 
ROOT
HETATM    1  C1  UNL     1     -32.900   5.106   2.426  1.00 20.00     0.012 C 
HETATM    2  C2  UNL     1     -32.786   6.107   3.080  1.00 20.00    -0.115 C 
HETATM    3  C5  UNL     1     -32.637   7.336   3.878  1.00 20.00     0.130 C 
ENDROOT
BRANCH   3   4
HETATM    4  C7  UNL     1     -33.586   7.389   5.094  1.00 20.00     0.064 C 
HETATM    5  C4  UNL     1     -34.077   8.831   5.296  1.00 20.00     0.046 C 
BRANCH   4   6
HETATM    6  C6  UNL     1     -34.775   6.408   5.017  1.00 20.00     0.034 C 
HETATM    7  C3  UNL     1     -34.791   5.311   6.072  1.00 20.00     0.008 C 
ENDBRANCH   4   6
BRANCH   4   8
HETATM    8  O8  UNL     1     -32.842   7.037   6.270  1.00 20.00    -0.389 OA
HETATM    9  H20 UNL     1     -33.375   6.377   6.734  1.00 20.00     0.210 HD
ENDBRANCH   4   8
ENDBRANCH   3   4
TORSDOF 3
ENDMDL
MODEL 4
REMARK VINA RESULT:      -3.8      2.076      3.230
REMARK  3 active torsions:
REMARK  status: ('A' for Active; 'I' for Inactive)
REMARK    1  A    between atoms: C5_5  and  C7_7 
REMARK    2  A    between atoms: C6_6  and  C7_7 
REMARK    3  A    between atoms: C7_7  and  O8_8 
ROOT
HETATM    1  C1  UNL     1     -34.922   5.072   5.987  1.00 20.00     0.012 C 
HETATM    2  C2  UNL     1     -34.288   6.090   6.033  1.00 20.00    -0.115 C 
HETATM    3  C5  UNL     1     -33.513   7.341   6.098  1.00 20.00     0.130 C 
ENDROOT
BRANCH   3   4
HETATM    4  C7  UNL     1     -33.178   7.921   4.708  1.00 20.00     0.064 C 
HETATM    5  C4  UNL     1     -32.150   9.053   4.861  1.00 20.00     0.046 C 
BRANCH   4   6
HETATM    6  C6  UNL     1     -32.695   6.875   3.681  1.00 20.00     0.034 C 
HETATM    7  C3  UNL     1     -32.201   7.436   2.354  1.00 20.00     0.008 C 
ENDBRANCH   4   6
BRANCH   4   8
HETATM    8  O8  UNL     1     -34.366   8.513   4.161  1.00 20.00    -0.389 OA
HETATM    9  H20 UNL     1     -34.435   9.389   4.563  1.00 20.00     0.210 HD
ENDBRANCH   4   8
ENDBRANCH   3   4
TORSDOF 3
ENDMDL
MODEL 5
REMARK VINA RESULT:      -3.8      2.470      3.536
REMARK  3 active torsions:
REMARK  status: ('A' for Active; 'I' for Inactive)
REMARK    1  A    between atoms: C5_5  and  C7_7 
REMARK    2  A    between atoms: C6_6  and  C7_7 
REMARK    3  A    between atoms: C7_7  and  O8_8 
ROOT
HETATM    1  C1  UNL     1     -34.330   5.938   6.316  1.00 20.00     0.012 C 
HETATM    2  C2  UNL     1     -34.098   6.907   5.646  1.00 20.00    -0.115 C 
HETATM    3  C5  UNL     1     -33.822   8.099   4.826  1.00 20.00     0.130 C 
ENDROOT
BRANCH   3   4
HETATM    4  C7  UNL     1     -32.694   7.881   3.796  1.00 20.00     0.064 C 
HETATM    5  C4  UNL     1     -32.732   6.428   3.297  1.00 20.00     0.046 C 
BRANCH   4   6
HETATM    6  C6  UNL     1     -32.712   8.870   2.612  1.00 20.00     0.034 C 
HETATM    7  C3  UNL     1     -32.172   8.329   1.296  1.00 20.00     0.008 C 
ENDBRANCH   4   6
BRANCH   4   8
HETATM    8  O8  UNL     1     -31.432   8.058   4.457  1.00 20.00    -0.389 OA
HETATM    9  H20 UNL     1     -31.024   8.833   4.047  1.00 20.00     0.210 HD
ENDBRANCH   4   8
ENDBRANCH   3   4
TORSDOF 3
ENDMDL
MODEL 6
REMARK VINA RESULT:      -3.8     13.002     13.759
REMARK  3 active torsions:
REMARK  status: ('A' for Active; 'I' for Inactive)
REMARK    1  A    between atoms: C5_5  and  C7_7 
REMARK    2  A    between atoms: C6_6  and  C7_7 
REMARK    3  A    between atoms: C7_7  and  O8_8 
ROOT
HETATM    1  C1  UNL     1     -33.498  16.929  -2.277  1.00 20.00     0.012 C 
HETATM    2  C2  UNL     1     -33.344  16.100  -3.133  1.00 20.00    -0.115 C 
HETATM    3  C5  UNL     1     -33.147  15.082  -4.178  1.00 20.00     0.130 C 
ENDROOT
BRANCH   3   4
HETATM    4  C7  UNL     1     -34.123  15.232  -5.364  1.00 20.00     0.064 C 
HETATM    5  C4  UNL     1     -35.358  14.350  -5.123  1.00 20.00     0.046 C 
BRANCH   4   6
HETATM    6  C6  UNL     1     -34.538  16.687  -5.668  1.00 20.00     0.034 C 
HETATM    7  C3  UNL     1     -36.027  16.981  -5.562  1.00 20.00     0.008 C 
ENDBRANCH   4   6
BRANCH   4   8
HETATM    8  O8  UNL     1     -33.483  14.733  -6.548  1.00 20.00    -0.389 OA
HETATM    9  H20 UNL     1     -33.426  15.484  -7.155  1.00 20.00     0.210 HD
ENDBRANCH   4   8
ENDBRANCH   3   4
TORSDOF 3
ENDMDL
MODEL 7
REMARK VINA RESULT:      -3.7      8.710      9.737
REMARK  3 active torsions:
REMARK  status: ('A' for Active; 'I' for Inactive)
REMARK    1  A    between atoms: C5_5  and  C7_7 
REMARK    2  A    between atoms: C6_6  and  C7_7 
REMARK    3  A    between atoms: C7_7  and  O8_8 
ROOT
HETATM    1  C1  UNL     1     -38.910  11.633   3.662  1.00 20.00     0.012 C 
HETATM    2  C2  UNL     1     -39.186  11.806   4.818  1.00 20.00    -0.115 C 
HETATM    3  C5  UNL     1     -39.519  12.012   6.238  1.00 20.00     0.130 C 
ENDROOT
BRANCH   3   4
HETATM    4  C7  UNL     1     -40.780  12.876   6.447  1.00 20.00     0.064 C 
HETATM    5  C4  UNL     1     -40.517  13.901   7.562  1.00 20.00     0.046 C 
BRANCH   4   6
HETATM    6  C6  UNL     1     -41.293  13.574   5.169  1.00 20.00     0.034 C 
HETATM    7  C3  UNL     1     -42.635  14.281   5.301  1.00 20.00     0.008 C 
ENDBRANCH   4   6
BRANCH   4   8
HETATM    8  O8  UNL     1     -41.844  12.029   6.906  1.00 20.00    -0.389 OA
HETATM    9  H20 UNL     1     -41.702  11.172   6.481  1.00 20.00     0.210 HD
ENDBRANCH   4   8
ENDBRANCH   3   4
TORSDOF 3
ENDMDL
MODEL 8
REMARK VINA RESULT:      -3.6      1.255      2.285
REMARK  3 active torsions:
REMARK  status: ('A' for Active; 'I' for Inactive)
REMARK    1  A    between atoms: C5_5  and  C7_7 
REMARK    2  A    between atoms: C6_6  and  C7_7 
REMARK    3  A    between atoms: C7_7  and  O8_8 
ROOT
HETATM    1  C1  UNL     1     -31.695   7.990   3.849  1.00 20.00     0.012 C 
HETATM    2  C2  UNL     1     -32.861   7.756   4.015  1.00 20.00    -0.115 C 
HETATM    3  C5  UNL     1     -34.293   7.480   4.220  1.00 20.00     0.130 C 
ENDROOT
BRANCH   3   4
HETATM    4  C7  UNL     1     -34.582   6.009   4.585  1.00 20.00     0.064 C 
HETATM    5  C4  UNL     1     -33.768   5.085   3.666  1.00 20.00     0.046 C 
BRANCH   4   6
HETATM    6  C6  UNL     1     -34.338   5.662   6.069  1.00 20.00     0.034 C 
HETATM    7  C3  UNL     1     -34.324   6.846   7.026  1.00 20.00     0.008 C 
ENDBRANCH   4   6
BRANCH   4   8
HETATM    8  O8  UNL     1     -35.967   5.737   4.324  1.00 20.00    -0.389 OA
HETATM    9  H20 UNL     1     -36.094   5.889   3.378  1.00 20.00     0.210 HD
ENDBRANCH   4   8
ENDBRANCH   3   4
TORSDOF 3
ENDMDL
MODEL 9
REMARK VINA RESULT:      -3.5      2.369      3.150
REMARK  3 active torsions:
REMARK  status: ('A' for Active; 'I' for Inactive)
REMARK    1  A    between atoms: C5_5  and  C7_7 
REMARK    2  A    between atoms: C6_6  and  C7_7 
REMARK    3  A    between atoms: C7_7  and  O8_8 
ROOT
HETATM    1  C1  UNL     1     -32.050   8.015   1.656  1.00 20.00     0.012 C 
HETATM    2  C2  UNL     1     -32.430   7.418   2.626  1.00 20.00    -0.115 C 
HETATM    3  C5  UNL     1     -32.897   6.677   3.810  1.00 20.00     0.130 C 
ENDROOT
BRANCH   3   4
HETATM    4  C7  UNL     1     -33.235   7.593   5.005  1.00 20.00     0.064 C 
HETATM    5  C4  UNL     1     -34.279   8.634   4.572  1.00 20.00     0.046 C 
BRANCH   4   6
HETATM    6  C6  UNL     1     -33.698   6.843   6.271  1.00 20.00     0.034 C 
HETATM    7  C3  UNL     1     -34.620   5.656   6.031  1.00 20.00     0.008 C 
ENDBRANCH   4   6
BRANCH   4   8
HETATM    8  O8  UNL     1     -32.052   8.321   5.370  1.00 20.00    -0.389 OA
HETATM    9  H20 UNL     1     -32.237   9.248   5.165  1.00 20.00     0.210 HD
ENDBRANCH   4   8
ENDBRANCH   3   4
TORSDOF 3
ENDMDL
