MODEL 1
REMARK VINA RESULT:      -4.2      0.000      0.000
REMARK  3 active torsions:
REMARK  status: ('A' for Active; 'I' for Inactive)
REMARK    1  A    between atoms: C3_3  and  C4_4 
REMARK    2  A    between atoms: C4_4  and  C6_6 
REMARK    3  A    between atoms: C5_5  and  C6_6 
ROOT
HETATM    1  C1  UNL     1     -32.798   6.260   3.196  1.00 20.00     0.065 C 
HETATM    2  C6  UNL     1     -32.683   7.526   3.948  1.00 20.00     0.106 C 
HETATM    3  N7  UNL     1     -32.887   5.264   2.606  1.00 20.00    -0.197 NA
ENDROOT
BRANCH   2   4
HETATM    4  C4  UNL     1     -33.867   7.713   4.916  1.00 20.00     0.020 C 
BRANCH   4   5
HETATM    5  C3  UNL     1     -33.716   6.893   6.203  1.00 20.00    -0.003 C 
HETATM    6  C2  UNL     1     -34.666   5.705   6.219  1.00 20.00     0.005 C 
ENDBRANCH   4   5
ENDBRANCH   2   4
BRANCH   2   7
HETATM    7  C5  UNL     1     -32.519   8.714   2.988  1.00 20.00     0.133 C 
HETATM    8 CL8  UNL     1     -32.116   8.230   1.319  1.00 20.00    -0.129 Cl
ENDBRANCH   2   7
TORSDOF 3
ENDMDL
MODEL 2
REMARK VINA RESULT:      -4.0      2.294      2.531
REMARK  3 active torsions:
REMARK  status: ('A' for Active; 'I' for Inactive)
REMARK    1  A    between atoms: C3_3  and  C4_4 
REMARK    2  A    between atoms: C4_4  and  C6_6 
REMARK    3  A    between atoms: C5_5  and  C6_6 
ROOT
HETATM    1  C1  UNL     1     -32.477   8.733   4.753  1.00 20.00     0.065 C 
HETATM    2  C6  UNL     1     -33.240   7.851   3.847  1.00 20.00     0.106 C 
HETATM    3  N7  UNL     1     -31.878   9.428   5.464  1.00 20.00    -0.197 NA
ENDROOT
BRANCH   2   4
HETATM    4  C4  UNL     1     -34.343   7.088   4.604  1.00 20.00     0.020 C 
BRANCH   4   5
HETATM    5  C3  UNL     1     -33.956   6.771   6.054  1.00 20.00    -0.003 C 
HETATM    6  C2  UNL     1     -34.429   5.384   6.463  1.00 20.00     0.005 C 
ENDBRANCH   4   5
ENDBRANCH   2   4
BRANCH   2   7
HETATM    7  C5  UNL     1     -32.295   6.910   3.084  1.00 20.00     0.133 C 
HETATM    8 CL8  UNL     1     -33.012   5.315   2.731  1.00 20.00    -0.129 Cl
ENDBRANCH   2   7
TORSDOF 3
ENDMDL
MODEL 3
REMARK VINA RESULT:      -3.9      1.490      1.490
REMARK  3 active torsions:
REMARK  status: ('A' for Active; 'I' for Inactive)
REMARK    1  A    between atoms: C3_3  and  C4_4 
REMARK    2  A    between atoms: C4_4  and  C6_6 
REMARK    3  A    between atoms: C5_5  and  C6_6 
ROOT
HETATM    1  C1  UNL     1     -32.961   5.845   3.126  1.00 20.00     0.065 C 
HETATM    2  C6  UNL     1     -32.961   6.873   4.186  1.00 20.00     0.106 C 
HETATM    3  N7  UNL     1     -32.961   5.036   2.293  1.00 20.00    -0.197 NA
ENDROOT
BRANCH   2   4
HETATM    4  C4  UNL     1     -34.355   7.022   4.825  1.00 20.00     0.020 C 
BRANCH   4   5
HETATM    5  C3  UNL     1     -34.383   6.584   6.295  1.00 20.00    -0.003 C 
HETATM    6  C2  UNL     1     -34.494   5.072   6.421  1.00 20.00     0.005 C 
ENDBRANCH   4   5
ENDBRANCH   2   4
BRANCH   2   7
HETATM    7  C5  UNL     1     -32.418   8.206   3.649  1.00 20.00     0.133 C 
HETATM    8 CL8  UNL     1     -32.067   9.399   4.928  1.00 20.00    -0.129 Cl
ENDBRANCH   2   7
TORSDOF 3
ENDMDL
MODEL 4
REMARK VINA RESULT:      -3.8      2.497      3.740
REMARK  3 active torsions:
REMARK  status: ('A' for Active; 'I' for Inactive)
REMARK    1  A    between atoms: C3_3  and  C4_4 
REMARK    2  A    between atoms: C4_4  and  C6_6 
REMARK    3  A    between atoms: C5_5  and  C6_6 
ROOT
HETATM    1  C1  UNL     1     -33.761   6.015   4.012  1.00 20.00     0.065 C 
HETATM    2  C6  UNL     1     -33.853   7.262   4.798  1.00 20.00     0.106 C 
HETATM    3  N7  UNL     1     -33.690   5.035   3.394  1.00 20.00    -0.197 NA
ENDROOT
BRANCH   2   4
HETATM    4  C4  UNL     1     -32.664   8.198   4.506  1.00 20.00     0.020 C 
BRANCH   4   5
HETATM    5  C3  UNL     1     -32.115   8.033   3.083  1.00 20.00    -0.003 C 
HETATM    6  C2  UNL     1     -32.691   9.080   2.142  1.00 20.00     0.005 C 
ENDBRANCH   4   5
ENDBRANCH   2   4
BRANCH   2   7
HETATM    7  C5  UNL     1     -33.998   6.951   6.295  1.00 20.00     0.133 C 
HETATM    8 CL8  UNL     1     -34.718   5.352   6.623  1.00 20.00    -0.129 Cl
ENDBRANCH   2   7
TORSDOF 3
ENDMDL
MODEL 5
REMARK VINA RESULT:      -3.7      1.876      2.154
REMARK  3 active torsions:
REMARK  status: ('A' for Active; 'I' for Inactive)
REMARK    1  A    between atoms: C3_3  and  C4_4 
REMARK    2  A    between atoms: C4_4  and  C6_6 
REMARK    3  A    between atoms: C5_5  and  C6_6 
ROOT
HETATM    1  C1  UNL     1     -32.608   7.162   3.196  1.00 20.00     0.065 C 
HETATM    2  C6  UNL     1     -33.326   7.003   4.477  1.00 20.00     0.106 C 
HETATM    3  N7  UNL     1     -32.043   7.286   2.189  1.00 20.00    -0.197 NA
ENDROOT
BRANCH   2   4
HETATM    4  C4  UNL     1     -34.680   6.296   4.278  1.00 20.00     0.020 C 
BRANCH   4   5
HETATM    5  C3  UNL     1     -34.796   4.999   5.088  1.00 20.00    -0.003 C 
HETATM    6  C2  UNL     1     -34.454   5.227   6.553  1.00 20.00     0.005 C 
ENDBRANCH   4   5
ENDBRANCH   2   4
BRANCH   2   7
HETATM    7  C5  UNL     1     -33.471   8.357   5.189  1.00 20.00     0.133 C 
HETATM    8 CL8  UNL     1     -32.046   9.414   5.006  1.00 20.00    -0.129 Cl
ENDBRANCH   2   7
TORSDOF 3
ENDMDL
MODEL 6
REMARK VINA RESULT:      -3.6      2.577      3.846
REMARK  3 active torsions:
REMARK  status: ('A' for Active; 'I' for Inactive)
REMARK    1  A    between atoms: C3_3  and  C4_4 
REMARK    2  A    between atoms: C4_4  and  C6_6 
REMARK    3  A    between atoms: C5_5  and  C6_6 
ROOT
HETATM    1  C1  UNL     1     -34.140   5.443   4.372  1.00 20.00     0.065 C 
HETATM    2  C6  UNL     1     -33.717   6.809   4.005  1.00 20.00     0.106 C 
HETATM    3  N7  UNL     1     -34.474   4.369   4.660  1.00 20.00    -0.197 NA
ENDROOT
BRANCH   2   4
HETATM    4  C4  UNL     1     -32.540   6.785   3.011  1.00 20.00     0.020 C 
BRANCH   4   5
HETATM    5  C3  UNL     1     -32.094   8.190   2.587  1.00 20.00    -0.003 C 
HETATM    6  C2  UNL     1     -32.226   8.382   1.083  1.00 20.00     0.005 C 
ENDBRANCH   4   5
ENDBRANCH   2   4
BRANCH   2   7
HETATM    7  C5  UNL     1     -33.405   7.636   5.262  1.00 20.00     0.133 C 
HETATM    8 CL8  UNL     1     -34.276   7.079   6.715  1.00 20.00    -0.129 Cl
ENDBRANCH   2   7
TORSDOF 3
ENDMDL
MODEL 7
REMARK VINA RESULT:      -3.6      9.866     10.579
REMARK  3 active torsions:
REMARK  status: ('A' for Active; 'I' for Inactive)
REMARK    1  A    between atoms: C3_3  and  C4_4 
REMARK    2  A    between atoms: C4_4  and  C6_6 
REMARK    3  A    between atoms: C5_5  and  C6_6 
ROOT
HETATM    1  C1  UNL     1     -41.608  13.916   4.789  1.00 20.00     0.065 C 
HETATM    2  C6  UNL     1     -41.090  13.428   6.083  1.00 20.00     0.106 C 
HETATM    3  N7  UNL     1     -42.014  14.301   3.772  1.00 20.00    -0.197 NA
ENDROOT
BRANCH   2   4
HETATM    4  C4  UNL     1     -40.438  12.039   5.938  1.00 20.00     0.020 C 
BRANCH   4   5
HETATM    5  C3  UNL     1     -38.998  12.112   5.415  1.00 20.00    -0.003 C 
HETATM    6  C2  UNL     1     -38.906  11.625   3.977  1.00 20.00     0.005 C 
ENDBRANCH   4   5
ENDBRANCH   2   4
BRANCH   2   7
HETATM    7  C5  UNL     1     -42.194  13.448   7.151  1.00 20.00     0.133 C 
HETATM    8 CL8  UNL     1     -43.137  11.936   7.229  1.00 20.00    -0.129 Cl
ENDBRANCH   2   7
TORSDOF 3
ENDMDL
MODEL 8
REMARK VINA RESULT:      -3.5      9.484     10.189
REMARK  3 active torsions:
REMARK  status: ('A' for Active; 'I' for Inactive)
REMARK    1  A    between atoms: C3_3  and  C4_4 
REMARK    2  A    between atoms: C4_4  and  C6_6 
REMARK    3  A    between atoms: C5_5  and  C6_6 
ROOT
HETATM    1  C1  UNL     1     -41.988  12.443   6.669  1.00 20.00     0.065 C 
HETATM    2  C6  UNL     1     -40.707  13.005   6.196  1.00 20.00     0.106 C 
HETATM    3  N7  UNL     1     -42.995  12.001   7.040  1.00 20.00    -0.197 NA
ENDROOT
BRANCH   2   4
HETATM    4  C4  UNL     1     -39.545  12.019   6.419  1.00 20.00     0.020 C 
BRANCH   4   5
HETATM    5  C3  UNL     1     -38.501  12.069   5.295  1.00 20.00    -0.003 C 
HETATM    6  C2  UNL     1     -39.100  11.640   3.964  1.00 20.00     0.005 C 
ENDBRANCH   4   5
ENDBRANCH   2   4
BRANCH   2   7
HETATM    7  C5  UNL     1     -40.444  14.375   6.841  1.00 20.00     0.133 C 
HETATM    8 CL8  UNL     1     -40.229  14.298   8.610  1.00 20.00    -0.129 Cl
ENDBRANCH   2   7
TORSDOF 3
ENDMDL
MODEL 9
REMARK VINA RESULT:      -3.5     12.050     12.755
REMARK  3 active torsions:
REMARK  status: ('A' for Active; 'I' for Inactive)
REMARK    1  A    between atoms: C3_3  and  C4_4 
REMARK    2  A    between atoms: C4_4  and  C6_6 
REMARK    3  A    between atoms: C5_5  and  C6_6 
ROOT
HETATM    1  C1  UNL     1     -32.024  18.495  -0.880  1.00 20.00     0.065 C 
HETATM    2  C6  UNL     1     -33.421  18.199  -1.258  1.00 20.00     0.106 C 
HETATM    3  N7  UNL     1     -30.927  18.728  -0.582  1.00 20.00    -0.197 NA
ENDROOT
BRANCH   2   4
HETATM    4  C4  UNL     1     -33.560  16.770  -1.818  1.00 20.00     0.020 C 
BRANCH   4   5
HETATM    5  C3  UNL     1     -33.237  16.686  -3.315  1.00 20.00    -0.003 C 
HETATM    6  C2  UNL     1     -33.596  15.321  -3.883  1.00 20.00     0.005 C 
ENDBRANCH   4   5
ENDBRANCH   2   4
BRANCH   2   7
HETATM    7  C5  UNL     1     -33.957  19.262  -2.230  1.00 20.00     0.133 C 
HETATM    8 CL8  UNL     1     -35.723  19.181  -2.469  1.00 20.00    -0.129 Cl
ENDBRANCH   2   7
TORSDOF 3
ENDMDL
