MODEL 1
REMARK VINA RESULT:      -4.1      0.000      0.000
REMARK  3 active torsions:
REMARK  status: ('A' for Active; 'I' for Inactive)
REMARK    1  A    between atoms: C4_4  and  C6_6 
REMARK    2  A    between atoms: C4_4  and  C7_7 
REMARK    3  A    between atoms: C5_5  and  C6_6 
ROOT
HETATM    1  C1  UNL     1     -32.445   8.264   4.537  1.00 20.00     0.065 C 
HETATM    2  C6  UNL     1     -32.887   6.924   4.099  1.00 20.00     0.107 C 
HETATM    3  N8  UNL     1     -32.095   9.315   4.882  1.00 20.00    -0.197 NA
ENDROOT
BRANCH   2   4
HETATM    4  C4  UNL     1     -34.412   6.752   4.268  1.00 20.00     0.024 C 
BRANCH   4   5
HETATM    5  C7  UNL     1     -34.852   5.481   5.029  1.00 20.00    -0.021 C 
HETATM    6  C2  UNL     1     -34.097   4.267   4.479  1.00 20.00     0.009 C 
HETATM    7  C3  UNL     1     -34.620   5.588   6.536  1.00 20.00     0.009 C 
ENDBRANCH   4   5
ENDBRANCH   2   4
BRANCH   2   8
HETATM    8  C5  UNL     1     -32.426   6.644   2.660  1.00 20.00     0.133 C 
HETATM    9 CL9  UNL     1     -32.183   8.117   1.684  1.00 20.00    -0.129 Cl
ENDBRANCH   2   8
TORSDOF 3
ENDMDL
MODEL 2
REMARK VINA RESULT:      -4.0     11.963     12.844
REMARK  3 active torsions:
REMARK  status: ('A' for Active; 'I' for Inactive)
REMARK    1  A    between atoms: C4_4  and  C6_6 
REMARK    2  A    between atoms: C4_4  and  C7_7 
REMARK    3  A    between atoms: C5_5  and  C6_6 
ROOT
HETATM    1  C1  UNL     1     -31.809  18.493  -0.952  1.00 20.00     0.065 C 
HETATM    2  C6  UNL     1     -33.092  18.358  -1.673  1.00 20.00     0.107 C 
HETATM    3  N8  UNL     1     -30.802  18.603  -0.387  1.00 20.00    -0.197 NA
ENDROOT
BRANCH   2   4
HETATM    4  C4  UNL     1     -33.361  16.890  -2.069  1.00 20.00     0.024 C 
BRANCH   4   5
HETATM    5  C7  UNL     1     -33.358  16.607  -3.588  1.00 20.00    -0.021 C 
HETATM    6  C2  UNL     1     -33.614  15.117  -3.834  1.00 20.00     0.009 C 
HETATM    7  C3  UNL     1     -34.398  17.436  -4.343  1.00 20.00     0.009 C 
ENDBRANCH   4   5
ENDBRANCH   2   4
BRANCH   2   8
HETATM    8  C5  UNL     1     -34.242  18.959  -0.850  1.00 20.00     0.133 C 
HETATM    9 CL9  UNL     1     -34.217  18.491   0.871  1.00 20.00    -0.129 Cl
ENDBRANCH   2   8
TORSDOF 3
ENDMDL
MODEL 3
REMARK VINA RESULT:      -3.9      2.320      3.278
REMARK  3 active torsions:
REMARK  status: ('A' for Active; 'I' for Inactive)
REMARK    1  A    between atoms: C4_4  and  C6_6 
REMARK    2  A    between atoms: C4_4  and  C7_7 
REMARK    3  A    between atoms: C5_5  and  C6_6 
ROOT
HETATM    1  C1  UNL     1     -32.834   8.600   5.109  1.00 20.00     0.065 C 
HETATM    2  C6  UNL     1     -33.971   7.659   5.165  1.00 20.00     0.107 C 
HETATM    3  N8  UNL     1     -31.943   9.341   5.067  1.00 20.00    -0.197 NA
ENDROOT
BRANCH   2   4
HETATM    4  C4  UNL     1     -34.087   6.839   3.863  1.00 20.00     0.024 C 
BRANCH   4   5
HETATM    5  C7  UNL     1     -32.742   6.406   3.236  1.00 20.00    -0.021 C 
HETATM    6  C2  UNL     1     -32.877   4.995   2.654  1.00 20.00     0.009 C 
HETATM    7  C3  UNL     1     -32.266   7.366   2.145  1.00 20.00     0.009 C 
ENDBRANCH   4   5
ENDBRANCH   2   4
BRANCH   2   8
HETATM    8  C5  UNL     1     -33.873   6.764   6.411  1.00 20.00     0.133 C 
HETATM    9 CL9  UNL     1     -34.585   5.144   6.190  1.00 20.00    -0.129 Cl
ENDBRANCH   2   8
TORSDOF 3
ENDMDL
MODEL 4
REMARK VINA RESULT:      -3.7     12.155     12.759
REMARK  3 active torsions:
REMARK  status: ('A' for Active; 'I' for Inactive)
REMARK    1  A    between atoms: C4_4  and  C6_6 
REMARK    2  A    between atoms: C4_4  and  C7_7 
REMARK    3  A    between atoms: C5_5  and  C6_6 
ROOT
HETATM    1  C1  UNL     1     -34.562  17.376  -4.037  1.00 20.00     0.065 C 
HETATM    2  C6  UNL     1     -33.350  16.839  -3.384  1.00 20.00     0.107 C 
HETATM    3  N8  UNL     1     -35.511  17.799  -4.552  1.00 20.00    -0.197 NA
ENDROOT
BRANCH   2   4
HETATM    4  C4  UNL     1     -33.515  16.784  -1.850  1.00 20.00     0.024 C 
BRANCH   4   5
HETATM    5  C7  UNL     1     -33.265  18.119  -1.113  1.00 20.00    -0.021 C 
HETATM    6  C2  UNL     1     -33.946  18.083   0.260  1.00 20.00     0.009 C 
HETATM    7  C3  UNL     1     -31.777  18.425  -0.938  1.00 20.00     0.009 C 
ENDBRANCH   4   5
ENDBRANCH   2   4
BRANCH   2   8
HETATM    8  C5  UNL     1     -32.975  15.472  -3.978  1.00 20.00     0.133 C 
HETATM    9 CL9  UNL     1     -34.364  14.373  -4.186  1.00 20.00    -0.129 Cl
ENDBRANCH   2   8
TORSDOF 3
ENDMDL
MODEL 5
REMARK VINA RESULT:      -3.7      2.459      3.086
REMARK  3 active torsions:
REMARK  status: ('A' for Active; 'I' for Inactive)
REMARK    1  A    between atoms: C4_4  and  C6_6 
REMARK    2  A    between atoms: C4_4  and  C7_7 
REMARK    3  A    between atoms: C5_5  and  C6_6 
ROOT
HETATM    1  C1  UNL     1     -32.327   7.553   2.054  1.00 20.00     0.065 C 
HETATM    2  C6  UNL     1     -32.719   6.769   3.243  1.00 20.00     0.107 C 
HETATM    3  N8  UNL     1     -32.017   8.168   1.121  1.00 20.00    -0.197 NA
ENDROOT
BRANCH   2   4
HETATM    4  C4  UNL     1     -33.962   7.373   3.931  1.00 20.00     0.024 C 
BRANCH   4   5
HETATM    5  C7  UNL     1     -33.688   8.100   5.267  1.00 20.00    -0.021 C 
HETATM    6  C2  UNL     1     -33.694   7.085   6.414  1.00 20.00     0.009 C 
HETATM    7  C3  UNL     1     -32.361   8.859   5.262  1.00 20.00     0.009 C 
ENDBRANCH   4   5
ENDBRANCH   2   4
BRANCH   2   8
HETATM    8  C5  UNL     1     -32.918   5.290   2.876  1.00 20.00     0.133 C 
HETATM    9 CL9  UNL     1     -33.956   4.399   4.019  1.00 20.00    -0.129 Cl
ENDBRANCH   2   8
TORSDOF 3
ENDMDL
MODEL 6
REMARK VINA RESULT:      -3.7      1.953      2.226
REMARK  3 active torsions:
REMARK  status: ('A' for Active; 'I' for Inactive)
REMARK    1  A    between atoms: C4_4  and  C6_6 
REMARK    2  A    between atoms: C4_4  and  C7_7 
REMARK    3  A    between atoms: C5_5  and  C6_6 
ROOT
HETATM    1  C1  UNL     1     -32.940   6.218   3.165  1.00 20.00     0.065 C 
HETATM    2  C6  UNL     1     -33.351   7.456   3.858  1.00 20.00     0.107 C 
HETATM    3  N8  UNL     1     -32.620   5.247   2.618  1.00 20.00    -0.197 NA
ENDROOT
BRANCH   2   4
HETATM    4  C4  UNL     1     -33.451   7.239   5.383  1.00 20.00     0.024 C 
BRANCH   4   5
HETATM    5  C7  UNL     1     -34.627   6.350   5.847  1.00 20.00    -0.021 C 
HETATM    6  C2  UNL     1     -35.500   5.984   4.642  1.00 20.00     0.009 C 
HETATM    7  C3  UNL     1     -34.160   5.074   6.547  1.00 20.00     0.009 C 
ENDBRANCH   4   5
ENDBRANCH   2   4
BRANCH   2   8
HETATM    8  C5  UNL     1     -32.412   8.618   3.496  1.00 20.00     0.133 C 
HETATM    9 CL9  UNL     1     -32.757   9.351   1.907  1.00 20.00    -0.129 Cl
ENDBRANCH   2   8
TORSDOF 3
ENDMDL
MODEL 7
REMARK VINA RESULT:      -3.7     12.204     13.011
REMARK  3 active torsions:
REMARK  status: ('A' for Active; 'I' for Inactive)
REMARK    1  A    between atoms: C4_4  and  C6_6 
REMARK    2  A    between atoms: C4_4  and  C7_7 
REMARK    3  A    between atoms: C5_5  and  C6_6 
ROOT
HETATM    1  C1  UNL     1     -35.418  14.132  -4.710  1.00 20.00     0.065 C 
HETATM    2  C6  UNL     1     -34.546  15.282  -5.026  1.00 20.00     0.107 C 
HETATM    3  N8  UNL     1     -36.105  13.232  -4.463  1.00 20.00    -0.197 NA
ENDROOT
BRANCH   2   4
HETATM    4  C4  UNL     1     -33.465  15.483  -3.941  1.00 20.00     0.024 C 
BRANCH   4   5
HETATM    5  C7  UNL     1     -33.360  16.916  -3.374  1.00 20.00    -0.021 C 
HETATM    6  C2  UNL     1     -34.456  17.794  -3.987  1.00 20.00     0.009 C 
HETATM    7  C3  UNL     1     -33.467  16.954  -1.849  1.00 20.00     0.009 C 
ENDBRANCH   4   5
ENDBRANCH   2   4
BRANCH   2   8
HETATM    8  C5  UNL     1     -33.940  15.133  -6.431  1.00 20.00     0.133 C 
HETATM    9 CL9  UNL     1     -34.290  16.507  -7.513  1.00 20.00    -0.129 Cl
ENDBRANCH   2   8
TORSDOF 3
ENDMDL
MODEL 8
REMARK VINA RESULT:      -3.6      9.555     10.341
REMARK  3 active torsions:
REMARK  status: ('A' for Active; 'I' for Inactive)
REMARK    1  A    between atoms: C4_4  and  C6_6 
REMARK    2  A    between atoms: C4_4  and  C7_7 
REMARK    3  A    between atoms: C5_5  and  C6_6 
ROOT
HETATM    1  C1  UNL     1     -41.852  14.054   4.611  1.00 20.00     0.065 C 
HETATM    2  C6  UNL     1     -41.574  13.572   5.980  1.00 20.00     0.107 C 
HETATM    3  N8  UNL     1     -42.073  14.433   3.538  1.00 20.00    -0.197 NA
ENDROOT
BRANCH   2   4
HETATM    4  C4  UNL     1     -40.698  12.301   5.961  1.00 20.00     0.024 C 
BRANCH   4   5
HETATM    5  C7  UNL     1     -39.343  12.445   5.234  1.00 20.00    -0.021 C 
HETATM    6  C2  UNL     1     -38.201  12.150   6.212  1.00 20.00     0.009 C 
HETATM    7  C3  UNL     1     -39.226  11.524   4.019  1.00 20.00     0.009 C 
ENDBRANCH   4   5
ENDBRANCH   2   4
BRANCH   2   8
HETATM    8  C5  UNL     1     -40.957  14.691   6.834  1.00 20.00     0.133 C 
HETATM    9 CL9  UNL     1     -40.341  14.134   8.412  1.00 20.00    -0.129 Cl
ENDBRANCH   2   8
TORSDOF 3
ENDMDL
MODEL 9
REMARK VINA RESULT:      -3.6      2.261      3.413
REMARK  3 active torsions:
REMARK  status: ('A' for Active; 'I' for Inactive)
REMARK    1  A    between atoms: C4_4  and  C6_6 
REMARK    2  A    between atoms: C4_4  and  C7_7 
REMARK    3  A    between atoms: C5_5  and  C6_6 
ROOT
HETATM    1  C1  UNL     1     -34.751   5.422   5.857  1.00 20.00     0.065 C 
HETATM    2  C6  UNL     1     -34.681   5.597   4.391  1.00 20.00     0.107 C 
HETATM    3  N8  UNL     1     -34.809   5.283   7.006  1.00 20.00    -0.197 NA
ENDROOT
BRANCH   2   4
HETATM    4  C4  UNL     1     -34.239   7.028   4.016  1.00 20.00     0.024 C 
BRANCH   4   5
HETATM    5  C7  UNL     1     -33.146   7.638   4.923  1.00 20.00    -0.021 C 
HETATM    6  C2  UNL     1     -31.985   8.142   4.060  1.00 20.00     0.009 C 
HETATM    7  C3  UNL     1     -33.673   8.781   5.791  1.00 20.00     0.009 C 
ENDBRANCH   4   5
ENDBRANCH   2   4
BRANCH   2   8
HETATM    8  C5  UNL     1     -33.780   4.524   3.759  1.00 20.00     0.133 C 
HETATM    9 CL9  UNL     1     -32.840   5.108   2.361  1.00 20.00    -0.129 Cl
ENDBRANCH   2   8
TORSDOF 3
ENDMDL
