MODEL 1
REMARK VINA RESULT:      -3.9      0.000      0.000
REMARK  2 active torsions:
REMARK  status: ('A' for Active; 'I' for Inactive)
REMARK    1  A    between atoms: C9_9  and  C10_10 
REMARK    2  A    between atoms: C10_10  and  N12_12 
ROOT
HETATM    1  C1  UNL     1     -32.035  18.309  -0.975  1.00 20.00     0.061 C 
HETATM    2  C9  UNL     1     -33.282  17.577  -1.250  1.00 20.00     0.159 C 
HETATM    3  N11 UNL     1     -31.053  18.886  -0.756  1.00 20.00    -0.197 NA
ENDROOT
BRANCH   2   4
HETATM    4  C10 UNL     1     -34.033  18.158  -2.454  1.00 20.00     0.233 C 
HETATM    5  C8  UNL     1     -35.270  18.928  -2.000  1.00 20.00     0.044 C 
BRANCH   4   6
HETATM    6  N12 UNL     1     -34.419  17.110  -3.385  1.00 20.00     0.102 N 
HETATM    7  C4  UNL     1     -33.439  16.029  -3.446  1.00 20.00     0.274 C 
HETATM    8  C2  UNL     1     -33.952  15.212  -4.611  1.00 20.00     0.033 C 
HETATM    9  C3  UNL     1     -34.386  16.267  -5.615  1.00 20.00     0.043 C 
HETATM   10  C5  UNL     1     -34.714  17.524  -4.773  1.00 20.00     0.153 C 
HETATM   11  C6  UNL     1     -36.211  17.851  -4.870  1.00 20.00     0.049 C 
HETATM   12  C7  UNL     1     -33.900  18.721  -5.294  1.00 20.00     0.049 C 
ENDBRANCH   4   6
ENDBRANCH   2   4
TORSDOF 2
ENDMDL
MODEL 2
REMARK VINA RESULT:      -3.8      2.529      4.024
REMARK  2 active torsions:
REMARK  status: ('A' for Active; 'I' for Inactive)
REMARK    1  A    between atoms: C9_9  and  C10_10 
REMARK    2  A    between atoms: C10_10  and  N12_12 
ROOT
HETATM    1  C1  UNL     1     -34.196  19.058  -6.925  1.00 20.00     0.061 C 
HETATM    2  C9  UNL     1     -34.938  18.869  -5.668  1.00 20.00     0.159 C 
HETATM    3  N11 UNL     1     -33.612  19.208  -7.917  1.00 20.00    -0.197 NA
ENDROOT
BRANCH   2   4
HETATM    4  C10 UNL     1     -35.706  17.542  -5.651  1.00 20.00     0.233 C 
HETATM    5  C8  UNL     1     -37.166  17.766  -5.267  1.00 20.00     0.044 C 
BRANCH   4   6
HETATM    6  N12 UNL     1     -35.095  16.596  -4.731  1.00 20.00     0.102 N 
HETATM    7  C4  UNL     1     -33.966  17.174  -4.006  1.00 20.00     0.274 C 
HETATM    8  C2  UNL     1     -33.392  15.959  -3.310  1.00 20.00     0.033 C 
HETATM    9  C3  UNL     1     -33.490  14.871  -4.367  1.00 20.00     0.043 C 
HETATM   10  C5  UNL     1     -34.649  15.305  -5.297  1.00 20.00     0.153 C 
HETATM   11  C6  UNL     1     -35.811  14.308  -5.196  1.00 20.00     0.049 C 
HETATM   12  C7  UNL     1     -34.152  15.358  -6.752  1.00 20.00     0.049 C 
ENDBRANCH   4   6
ENDBRANCH   2   4
TORSDOF 2
ENDMDL
MODEL 3
REMARK VINA RESULT:      -3.8     11.887     13.152
REMARK  2 active torsions:
REMARK  status: ('A' for Active; 'I' for Inactive)
REMARK    1  A    between atoms: C9_9  and  C10_10 
REMARK    2  A    between atoms: C10_10  and  N12_12 
ROOT
HETATM    1  C1  UNL     1     -32.447   8.680   1.235  1.00 20.00     0.061 C 
HETATM    2  C9  UNL     1     -32.100   7.625   2.201  1.00 20.00     0.159 C 
HETATM    3  N11 UNL     1     -32.719   9.512   0.473  1.00 20.00    -0.197 NA
ENDROOT
BRANCH   2   4
HETATM    4  C10 UNL     1     -32.899   7.756   3.503  1.00 20.00     0.233 C 
HETATM    5  C8  UNL     1     -32.180   8.674   4.490  1.00 20.00     0.044 C 
BRANCH   4   6
HETATM    6  N12 UNL     1     -33.122   6.456   4.113  1.00 20.00     0.102 N 
HETATM    7  C4  UNL     1     -33.066   5.367   3.141  1.00 20.00     0.274 C 
HETATM    8  C2  UNL     1     -33.538   4.191   3.967  1.00 20.00     0.033 C 
HETATM    9  C3  UNL     1     -34.671   4.776   4.796  1.00 20.00     0.043 C 
HETATM   10  C5  UNL     1     -34.363   6.289   4.899  1.00 20.00     0.153 C 
HETATM   11  C6  UNL     1     -34.065   6.670   6.356  1.00 20.00     0.049 C 
HETATM   12  C7  UNL     1     -35.574   7.098   4.402  1.00 20.00     0.049 C 
ENDBRANCH   4   6
ENDBRANCH   2   4
TORSDOF 2
ENDMDL
MODEL 4
REMARK VINA RESULT:      -3.7      1.514      3.024
REMARK  2 active torsions:
REMARK  status: ('A' for Active; 'I' for Inactive)
REMARK    1  A    between atoms: C9_9  and  C10_10 
REMARK    2  A    between atoms: C10_10  and  N12_12 
ROOT
HETATM    1  C1  UNL     1     -34.030  17.759  -2.106  1.00 20.00     0.061 C 
HETATM    2  C9  UNL     1     -34.789  18.176  -3.296  1.00 20.00     0.159 C 
HETATM    3  N11 UNL     1     -33.431  17.430  -1.168  1.00 20.00    -0.197 NA
ENDROOT
BRANCH   2   4
HETATM    4  C10 UNL     1     -34.127  17.700  -4.594  1.00 20.00     0.233 C 
HETATM    5  C8  UNL     1     -33.668  18.888  -5.435  1.00 20.00     0.044 C 
BRANCH   4   6
HETATM    6  N12 UNL     1     -35.033  16.869  -5.369  1.00 20.00     0.102 N 
HETATM    7  C4  UNL     1     -36.418  16.984  -4.918  1.00 20.00     0.274 C 
HETATM    8  C2  UNL     1     -37.094  15.888  -5.712  1.00 20.00     0.033 C 
HETATM    9  C3  UNL     1     -36.086  14.750  -5.668  1.00 20.00     0.043 C 
HETATM   10  C5  UNL     1     -34.711  15.429  -5.457  1.00 20.00     0.153 C 
HETATM   11  C6  UNL     1     -33.819  15.210  -6.688  1.00 20.00     0.049 C 
HETATM   12  C7  UNL     1     -34.022  14.828  -4.219  1.00 20.00     0.049 C 
ENDBRANCH   4   6
ENDBRANCH   2   4
TORSDOF 2
ENDMDL
MODEL 5
REMARK VINA RESULT:      -3.6      2.232      4.593
REMARK  2 active torsions:
REMARK  status: ('A' for Active; 'I' for Inactive)
REMARK    1  A    between atoms: C9_9  and  C10_10 
REMARK    2  A    between atoms: C10_10  and  N12_12 
ROOT
HETATM    1  C1  UNL     1     -37.881  16.342  -5.292  1.00 20.00     0.061 C 
HETATM    2  C9  UNL     1     -36.571  15.989  -5.860  1.00 20.00     0.159 C 
HETATM    3  N11 UNL     1     -38.916  16.620  -4.844  1.00 20.00    -0.197 NA
ENDROOT
BRANCH   2   4
HETATM    4  C10 UNL     1     -35.604  17.179  -5.851  1.00 20.00     0.233 C 
HETATM    5  C8  UNL     1     -35.240  17.593  -7.274  1.00 20.00     0.044 C 
BRANCH   4   6
HETATM    6  N12 UNL     1     -34.396  16.865  -5.105  1.00 20.00     0.102 N 
HETATM    7  C4  UNL     1     -34.330  15.458  -4.718  1.00 20.00     0.274 C 
HETATM    8  C2  UNL     1     -33.132  15.447  -3.795  1.00 20.00     0.033 C 
HETATM    9  C3  UNL     1     -33.294  16.731  -2.995  1.00 20.00     0.043 C 
HETATM   10  C5  UNL     1     -34.126  17.674  -3.898  1.00 20.00     0.153 C 
HETATM   11  C6  UNL     1     -33.284  18.889  -4.311  1.00 20.00     0.049 C 
HETATM   12  C7  UNL     1     -35.371  18.156  -3.132  1.00 20.00     0.049 C 
ENDBRANCH   4   6
ENDBRANCH   2   4
TORSDOF 2
ENDMDL
MODEL 6
REMARK VINA RESULT:      -3.6     12.291     13.788
REMARK  2 active torsions:
REMARK  status: ('A' for Active; 'I' for Inactive)
REMARK    1  A    between atoms: C9_9  and  C10_10 
REMARK    2  A    between atoms: C10_10  and  N12_12 
ROOT
HETATM    1  C1  UNL     1     -39.472  11.943   4.856  1.00 20.00     0.061 C 
HETATM    2  C9  UNL     1     -39.915  12.272   6.220  1.00 20.00     0.159 C 
HETATM    3  N11 UNL     1     -39.121  11.685   3.780  1.00 20.00    -0.197 NA
ENDROOT
BRANCH   2   4
HETATM    4  C10 UNL     1     -41.239  13.045   6.221  1.00 20.00     0.233 C 
HETATM    5  C8  UNL     1     -41.511  13.656   4.849  1.00 20.00     0.044 C 
BRANCH   4   6
HETATM    6  N12 UNL     1     -41.234  14.090   7.232  1.00 20.00     0.102 N 
HETATM    7  C4  UNL     1     -40.073  14.005   8.115  1.00 20.00     0.274 C 
HETATM    8  C2  UNL     1     -40.416  15.028   9.175  1.00 20.00     0.033 C 
HETATM    9  C3  UNL     1     -41.904  14.811   9.404  1.00 20.00     0.043 C 
HETATM   10  C5  UNL     1     -42.437  14.201   8.085  1.00 20.00     0.153 C 
HETATM   11  C6  UNL     1     -43.417  15.171   7.411  1.00 20.00     0.049 C 
HETATM   12  C7  UNL     1     -43.160  12.876   8.384  1.00 20.00     0.049 C 
ENDBRANCH   4   6
ENDBRANCH   2   4
TORSDOF 2
ENDMDL
MODEL 7
REMARK VINA RESULT:      -3.6     12.350     13.894
REMARK  2 active torsions:
REMARK  status: ('A' for Active; 'I' for Inactive)
REMARK    1  A    between atoms: C9_9  and  C10_10 
REMARK    2  A    between atoms: C10_10  and  N12_12 
ROOT
HETATM    1  C1  UNL     1     -39.784  12.503   5.677  1.00 20.00     0.061 C 
HETATM    2  C9  UNL     1     -41.116  13.124   5.611  1.00 20.00     0.159 C 
HETATM    3  N11 UNL     1     -38.733  12.011   5.729  1.00 20.00    -0.197 NA
ENDROOT
BRANCH   2   4
HETATM    4  C10 UNL     1     -41.786  13.191   6.988  1.00 20.00     0.233 C 
HETATM    5  C8  UNL     1     -42.939  12.195   7.078  1.00 20.00     0.044 C 
BRANCH   4   6
HETATM    6  N12 UNL     1     -42.271  14.532   7.269  1.00 20.00     0.102 N 
HETATM    7  C4  UNL     1     -42.106  15.434   6.132  1.00 20.00     0.274 C 
HETATM    8  C2  UNL     1     -42.468  16.770   6.743  1.00 20.00     0.033 C 
HETATM    9  C3  UNL     1     -41.821  16.714   8.118  1.00 20.00     0.043 C 
HETATM   10  C5  UNL     1     -41.716  15.209   8.461  1.00 20.00     0.153 C 
HETATM   11  C6  UNL     1     -42.611  14.876   9.663  1.00 20.00     0.049 C 
HETATM   12  C7  UNL     1     -40.258  14.856   8.802  1.00 20.00     0.049 C 
ENDBRANCH   4   6
ENDBRANCH   2   4
TORSDOF 2
ENDMDL
MODEL 8
REMARK VINA RESULT:      -3.6     24.458     25.753
REMARK  2 active torsions:
REMARK  status: ('A' for Active; 'I' for Inactive)
REMARK    1  A    between atoms: C9_9  and  C10_10 
REMARK    2  A    between atoms: C10_10  and  N12_12 
ROOT
HETATM    1  C1  UNL     1     -23.955  -3.234   9.159  1.00 20.00     0.061 C 
HETATM    2  C9  UNL     1     -24.880  -3.488  10.275  1.00 20.00     0.159 C 
HETATM    3  N11 UNL     1     -23.224  -3.035   8.279  1.00 20.00    -0.197 NA
ENDROOT
BRANCH   2   4
HETATM    4  C10 UNL     1     -25.345  -2.188  10.940  1.00 20.00     0.233 C 
HETATM    5  C8  UNL     1     -24.304  -1.687  11.938  1.00 20.00     0.044 C 
BRANCH   4   6
HETATM    6  N12 UNL     1     -26.621  -2.371  11.611  1.00 20.00     0.102 N 
HETATM    7  C4  UNL     1     -27.184  -3.700  11.385  1.00 20.00     0.274 C 
HETATM    8  C2  UNL     1     -28.566  -3.556  11.982  1.00 20.00     0.033 C 
HETATM    9  C3  UNL     1     -28.996  -2.166  11.540  1.00 20.00     0.043 C 
HETATM   10  C5  UNL     1     -27.680  -1.382  11.316  1.00 20.00     0.153 C 
HETATM   11  C6  UNL     1     -27.566  -0.237  12.332  1.00 20.00     0.049 C 
HETATM   12  C7  UNL     1     -27.662  -0.799   9.892  1.00 20.00     0.049 C 
ENDBRANCH   4   6
ENDBRANCH   2   4
TORSDOF 2
ENDMDL
MODEL 9
REMARK VINA RESULT:      -3.5      1.668      2.161
REMARK  2 active torsions:
REMARK  status: ('A' for Active; 'I' for Inactive)
REMARK    1  A    between atoms: C9_9  and  C10_10 
REMARK    2  A    between atoms: C10_10  and  N12_12 
ROOT
HETATM    1  C1  UNL     1     -33.506  17.026  -1.920  1.00 20.00     0.061 C 
HETATM    2  C9  UNL     1     -33.300  16.551  -3.297  1.00 20.00     0.159 C 
HETATM    3  N11 UNL     1     -33.669  17.400  -0.833  1.00 20.00    -0.197 NA
ENDROOT
BRANCH   2   4
HETATM    4  C10 UNL     1     -34.166  17.318  -4.304  1.00 20.00     0.233 C 
HETATM    5  C8  UNL     1     -34.890  18.476  -3.623  1.00 20.00     0.044 C 
BRANCH   4   6
HETATM    6  N12 UNL     1     -35.133  16.438  -4.939  1.00 20.00     0.102 N 
HETATM    7  C4  UNL     1     -34.716  15.037  -4.908  1.00 20.00     0.274 C 
HETATM    8  C2  UNL     1     -35.751  14.388  -5.800  1.00 20.00     0.033 C 
HETATM    9  C3  UNL     1     -35.918  15.390  -6.932  1.00 20.00     0.043 C 
HETATM   10  C5  UNL     1     -35.518  16.759  -6.329  1.00 20.00     0.153 C 
HETATM   11  C6  UNL     1     -36.735  17.694  -6.288  1.00 20.00     0.049 C 
HETATM   12  C7  UNL     1     -34.415  17.400  -7.190  1.00 20.00     0.049 C 
ENDBRANCH   4   6
ENDBRANCH   2   4
TORSDOF 2
ENDMDL
