MODEL 1
REMARK VINA RESULT:      -5.0      0.000      0.000
REMARK  3 active torsions:
REMARK  status: ('A' for Active; 'I' for Inactive)
REMARK    1  A    between atoms: C2_2  and  C3_3 
REMARK    2  A    between atoms: C2_2  and  C4_4 
REMARK    3  A    between atoms: C3_3  and  N5_5 
ROOT
HETATM    1  C1  UNL     1     -34.638   5.386   5.585  1.00 20.00     0.332 C 
HETATM    2  N5  UNL     1     -34.545   6.260   6.363  1.00 20.00    -0.247 NA
HETATM    3  O6  UNL     1     -34.732   4.508   4.807  1.00 20.00    -0.260 OA
ENDROOT
BRANCH   2   4
HETATM    4  C3  UNL     1     -33.480   7.220   6.069  1.00 20.00     0.162 C 
BRANCH   4   5
HETATM    5  C2  UNL     1     -33.800   7.925   4.759  1.00 20.00     0.139 C 
BRANCH   5   6
HETATM    6  C4  UNL     1     -32.599   7.985   3.841  1.00 20.00     0.389 C 
HETATM    7  F7  UNL     1     -32.751   8.934   2.893  1.00 20.00    -0.171 F 
HETATM    8  F8  UNL     1     -31.482   8.280   4.541  1.00 20.00    -0.171 F 
HETATM    9  F9  UNL     1     -32.394   6.804   3.222  1.00 20.00    -0.171 F 
ENDBRANCH   5   6
ENDBRANCH   4   5
ENDBRANCH   2   4
TORSDOF 3
ENDMDL
MODEL 2
REMARK VINA RESULT:      -5.0      0.026      1.257
REMARK  3 active torsions:
REMARK  status: ('A' for Active; 'I' for Inactive)
REMARK    1  A    between atoms: C2_2  and  C3_3 
REMARK    2  A    between atoms: C2_2  and  C4_4 
REMARK    3  A    between atoms: C3_3  and  N5_5 
ROOT
HETATM    1  C1  UNL     1     -34.649   5.406   5.590  1.00 20.00     0.332 C 
HETATM    2  N5  UNL     1     -34.551   6.286   6.362  1.00 20.00    -0.247 NA
HETATM    3  O6  UNL     1     -34.749   4.524   4.818  1.00 20.00    -0.260 OA
ENDROOT
BRANCH   2   4
HETATM    4  C3  UNL     1     -33.478   7.234   6.065  1.00 20.00     0.162 C 
BRANCH   4   5
HETATM    5  C2  UNL     1     -33.794   7.942   4.755  1.00 20.00     0.139 C 
BRANCH   5   6
HETATM    6  C4  UNL     1     -32.596   7.986   3.833  1.00 20.00     0.389 C 
HETATM    7  F7  UNL     1     -31.465   8.277   4.511  1.00 20.00    -0.171 F 
HETATM    8  F8  UNL     1     -32.416   6.790   3.232  1.00 20.00    -0.171 F 
HETATM    9  F9  UNL     1     -32.753   8.912   2.864  1.00 20.00    -0.171 F 
ENDBRANCH   5   6
ENDBRANCH   4   5
ENDBRANCH   2   4
TORSDOF 3
ENDMDL
MODEL 3
REMARK VINA RESULT:      -4.8      2.942      3.755
REMARK  3 active torsions:
REMARK  status: ('A' for Active; 'I' for Inactive)
REMARK    1  A    between atoms: C2_2  and  C3_3 
REMARK    2  A    between atoms: C2_2  and  C4_4 
REMARK    3  A    between atoms: C3_3  and  N5_5 
ROOT
HETATM    1  C1  UNL     1     -32.254   7.664   3.392  1.00 20.00     0.332 C 
HETATM    2  N5  UNL     1     -32.385   8.024   4.502  1.00 20.00    -0.247 NA
HETATM    3  O6  UNL     1     -32.120   7.304   2.280  1.00 20.00    -0.260 OA
ENDROOT
BRANCH   2   4
HETATM    4  C3  UNL     1     -33.767   8.008   4.983  1.00 20.00     0.162 C 
BRANCH   4   5
HETATM    5  C2  UNL     1     -33.927   6.873   5.985  1.00 20.00     0.139 C 
BRANCH   5   6
HETATM    6  C4  UNL     1     -34.704   5.713   5.404  1.00 20.00     0.389 C 
HETATM    7  F7  UNL     1     -33.932   4.962   4.590  1.00 20.00    -0.171 F 
HETATM    8  F8  UNL     1     -35.164   4.910   6.389  1.00 20.00    -0.171 F 
HETATM    9  F9  UNL     1     -35.769   6.140   4.694  1.00 20.00    -0.171 F 
ENDBRANCH   5   6
ENDBRANCH   4   5
ENDBRANCH   2   4
TORSDOF 3
ENDMDL
MODEL 4
REMARK VINA RESULT:      -4.8      2.944      3.792
REMARK  3 active torsions:
REMARK  status: ('A' for Active; 'I' for Inactive)
REMARK    1  A    between atoms: C2_2  and  C3_3 
REMARK    2  A    between atoms: C2_2  and  C4_4 
REMARK    3  A    between atoms: C3_3  and  N5_5 
ROOT
HETATM    1  C1  UNL     1     -32.266   7.646   3.431  1.00 20.00     0.332 C 
HETATM    2  N5  UNL     1     -32.402   8.026   4.534  1.00 20.00    -0.247 NA
HETATM    3  O6  UNL     1     -32.127   7.266   2.326  1.00 20.00    -0.260 OA
ENDROOT
BRANCH   2   4
HETATM    4  C3  UNL     1     -33.781   7.982   5.022  1.00 20.00     0.162 C 
BRANCH   4   5
HETATM    5  C2  UNL     1     -33.915   6.833   6.012  1.00 20.00     0.139 C 
BRANCH   5   6
HETATM    6  C4  UNL     1     -34.710   5.682   5.437  1.00 20.00     0.389 C 
HETATM    7  F7  UNL     1     -35.204   4.890   6.412  1.00 20.00    -0.171 F 
HETATM    8  F8  UNL     1     -35.754   6.141   4.713  1.00 20.00    -0.171 F 
HETATM    9  F9  UNL     1     -33.951   4.919   4.623  1.00 20.00    -0.171 F 
ENDBRANCH   5   6
ENDBRANCH   4   5
ENDBRANCH   2   4
TORSDOF 3
ENDMDL
MODEL 5
REMARK VINA RESULT:      -4.8      2.938      3.692
REMARK  3 active torsions:
REMARK  status: ('A' for Active; 'I' for Inactive)
REMARK    1  A    between atoms: C2_2  and  C3_3 
REMARK    2  A    between atoms: C2_2  and  C4_4 
REMARK    3  A    between atoms: C3_3  and  N5_5 
ROOT
HETATM    1  C1  UNL     1     -32.265   7.656   3.396  1.00 20.00     0.332 C 
HETATM    2  N5  UNL     1     -32.388   8.037   4.500  1.00 20.00    -0.247 NA
HETATM    3  O6  UNL     1     -32.138   7.276   2.290  1.00 20.00    -0.260 OA
ENDROOT
BRANCH   2   4
HETATM    4  C3  UNL     1     -33.765   8.016   4.995  1.00 20.00     0.162 C 
BRANCH   4   5
HETATM    5  C2  UNL     1     -33.909   6.881   6.000  1.00 20.00     0.139 C 
BRANCH   5   6
HETATM    6  C4  UNL     1     -34.706   5.726   5.437  1.00 20.00     0.389 C 
HETATM    7  F7  UNL     1     -35.750   6.162   4.699  1.00 20.00    -0.171 F 
HETATM    8  F8  UNL     1     -33.931   4.960   4.638  1.00 20.00    -0.171 F 
HETATM    9  F9  UNL     1     -35.189   4.935   6.418  1.00 20.00    -0.171 F 
ENDBRANCH   5   6
ENDBRANCH   4   5
ENDBRANCH   2   4
TORSDOF 3
ENDMDL
MODEL 6
REMARK VINA RESULT:      -4.5      3.463      4.107
REMARK  3 active torsions:
REMARK  status: ('A' for Active; 'I' for Inactive)
REMARK    1  A    between atoms: C2_2  and  C3_3 
REMARK    2  A    between atoms: C2_2  and  C4_4 
REMARK    3  A    between atoms: C3_3  and  N5_5 
ROOT
HETATM    1  C1  UNL     1     -32.216   8.427   4.183  1.00 20.00     0.332 C 
HETATM    2  N5  UNL     1     -32.221   7.646   3.306  1.00 20.00    -0.247 NA
HETATM    3  O6  UNL     1     -32.208   9.211   5.060  1.00 20.00    -0.260 OA
ENDROOT
BRANCH   2   4
HETATM    4  C3  UNL     1     -33.014   6.445   3.572  1.00 20.00     0.162 C 
BRANCH   4   5
HETATM    5  C2  UNL     1     -33.946   6.720   4.745  1.00 20.00     0.139 C 
BRANCH   5   6
HETATM    6  C4  UNL     1     -34.906   5.576   4.983  1.00 20.00     0.389 C 
HETATM    7  F7  UNL     1     -35.148   5.404   6.300  1.00 20.00    -0.171 F 
HETATM    8  F8  UNL     1     -36.089   5.817   4.377  1.00 20.00    -0.171 F 
HETATM    9  F9  UNL     1     -34.423   4.416   4.491  1.00 20.00    -0.171 F 
ENDBRANCH   5   6
ENDBRANCH   4   5
ENDBRANCH   2   4
TORSDOF 3
ENDMDL
MODEL 7
REMARK VINA RESULT:      -4.5      1.970      2.333
REMARK  3 active torsions:
REMARK  status: ('A' for Active; 'I' for Inactive)
REMARK    1  A    between atoms: C2_2  and  C3_3 
REMARK    2  A    between atoms: C2_2  and  C4_4 
REMARK    3  A    between atoms: C3_3  and  N5_5 
ROOT
HETATM    1  C1  UNL     1     -33.721   4.861   3.677  1.00 20.00     0.332 C 
HETATM    2  N5  UNL     1     -34.407   4.663   4.609  1.00 20.00    -0.247 NA
HETATM    3  O6  UNL     1     -33.032   5.056   2.743  1.00 20.00    -0.260 OA
ENDROOT
BRANCH   2   4
HETATM    4  C3  UNL     1     -35.065   5.859   5.139  1.00 20.00     0.162 C 
BRANCH   4   5
HETATM    5  C2  UNL     1     -34.074   6.622   6.007  1.00 20.00     0.139 C 
BRANCH   5   6
HETATM    6  C4  UNL     1     -33.664   7.934   5.376  1.00 20.00     0.389 C 
HETATM    7  F7  UNL     1     -34.079   8.986   6.115  1.00 20.00    -0.171 F 
HETATM    8  F8  UNL     1     -32.320   8.012   5.273  1.00 20.00    -0.171 F 
HETATM    9  F9  UNL     1     -34.179   8.066   4.135  1.00 20.00    -0.171 F 
ENDBRANCH   5   6
ENDBRANCH   4   5
ENDBRANCH   2   4
TORSDOF 3
ENDMDL
MODEL 8
REMARK VINA RESULT:      -4.5      3.142      3.790
REMARK  3 active torsions:
REMARK  status: ('A' for Active; 'I' for Inactive)
REMARK    1  A    between atoms: C2_2  and  C3_3 
REMARK    2  A    between atoms: C2_2  and  C4_4 
REMARK    3  A    between atoms: C3_3  and  N5_5 
ROOT
HETATM    1  C1  UNL     1     -32.695   6.351   3.091  1.00 20.00     0.332 C 
HETATM    2  N5  UNL     1     -33.290   5.350   2.939  1.00 20.00    -0.247 NA
HETATM    3  O6  UNL     1     -32.097   7.354   3.241  1.00 20.00    -0.260 OA
ENDROOT
BRANCH   2   4
HETATM    4  C3  UNL     1     -34.025   4.899   4.121  1.00 20.00     0.162 C 
BRANCH   4   5
HETATM    5  C2  UNL     1     -34.603   6.113   4.835  1.00 20.00     0.139 C 
BRANCH   5   6
HETATM    6  C4  UNL     1     -34.191   6.163   6.289  1.00 20.00     0.389 C 
HETATM    7  F7  UNL     1     -35.184   6.649   7.065  1.00 20.00    -0.171 F 
HETATM    8  F8  UNL     1     -33.890   4.925   6.739  1.00 20.00    -0.171 F 
HETATM    9  F9  UNL     1     -33.103   6.939   6.467  1.00 20.00    -0.171 F 
ENDBRANCH   5   6
ENDBRANCH   4   5
ENDBRANCH   2   4
TORSDOF 3
ENDMDL
MODEL 9
REMARK VINA RESULT:      -4.0      2.068      2.553
REMARK  3 active torsions:
REMARK  status: ('A' for Active; 'I' for Inactive)
REMARK    1  A    between atoms: C2_2  and  C3_3 
REMARK    2  A    between atoms: C2_2  and  C4_4 
REMARK    3  A    between atoms: C3_3  and  N5_5 
ROOT
HETATM    1  C1  UNL     1     -33.663   5.011   3.672  1.00 20.00     0.332 C 
HETATM    2  N5  UNL     1     -32.892   5.389   2.871  1.00 20.00    -0.247 NA
HETATM    3  O6  UNL     1     -34.435   4.629   4.474  1.00 20.00    -0.260 OA
ENDROOT
BRANCH   2   4
HETATM    4  C3  UNL     1     -32.898   6.837   2.664  1.00 20.00     0.162 C 
BRANCH   4   5
HETATM    5  C2  UNL     1     -32.028   7.491   3.728  1.00 20.00     0.139 C 
BRANCH   5   6
HETATM    6  C4  UNL     1     -32.856   8.170   4.796  1.00 20.00     0.389 C 
HETATM    7  F7  UNL     1     -32.913   7.427   5.922  1.00 20.00    -0.171 F 
HETATM    8  F8  UNL     1     -32.321   9.367   5.121  1.00 20.00    -0.171 F 
HETATM    9  F9  UNL     1     -34.119   8.388   4.375  1.00 20.00    -0.171 F 
ENDBRANCH   5   6
ENDBRANCH   4   5
ENDBRANCH   2   4
TORSDOF 3
ENDMDL
