MODEL 1
REMARK VINA RESULT:      -5.5      0.000      0.000
REMARK  0 active torsions:
REMARK  status: ('A' for Active; 'I' for Inactive)
ROOT
HETATM    1  C1  UNL     1     -33.677   7.651   5.169  1.00 20.00     0.006 C 
HETATM    2  C2  UNL     1     -34.209   7.085   6.491  1.00 20.00     0.006 C 
HETATM    3  C3  UNL     1     -33.602   6.472   4.203  1.00 20.00     0.079 C 
HETATM    4  C4  UNL     1     -34.430   5.594   6.256  1.00 20.00     0.079 C 
HETATM    5  C5  UNL     1     -34.616   5.498   4.758  1.00 20.00     0.243 C 
HETATM    6  F6  UNL     1     -34.425   4.249   4.301  1.00 20.00    -0.206 F 
HETATM    7  F7  UNL     1     -35.868   5.880   4.416  1.00 20.00    -0.206 F 
ENDROOT
TORSDOF 0
ENDMDL
MODEL 2
REMARK VINA RESULT:      -5.0      1.932      2.733
REMARK  0 active torsions:
REMARK  status: ('A' for Active; 'I' for Inactive)
ROOT
HETATM    1  C1  UNL     1     -34.793   5.889   6.205  1.00 20.00     0.006 C 
HETATM    2  C2  UNL     1     -34.807   5.360   4.767  1.00 20.00     0.006 C 
HETATM    3  C3  UNL     1     -33.626   6.869   6.284  1.00 20.00     0.079 C 
HETATM    4  C4  UNL     1     -33.649   6.047   4.050  1.00 20.00     0.079 C 
HETATM    5  C5  UNL     1     -33.442   7.312   4.852  1.00 20.00     0.243 C 
HETATM    6  F6  UNL     1     -32.232   7.857   4.639  1.00 20.00    -0.206 F 
HETATM    7  F7  UNL     1     -34.377   8.234   4.523  1.00 20.00    -0.206 F 
ENDROOT
TORSDOF 0
ENDMDL
MODEL 3
REMARK VINA RESULT:      -4.9      1.750      2.592
REMARK  0 active torsions:
REMARK  status: ('A' for Active; 'I' for Inactive)
ROOT
HETATM    1  C1  UNL     1     -34.717   4.943   5.151  1.00 20.00     0.006 C 
HETATM    2  C2  UNL     1     -34.164   5.456   6.486  1.00 20.00     0.006 C 
HETATM    3  C3  UNL     1     -34.909   6.175   4.271  1.00 20.00     0.079 C 
HETATM    4  C4  UNL     1     -34.050   6.970   6.344  1.00 20.00     0.079 C 
HETATM    5  C5  UNL     1     -33.937   7.176   4.850  1.00 20.00     0.243 C 
HETATM    6  F6  UNL     1     -34.227   8.436   4.487  1.00 20.00    -0.206 F 
HETATM    7  F7  UNL     1     -32.679   6.901   4.434  1.00 20.00    -0.206 F 
ENDROOT
TORSDOF 0
ENDMDL
MODEL 4
REMARK VINA RESULT:      -4.8      1.217      2.070
REMARK  0 active torsions:
REMARK  status: ('A' for Active; 'I' for Inactive)
ROOT
HETATM    1  C1  UNL     1     -33.347   5.429   3.288  1.00 20.00     0.006 C 
HETATM    2  C2  UNL     1     -33.230   6.876   3.783  1.00 20.00     0.006 C 
HETATM    3  C3  UNL     1     -34.066   4.661   4.392  1.00 20.00     0.079 C 
HETATM    4  C4  UNL     1     -33.884   6.908   5.160  1.00 20.00     0.079 C 
HETATM    5  C5  UNL     1     -34.839   5.735   5.122  1.00 20.00     0.243 C 
HETATM    6  F6  UNL     1     -35.215   5.345   6.352  1.00 20.00    -0.206 F 
HETATM    7  F7  UNL     1     -35.954   6.062   4.430  1.00 20.00    -0.206 F 
ENDROOT
TORSDOF 0
ENDMDL
MODEL 5
REMARK VINA RESULT:      -4.7      0.774      1.988
REMARK  0 active torsions:
REMARK  status: ('A' for Active; 'I' for Inactive)
ROOT
HETATM    1  C1  UNL     1     -33.469   6.640   6.560  1.00 20.00     0.006 C 
HETATM    2  C2  UNL     1     -33.177   7.612   5.411  1.00 20.00     0.006 C 
HETATM    3  C3  UNL     1     -34.770   5.931   6.194  1.00 20.00     0.079 C 
HETATM    4  C4  UNL     1     -34.315   7.441   4.410  1.00 20.00     0.079 C 
HETATM    5  C5  UNL     1     -34.820   6.042   4.688  1.00 20.00     0.243 C 
HETATM    6  F6  UNL     1     -36.057   5.842   4.203  1.00 20.00    -0.206 F 
HETATM    7  F7  UNL     1     -33.999   5.127   4.124  1.00 20.00    -0.206 F 
ENDROOT
TORSDOF 0
ENDMDL
MODEL 6
REMARK VINA RESULT:      -4.6      1.905      2.675
REMARK  0 active torsions:
REMARK  status: ('A' for Active; 'I' for Inactive)
ROOT
HETATM    1  C1  UNL     1     -33.293   6.849   3.926  1.00 20.00     0.006 C 
HETATM    2  C2  UNL     1     -34.135   5.587   4.152  1.00 20.00     0.006 C 
HETATM    3  C3  UNL     1     -33.577   7.765   5.114  1.00 20.00     0.079 C 
HETATM    4  C4  UNL     1     -34.883   5.805   5.464  1.00 20.00     0.079 C 
HETATM    5  C5  UNL     1     -34.022   6.809   6.196  1.00 20.00     0.243 C 
HETATM    6  F6  UNL     1     -34.692   7.432   7.180  1.00 20.00    -0.206 F 
HETATM    7  F7  UNL     1     -32.950   6.194   6.747  1.00 20.00    -0.206 F 
ENDROOT
TORSDOF 0
ENDMDL
MODEL 7
REMARK VINA RESULT:      -4.2      1.635      2.136
REMARK  0 active torsions:
REMARK  status: ('A' for Active; 'I' for Inactive)
ROOT
HETATM    1  C1  UNL     1     -34.835   6.267   4.109  1.00 20.00     0.006 C 
HETATM    2  C2  UNL     1     -34.126   7.446   4.786  1.00 20.00     0.006 C 
HETATM    3  C3  UNL     1     -34.567   5.050   4.989  1.00 20.00     0.079 C 
HETATM    4  C4  UNL     1     -33.467   6.881   6.040  1.00 20.00     0.079 C 
HETATM    5  C5  UNL     1     -34.292   5.651   6.347  1.00 20.00     0.243 C 
HETATM    6  F6  UNL     1     -33.650   4.797   7.162  1.00 20.00    -0.206 F 
HETATM    7  F7  UNL     1     -35.453   6.004   6.946  1.00 20.00    -0.206 F 
ENDROOT
TORSDOF 0
ENDMDL
MODEL 8
REMARK VINA RESULT:      -4.0      2.277      2.937
REMARK  0 active torsions:
REMARK  status: ('A' for Active; 'I' for Inactive)
ROOT
HETATM    1  C1  UNL     1     -34.111   5.887   5.400  1.00 20.00     0.006 C 
HETATM    2  C2  UNL     1     -34.092   7.027   6.425  1.00 20.00     0.006 C 
HETATM    3  C3  UNL     1     -33.899   6.540   4.037  1.00 20.00     0.079 C 
HETATM    4  C4  UNL     1     -33.868   8.310   5.630  1.00 20.00     0.079 C 
HETATM    5  C5  UNL     1     -33.182   7.827   4.371  1.00 20.00     0.243 C 
HETATM    6  F6  UNL     1     -33.257   8.725   3.375  1.00 20.00    -0.206 F 
HETATM    7  F7  UNL     1     -31.874   7.584   4.615  1.00 20.00    -0.206 F 
ENDROOT
TORSDOF 0
ENDMDL
MODEL 9
REMARK VINA RESULT:      -3.6      8.151      8.792
REMARK  0 active torsions:
REMARK  status: ('A' for Active; 'I' for Inactive)
ROOT
HETATM    1  C1  UNL     1     -40.881   8.374   0.102  1.00 20.00     0.006 C 
HETATM    2  C2  UNL     1     -42.148   8.060  -0.702  1.00 20.00     0.006 C 
HETATM    3  C3  UNL     1     -40.619   7.151   0.976  1.00 20.00     0.079 C 
HETATM    4  C4  UNL     1     -42.586   6.663  -0.274  1.00 20.00     0.079 C 
HETATM    5  C5  UNL     1     -41.308   6.032   0.229  1.00 20.00     0.243 C 
HETATM    6  F6  UNL     1     -41.540   4.965   1.012  1.00 20.00    -0.206 F 
HETATM    7  F7  UNL     1     -40.545   5.626  -0.812  1.00 20.00    -0.206 F 
ENDROOT
TORSDOF 0
ENDMDL
