MODEL 1
REMARK VINA RESULT:      -4.5      0.000      0.000
REMARK  1 active torsions:
REMARK  status: ('A' for Active; 'I' for Inactive)
REMARK    1  A    between atoms: C2_2  and  C4_4 
ROOT
HETATM    1  C3  UNL     1     -33.078   6.809   6.250  1.00 20.00     0.102 C 
HETATM    2  C4  UNL     1     -33.598   7.427   4.920  1.00 20.00     0.035 C 
HETATM    3  C5  UNL     1     -34.327   5.900   6.270  1.00 20.00     0.295 C 
HETATM    4  C6  UNL     1     -34.410   6.084   4.722  1.00 20.00     0.254 C 
HETATM    5  C7  UNL     1     -34.406   8.713   5.128  1.00 20.00     0.025 C 
HETATM    6  F8  UNL     1     -35.375   6.374   6.983  1.00 20.00    -0.201 F 
HETATM    7  F9  UNL     1     -34.117   4.632   6.689  1.00 20.00    -0.201 F 
HETATM    8  F10 UNL     1     -33.730   5.115   4.047  1.00 20.00    -0.218 F 
HETATM    9 CL11 UNL     1     -36.054   6.187   4.027  1.00 20.00    -0.075 Cl
ENDROOT
BRANCH   2  10
HETATM   10  C2  UNL     1     -32.522   7.629   3.910  1.00 20.00    -0.023 C 
HETATM   11  C1  UNL     1     -32.524   8.608   2.999  1.00 20.00     0.008 C 
ENDBRANCH   2  10
TORSDOF 1
ENDMDL
MODEL 2
REMARK VINA RESULT:      -3.9      8.926      9.964
REMARK  1 active torsions:
REMARK  status: ('A' for Active; 'I' for Inactive)
REMARK    1  A    between atoms: C2_2  and  C4_4 
ROOT
HETATM    1  C3  UNL     1     -41.018   5.564   0.761  1.00 20.00     0.102 C 
HETATM    2  C4  UNL     1     -42.511   5.603   0.328  1.00 20.00     0.035 C 
HETATM    3  C5  UNL     1     -40.953   7.091   0.536  1.00 20.00     0.295 C 
HETATM    4  C6  UNL     1     -42.499   7.126   0.755  1.00 20.00     0.254 C 
HETATM    5  C7  UNL     1     -42.717   5.291  -1.158  1.00 20.00     0.025 C 
HETATM    6  F8  UNL     1     -40.515   7.477  -0.684  1.00 20.00    -0.201 F 
HETATM    7  F9  UNL     1     -40.228   7.782   1.444  1.00 20.00    -0.201 F 
HETATM    8  F10 UNL     1     -42.834   7.343   2.058  1.00 20.00    -0.218 F 
HETATM    9 CL11 UNL     1     -43.411   8.290  -0.248  1.00 20.00    -0.075 Cl
ENDROOT
BRANCH   2  10
HETATM   10  C2  UNL     1     -43.389   4.751   1.179  1.00 20.00    -0.023 C 
HETATM   11  C1  UNL     1     -43.413   3.415   1.127  1.00 20.00     0.008 C 
ENDBRANCH   2  10
TORSDOF 1
ENDMDL
MODEL 3
REMARK VINA RESULT:      -3.6      9.573     11.006
REMARK  1 active torsions:
REMARK  status: ('A' for Active; 'I' for Inactive)
REMARK    1  A    between atoms: C2_2  and  C4_4 
ROOT
HETATM    1  C3  UNL     1     -41.985  13.947   5.353  1.00 20.00     0.102 C 
HETATM    2  C4  UNL     1     -41.529  13.010   6.508  1.00 20.00     0.035 C 
HETATM    3  C5  UNL     1     -42.167  15.075   6.393  1.00 20.00     0.295 C 
HETATM    4  C6  UNL     1     -41.138  14.325   7.296  1.00 20.00     0.254 C 
HETATM    5  C7  UNL     1     -42.668  12.160   7.081  1.00 20.00     0.025 C 
HETATM    6  F8  UNL     1     -43.417  15.202   6.894  1.00 20.00    -0.201 F 
HETATM    7  F9  UNL     1     -41.787  16.307   5.987  1.00 20.00    -0.201 F 
HETATM    8  F10 UNL     1     -39.859  14.743   7.082  1.00 20.00    -0.218 F 
HETATM    9 CL11 UNL     1     -41.447  14.377   9.055  1.00 20.00    -0.075 Cl
ENDROOT
BRANCH   2  10
HETATM   10  C2  UNL     1     -40.359  12.161   6.145  1.00 20.00    -0.023 C 
HETATM   11  C1  UNL     1     -39.799  12.139   4.931  1.00 20.00     0.008 C 
ENDBRANCH   2  10
TORSDOF 1
ENDMDL
MODEL 4
REMARK VINA RESULT:      -3.5      2.221      3.682
REMARK  1 active torsions:
REMARK  status: ('A' for Active; 'I' for Inactive)
REMARK    1  A    between atoms: C2_2  and  C4_4 
ROOT
HETATM    1  C3  UNL     1     -33.051   6.029   3.564  1.00 20.00     0.102 C 
HETATM    2  C4  UNL     1     -34.243   6.218   4.545  1.00 20.00     0.035 C 
HETATM    3  C5  UNL     1     -32.679   7.511   3.792  1.00 20.00     0.295 C 
HETATM    4  C6  UNL     1     -33.424   7.423   5.161  1.00 20.00     0.254 C 
HETATM    5  C7  UNL     1     -35.560   6.553   3.837  1.00 20.00     0.025 C 
HETATM    6  F8  UNL     1     -33.190   8.380   2.890  1.00 20.00    -0.201 F 
HETATM    7  F9  UNL     1     -31.355   7.772   3.872  1.00 20.00    -0.201 F 
HETATM    8  F10 UNL     1     -32.593   7.069   6.182  1.00 20.00    -0.218 F 
HETATM    9 CL11 UNL     1     -34.322   8.884   5.664  1.00 20.00    -0.075 Cl
ENDROOT
BRANCH   2  10
HETATM   10  C2  UNL     1     -34.416   5.072   5.482  1.00 20.00    -0.023 C 
HETATM   11  C1  UNL     1     -34.825   5.197   6.749  1.00 20.00     0.008 C 
ENDBRANCH   2  10
TORSDOF 1
ENDMDL
MODEL 5
REMARK VINA RESULT:      -3.5     13.502     14.496
REMARK  1 active torsions:
REMARK  status: ('A' for Active; 'I' for Inactive)
REMARK    1  A    between atoms: C2_2  and  C4_4 
ROOT
HETATM    1  C3  UNL     1     -33.669  15.133  -6.355  1.00 20.00     0.102 C 
HETATM    2  C4  UNL     1     -34.256  15.325  -4.927  1.00 20.00     0.035 C 
HETATM    3  C5  UNL     1     -34.857  15.949  -6.911  1.00 20.00     0.295 C 
HETATM    4  C6  UNL     1     -34.985  16.607  -5.500  1.00 20.00     0.254 C 
HETATM    5  C7  UNL     1     -35.139  14.157  -4.476  1.00 20.00     0.025 C 
HETATM    6  F8  UNL     1     -35.916  15.218  -7.326  1.00 20.00    -0.201 F 
HETATM    7  F9  UNL     1     -34.557  16.800  -7.918  1.00 20.00    -0.201 F 
HETATM    8  F10 UNL     1     -34.259  17.755  -5.395  1.00 20.00    -0.218 F 
HETATM    9 CL11 UNL     1     -36.647  16.953  -4.940  1.00 20.00    -0.075 Cl
ENDROOT
BRANCH   2  10
HETATM   10  C2  UNL     1     -33.217  15.636  -3.905  1.00 20.00    -0.023 C 
HETATM   11  C1  UNL     1     -33.454  16.323  -2.783  1.00 20.00     0.008 C 
ENDBRANCH   2  10
TORSDOF 1
ENDMDL
MODEL 6
REMARK VINA RESULT:      -3.5     12.659     13.943
REMARK  1 active torsions:
REMARK  status: ('A' for Active; 'I' for Inactive)
REMARK    1  A    between atoms: C2_2  and  C4_4 
ROOT
HETATM    1  C3  UNL     1     -34.499  14.572  -4.272  1.00 20.00     0.102 C 
HETATM    2  C4  UNL     1     -34.840  15.487  -5.483  1.00 20.00     0.035 C 
HETATM    3  C5  UNL     1     -33.628  15.715  -3.704  1.00 20.00     0.295 C 
HETATM    4  C6  UNL     1     -34.498  16.708  -4.537  1.00 20.00     0.254 C 
HETATM    5  C7  UNL     1     -33.927  15.255  -6.691  1.00 20.00     0.025 C 
HETATM    6  F8  UNL     1     -32.316  15.657  -4.027  1.00 20.00    -0.201 F 
HETATM    7  F9  UNL     1     -33.689  15.881  -2.363  1.00 20.00    -0.201 F 
HETATM    8  F10 UNL     1     -35.563  17.183  -3.831  1.00 20.00    -0.218 F 
HETATM    9 CL11 UNL     1     -33.639  18.107  -5.244  1.00 20.00    -0.075 Cl
ENDROOT
BRANCH   2  10
HETATM   10  C2  UNL     1     -36.276  15.421  -5.878  1.00 20.00    -0.023 C 
HETATM   11  C1  UNL     1     -36.852  16.260  -6.745  1.00 20.00     0.008 C 
ENDBRANCH   2  10
TORSDOF 1
ENDMDL
MODEL 7
REMARK VINA RESULT:      -3.5     13.777     14.748
REMARK  1 active torsions:
REMARK  status: ('A' for Active; 'I' for Inactive)
REMARK    1  A    between atoms: C2_2  and  C4_4 
ROOT
HETATM    1  C3  UNL     1     -35.914  14.974  -5.464  1.00 20.00     0.102 C 
HETATM    2  C4  UNL     1     -34.817  16.051  -5.220  1.00 20.00     0.035 C 
HETATM    3  C5  UNL     1     -35.958  15.412  -6.945  1.00 20.00     0.295 C 
HETATM    4  C6  UNL     1     -34.501  15.946  -6.767  1.00 20.00     0.254 C 
HETATM    5  C7  UNL     1     -35.380  17.380  -4.705  1.00 20.00     0.025 C 
HETATM    6  F8  UNL     1     -36.899  16.336  -7.246  1.00 20.00    -0.201 F 
HETATM    7  F9  UNL     1     -36.099  14.411  -7.843  1.00 20.00    -0.201 F 
HETATM    8  F10 UNL     1     -33.564  15.009  -7.082  1.00 20.00    -0.218 F 
HETATM    9 CL11 UNL     1     -34.099  17.447  -7.648  1.00 20.00    -0.075 Cl
ENDROOT
BRANCH   2  10
HETATM   10  C2  UNL     1     -33.708  15.567  -4.349  1.00 20.00    -0.023 C 
HETATM   11  C1  UNL     1     -33.347  16.152  -3.203  1.00 20.00     0.008 C 
ENDBRANCH   2  10
TORSDOF 1
ENDMDL
MODEL 8
REMARK VINA RESULT:      -3.2     12.629     13.969
REMARK  1 active torsions:
REMARK  status: ('A' for Active; 'I' for Inactive)
REMARK    1  A    between atoms: C2_2  and  C4_4 
ROOT
HETATM    1  C3  UNL     1     -33.362  17.016  -4.600  1.00 20.00     0.102 C 
HETATM    2  C4  UNL     1     -34.704  16.835  -5.365  1.00 20.00     0.035 C 
HETATM    3  C5  UNL     1     -33.477  15.549  -4.131  1.00 20.00     0.295 C 
HETATM    4  C6  UNL     1     -34.383  15.286  -5.376  1.00 20.00     0.254 C 
HETATM    5  C7  UNL     1     -35.924  17.295  -4.560  1.00 20.00     0.025 C 
HETATM    6  F8  UNL     1     -34.060  15.373  -2.923  1.00 20.00    -0.201 F 
HETATM    7  F9  UNL     1     -32.318  14.853  -4.106  1.00 20.00    -0.201 F 
HETATM    8  F10 UNL     1     -33.667  14.872  -6.459  1.00 20.00    -0.218 F 
HETATM    9 CL11 UNL     1     -35.735  14.143  -5.140  1.00 20.00    -0.075 Cl
ENDROOT
BRANCH   2  10
HETATM   10  C2  UNL     1     -34.693  17.457  -6.720  1.00 20.00    -0.023 C 
HETATM   11  C1  UNL     1     -35.662  17.293  -7.627  1.00 20.00     0.008 C 
ENDBRANCH   2  10
TORSDOF 1
ENDMDL
MODEL 9
REMARK VINA RESULT:      -3.2     12.372     13.078
REMARK  1 active torsions:
REMARK  status: ('A' for Active; 'I' for Inactive)
REMARK    1  A    between atoms: C2_2  and  C4_4 
ROOT
HETATM    1  C3  UNL     1     -27.988  -1.452  12.201  1.00 20.00     0.102 C 
HETATM    2  C4  UNL     1     -27.840  -2.792  11.425  1.00 20.00     0.035 C 
HETATM    3  C5  UNL     1     -26.651  -0.990  11.578  1.00 20.00     0.295 C 
HETATM    4  C6  UNL     1     -26.915  -1.999  10.416  1.00 20.00     0.254 C 
HETATM    5  C7  UNL     1     -27.187  -3.902  12.255  1.00 20.00     0.025 C 
HETATM    6  F8  UNL     1     -25.552  -1.223  12.332  1.00 20.00    -0.201 F 
HETATM    7  F9  UNL     1     -26.599   0.310  11.212  1.00 20.00    -0.201 F 
HETATM    8  F10 UNL     1     -27.585  -1.428   9.376  1.00 20.00    -0.218 F 
HETATM    9 CL11 UNL     1     -25.479  -2.833   9.755  1.00 20.00    -0.075 Cl
ENDROOT
BRANCH   2  10
HETATM   10  C2  UNL     1     -29.120  -3.260  10.820  1.00 20.00    -0.023 C 
HETATM   11  C1  UNL     1     -29.243  -4.385  10.107  1.00 20.00     0.008 C 
ENDBRANCH   2  10
TORSDOF 1
ENDMDL
