MODEL 1
REMARK VINA RESULT:      -4.3      0.000      0.000
REMARK  0 active torsions:
REMARK  status: ('A' for Active; 'I' for Inactive)
ROOT
HETATM    1  C1  UNL     1     -34.053   6.753   5.523  1.00 20.00     0.219 C 
HETATM    2  C2  UNL     1     -33.195   7.336   4.675  1.00 20.00     0.153 C 
HETATM    3  F3  UNL     1     -34.370   7.386   6.678  1.00 20.00    -0.190 F 
HETATM    4 CL4  UNL     1     -34.792   5.220   5.232  1.00 20.00    -0.049 Cl
HETATM    5 CL5  UNL     1     -32.772   6.548   3.190  1.00 20.00    -0.067 Cl
HETATM    6 CL6  UNL     1     -32.457   8.871   4.970  1.00 20.00    -0.067 Cl
ENDROOT
TORSDOF 0
ENDMDL
MODEL 2
REMARK VINA RESULT:      -4.2      0.623      2.590
REMARK  0 active torsions:
REMARK  status: ('A' for Active; 'I' for Inactive)
ROOT
HETATM    1  C1  UNL     1     -33.565   7.416   5.257  1.00 20.00     0.219 C 
HETATM    2  C2  UNL     1     -33.755   6.337   4.487  1.00 20.00     0.153 C 
HETATM    3  F3  UNL     1     -34.277   7.543   6.402  1.00 20.00    -0.190 F 
HETATM    4 CL4  UNL     1     -32.448   8.677   4.876  1.00 20.00    -0.049 Cl
HETATM    5 CL5  UNL     1     -32.856   6.149   3.018  1.00 20.00    -0.067 Cl
HETATM    6 CL6  UNL     1     -34.874   5.076   4.873  1.00 20.00    -0.067 Cl
ENDROOT
TORSDOF 0
ENDMDL
MODEL 3
REMARK VINA RESULT:      -4.1      2.043      3.495
REMARK  0 active torsions:
REMARK  status: ('A' for Active; 'I' for Inactive)
ROOT
HETATM    1  C1  UNL     1     -33.045   7.193   4.208  1.00 20.00     0.219 C 
HETATM    2  C2  UNL     1     -33.873   6.503   5.005  1.00 20.00     0.153 C 
HETATM    3  F3  UNL     1     -32.733   6.690   2.990  1.00 20.00    -0.190 F 
HETATM    4 CL4  UNL     1     -32.342   8.709   4.644  1.00 20.00    -0.049 Cl
HETATM    5 CL5  UNL     1     -34.290   7.123   6.568  1.00 20.00    -0.067 Cl
HETATM    6 CL6  UNL     1     -34.576   4.986   4.565  1.00 20.00    -0.067 Cl
ENDROOT
TORSDOF 0
ENDMDL
MODEL 4
REMARK VINA RESULT:      -4.1      1.748      2.701
REMARK  0 active torsions:
REMARK  status: ('A' for Active; 'I' for Inactive)
ROOT
HETATM    1  C1  UNL     1     -32.852   7.764   4.437  1.00 20.00     0.219 C 
HETATM    2  C2  UNL     1     -33.697   6.890   4.999  1.00 20.00     0.153 C 
HETATM    3  F3  UNL     1     -32.449   8.842   5.152  1.00 20.00    -0.190 F 
HETATM    4 CL4  UNL     1     -32.232   7.600   2.834  1.00 20.00    -0.049 Cl
HETATM    5 CL5  UNL     1     -34.229   5.502   4.108  1.00 20.00    -0.067 Cl
HETATM    6 CL6  UNL     1     -34.316   7.058   6.605  1.00 20.00    -0.067 Cl
ENDROOT
TORSDOF 0
ENDMDL
MODEL 5
REMARK VINA RESULT:      -4.1      1.971      2.561
REMARK  0 active torsions:
REMARK  status: ('A' for Active; 'I' for Inactive)
ROOT
HETATM    1  C1  UNL     1     -33.844   5.602   4.155  1.00 20.00     0.219 C 
HETATM    2  C2  UNL     1     -33.673   6.688   4.920  1.00 20.00     0.153 C 
HETATM    3  F3  UNL     1     -34.653   4.609   4.593  1.00 20.00    -0.190 F 
HETATM    4 CL4  UNL     1     -33.085   5.386   2.619  1.00 20.00    -0.049 Cl
HETATM    5 CL5  UNL     1     -32.643   7.975   4.384  1.00 20.00    -0.067 Cl
HETATM    6 CL6  UNL     1     -34.434   6.901   6.458  1.00 20.00    -0.067 Cl
ENDROOT
TORSDOF 0
ENDMDL
MODEL 6
REMARK VINA RESULT:      -4.0      2.091      2.396
REMARK  0 active torsions:
REMARK  status: ('A' for Active; 'I' for Inactive)
ROOT
HETATM    1  C1  UNL     1     -33.557   6.177   4.169  1.00 20.00     0.219 C 
HETATM    2  C2  UNL     1     -33.420   7.232   4.983  1.00 20.00     0.153 C 
HETATM    3  F3  UNL     1     -32.937   6.188   2.965  1.00 20.00    -0.190 F 
HETATM    4 CL4  UNL     1     -34.490   4.778   4.566  1.00 20.00    -0.049 Cl
HETATM    5 CL5  UNL     1     -34.202   7.244   6.529  1.00 20.00    -0.067 Cl
HETATM    6 CL6  UNL     1     -32.485   8.630   4.581  1.00 20.00    -0.067 Cl
ENDROOT
TORSDOF 0
ENDMDL
MODEL 7
REMARK VINA RESULT:      -4.0      1.832      2.022
REMARK  0 active torsions:
REMARK  status: ('A' for Active; 'I' for Inactive)
ROOT
HETATM    1  C1  UNL     1     -33.293   7.667   5.175  1.00 20.00     0.219 C 
HETATM    2  C2  UNL     1     -33.150   6.980   4.034  1.00 20.00     0.153 C 
HETATM    3  F3  UNL     1     -32.680   8.868   5.302  1.00 20.00    -0.190 F 
HETATM    4 CL4  UNL     1     -34.225   7.108   6.517  1.00 20.00    -0.049 Cl
HETATM    5 CL5  UNL     1     -33.923   5.441   3.844  1.00 20.00    -0.067 Cl
HETATM    6 CL6  UNL     1     -32.215   7.544   2.692  1.00 20.00    -0.067 Cl
ENDROOT
TORSDOF 0
ENDMDL
MODEL 8
REMARK VINA RESULT:      -4.0      1.992      3.165
REMARK  0 active torsions:
REMARK  status: ('A' for Active; 'I' for Inactive)
ROOT
HETATM    1  C1  UNL     1     -33.015   7.339   4.239  1.00 20.00     0.219 C 
HETATM    2  C2  UNL     1     -33.611   6.194   3.879  1.00 20.00     0.153 C 
HETATM    3  F3  UNL     1     -31.861   7.701   3.629  1.00 20.00    -0.190 F 
HETATM    4 CL4  UNL     1     -33.637   8.401   5.450  1.00 20.00    -0.049 Cl
HETATM    5 CL5  UNL     1     -35.088   5.707   4.643  1.00 20.00    -0.067 Cl
HETATM    6 CL6  UNL     1     -32.985   5.134   2.665  1.00 20.00    -0.067 Cl
ENDROOT
TORSDOF 0
ENDMDL
MODEL 9
REMARK VINA RESULT:      -3.9      1.856      2.512
REMARK  0 active torsions:
REMARK  status: ('A' for Active; 'I' for Inactive)
ROOT
HETATM    1  C1  UNL     1     -34.148   5.914   5.047  1.00 20.00     0.219 C 
HETATM    2  C2  UNL     1     -33.342   6.295   4.047  1.00 20.00     0.153 C 
HETATM    3  F3  UNL     1     -34.789   4.724   4.959  1.00 20.00    -0.190 F 
HETATM    4 CL4  UNL     1     -34.426   6.860   6.465  1.00 20.00    -0.049 Cl
HETATM    5 CL5  UNL     1     -32.510   7.813   4.133  1.00 20.00    -0.067 Cl
HETATM    6 CL6  UNL     1     -33.067   5.345   2.629  1.00 20.00    -0.067 Cl
ENDROOT
TORSDOF 0
ENDMDL
