MODEL 1
REMARK VINA RESULT:      -3.5      0.000      0.000
REMARK  1 active torsions:
REMARK  status: ('A' for Active; 'I' for Inactive)
REMARK    1  A    between atoms: C1_1  and  C2_2 
ROOT
HETATM    1  C2  UNL     1     -34.662   5.840   4.813  1.00 20.00     0.294 C 
HETATM    2  F4  UNL     1     -35.960   5.953   4.425  1.00 20.00    -0.230 F 
HETATM    3 CL5  UNL     1     -33.993   4.328   4.172  1.00 20.00    -0.087 Cl
ENDROOT
BRANCH   1   4
HETATM    4  C1  UNL     1     -34.600   5.869   6.324  1.00 20.00     0.275 C 
HETATM    5  F3  UNL     1     -34.516   7.159   6.747  1.00 20.00    -0.251 F 
ENDBRANCH   1   4
TORSDOF 1
ENDMDL
MODEL 2
REMARK VINA RESULT:      -3.5      1.934      2.094
REMARK  1 active torsions:
REMARK  status: ('A' for Active; 'I' for Inactive)
REMARK    1  A    between atoms: C1_1  and  C2_2 
ROOT
HETATM    1  C2  UNL     1     -34.629   6.080   6.207  1.00 20.00     0.294 C 
HETATM    2  F4  UNL     1     -34.046   4.951   6.688  1.00 20.00    -0.230 F 
HETATM    3 CL5  UNL     1     -35.297   5.748   4.598  1.00 20.00    -0.087 Cl
ENDROOT
BRANCH   1   4
HETATM    4  C1  UNL     1     -33.592   7.179   6.152  1.00 20.00     0.275 C 
HETATM    5  F3  UNL     1     -33.977   8.117   5.245  1.00 20.00    -0.251 F 
ENDBRANCH   1   4
TORSDOF 1
ENDMDL
MODEL 3
REMARK VINA RESULT:      -3.5      1.734      2.621
REMARK  1 active torsions:
REMARK  status: ('A' for Active; 'I' for Inactive)
REMARK    1  A    between atoms: C1_1  and  C2_2 
ROOT
HETATM    1  C2  UNL     1     -33.990   6.596   5.811  1.00 20.00     0.294 C 
HETATM    2  F4  UNL     1     -34.663   7.028   6.910  1.00 20.00    -0.230 F 
HETATM    3 CL5  UNL     1     -33.753   7.960   4.702  1.00 20.00    -0.087 Cl
ENDROOT
BRANCH   1   4
HETATM    4  C1  UNL     1     -34.785   5.490   5.155  1.00 20.00     0.275 C 
HETATM    5  F3  UNL     1     -35.810   6.033   4.444  1.00 20.00    -0.251 F 
ENDBRANCH   1   4
TORSDOF 1
ENDMDL
MODEL 4
REMARK VINA RESULT:      -3.4      1.598      1.598
REMARK  1 active torsions:
REMARK  status: ('A' for Active; 'I' for Inactive)
REMARK    1  A    between atoms: C1_1  and  C2_2 
ROOT
HETATM    1  C2  UNL     1     -34.597   5.425   4.787  1.00 20.00     0.294 C 
HETATM    2  F4  UNL     1     -34.127   4.218   4.374  1.00 20.00    -0.230 F 
HETATM    3 CL5  UNL     1     -33.554   6.707   4.144  1.00 20.00    -0.087 Cl
ENDROOT
BRANCH   1   4
HETATM    4  C1  UNL     1     -34.622   5.446   6.299  1.00 20.00     0.275 C 
HETATM    5  F3  UNL     1     -34.568   6.735   6.732  1.00 20.00    -0.251 F 
ENDBRANCH   1   4
TORSDOF 1
ENDMDL
MODEL 5
REMARK VINA RESULT:      -3.4      2.011      2.655
REMARK  1 active torsions:
REMARK  status: ('A' for Active; 'I' for Inactive)
REMARK    1  A    between atoms: C1_1  and  C2_2 
ROOT
HETATM    1  C2  UNL     1     -34.850   5.352   4.725  1.00 20.00     0.294 C 
HETATM    2  F4  UNL     1     -35.998   5.951   4.313  1.00 20.00    -0.230 F 
HETATM    3 CL5  UNL     1     -34.557   5.764   6.425  1.00 20.00    -0.087 Cl
ENDROOT
BRANCH   1   4
HETATM    4  C1  UNL     1     -33.713   5.819   3.845  1.00 20.00     0.275 C 
HETATM    5  F3  UNL     1     -33.260   4.773   3.102  1.00 20.00    -0.251 F 
ENDBRANCH   1   4
TORSDOF 1
ENDMDL
MODEL 6
REMARK VINA RESULT:      -3.4      1.456      1.804
REMARK  1 active torsions:
REMARK  status: ('A' for Active; 'I' for Inactive)
REMARK    1  A    between atoms: C1_1  and  C2_2 
ROOT
HETATM    1  C2  UNL     1     -34.656   6.213   5.421  1.00 20.00     0.294 C 
HETATM    2  F4  UNL     1     -34.547   6.048   6.766  1.00 20.00    -0.230 F 
HETATM    3 CL5  UNL     1     -34.346   4.663   4.618  1.00 20.00    -0.087 Cl
ENDROOT
BRANCH   1   4
HETATM    4  C1  UNL     1     -33.668   7.267   4.976  1.00 20.00     0.275 C 
HETATM    5  F3  UNL     1     -33.922   8.429   5.636  1.00 20.00    -0.251 F 
ENDBRANCH   1   4
TORSDOF 1
ENDMDL
MODEL 7
REMARK VINA RESULT:      -3.4      1.460      1.615
REMARK  1 active torsions:
REMARK  status: ('A' for Active; 'I' for Inactive)
REMARK    1  A    between atoms: C1_1  and  C2_2 
ROOT
HETATM    1  C2  UNL     1     -34.513   5.905   4.793  1.00 20.00     0.294 C 
HETATM    2  F4  UNL     1     -35.794   6.039   4.361  1.00 20.00    -0.230 F 
HETATM    3 CL5  UNL     1     -34.521   5.275   6.451  1.00 20.00    -0.087 Cl
ENDROOT
BRANCH   1   4
HETATM    4  C1  UNL     1     -33.831   7.253   4.724  1.00 20.00     0.275 C 
HETATM    5  F3  UNL     1     -34.004   7.907   5.905  1.00 20.00    -0.251 F 
ENDBRANCH   1   4
TORSDOF 1
ENDMDL
MODEL 8
REMARK VINA RESULT:      -3.3      1.382      1.382
REMARK  1 active torsions:
REMARK  status: ('A' for Active; 'I' for Inactive)
REMARK    1  A    between atoms: C1_1  and  C2_2 
ROOT
HETATM    1  C2  UNL     1     -34.525   5.660   4.559  1.00 20.00     0.294 C 
HETATM    2  F4  UNL     1     -34.580   4.525   5.305  1.00 20.00    -0.230 F 
HETATM    3 CL5  UNL     1     -33.401   5.414   3.209  1.00 20.00    -0.087 Cl
ENDROOT
BRANCH   1   4
HETATM    4  C1  UNL     1     -34.077   6.802   5.443  1.00 20.00     0.275 C 
HETATM    5  F3  UNL     1     -34.507   6.584   6.714  1.00 20.00    -0.251 F 
ENDBRANCH   1   4
TORSDOF 1
ENDMDL
MODEL 9
REMARK VINA RESULT:      -3.3      2.559      2.806
REMARK  1 active torsions:
REMARK  status: ('A' for Active; 'I' for Inactive)
REMARK    1  A    between atoms: C1_1  and  C2_2 
ROOT
HETATM    1  C2  UNL     1     -34.378   6.377   4.809  1.00 20.00     0.294 C 
HETATM    2  F4  UNL     1     -33.313   6.511   3.976  1.00 20.00    -0.230 F 
HETATM    3 CL5  UNL     1     -34.001   7.143   6.363  1.00 20.00    -0.087 Cl
ENDROOT
BRANCH   1   4
HETATM    4  C1  UNL     1     -34.679   4.905   4.983  1.00 20.00     0.275 C 
HETATM    5  F3  UNL     1     -33.888   4.182   4.146  1.00 20.00    -0.251 F 
ENDBRANCH   1   4
TORSDOF 1
ENDMDL
