MODEL 1
REMARK VINA RESULT:      -4.4      0.000      0.000
REMARK  2 active torsions:
REMARK  status: ('A' for Active; 'I' for Inactive)
REMARK    1  A    between atoms: C1_1  and  C3_3 
REMARK    2  A    between atoms: C3_3  and  C4_4 
ROOT
HETATM    1  C1  UNL     1     -33.920   6.936   5.896  1.00 20.00     0.162 C 
HETATM    2  C2  UNL     1     -34.762   5.959   5.543  1.00 20.00     0.301 C 
HETATM    3  F5  UNL     1     -33.095   6.709   6.944  1.00 20.00    -0.205 F 
HETATM    4  F6  UNL     1     -34.790   4.796   6.226  1.00 20.00    -0.170 F 
HETATM    5  F7  UNL     1     -35.588   6.137   4.491  1.00 20.00    -0.170 F 
ENDROOT
BRANCH   1   6
HETATM    6  C3  UNL     1     -33.818   8.260   5.198  1.00 20.00     0.086 C 
BRANCH   6   7
HETATM    7  C4  UNL     1     -32.439   8.441   4.565  1.00 20.00     0.086 C 
HETATM    8  I8  UNL     1     -32.281   7.294   2.765  1.00 20.00    -0.090 I 
ENDBRANCH   6   7
ENDBRANCH   1   6
TORSDOF 2
ENDMDL
MODEL 2
REMARK VINA RESULT:      -4.3      3.194      3.870
REMARK  2 active torsions:
REMARK  status: ('A' for Active; 'I' for Inactive)
REMARK    1  A    between atoms: C1_1  and  C3_3 
REMARK    2  A    between atoms: C3_3  and  C4_4 
ROOT
HETATM    1  C1  UNL     1     -32.460   8.235   3.712  1.00 20.00     0.162 C 
HETATM    2  C2  UNL     1     -32.310   7.342   2.727  1.00 20.00     0.301 C 
HETATM    3  F5  UNL     1     -32.365   9.546   3.392  1.00 20.00    -0.205 F 
HETATM    4  F6  UNL     1     -32.058   7.745   1.465  1.00 20.00    -0.170 F 
HETATM    5  F7  UNL     1     -32.416   6.025   3.000  1.00 20.00    -0.170 F 
ENDROOT
BRANCH   1   6
HETATM    6  C3  UNL     1     -32.741   7.881   5.141  1.00 20.00     0.086 C 
BRANCH   6   7
HETATM    7  C4  UNL     1     -34.232   7.627   5.360  1.00 20.00     0.086 C 
HETATM    8  I8  UNL     1     -34.594   5.552   5.738  1.00 20.00    -0.090 I 
ENDBRANCH   6   7
ENDBRANCH   1   6
TORSDOF 2
ENDMDL
MODEL 3
REMARK VINA RESULT:      -4.0      1.661      2.128
REMARK  2 active torsions:
REMARK  status: ('A' for Active; 'I' for Inactive)
REMARK    1  A    between atoms: C1_1  and  C3_3 
REMARK    2  A    between atoms: C3_3  and  C4_4 
ROOT
HETATM    1  C1  UNL     1     -34.520   5.405   5.204  1.00 20.00     0.162 C 
HETATM    2  C2  UNL     1     -33.981   4.661   4.232  1.00 20.00     0.301 C 
HETATM    3  F5  UNL     1     -34.816   4.795   6.375  1.00 20.00    -0.205 F 
HETATM    4  F6  UNL     1     -33.759   3.343   4.419  1.00 20.00    -0.170 F 
HETATM    5  F7  UNL     1     -33.654   5.234   3.056  1.00 20.00    -0.170 F 
ENDROOT
BRANCH   1   6
HETATM    6  C3  UNL     1     -34.803   6.873   5.088  1.00 20.00     0.086 C 
BRANCH   6   7
HETATM    7  C4  UNL     1     -33.648   7.700   5.649  1.00 20.00     0.086 C 
HETATM    8  I8  UNL     1     -32.383   8.396   4.069  1.00 20.00    -0.090 I 
ENDBRANCH   6   7
ENDBRANCH   1   6
TORSDOF 2
ENDMDL
MODEL 4
REMARK VINA RESULT:      -3.9      1.891      2.670
REMARK  2 active torsions:
REMARK  status: ('A' for Active; 'I' for Inactive)
REMARK    1  A    between atoms: C1_1  and  C3_3 
REMARK    2  A    between atoms: C3_3  and  C4_4 
ROOT
HETATM    1  C1  UNL     1     -34.675   5.471   4.821  1.00 20.00     0.162 C 
HETATM    2  C2  UNL     1     -34.566   5.470   6.155  1.00 20.00     0.301 C 
HETATM    3  F5  UNL     1     -35.772   6.048   4.279  1.00 20.00    -0.205 F 
HETATM    4  F6  UNL     1     -35.531   6.016   6.923  1.00 20.00    -0.170 F 
HETATM    5  F7  UNL     1     -33.479   4.922   6.735  1.00 20.00    -0.170 F 
ENDROOT
BRANCH   1   6
HETATM    6  C3  UNL     1     -33.656   4.889   3.888  1.00 20.00     0.086 C 
BRANCH   6   7
HETATM    7  C4  UNL     1     -33.138   5.945   2.914  1.00 20.00     0.086 C 
HETATM    8  I8  UNL     1     -32.662   7.757   3.950  1.00 20.00    -0.090 I 
ENDBRANCH   6   7
ENDBRANCH   1   6
TORSDOF 2
ENDMDL
MODEL 5
REMARK VINA RESULT:      -3.9      1.128      1.775
REMARK  2 active torsions:
REMARK  status: ('A' for Active; 'I' for Inactive)
REMARK    1  A    between atoms: C1_1  and  C3_3 
REMARK    2  A    between atoms: C3_3  and  C4_4 
ROOT
HETATM    1  C1  UNL     1     -34.060   6.611   4.897  1.00 20.00     0.162 C 
HETATM    2  C2  UNL     1     -34.504   6.245   6.105  1.00 20.00     0.301 C 
HETATM    3  F5  UNL     1     -34.068   5.682   3.914  1.00 20.00    -0.205 F 
HETATM    4  F6  UNL     1     -34.927   4.983   6.327  1.00 20.00    -0.170 F 
HETATM    5  F7  UNL     1     -34.531   7.146   7.108  1.00 20.00    -0.170 F 
ENDROOT
BRANCH   1   6
HETATM    6  C3  UNL     1     -33.570   7.987   4.557  1.00 20.00     0.086 C 
BRANCH   6   7
HETATM    7  C4  UNL     1     -32.202   7.930   3.879  1.00 20.00     0.086 C 
HETATM    8  I8  UNL     1     -32.381   8.343   1.787  1.00 20.00    -0.090 I 
ENDBRANCH   6   7
ENDBRANCH   1   6
TORSDOF 2
ENDMDL
MODEL 6
REMARK VINA RESULT:      -3.9      3.364      4.158
REMARK  2 active torsions:
REMARK  status: ('A' for Active; 'I' for Inactive)
REMARK    1  A    between atoms: C1_1  and  C3_3 
REMARK    2  A    between atoms: C3_3  and  C4_4 
ROOT
HETATM    1  C1  UNL     1     -32.404   7.596   3.351  1.00 20.00     0.162 C 
HETATM    2  C2  UNL     1     -32.418   8.451   2.323  1.00 20.00     0.301 C 
HETATM    3  F5  UNL     1     -32.152   6.294   3.083  1.00 20.00    -0.205 F 
HETATM    4  F6  UNL     1     -32.203   8.017   1.064  1.00 20.00    -0.170 F 
HETATM    5  F7  UNL     1     -32.646   9.762   2.548  1.00 20.00    -0.170 F 
ENDROOT
BRANCH   1   6
HETATM    6  C3  UNL     1     -32.633   7.986   4.781  1.00 20.00     0.086 C 
BRANCH   6   7
HETATM    7  C4  UNL     1     -34.101   7.814   5.168  1.00 20.00     0.086 C 
HETATM    8  I8  UNL     1     -34.463   5.831   5.888  1.00 20.00    -0.090 I 
ENDBRANCH   6   7
ENDBRANCH   1   6
TORSDOF 2
ENDMDL
MODEL 7
REMARK VINA RESULT:      -3.9      2.644      3.750
REMARK  2 active torsions:
REMARK  status: ('A' for Active; 'I' for Inactive)
REMARK    1  A    between atoms: C1_1  and  C3_3 
REMARK    2  A    between atoms: C3_3  and  C4_4 
ROOT
HETATM    1  C1  UNL     1     -33.407   8.154   4.752  1.00 20.00     0.162 C 
HETATM    2  C2  UNL     1     -32.433   8.323   3.852  1.00 20.00     0.301 C 
HETATM    3  F5  UNL     1     -34.648   8.581   4.425  1.00 20.00    -0.205 F 
HETATM    4  F6  UNL     1     -32.687   8.916   2.667  1.00 20.00    -0.170 F 
HETATM    5  F7  UNL     1     -31.185   7.893   4.130  1.00 20.00    -0.170 F 
ENDROOT
BRANCH   1   6
HETATM    6  C3  UNL     1     -33.220   7.507   6.092  1.00 20.00     0.086 C 
BRANCH   6   7
HETATM    7  C4  UNL     1     -34.360   6.538   6.399  1.00 20.00     0.086 C 
HETATM    8  I8  UNL     1     -34.573   5.105   4.824  1.00 20.00    -0.090 I 
ENDBRANCH   6   7
ENDBRANCH   1   6
TORSDOF 2
ENDMDL
MODEL 8
REMARK VINA RESULT:      -3.7      1.865      2.954
REMARK  2 active torsions:
REMARK  status: ('A' for Active; 'I' for Inactive)
REMARK    1  A    between atoms: C1_1  and  C3_3 
REMARK    2  A    between atoms: C3_3  and  C4_4 
ROOT
HETATM    1  C1  UNL     1     -33.697   7.214   5.520  1.00 20.00     0.162 C 
HETATM    2  C2  UNL     1     -33.133   8.239   4.871  1.00 20.00     0.301 C 
HETATM    3  F5  UNL     1     -33.215   6.903   6.745  1.00 20.00    -0.205 F 
HETATM    4  F6  UNL     1     -32.109   8.922   5.422  1.00 20.00    -0.170 F 
HETATM    5  F7  UNL     1     -33.596   8.595   3.655  1.00 20.00    -0.170 F 
ENDROOT
BRANCH   1   6
HETATM    6  C3  UNL     1     -34.836   6.398   4.987  1.00 20.00     0.086 C 
BRANCH   6   7
HETATM    7  C4  UNL     1     -34.367   5.002   4.580  1.00 20.00     0.086 C 
HETATM    8  I8  UNL     1     -33.118   5.103   2.845  1.00 20.00    -0.090 I 
ENDBRANCH   6   7
ENDBRANCH   1   6
TORSDOF 2
ENDMDL
MODEL 9
REMARK VINA RESULT:      -3.7      3.079      4.153
REMARK  2 active torsions:
REMARK  status: ('A' for Active; 'I' for Inactive)
REMARK    1  A    between atoms: C1_1  and  C3_3 
REMARK    2  A    between atoms: C3_3  and  C4_4 
ROOT
HETATM    1  C1  UNL     1     -32.463   7.446   3.235  1.00 20.00     0.162 C 
HETATM    2  C2  UNL     1     -32.393   8.385   4.184  1.00 20.00     0.301 C 
HETATM    3  F5  UNL     1     -32.220   7.821   1.958  1.00 20.00    -0.205 F 
HETATM    4  F6  UNL     1     -32.106   9.664   3.866  1.00 20.00    -0.170 F 
HETATM    5  F7  UNL     1     -32.608   8.050   5.473  1.00 20.00    -0.170 F 
ENDROOT
BRANCH   1   6
HETATM    6  C3  UNL     1     -32.775   6.002   3.494  1.00 20.00     0.086 C 
BRANCH   6   7
HETATM    7  C4  UNL     1     -34.262   5.807   3.788  1.00 20.00     0.086 C 
HETATM    8  I8  UNL     1     -34.573   5.427   5.871  1.00 20.00    -0.090 I 
ENDBRANCH   6   7
ENDBRANCH   1   6
TORSDOF 2
ENDMDL
