MODEL 1
REMARK VINA RESULT:      -6.2      0.000      0.000
REMARK  0 active torsions:
REMARK  status: ('A' for Active; 'I' for Inactive)
ROOT
HETATM    1  C1  UNL     1     -32.960   6.701   3.712  1.00 20.00     0.059 C 
HETATM    2  C2  UNL     1     -33.698   5.590   3.869  1.00 20.00     0.059 C 
HETATM    3  C3  UNL     1     -33.301   7.705   4.765  1.00 20.00     0.332 C 
HETATM    4  C4  UNL     1     -34.611   5.731   5.042  1.00 20.00     0.332 C 
HETATM    5  C5  UNL     1     -33.896   6.808   5.832  1.00 20.00     0.379 C 
HETATM    6  F6  UNL     1     -32.253   8.408   5.240  1.00 20.00    -0.195 F 
HETATM    7  F7  UNL     1     -34.223   8.588   4.312  1.00 20.00    -0.195 F 
HETATM    8  F8  UNL     1     -35.837   6.156   4.654  1.00 20.00    -0.195 F 
HETATM    9  F9  UNL     1     -34.774   4.610   5.774  1.00 20.00    -0.195 F 
HETATM   10  F10 UNL     1     -34.695   7.460   6.688  1.00 20.00    -0.192 F 
HETATM   11  F11 UNL     1     -32.893   6.245   6.555  1.00 20.00    -0.192 F 
ENDROOT
TORSDOF 0
ENDMDL
MODEL 2
REMARK VINA RESULT:      -5.4      1.211      2.727
REMARK  0 active torsions:
REMARK  status: ('A' for Active; 'I' for Inactive)
ROOT
HETATM    1  C1  UNL     1     -34.350   4.694   5.184  1.00 20.00     0.059 C 
HETATM    2  C2  UNL     1     -33.859   5.183   6.333  1.00 20.00     0.059 C 
HETATM    3  C3  UNL     1     -34.721   5.807   4.259  1.00 20.00     0.332 C 
HETATM    4  C4  UNL     1     -33.847   6.677   6.303  1.00 20.00     0.332 C 
HETATM    5  C5  UNL     1     -33.864   6.930   4.809  1.00 20.00     0.379 C 
HETATM    6  F6  UNL     1     -34.457   5.577   2.958  1.00 20.00    -0.195 F 
HETATM    7  F7  UNL     1     -36.036   6.111   4.370  1.00 20.00    -0.195 F 
HETATM    8  F8  UNL     1     -34.960   7.182   6.886  1.00 20.00    -0.195 F 
HETATM    9  F9  UNL     1     -32.776   7.249   6.887  1.00 20.00    -0.195 F 
HETATM   10  F10 UNL     1     -34.313   8.150   4.481  1.00 20.00    -0.192 F 
HETATM   11  F11 UNL     1     -32.602   6.812   4.319  1.00 20.00    -0.192 F 
ENDROOT
TORSDOF 0
ENDMDL
MODEL 3
REMARK VINA RESULT:      -5.3      1.306      3.273
REMARK  0 active torsions:
REMARK  status: ('A' for Active; 'I' for Inactive)
ROOT
HETATM    1  C1  UNL     1     -34.502   6.007   6.165  1.00 20.00     0.059 C 
HETATM    2  C2  UNL     1     -33.687   7.074   6.130  1.00 20.00     0.059 C 
HETATM    3  C3  UNL     1     -34.826   5.553   4.778  1.00 20.00     0.332 C 
HETATM    4  C4  UNL     1     -33.377   7.448   4.718  1.00 20.00     0.332 C 
HETATM    5  C5  UNL     1     -33.660   6.140   4.008  1.00 20.00     0.379 C 
HETATM    6  F6  UNL     1     -34.898   4.217   4.621  1.00 20.00    -0.195 F 
HETATM    7  F7  UNL     1     -35.996   6.087   4.355  1.00 20.00    -0.195 F 
HETATM    8  F8  UNL     1     -34.212   8.420   4.279  1.00 20.00    -0.195 F 
HETATM    9  F9  UNL     1     -32.111   7.862   4.504  1.00 20.00    -0.195 F 
HETATM   10  F10 UNL     1     -33.909   6.287   2.699  1.00 20.00    -0.192 F 
HETATM   11  F11 UNL     1     -32.583   5.320   4.131  1.00 20.00    -0.192 F 
ENDROOT
TORSDOF 0
ENDMDL
MODEL 4
REMARK VINA RESULT:      -5.2      1.251      3.098
REMARK  0 active torsions:
REMARK  status: ('A' for Active; 'I' for Inactive)
ROOT
HETATM    1  C1  UNL     1     -35.432   5.800   4.697  1.00 20.00     0.059 C 
HETATM    2  C2  UNL     1     -34.897   6.868   4.086  1.00 20.00     0.059 C 
HETATM    3  C3  UNL     1     -34.600   5.401   5.873  1.00 20.00     0.332 C 
HETATM    4  C4  UNL     1     -33.650   7.301   4.785  1.00 20.00     0.332 C 
HETATM    5  C5  UNL     1     -33.872   6.699   6.159  1.00 20.00     0.379 C 
HETATM    6  F6  UNL     1     -35.298   4.981   6.947  1.00 20.00    -0.195 F 
HETATM    7  F7  UNL     1     -33.723   4.425   5.538  1.00 20.00    -0.195 F 
HETATM    8  F8  UNL     1     -32.554   6.765   4.199  1.00 20.00    -0.195 F 
HETATM    9  F9  UNL     1     -33.472   8.636   4.856  1.00 20.00    -0.195 F 
HETATM   10  F10 UNL     1     -32.739   6.531   6.855  1.00 20.00    -0.192 F 
HETATM   11  F11 UNL     1     -34.680   7.517   6.883  1.00 20.00    -0.192 F 
ENDROOT
TORSDOF 0
ENDMDL
MODEL 5
REMARK VINA RESULT:      -5.1      1.069      3.244
REMARK  0 active torsions:
REMARK  status: ('A' for Active; 'I' for Inactive)
ROOT
HETATM    1  C1  UNL     1     -33.478   5.859   4.028  1.00 20.00     0.059 C 
HETATM    2  C2  UNL     1     -32.728   6.661   3.256  1.00 20.00     0.059 C 
HETATM    3  C3  UNL     1     -33.975   6.604   5.224  1.00 20.00     0.332 C 
HETATM    4  C4  UNL     1     -32.641   8.028   3.851  1.00 20.00     0.332 C 
HETATM    5  C5  UNL     1     -33.874   8.033   4.732  1.00 20.00     0.379 C 
HETATM    6  F6  UNL     1     -35.232   6.300   5.602  1.00 20.00    -0.195 F 
HETATM    7  F7  UNL     1     -33.161   6.407   6.289  1.00 20.00    -0.195 F 
HETATM    8  F8  UNL     1     -31.519   8.161   4.598  1.00 20.00    -0.195 F 
HETATM    9  F9  UNL     1     -32.667   9.040   2.960  1.00 20.00    -0.195 F 
HETATM   10  F10 UNL     1     -33.817   8.934   5.723  1.00 20.00    -0.192 F 
HETATM   11  F11 UNL     1     -34.965   8.325   3.975  1.00 20.00    -0.192 F 
ENDROOT
TORSDOF 0
ENDMDL
MODEL 6
REMARK VINA RESULT:      -5.0      1.287      2.568
REMARK  0 active torsions:
REMARK  status: ('A' for Active; 'I' for Inactive)
ROOT
HETATM    1  C1  UNL     1     -33.944   7.933   6.003  1.00 20.00     0.059 C 
HETATM    2  C2  UNL     1     -34.369   6.943   6.804  1.00 20.00     0.059 C 
HETATM    3  C3  UNL     1     -33.624   7.402   4.643  1.00 20.00     0.332 C 
HETATM    4  C4  UNL     1     -34.379   5.643   6.068  1.00 20.00     0.332 C 
HETATM    5  C5  UNL     1     -34.446   6.129   4.634  1.00 20.00     0.379 C 
HETATM    6  F6  UNL     1     -33.961   8.214   3.622  1.00 20.00    -0.195 F 
HETATM    7  F7  UNL     1     -32.304   7.119   4.532  1.00 20.00    -0.195 F 
HETATM    8  F8  UNL     1     -33.234   4.953   6.286  1.00 20.00    -0.195 F 
HETATM    9  F9  UNL     1     -35.415   4.831   6.362  1.00 20.00    -0.195 F 
HETATM   10  F10 UNL     1     -34.015   5.224   3.745  1.00 20.00    -0.192 F 
HETATM   11  F11 UNL     1     -35.734   6.429   4.322  1.00 20.00    -0.192 F 
ENDROOT
TORSDOF 0
ENDMDL
MODEL 7
REMARK VINA RESULT:      -5.0      1.522      2.876
REMARK  0 active torsions:
REMARK  status: ('A' for Active; 'I' for Inactive)
ROOT
HETATM    1  C1  UNL     1     -33.234   7.320   4.238  1.00 20.00     0.059 C 
HETATM    2  C2  UNL     1     -33.569   7.484   5.528  1.00 20.00     0.059 C 
HETATM    3  C3  UNL     1     -33.627   5.958   3.767  1.00 20.00     0.332 C 
HETATM    4  C4  UNL     1     -34.223   6.251   6.059  1.00 20.00     0.332 C 
HETATM    5  C5  UNL     1     -34.705   5.609   4.774  1.00 20.00     0.379 C 
HETATM    6  F6  UNL     1     -34.097   5.907   2.504  1.00 20.00    -0.195 F 
HETATM    7  F7  UNL     1     -32.588   5.094   3.860  1.00 20.00    -0.195 F 
HETATM    8  F8  UNL     1     -33.322   5.454   6.682  1.00 20.00    -0.195 F 
HETATM    9  F9  UNL     1     -35.243   6.470   6.913  1.00 20.00    -0.195 F 
HETATM   10  F10 UNL     1     -34.921   4.291   4.885  1.00 20.00    -0.192 F 
HETATM   11  F11 UNL     1     -35.876   6.186   4.395  1.00 20.00    -0.192 F 
ENDROOT
TORSDOF 0
ENDMDL
MODEL 8
REMARK VINA RESULT:      -4.9      8.205      9.512
REMARK  0 active torsions:
REMARK  status: ('A' for Active; 'I' for Inactive)
ROOT
HETATM    1  C1  UNL     1     -42.467   7.406   1.394  1.00 20.00     0.059 C 
HETATM    2  C2  UNL     1     -43.082   6.234   1.620  1.00 20.00     0.059 C 
HETATM    3  C3  UNL     1     -41.288   7.211   0.497  1.00 20.00     0.332 C 
HETATM    4  C4  UNL     1     -42.384   5.129   0.897  1.00 20.00     0.332 C 
HETATM    5  C5  UNL     1     -41.661   5.908  -0.183  1.00 20.00     0.379 C 
HETATM    6  F6  UNL     1     -41.089   8.196  -0.401  1.00 20.00    -0.195 F 
HETATM    7  F7  UNL     1     -40.150   7.066   1.216  1.00 20.00    -0.195 F 
HETATM    8  F8  UNL     1     -41.499   4.503   1.709  1.00 20.00    -0.195 F 
HETATM    9  F9  UNL     1     -43.197   4.192   0.369  1.00 20.00    -0.195 F 
HETATM   10  F10 UNL     1     -40.608   5.256  -0.696  1.00 20.00    -0.192 F 
HETATM   11  F11 UNL     1     -42.521   6.165  -1.203  1.00 20.00    -0.192 F 
ENDROOT
TORSDOF 0
ENDMDL
MODEL 9
REMARK VINA RESULT:      -4.8      8.084      9.610
REMARK  0 active torsions:
REMARK  status: ('A' for Active; 'I' for Inactive)
ROOT
HETATM    1  C1  UNL     1     -42.947   6.414   1.655  1.00 20.00     0.059 C 
HETATM    2  C2  UNL     1     -42.805   7.653   1.160  1.00 20.00     0.059 C 
HETATM    3  C3  UNL     1     -42.073   5.454   0.915  1.00 20.00     0.332 C 
HETATM    4  C4  UNL     1     -41.821   7.658   0.036  1.00 20.00     0.332 C 
HETATM    5  C5  UNL     1     -41.036   6.398   0.341  1.00 20.00     0.379 C 
HETATM    6  F6  UNL     1     -41.503   4.500   1.678  1.00 20.00    -0.195 F 
HETATM    7  F7  UNL     1     -42.760   4.838  -0.077  1.00 20.00    -0.195 F 
HETATM    8  F8  UNL     1     -42.449   7.552  -1.159  1.00 20.00    -0.195 F 
HETATM    9  F9  UNL     1     -41.017   8.740  -0.012  1.00 20.00    -0.195 F 
HETATM   10  F10 UNL     1     -40.395   5.899  -0.725  1.00 20.00    -0.192 F 
HETATM   11  F11 UNL     1     -40.102   6.669   1.291  1.00 20.00    -0.192 F 
ENDROOT
TORSDOF 0
ENDMDL
