MODEL 1
REMARK VINA RESULT:      -4.2      0.000      0.000
REMARK  1 active torsions:
REMARK  status: ('A' for Active; 'I' for Inactive)
REMARK    1  A    between atoms: C2_2  and  C3_3 
ROOT
HETATM    1  C1  UNL     1     -34.673   5.565   6.364  1.00 20.00     0.071 C 
HETATM    2  C3  UNL     1     -34.620   5.813   4.864  1.00 20.00     0.187 C 
HETATM    3  F4  UNL     1     -35.892   5.997   4.413  1.00 20.00    -0.225 F 
HETATM    4 CL6  UNL     1     -33.710   7.326   4.560  1.00 20.00    -0.082 Cl
ENDROOT
BRANCH   2   5
HETATM    5  C2  UNL     1     -33.974   4.684   4.065  1.00 20.00     0.174 C 
HETATM    6 CL5  UNL     1     -32.998   5.295   2.704  1.00 20.00    -0.126 Cl
ENDBRANCH   2   5
TORSDOF 1
ENDMDL
MODEL 2
REMARK VINA RESULT:      -3.9      1.522      2.248
REMARK  1 active torsions:
REMARK  status: ('A' for Active; 'I' for Inactive)
REMARK    1  A    between atoms: C2_2  and  C3_3 
ROOT
HETATM    1  C1  UNL     1     -33.822   5.074   3.736  1.00 20.00     0.071 C 
HETATM    2  C3  UNL     1     -34.482   6.016   4.733  1.00 20.00     0.187 C 
HETATM    3  F4  UNL     1     -35.791   6.160   4.386  1.00 20.00    -0.225 F 
HETATM    4 CL6  UNL     1     -34.428   5.267   6.360  1.00 20.00    -0.082 Cl
ENDROOT
BRANCH   2   5
HETATM    5  C2  UNL     1     -33.838   7.398   4.809  1.00 20.00     0.174 C 
HETATM    6 CL5  UNL     1     -32.475   7.570   3.674  1.00 20.00    -0.126 Cl
ENDBRANCH   2   5
TORSDOF 1
ENDMDL
MODEL 3
REMARK VINA RESULT:      -3.8      2.401      3.046
REMARK  1 active torsions:
REMARK  status: ('A' for Active; 'I' for Inactive)
REMARK    1  A    between atoms: C2_2  and  C3_3 
ROOT
HETATM    1  C1  UNL     1     -32.223   8.262   4.519  1.00 20.00     0.071 C 
HETATM    2  C3  UNL     1     -33.508   7.473   4.727  1.00 20.00     0.187 C 
HETATM    3  F4  UNL     1     -34.556   8.245   4.324  1.00 20.00    -0.225 F 
HETATM    4 CL6  UNL     1     -33.469   6.018   3.682  1.00 20.00    -0.082 Cl
ENDROOT
BRANCH   2   5
HETATM    5  C2  UNL     1     -33.747   7.033   6.169  1.00 20.00     0.174 C 
HETATM    6 CL5  UNL     1     -34.683   5.520   6.266  1.00 20.00    -0.126 Cl
ENDBRANCH   2   5
TORSDOF 1
ENDMDL
MODEL 4
REMARK VINA RESULT:      -3.8      1.225      1.409
REMARK  1 active torsions:
REMARK  status: ('A' for Active; 'I' for Inactive)
REMARK    1  A    between atoms: C2_2  and  C3_3 
ROOT
HETATM    1  C1  UNL     1     -34.295   4.612   5.085  1.00 20.00     0.071 C 
HETATM    2  C3  UNL     1     -34.428   6.117   4.907  1.00 20.00     0.187 C 
HETATM    3  F4  UNL     1     -35.678   6.385   4.436  1.00 20.00    -0.225 F 
HETATM    4 CL6  UNL     1     -34.267   6.906   6.508  1.00 20.00    -0.082 Cl
ENDROOT
BRANCH   2   5
HETATM    5  C2  UNL     1     -33.404   6.729   3.955  1.00 20.00     0.174 C 
HETATM    6 CL5  UNL     1     -32.880   5.578   2.698  1.00 20.00    -0.126 Cl
ENDBRANCH   2   5
TORSDOF 1
ENDMDL
MODEL 5
REMARK VINA RESULT:      -3.6      1.876      2.326
REMARK  1 active torsions:
REMARK  status: ('A' for Active; 'I' for Inactive)
REMARK    1  A    between atoms: C2_2  and  C3_3 
ROOT
HETATM    1  C1  UNL     1     -34.508   5.763   6.388  1.00 20.00     0.071 C 
HETATM    2  C3  UNL     1     -34.415   5.714   4.870  1.00 20.00     0.187 C 
HETATM    3  F4  UNL     1     -34.054   4.453   4.503  1.00 20.00    -0.225 F 
HETATM    4 CL6  UNL     1     -36.036   6.040   4.179  1.00 20.00    -0.082 Cl
ENDROOT
BRANCH   2   5
HETATM    5  C2  UNL     1     -33.420   6.704   4.271  1.00 20.00     0.174 C 
HETATM    6 CL5  UNL     1     -33.343   8.226   5.196  1.00 20.00    -0.126 Cl
ENDBRANCH   2   5
TORSDOF 1
ENDMDL
MODEL 6
REMARK VINA RESULT:      -3.6      1.636      1.671
REMARK  1 active torsions:
REMARK  status: ('A' for Active; 'I' for Inactive)
REMARK    1  A    between atoms: C2_2  and  C3_3 
ROOT
HETATM    1  C1  UNL     1     -34.422   6.001   6.365  1.00 20.00     0.071 C 
HETATM    2  C3  UNL     1     -34.425   5.641   4.886  1.00 20.00     0.187 C 
HETATM    3  F4  UNL     1     -34.213   4.301   4.770  1.00 20.00    -0.225 F 
HETATM    4 CL6  UNL     1     -36.044   5.998   4.206  1.00 20.00    -0.082 Cl
ENDROOT
BRANCH   2   5
HETATM    5  C2  UNL     1     -33.374   6.379   4.060  1.00 20.00     0.174 C 
HETATM    6 CL5  UNL     1     -32.852   5.438   2.639  1.00 20.00    -0.126 Cl
ENDBRANCH   2   5
TORSDOF 1
ENDMDL
MODEL 7
REMARK VINA RESULT:      -3.6      2.067      2.078
REMARK  1 active torsions:
REMARK  status: ('A' for Active; 'I' for Inactive)
REMARK    1  A    between atoms: C2_2  and  C3_3 
ROOT
HETATM    1  C1  UNL     1     -33.729   7.130   6.281  1.00 20.00     0.071 C 
HETATM    2  C3  UNL     1     -33.598   7.385   4.787  1.00 20.00     0.187 C 
HETATM    3  F4  UNL     1     -34.607   8.217   4.403  1.00 20.00    -0.225 F 
HETATM    4 CL6  UNL     1     -32.048   8.228   4.477  1.00 20.00    -0.082 Cl
ENDROOT
BRANCH   2   5
HETATM    5  C2  UNL     1     -33.649   6.123   3.929  1.00 20.00     0.174 C 
HETATM    6 CL5  UNL     1     -34.514   4.792   4.740  1.00 20.00    -0.126 Cl
ENDBRANCH   2   5
TORSDOF 1
ENDMDL
MODEL 8
REMARK VINA RESULT:      -3.4      1.449      2.813
REMARK  1 active torsions:
REMARK  status: ('A' for Active; 'I' for Inactive)
REMARK    1  A    between atoms: C2_2  and  C3_3 
ROOT
HETATM    1  C1  UNL     1     -33.693   6.820   4.056  1.00 20.00     0.071 C 
HETATM    2  C3  UNL     1     -34.570   5.745   4.680  1.00 20.00     0.187 C 
HETATM    3  F4  UNL     1     -35.835   5.888   4.196  1.00 20.00    -0.225 F 
HETATM    4 CL6  UNL     1     -33.969   4.137   4.166  1.00 20.00    -0.082 Cl
ENDROOT
BRANCH   2   5
HETATM    5  C2  UNL     1     -34.620   5.784   6.205  1.00 20.00     0.174 C 
HETATM    6 CL5  UNL     1     -34.157   7.379   6.854  1.00 20.00    -0.126 Cl
ENDBRANCH   2   5
TORSDOF 1
ENDMDL
MODEL 9
REMARK VINA RESULT:      -3.4      1.471      2.417
REMARK  1 active torsions:
REMARK  status: ('A' for Active; 'I' for Inactive)
REMARK    1  A    between atoms: C2_2  and  C3_3 
ROOT
HETATM    1  C1  UNL     1     -35.735   5.966   4.333  1.00 20.00     0.071 C 
HETATM    2  C3  UNL     1     -34.286   5.840   4.779  1.00 20.00     0.187 C 
HETATM    3  F4  UNL     1     -34.172   4.732   5.563  1.00 20.00    -0.225 F 
HETATM    4 CL6  UNL     1     -33.254   5.594   3.334  1.00 20.00    -0.082 Cl
ENDROOT
BRANCH   2   5
HETATM    5  C2  UNL     1     -33.762   7.046   5.554  1.00 20.00     0.174 C 
HETATM    6 CL5  UNL     1     -32.567   7.982   4.619  1.00 20.00    -0.126 Cl
ENDBRANCH   2   5
TORSDOF 1
ENDMDL
