MODEL 1
REMARK VINA RESULT:      -4.6      0.000      0.000
REMARK  1 active torsions:
REMARK  status: ('A' for Active; 'I' for Inactive)
REMARK    1  A    between atoms: C1_1  and  C2_2 
ROOT
HETATM    1  C2  UNL     1     -34.749   5.952   4.742  1.00 20.00     0.299 C 
HETATM    2  F4  UNL     1     -36.044   6.187   4.397  1.00 20.00    -0.203 F 
HETATM    3 CL6  UNL     1     -33.849   7.488   4.602  1.00 20.00    -0.061 Cl
HETATM    4 CL7  UNL     1     -34.694   5.405   6.437  1.00 20.00    -0.061 Cl
ENDROOT
BRANCH   1   5
HETATM    5  C1  UNL     1     -34.160   4.916   3.793  1.00 20.00     0.336 C 
HETATM    6  F3  UNL     1     -33.689   3.866   4.522  1.00 20.00    -0.227 F 
HETATM    7 CL5  UNL     1     -32.804   5.569   2.840  1.00 20.00    -0.083 Cl
ENDBRANCH   1   5
TORSDOF 1
ENDMDL
MODEL 2
REMARK VINA RESULT:      -4.5      1.639      2.342
REMARK  1 active torsions:
REMARK  status: ('A' for Active; 'I' for Inactive)
REMARK    1  A    between atoms: C1_1  and  C2_2 
ROOT
HETATM    1  C2  UNL     1     -34.575   5.907   4.763  1.00 20.00     0.299 C 
HETATM    2  F4  UNL     1     -35.867   6.040   4.355  1.00 20.00    -0.203 F 
HETATM    3 CL6  UNL     1     -34.535   6.064   6.541  1.00 20.00    -0.061 Cl
HETATM    4 CL7  UNL     1     -33.993   4.284   4.314  1.00 20.00    -0.061 Cl
ENDROOT
BRANCH   1   5
HETATM    5  C1  UNL     1     -33.736   7.007   4.124  1.00 20.00     0.336 C 
HETATM    6  F3  UNL     1     -32.766   6.434   3.358  1.00 20.00    -0.227 F 
HETATM    7 CL5  UNL     1     -32.933   8.033   5.339  1.00 20.00    -0.083 Cl
ENDBRANCH   1   5
TORSDOF 1
ENDMDL
MODEL 3
REMARK VINA RESULT:      -4.4      1.657      2.645
REMARK  1 active torsions:
REMARK  status: ('A' for Active; 'I' for Inactive)
REMARK    1  A    between atoms: C1_1  and  C2_2 
ROOT
HETATM    1  C2  UNL     1     -34.301   6.060   4.747  1.00 20.00     0.299 C 
HETATM    2  F4  UNL     1     -35.539   6.459   4.348  1.00 20.00    -0.203 F 
HETATM    3 CL6  UNL     1     -34.438   5.387   6.395  1.00 20.00    -0.061 Cl
HETATM    4 CL7  UNL     1     -33.725   4.781   3.648  1.00 20.00    -0.061 Cl
ENDROOT
BRANCH   1   5
HETATM    5  C1  UNL     1     -33.367   7.264   4.753  1.00 20.00     0.336 C 
HETATM    6  F3  UNL     1     -34.114   8.403   4.734  1.00 20.00    -0.227 F 
HETATM    7 CL5  UNL     1     -32.296   7.293   3.330  1.00 20.00    -0.083 Cl
ENDBRANCH   1   5
TORSDOF 1
ENDMDL
MODEL 4
REMARK VINA RESULT:      -4.2      1.685      2.769
REMARK  1 active torsions:
REMARK  status: ('A' for Active; 'I' for Inactive)
REMARK    1  A    between atoms: C1_1  and  C2_2 
ROOT
HETATM    1  C2  UNL     1     -34.318   5.655   4.707  1.00 20.00     0.299 C 
HETATM    2  F4  UNL     1     -34.314   4.435   5.311  1.00 20.00    -0.203 F 
HETATM    3 CL6  UNL     1     -33.290   5.558   3.250  1.00 20.00    -0.061 Cl
HETATM    4 CL7  UNL     1     -35.985   6.046   4.212  1.00 20.00    -0.061 Cl
ENDROOT
BRANCH   1   5
HETATM    5  C1  UNL     1     -33.756   6.691   5.673  1.00 20.00     0.336 C 
HETATM    6  F3  UNL     1     -34.614   6.830   6.721  1.00 20.00    -0.227 F 
HETATM    7 CL5  UNL     1     -33.566   8.289   4.910  1.00 20.00    -0.083 Cl
ENDBRANCH   1   5
TORSDOF 1
ENDMDL
MODEL 5
REMARK VINA RESULT:      -4.1      2.299      3.185
REMARK  1 active torsions:
REMARK  status: ('A' for Active; 'I' for Inactive)
REMARK    1  A    between atoms: C1_1  and  C2_2 
ROOT
HETATM    1  C2  UNL     1     -33.644   7.408   4.694  1.00 20.00     0.299 C 
HETATM    2  F4  UNL     1     -34.628   8.196   4.180  1.00 20.00    -0.203 F 
HETATM    3 CL6  UNL     1     -33.476   5.973   3.644  1.00 20.00    -0.061 Cl
HETATM    4 CL7  UNL     1     -32.112   8.317   4.678  1.00 20.00    -0.061 Cl
ENDROOT
BRANCH   1   5
HETATM    5  C1  UNL     1     -34.035   6.979   6.103  1.00 20.00     0.336 C 
HETATM    6  F3  UNL     1     -32.916   6.934   6.878  1.00 20.00    -0.227 F 
HETATM    7 CL5  UNL     1     -34.781   5.362   6.132  1.00 20.00    -0.083 Cl
ENDBRANCH   1   5
TORSDOF 1
ENDMDL
MODEL 6
REMARK VINA RESULT:      -4.1      1.503      1.503
REMARK  1 active torsions:
REMARK  status: ('A' for Active; 'I' for Inactive)
REMARK    1  A    between atoms: C1_1  and  C2_2 
ROOT
HETATM    1  C2  UNL     1     -33.763   7.072   4.685  1.00 20.00     0.299 C 
HETATM    2  F4  UNL     1     -34.724   8.005   4.443  1.00 20.00    -0.203 F 
HETATM    3 CL6  UNL     1     -32.222   7.673   4.014  1.00 20.00    -0.061 Cl
HETATM    4 CL7  UNL     1     -33.586   6.872   6.447  1.00 20.00    -0.061 Cl
ENDROOT
BRANCH   1   5
HETATM    5  C1  UNL     1     -34.154   5.766   4.004  1.00 20.00     0.336 C 
HETATM    6  F3  UNL     1     -34.190   4.774   4.936  1.00 20.00    -0.227 F 
HETATM    7 CL5  UNL     1     -32.986   5.287   2.746  1.00 20.00    -0.083 Cl
ENDBRANCH   1   5
TORSDOF 1
ENDMDL
MODEL 7
REMARK VINA RESULT:      -4.1      2.445      2.460
REMARK  1 active torsions:
REMARK  status: ('A' for Active; 'I' for Inactive)
REMARK    1  A    between atoms: C1_1  and  C2_2 
ROOT
HETATM    1  C2  UNL     1     -33.929   7.037   4.709  1.00 20.00     0.299 C 
HETATM    2  F4  UNL     1     -34.398   8.291   4.465  1.00 20.00    -0.203 F 
HETATM    3 CL6  UNL     1     -33.418   6.956   6.418  1.00 20.00    -0.061 Cl
HETATM    4 CL7  UNL     1     -35.248   5.868   4.446  1.00 20.00    -0.061 Cl
ENDROOT
BRANCH   1   5
HETATM    5  C1  UNL     1     -32.739   6.763   3.797  1.00 20.00     0.336 C 
HETATM    6  F3  UNL     1     -32.519   7.858   3.017  1.00 20.00    -0.227 F 
HETATM    7 CL5  UNL     1     -33.024   5.375   2.717  1.00 20.00    -0.083 Cl
ENDBRANCH   1   5
TORSDOF 1
ENDMDL
MODEL 8
REMARK VINA RESULT:      -4.1      1.731      2.434
REMARK  1 active torsions:
REMARK  status: ('A' for Active; 'I' for Inactive)
REMARK    1  A    between atoms: C1_1  and  C2_2 
ROOT
HETATM    1  C2  UNL     1     -34.293   5.870   4.725  1.00 20.00     0.299 C 
HETATM    2  F4  UNL     1     -33.762   4.887   3.947  1.00 20.00    -0.203 F 
HETATM    3 CL6  UNL     1     -35.947   6.208   4.141  1.00 20.00    -0.061 Cl
HETATM    4 CL7  UNL     1     -34.383   5.288   6.407  1.00 20.00    -0.061 Cl
ENDROOT
BRANCH   1   5
HETATM    5  C1  UNL     1     -33.432   7.121   4.604  1.00 20.00     0.336 C 
HETATM    6  F3  UNL     1     -34.245   8.209   4.502  1.00 20.00    -0.227 F 
HETATM    7 CL5  UNL     1     -32.390   7.084   3.159  1.00 20.00    -0.083 Cl
ENDBRANCH   1   5
TORSDOF 1
ENDMDL
MODEL 9
REMARK VINA RESULT:      -3.8      3.222      4.069
REMARK  1 active torsions:
REMARK  status: ('A' for Active; 'I' for Inactive)
REMARK    1  A    between atoms: C1_1  and  C2_2 
ROOT
HETATM    1  C2  UNL     1     -32.387   7.650   3.402  1.00 20.00     0.299 C 
HETATM    2  F4  UNL     1     -31.092   7.671   3.822  1.00 20.00    -0.203 F 
HETATM    3 CL6  UNL     1     -32.511   8.654   1.931  1.00 20.00    -0.061 Cl
HETATM    4 CL7  UNL     1     -32.833   5.973   2.996  1.00 20.00    -0.061 Cl
ENDROOT
BRANCH   1   5
HETATM    5  C1  UNL     1     -33.276   8.222   4.500  1.00 20.00     0.336 C 
HETATM    6  F3  UNL     1     -32.567   9.146   5.207  1.00 20.00    -0.227 F 
HETATM    7 CL5  UNL     1     -33.826   6.970   5.642  1.00 20.00    -0.083 Cl
ENDBRANCH   1   5
TORSDOF 1
ENDMDL
