MODEL 1
REMARK VINA RESULT:      -4.5      0.000      0.000
REMARK  0 active torsions:
REMARK  status: ('A' for Active; 'I' for Inactive)
ROOT
HETATM    1  C1  UNL     1     -32.985   7.894   4.130  1.00 20.00    -0.011 C 
HETATM    2  C2  UNL     1     -32.736   7.258   2.975  1.00 20.00    -0.015 C 
HETATM    3  C3  UNL     1     -33.625   7.230   5.315  1.00 20.00     0.036 C 
HETATM    4  C4  UNL     1     -33.055   5.806   2.754  1.00 20.00     0.047 C 
HETATM    5  C5  UNL     1     -33.409   5.061   4.048  1.00 20.00     0.014 C 
HETATM    6  C6  UNL     1     -34.317   5.882   4.991  1.00 20.00    -0.044 C 
HETATM    7  C7  UNL     1     -34.539   5.099   6.296  1.00 20.00     0.015 C 
HETATM    8  C8  UNL     1     -35.693   6.129   4.340  1.00 20.00     0.015 C 
HETATM    9 BR9  UNL     1     -31.953   8.128   1.518  1.00 20.00    -0.056 Br
ENDROOT
TORSDOF 0
ENDMDL
MODEL 2
REMARK VINA RESULT:      -4.0     15.685     16.847
REMARK  0 active torsions:
REMARK  status: ('A' for Active; 'I' for Inactive)
ROOT
HETATM    1  C1  UNL     1     -23.713  18.755   8.674  1.00 20.00    -0.011 C 
HETATM    2  C2  UNL     1     -22.430  18.387   8.813  1.00 20.00    -0.015 C 
HETATM    3  C3  UNL     1     -24.657  18.905   9.832  1.00 20.00     0.036 C 
HETATM    4  C4  UNL     1     -21.798  18.105  10.147  1.00 20.00     0.047 C 
HETATM    5  C5  UNL     1     -22.660  18.561  11.333  1.00 20.00     0.014 C 
HETATM    6  C6  UNL     1     -24.161  18.248  11.145  1.00 20.00    -0.044 C 
HETATM    7  C7  UNL     1     -24.954  18.823  12.332  1.00 20.00     0.015 C 
HETATM    8  C8  UNL     1     -24.397  16.725  11.105  1.00 20.00     0.015 C 
HETATM    9 BR9  UNL     1     -21.294  18.194   7.341  1.00 20.00    -0.056 Br
ENDROOT
TORSDOF 0
ENDMDL
MODEL 3
REMARK VINA RESULT:      -3.7     12.190     13.274
REMARK  0 active torsions:
REMARK  status: ('A' for Active; 'I' for Inactive)
ROOT
HETATM    1  C1  UNL     1     -31.612  18.952  -0.732  1.00 20.00    -0.011 C 
HETATM    2  C2  UNL     1     -32.159  18.586   0.437  1.00 20.00    -0.015 C 
HETATM    3  C3  UNL     1     -32.380  19.002  -2.022  1.00 20.00     0.036 C 
HETATM    4  C4  UNL     1     -33.606  18.206   0.581  1.00 20.00     0.047 C 
HETATM    5  C5  UNL     1     -34.449  18.559  -0.652  1.00 20.00     0.014 C 
HETATM    6  C6  UNL     1     -33.733  18.248  -1.985  1.00 20.00    -0.044 C 
HETATM    7  C7  UNL     1     -34.609  18.720  -3.158  1.00 20.00     0.015 C 
HETATM    8  C8  UNL     1     -33.505  16.730  -2.138  1.00 20.00     0.015 C 
HETATM    9 BR9  UNL     1     -31.162  18.521   2.016  1.00 20.00    -0.056 Br
ENDROOT
TORSDOF 0
ENDMDL
MODEL 4
REMARK VINA RESULT:      -3.5     12.328     13.469
REMARK  0 active torsions:
REMARK  status: ('A' for Active; 'I' for Inactive)
ROOT
HETATM    1  C1  UNL     1     -33.702  16.411  -3.709  1.00 20.00    -0.011 C 
HETATM    2  C2  UNL     1     -34.430  17.287  -4.417  1.00 20.00    -0.015 C 
HETATM    3  C3  UNL     1     -33.407  16.578  -2.245  1.00 20.00     0.036 C 
HETATM    4  C4  UNL     1     -35.046  18.519  -3.814  1.00 20.00     0.047 C 
HETATM    5  C5  UNL     1     -35.013  18.521  -2.279  1.00 20.00     0.014 C 
HETATM    6  C6  UNL     1     -33.677  18.003  -1.702  1.00 20.00    -0.044 C 
HETATM    7  C7  UNL     1     -33.771  17.951  -0.167  1.00 20.00     0.015 C 
HETATM    8  C8  UNL     1     -32.519  18.949  -2.079  1.00 20.00     0.015 C 
HETATM    9 BR9  UNL     1     -34.758  17.050  -6.242  1.00 20.00    -0.056 Br
ENDROOT
TORSDOF 0
ENDMDL
MODEL 5
REMARK VINA RESULT:      -3.5     12.201     13.601
REMARK  0 active torsions:
REMARK  status: ('A' for Active; 'I' for Inactive)
ROOT
HETATM    1  C1  UNL     1     -33.426  15.545  -3.802  1.00 20.00    -0.011 C 
HETATM    2  C2  UNL     1     -33.821  16.755  -3.380  1.00 20.00    -0.015 C 
HETATM    3  C3  UNL     1     -33.684  15.031  -5.190  1.00 20.00     0.036 C 
HETATM    4  C4  UNL     1     -34.548  17.734  -4.260  1.00 20.00     0.047 C 
HETATM    5  C5  UNL     1     -34.529  17.341  -5.743  1.00 20.00     0.014 C 
HETATM    6  C6  UNL     1     -34.756  15.830  -5.973  1.00 20.00    -0.044 C 
HETATM    7  C7  UNL     1     -34.625  15.518  -7.474  1.00 20.00     0.015 C 
HETATM    8  C8  UNL     1     -36.171  15.418  -5.519  1.00 20.00     0.015 C 
HETATM    9 BR9  UNL     1     -33.494  17.348  -1.637  1.00 20.00    -0.056 Br
ENDROOT
TORSDOF 0
ENDMDL
MODEL 6
REMARK VINA RESULT:      -3.4      9.637     10.681
REMARK  0 active torsions:
REMARK  status: ('A' for Active; 'I' for Inactive)
ROOT
HETATM    1  C1  UNL     1     -41.190  13.415   4.692  1.00 20.00    -0.011 C 
HETATM    2  C2  UNL     1     -40.169  12.710   5.203  1.00 20.00    -0.015 C 
HETATM    3  C3  UNL     1     -42.128  14.235   5.531  1.00 20.00     0.036 C 
HETATM    4  C4  UNL     1     -39.845  12.683   6.670  1.00 20.00     0.047 C 
HETATM    5  C5  UNL     1     -40.594  13.755   7.474  1.00 20.00     0.014 C 
HETATM    6  C6  UNL     1     -42.070  13.912   7.046  1.00 20.00    -0.044 C 
HETATM    7  C7  UNL     1     -42.710  15.068   7.835  1.00 20.00     0.015 C 
HETATM    8  C8  UNL     1     -42.864  12.626   7.351  1.00 20.00     0.015 C 
HETATM    9 BR9  UNL     1     -39.036  11.688   4.122  1.00 20.00    -0.056 Br
ENDROOT
TORSDOF 0
ENDMDL
MODEL 7
REMARK VINA RESULT:      -3.3     12.428     13.933
REMARK  0 active torsions:
REMARK  status: ('A' for Active; 'I' for Inactive)
ROOT
HETATM    1  C1  UNL     1     -33.145  16.885  -2.221  1.00 20.00    -0.011 C 
HETATM    2  C2  UNL     1     -32.687  18.118  -1.957  1.00 20.00    -0.015 C 
HETATM    3  C3  UNL     1     -33.844  16.522  -3.500  1.00 20.00     0.036 C 
HETATM    4  C4  UNL     1     -32.808  19.262  -2.925  1.00 20.00     0.047 C 
HETATM    5  C5  UNL     1     -33.228  18.820  -4.334  1.00 20.00     0.014 C 
HETATM    6  C6  UNL     1     -34.331  17.739  -4.325  1.00 20.00    -0.044 C 
HETATM    7  C7  UNL     1     -34.618  17.291  -5.769  1.00 20.00     0.015 C 
HETATM    8  C8  UNL     1     -35.638  18.302  -3.730  1.00 20.00     0.015 C 
HETATM    9 BR9  UNL     1     -31.839  18.532  -0.344  1.00 20.00    -0.056 Br
ENDROOT
TORSDOF 0
ENDMDL
MODEL 8
REMARK VINA RESULT:      -3.3     12.422     13.930
REMARK  0 active torsions:
REMARK  status: ('A' for Active; 'I' for Inactive)
ROOT
HETATM    1  C1  UNL     1     -34.553  17.370  -5.031  1.00 20.00    -0.011 C 
HETATM    2  C2  UNL     1     -34.137  16.400  -4.203  1.00 20.00    -0.015 C 
HETATM    3  C3  UNL     1     -35.235  17.099  -6.341  1.00 20.00     0.036 C 
HETATM    4  C4  UNL     1     -34.328  14.937  -4.493  1.00 20.00     0.047 C 
HETATM    5  C5  UNL     1     -35.292  14.673  -5.658  1.00 20.00     0.014 C 
HETATM    6  C6  UNL     1     -35.088  15.641  -6.844  1.00 20.00    -0.044 C 
HETATM    7  C7  UNL     1     -36.154  15.364  -7.918  1.00 20.00     0.015 C 
HETATM    8  C8  UNL     1     -33.700  15.432  -7.483  1.00 20.00     0.015 C 
HETATM    9 BR9  UNL     1     -33.275  16.782  -2.589  1.00 20.00    -0.056 Br
ENDROOT
TORSDOF 0
ENDMDL
MODEL 9
REMARK VINA RESULT:      -3.3     12.059     13.255
REMARK  0 active torsions:
REMARK  status: ('A' for Active; 'I' for Inactive)
ROOT
HETATM    1  C1  UNL     1     -34.899  17.666  -4.230  1.00 20.00    -0.011 C 
HETATM    2  C2  UNL     1     -33.773  17.377  -3.560  1.00 20.00    -0.015 C 
HETATM    3  C3  UNL     1     -35.683  16.645  -5.004  1.00 20.00     0.036 C 
HETATM    4  C4  UNL     1     -33.189  15.993  -3.498  1.00 20.00     0.047 C 
HETATM    5  C5  UNL     1     -34.145  14.910  -4.014  1.00 20.00     0.014 C 
HETATM    6  C6  UNL     1     -34.910  15.333  -5.288  1.00 20.00    -0.044 C 
HETATM    7  C7  UNL     1     -35.909  14.229  -5.674  1.00 20.00     0.015 C 
HETATM    8  C8  UNL     1     -33.934  15.530  -6.466  1.00 20.00     0.015 C 
HETATM    9 BR9  UNL     1     -32.818  18.683  -2.624  1.00 20.00    -0.056 Br
ENDROOT
TORSDOF 0
ENDMDL
