MODEL 1
REMARK VINA RESULT:      -5.3      0.000      0.000
REMARK  0 active torsions:
REMARK  status: ('A' for Active; 'I' for Inactive)
ROOT
HETATM    1  C1  UNL     1     -32.206   8.536   4.071  1.00 20.00     0.101 C 
HETATM    2  C2  UNL     1     -33.681   7.274   5.282  1.00 20.00     0.055 C 
HETATM    3  C3  UNL     1     -32.948   6.294   3.210  1.00 20.00     0.145 C 
HETATM    4  C4  UNL     1     -33.907   6.837   6.532  1.00 20.00     0.112 C 
HETATM    5  C5  UNL     1     -32.016   7.470   3.020  1.00 20.00     0.092 C 
HETATM    6  C6  UNL     1     -34.194   6.576   4.036  1.00 20.00     0.105 C 
HETATM    7  C7  UNL     1     -32.234   8.077   1.641  1.00 20.00     0.023 C 
HETATM    8  C8  UNL     1     -35.021   5.306   4.239  1.00 20.00     0.025 C 
HETATM    9  N9  UNL     1     -32.974   8.446   5.112  1.00 20.00    -0.267 NA
HETATM   10  O10 UNL     1     -32.732   5.214   2.662  1.00 20.00    -0.296 OA
HETATM   11 CL11 UNL     1     -34.807   5.427   6.872  1.00 20.00    -0.095 Cl
ENDROOT
TORSDOF 0
ENDMDL
MODEL 2
REMARK VINA RESULT:      -4.4      2.326      3.632
REMARK  0 active torsions:
REMARK  status: ('A' for Active; 'I' for Inactive)
ROOT
HETATM    1  C1  UNL     1     -33.582   7.633   6.089  1.00 20.00     0.101 C 
HETATM    2  C2  UNL     1     -32.692   7.709   3.982  1.00 20.00     0.055 C 
HETATM    3  C3  UNL     1     -34.294   5.953   4.359  1.00 20.00     0.145 C 
HETATM    4  C4  UNL     1     -32.419   8.572   2.989  1.00 20.00     0.112 C 
HETATM    5  C5  UNL     1     -34.527   6.508   5.748  1.00 20.00     0.092 C 
HETATM    6  C6  UNL     1     -32.917   6.223   3.772  1.00 20.00     0.105 C 
HETATM    7  C7  UNL     1     -34.378   5.394   6.774  1.00 20.00     0.023 C 
HETATM    8  C8  UNL     1     -32.815   5.698   2.340  1.00 20.00     0.025 C 
HETATM    9  N9  UNL     1     -32.736   8.186   5.276  1.00 20.00    -0.267 NA
HETATM   10  O10 UNL     1     -35.147   5.270   3.795  1.00 20.00    -0.296 OA
HETATM   11 CL11 UNL     1     -32.293   8.096   1.356  1.00 20.00    -0.095 Cl
ENDROOT
TORSDOF 0
ENDMDL
MODEL 3
REMARK VINA RESULT:      -3.8     12.608     13.847
REMARK  0 active torsions:
REMARK  status: ('A' for Active; 'I' for Inactive)
ROOT
HETATM    1  C1  UNL     1     -33.753  14.971  -3.939  1.00 20.00     0.101 C 
HETATM    2  C2  UNL     1     -35.247  15.487  -5.594  1.00 20.00     0.055 C 
HETATM    3  C3  UNL     1     -34.185  17.373  -4.542  1.00 20.00     0.145 C 
HETATM    4  C4  UNL     1     -35.584  15.142  -6.848  1.00 20.00     0.112 C 
HETATM    5  C5  UNL     1     -33.344  16.409  -3.734  1.00 20.00     0.092 C 
HETATM    6  C6  UNL     1     -35.541  16.845  -4.983  1.00 20.00     0.105 C 
HETATM    7  C7  UNL     1     -33.446  16.758  -2.256  1.00 20.00     0.023 C 
HETATM    8  C8  UNL     1     -36.272  17.861  -5.861  1.00 20.00     0.025 C 
HETATM    9  N9  UNL     1     -34.631  14.547  -4.795  1.00 20.00    -0.267 NA
HETATM   10  O10 UNL     1     -33.810  18.526  -4.752  1.00 20.00    -0.296 OA
HETATM   11 CL11 UNL     1     -36.390  16.200  -7.916  1.00 20.00    -0.095 Cl
ENDROOT
TORSDOF 0
ENDMDL
MODEL 4
REMARK VINA RESULT:      -3.8     12.279     13.276
REMARK  0 active torsions:
REMARK  status: ('A' for Active; 'I' for Inactive)
ROOT
HETATM    1  C1  UNL     1     -33.653  14.846  -4.971  1.00 20.00     0.101 C 
HETATM    2  C2  UNL     1     -33.561  16.530  -3.425  1.00 20.00     0.055 C 
HETATM    3  C3  UNL     1     -35.328  16.720  -5.048  1.00 20.00     0.145 C 
HETATM    4  C4  UNL     1     -33.437  16.734  -2.102  1.00 20.00     0.112 C 
HETATM    5  C5  UNL     1     -34.914  15.377  -5.608  1.00 20.00     0.092 C 
HETATM    6  C6  UNL     1     -34.220  17.515  -4.374  1.00 20.00     0.105 C 
HETATM    7  C7  UNL     1     -34.710  15.492  -7.112  1.00 20.00     0.023 C 
HETATM    8  C8  UNL     1     -34.759  18.811  -3.770  1.00 20.00     0.025 C 
HETATM    9  N9  UNL     1     -33.030  15.378  -3.966  1.00 20.00    -0.267 NA
HETATM   10  O10 UNL     1     -36.468  17.153  -5.206  1.00 20.00    -0.296 OA
HETATM   11 CL11 UNL     1     -34.012  18.139  -1.323  1.00 20.00    -0.095 Cl
ENDROOT
TORSDOF 0
ENDMDL
MODEL 5
REMARK VINA RESULT:      -3.7     12.277     13.776
REMARK  0 active torsions:
REMARK  status: ('A' for Active; 'I' for Inactive)
ROOT
HETATM    1  C1  UNL     1     -35.935  17.606  -6.423  1.00 20.00     0.101 C 
HETATM    2  C2  UNL     1     -34.829  17.083  -4.489  1.00 20.00     0.055 C 
HETATM    3  C3  UNL     1     -34.421  15.600  -6.341  1.00 20.00     0.145 C 
HETATM    4  C4  UNL     1     -34.088  17.645  -3.520  1.00 20.00     0.112 C 
HETATM    5  C5  UNL     1     -35.270  16.502  -7.209  1.00 20.00     0.092 C 
HETATM    6  C6  UNL     1     -34.762  15.612  -4.859  1.00 20.00     0.105 C 
HETATM    7  C7  UNL     1     -36.334  15.676  -7.918  1.00 20.00     0.023 C 
HETATM    8  C8  UNL     1     -33.795  14.736  -4.062  1.00 20.00     0.025 C 
HETATM    9  N9  UNL     1     -35.732  17.872  -5.170  1.00 20.00    -0.267 NA
HETATM   10  O10 UNL     1     -33.570  14.860  -6.832  1.00 20.00    -0.296 OA
HETATM   11 CL11 UNL     1     -32.971  16.764  -2.578  1.00 20.00    -0.095 Cl
ENDROOT
TORSDOF 0
ENDMDL
MODEL 6
REMARK VINA RESULT:      -3.7     12.402     13.821
REMARK  0 active torsions:
REMARK  status: ('A' for Active; 'I' for Inactive)
ROOT
HETATM    1  C1  UNL     1     -35.122  15.099  -6.575  1.00 20.00     0.101 C 
HETATM    2  C2  UNL     1     -34.133  16.025  -4.730  1.00 20.00     0.055 C 
HETATM    3  C3  UNL     1     -36.328  16.865  -5.252  1.00 20.00     0.145 C 
HETATM    4  C4  UNL     1     -33.469  15.683  -3.613  1.00 20.00     0.112 C 
HETATM    5  C5  UNL     1     -36.414  15.852  -6.373  1.00 20.00     0.092 C 
HETATM    6  C6  UNL     1     -34.921  17.313  -4.885  1.00 20.00     0.105 C 
HETATM    7  C7  UNL     1     -36.795  16.556  -7.668  1.00 20.00     0.023 C 
HETATM    8  C8  UNL     1     -34.940  18.266  -3.689  1.00 20.00     0.025 C 
HETATM    9  N9  UNL     1     -34.071  15.179  -5.818  1.00 20.00    -0.267 NA
HETATM   10  O10 UNL     1     -37.341  17.335  -4.739  1.00 20.00    -0.296 OA
HETATM   11 CL11 UNL     1     -33.432  16.666  -2.219  1.00 20.00    -0.095 Cl
ENDROOT
TORSDOF 0
ENDMDL
MODEL 7
REMARK VINA RESULT:      -3.6     12.639     13.622
REMARK  0 active torsions:
REMARK  status: ('A' for Active; 'I' for Inactive)
ROOT
HETATM    1  C1  UNL     1     -35.264  16.801  -6.184  1.00 20.00     0.101 C 
HETATM    2  C2  UNL     1     -34.269  17.968  -4.485  1.00 20.00     0.055 C 
HETATM    3  C3  UNL     1     -33.812  15.604  -4.516  1.00 20.00     0.145 C 
HETATM    4  C4  UNL     1     -33.561  19.086  -4.255  1.00 20.00     0.112 C 
HETATM    5  C5  UNL     1     -34.592  15.503  -5.808  1.00 20.00     0.092 C 
HETATM    6  C6  UNL     1     -34.225  16.740  -3.592  1.00 20.00     0.105 C 
HETATM    7  C7  UNL     1     -35.643  14.409  -5.686  1.00 20.00     0.023 C 
HETATM    8  C8  UNL     1     -33.322  16.807  -2.360  1.00 20.00     0.025 C 
HETATM    9  N9  UNL     1     -35.115  17.936  -5.573  1.00 20.00    -0.267 NA
HETATM   10  O10 UNL     1     -32.959  14.770  -4.219  1.00 20.00    -0.296 OA
HETATM   11 CL11 UNL     1     -32.516  19.263  -2.917  1.00 20.00    -0.095 Cl
ENDROOT
TORSDOF 0
ENDMDL
MODEL 8
REMARK VINA RESULT:      -3.5     12.706     13.538
REMARK  0 active torsions:
REMARK  status: ('A' for Active; 'I' for Inactive)
ROOT
HETATM    1  C1  UNL     1     -34.564  18.835  -0.874  1.00 20.00     0.101 C 
HETATM    2  C2  UNL     1     -35.576  18.647  -2.918  1.00 20.00     0.055 C 
HETATM    3  C3  UNL     1     -33.669  17.219  -2.579  1.00 20.00     0.145 C 
HETATM    4  C4  UNL     1     -36.790  18.522  -3.479  1.00 20.00     0.112 C 
HETATM    5  C5  UNL     1     -33.586  17.720  -1.154  1.00 20.00     0.092 C 
HETATM    6  C6  UNL     1     -34.288  18.186  -3.576  1.00 20.00     0.105 C 
HETATM    7  C7  UNL     1     -32.172  18.204  -0.865  1.00 20.00     0.023 C 
HETATM    8  C8  UNL     1     -34.403  17.553  -4.963  1.00 20.00     0.025 C 
HETATM    9  N9  UNL     1     -35.480  19.262  -1.687  1.00 20.00    -0.267 NA
HETATM   10  O10 UNL     1     -33.192  16.132  -2.901  1.00 20.00    -0.296 OA
HETATM   11 CL11 UNL     1     -37.033  17.821  -5.016  1.00 20.00    -0.095 Cl
ENDROOT
TORSDOF 0
ENDMDL
MODEL 9
REMARK VINA RESULT:      -3.4     11.085     11.813
REMARK  0 active torsions:
REMARK  status: ('A' for Active; 'I' for Inactive)
ROOT
HETATM    1  C1  UNL     1     -40.383  14.790   9.041  1.00 20.00     0.101 C 
HETATM    2  C2  UNL     1     -40.544  13.567   7.113  1.00 20.00     0.055 C 
HETATM    3  C3  UNL     1     -41.486  15.780   7.010  1.00 20.00     0.145 C 
HETATM    4  C4  UNL     1     -39.810  12.790   6.300  1.00 20.00     0.112 C 
HETATM    5  C5  UNL     1     -40.981  16.026   8.415  1.00 20.00     0.092 C 
HETATM    6  C6  UNL     1     -41.781  14.327   6.668  1.00 20.00     0.105 C 
HETATM    7  C7  UNL     1     -42.122  16.532   9.286  1.00 20.00     0.023 C 
HETATM    8  C8  UNL     1     -42.201  14.178   5.205  1.00 20.00     0.025 C 
HETATM    9  N9  UNL     1     -40.183  13.658   8.441  1.00 20.00    -0.267 NA
HETATM   10  O10 UNL     1     -41.708  16.712   6.240  1.00 20.00    -0.296 OA
HETATM   11 CL11 UNL     1     -40.182  12.562   4.650  1.00 20.00    -0.095 Cl
ENDROOT
TORSDOF 0
ENDMDL
