MODEL 1
REMARK VINA RESULT:      -3.8      0.000      0.000
REMARK  0 active torsions:
REMARK  status: ('A' for Active; 'I' for Inactive)
ROOT
HETATM    1  C1  UNL     1     -28.653  -0.959  12.332  1.00 20.00     0.009 C 
HETATM    2  C2  UNL     1     -27.695  -0.372  10.086  1.00 20.00     0.009 C 
HETATM    3  C3  UNL     1     -26.169  -0.905  12.002  1.00 20.00     0.013 C 
HETATM    4  C4  UNL     1     -27.353  -3.095  12.332  1.00 20.00     0.014 C 
HETATM    5  C5  UNL     1     -26.391  -2.506  10.080  1.00 20.00     0.014 C 
HETATM    6  C6  UNL     1     -27.501  -0.244  11.605  1.00 20.00    -0.013 C 
HETATM    7  C7  UNL     1     -28.692  -2.447  11.930  1.00 20.00    -0.009 C 
HETATM    8  C8  UNL     1     -27.730  -1.858   9.677  1.00 20.00    -0.009 C 
HETATM    9  C9  UNL     1     -28.916  -2.538  10.402  1.00 20.00    -0.010 C 
HETATM   10  C10 UNL     1     -26.175  -2.401  11.608  1.00 20.00    -0.043 C 
HETATM   11  C11 UNL     1     -29.160  -3.971   9.923  1.00 20.00     0.010 C 
HETATM   12  C12 UNL     1     -24.848  -3.057  12.003  1.00 20.00     0.015 C 
ENDROOT
TORSDOF 0
ENDMDL
MODEL 2
REMARK VINA RESULT:      -3.6     20.267     21.869
REMARK  0 active torsions:
REMARK  status: ('A' for Active; 'I' for Inactive)
ROOT
HETATM    1  C1  UNL     1     -41.591  15.680   6.314  1.00 20.00     0.009 C 
HETATM    2  C2  UNL     1     -43.417  14.060   5.721  1.00 20.00     0.009 C 
HETATM    3  C3  UNL     1     -41.067  13.637   4.960  1.00 20.00     0.013 C 
HETATM    4  C4  UNL     1     -40.267  13.819   7.333  1.00 20.00     0.014 C 
HETATM    5  C5  UNL     1     -42.098  12.195   6.739  1.00 20.00     0.014 C 
HETATM    6  C6  UNL     1     -42.121  14.725   5.230  1.00 20.00    -0.013 C 
HETATM    7  C7  UNL     1     -41.322  14.905   7.619  1.00 20.00    -0.009 C 
HETATM    8  C8  UNL     1     -43.154  13.280   7.025  1.00 20.00    -0.009 C 
HETATM    9  C9  UNL     1     -42.652  14.274   8.099  1.00 20.00    -0.010 C 
HETATM   10  C10 UNL     1     -40.778  12.837   6.252  1.00 20.00    -0.043 C 
HETATM   11  C11 UNL     1     -42.539  13.640   9.487  1.00 20.00     0.010 C 
HETATM   12  C12 UNL     1     -39.729  11.754   5.980  1.00 20.00     0.015 C 
ENDROOT
TORSDOF 0
ENDMDL
MODEL 3
REMARK VINA RESULT:      -3.5     24.308     26.271
REMARK  0 active torsions:
REMARK  status: ('A' for Active; 'I' for Inactive)
ROOT
HETATM    1  C1  UNL     1     -34.418  17.468  -7.186  1.00 20.00     0.009 C 
HETATM    2  C2  UNL     1     -35.869  15.516  -7.813  1.00 20.00     0.009 C 
HETATM    3  C3  UNL     1     -33.719  15.138  -6.581  1.00 20.00     0.013 C 
HETATM    4  C4  UNL     1     -34.463  16.738  -4.795  1.00 20.00     0.014 C 
HETATM    5  C5  UNL     1     -35.918  14.780  -5.423  1.00 20.00     0.014 C 
HETATM    6  C6  UNL     1     -34.419  16.000  -7.646  1.00 20.00    -0.013 C 
HETATM    7  C7  UNL     1     -35.175  17.607  -5.850  1.00 20.00    -0.009 C 
HETATM    8  C8  UNL     1     -36.630  15.648  -6.479  1.00 20.00    -0.009 C 
HETATM    9  C9  UNL     1     -36.635  17.138  -6.062  1.00 20.00    -0.010 C 
HETATM   10  C10 UNL     1     -34.458  15.253  -5.227  1.00 20.00    -0.043 C 
HETATM   11  C11 UNL     1     -37.526  17.411  -4.849  1.00 20.00     0.010 C 
HETATM   12  C12 UNL     1     -33.760  14.394  -4.169  1.00 20.00     0.015 C 
ENDROOT
TORSDOF 0
ENDMDL
MODEL 4
REMARK VINA RESULT:      -3.4     20.508     22.128
REMARK  0 active torsions:
REMARK  status: ('A' for Active; 'I' for Inactive)
ROOT
HETATM    1  C1  UNL     1     -42.705  14.682   5.544  1.00 20.00     0.009 C 
HETATM    2  C2  UNL     1     -41.167  15.930   7.089  1.00 20.00     0.009 C 
HETATM    3  C3  UNL     1     -43.338  15.016   7.947  1.00 20.00     0.013 C 
HETATM    4  C4  UNL     1     -42.704  12.734   7.112  1.00 20.00     0.014 C 
HETATM    5  C5  UNL     1     -41.162  13.985   8.661  1.00 20.00     0.014 C 
HETATM    6  C6  UNL     1     -42.637  15.654   6.735  1.00 20.00    -0.013 C 
HETATM    7  C7  UNL     1     -41.993  13.361   5.897  1.00 20.00    -0.009 C 
HETATM    8  C8  UNL     1     -40.450  14.613   7.447  1.00 20.00    -0.009 C 
HETATM    9  C9  UNL     1     -40.512  13.672   6.220  1.00 20.00    -0.010 C 
HETATM   10  C10 UNL     1     -42.643  13.687   8.329  1.00 20.00    -0.043 C 
HETATM   11  C11 UNL     1     -39.667  12.409   6.399  1.00 20.00     0.010 C 
HETATM   12  C12 UNL     1     -43.341  13.053   9.536  1.00 20.00     0.015 C 
ENDROOT
TORSDOF 0
ENDMDL
MODEL 5
REMARK VINA RESULT:      -3.3     24.314     26.380
REMARK  0 active torsions:
REMARK  status: ('A' for Active; 'I' for Inactive)
ROOT
HETATM    1  C1  UNL     1     -34.323  15.486  -7.261  1.00 20.00     0.009 C 
HETATM    2  C2  UNL     1     -34.416  17.914  -6.625  1.00 20.00     0.009 C 
HETATM    3  C3  UNL     1     -36.532  16.662  -7.113  1.00 20.00     0.013 C 
HETATM    4  C4  UNL     1     -35.902  14.935  -5.402  1.00 20.00     0.014 C 
HETATM    5  C5  UNL     1     -35.996  17.370  -4.765  1.00 20.00     0.014 C 
HETATM    6  C6  UNL     1     -35.051  16.820  -7.499  1.00 20.00    -0.013 C 
HETATM    7  C7  UNL     1     -34.415  15.089  -5.775  1.00 20.00    -0.009 C 
HETATM    8  C8  UNL     1     -34.509  17.525  -5.136  1.00 20.00    -0.009 C 
HETATM    9  C9  UNL     1     -33.743  16.197  -4.928  1.00 20.00    -0.010 C 
HETATM   10  C10 UNL     1     -36.658  16.267  -5.623  1.00 20.00    -0.043 C 
HETATM   11  C11 UNL     1     -33.609  15.815  -3.452  1.00 20.00     0.010 C 
HETATM   12  C12 UNL     1     -38.133  16.110  -5.241  1.00 20.00     0.015 C 
ENDROOT
TORSDOF 0
ENDMDL
MODEL 6
REMARK VINA RESULT:      -3.3     24.252     26.223
REMARK  0 active torsions:
REMARK  status: ('A' for Active; 'I' for Inactive)
ROOT
HETATM    1  C1  UNL     1     -36.159  16.127  -7.672  1.00 20.00     0.009 C 
HETATM    2  C2  UNL     1     -33.790  15.412  -7.238  1.00 20.00     0.009 C 
HETATM    3  C3  UNL     1     -34.523  17.742  -6.673  1.00 20.00     0.013 C 
HETATM    4  C4  UNL     1     -36.393  16.813  -5.279  1.00 20.00     0.014 C 
HETATM    5  C5  UNL     1     -34.018  16.097  -4.843  1.00 20.00     0.014 C 
HETATM    6  C6  UNL     1     -34.689  16.582  -7.670  1.00 20.00    -0.013 C 
HETATM    7  C7  UNL     1     -36.566  15.642  -6.266  1.00 20.00    -0.009 C 
HETATM    8  C8  UNL     1     -34.190  14.926  -5.830  1.00 20.00    -0.009 C 
HETATM    9  C9  UNL     1     -35.661  14.449  -5.876  1.00 20.00    -0.010 C 
HETATM   10  C10 UNL     1     -34.921  17.286  -5.249  1.00 20.00    -0.043 C 
HETATM   11  C11 UNL     1     -36.104  13.770  -4.579  1.00 20.00     0.010 C 
HETATM   12  C12 UNL     1     -34.754  18.442  -4.258  1.00 20.00     0.015 C 
ENDROOT
TORSDOF 0
ENDMDL
MODEL 7
REMARK VINA RESULT:      -3.3     24.254     26.253
REMARK  0 active torsions:
REMARK  status: ('A' for Active; 'I' for Inactive)
ROOT
HETATM    1  C1  UNL     1     -36.118  15.105  -7.377  1.00 20.00     0.009 C 
HETATM    2  C2  UNL     1     -36.806  16.605  -5.484  1.00 20.00     0.009 C 
HETATM    3  C3  UNL     1     -35.429  14.560  -5.030  1.00 20.00     0.013 C 
HETATM    4  C4  UNL     1     -33.724  15.341  -6.699  1.00 20.00     0.014 C 
HETATM    5  C5  UNL     1     -34.413  16.845  -4.800  1.00 20.00     0.014 C 
HETATM    6  C6  UNL     1     -36.552  15.148  -5.902  1.00 20.00    -0.013 C 
HETATM    7  C7  UNL     1     -34.838  15.940  -7.579  1.00 20.00    -0.009 C 
HETATM    8  C8  UNL     1     -35.527  17.445  -5.678  1.00 20.00    -0.009 C 
HETATM    9  C9  UNL     1     -35.137  17.404  -7.175  1.00 20.00    -0.010 C 
HETATM   10  C10 UNL     1     -34.129  15.380  -5.206  1.00 20.00    -0.043 C 
HETATM   11  C11 UNL     1     -33.990  18.358  -7.514  1.00 20.00     0.010 C 
HETATM   12  C12 UNL     1     -33.012  14.794  -4.337  1.00 20.00     0.015 C 
ENDROOT
TORSDOF 0
ENDMDL
MODEL 8
REMARK VINA RESULT:      -3.3     24.660     26.396
REMARK  0 active torsions:
REMARK  status: ('A' for Active; 'I' for Inactive)
ROOT
HETATM    1  C1  UNL     1     -33.955  15.140  -6.803  1.00 20.00     0.009 C 
HETATM    2  C2  UNL     1     -35.863  14.509  -5.295  1.00 20.00     0.009 C 
HETATM    3  C3  UNL     1     -34.045  16.018  -4.457  1.00 20.00     0.013 C 
HETATM    4  C4  UNL     1     -34.433  17.561  -6.398  1.00 20.00     0.014 C 
HETATM    5  C5  UNL     1     -36.345  16.929  -4.887  1.00 20.00     0.014 C 
HETATM    6  C6  UNL     1     -34.356  14.808  -5.355  1.00 20.00    -0.013 C 
HETATM    7  C7  UNL     1     -34.753  16.359  -7.308  1.00 20.00    -0.009 C 
HETATM    8  C8  UNL     1     -36.667  15.727  -5.795  1.00 20.00    -0.009 C 
HETATM    9  C9  UNL     1     -36.261  16.014  -7.261  1.00 20.00    -0.010 C 
HETATM   10  C10 UNL     1     -34.835  17.259  -4.936  1.00 20.00    -0.043 C 
HETATM   11  C11 UNL     1     -37.134  17.084  -7.918  1.00 20.00     0.010 C 
HETATM   12  C12 UNL     1     -34.524  18.461  -4.040  1.00 20.00     0.015 C 
ENDROOT
TORSDOF 0
ENDMDL
MODEL 9
REMARK VINA RESULT:      -3.2     20.778     22.485
REMARK  0 active torsions:
REMARK  status: ('A' for Active; 'I' for Inactive)
ROOT
HETATM    1  C1  UNL     1     -42.659  12.513   7.082  1.00 20.00     0.009 C 
HETATM    2  C2  UNL     1     -40.267  13.275   6.994  1.00 20.00     0.009 C 
HETATM    3  C3  UNL     1     -41.918  14.123   5.310  1.00 20.00     0.013 C 
HETATM    4  C4  UNL     1     -43.417  14.894   7.170  1.00 20.00     0.014 C 
HETATM    5  C5  UNL     1     -41.019  15.658   7.082  1.00 20.00     0.014 C 
HETATM    6  C6  UNL     1     -41.498  12.906   6.151  1.00 20.00    -0.013 C 
HETATM    7  C7  UNL     1     -43.000  13.682   8.027  1.00 20.00    -0.009 C 
HETATM    8  C8  UNL     1     -40.601  14.447   7.938  1.00 20.00    -0.009 C 
HETATM    9  C9  UNL     1     -41.749  14.009   8.878  1.00 20.00    -0.010 C 
HETATM   10  C10 UNL     1     -42.264  15.318   6.230  1.00 20.00    -0.043 C 
HETATM   11  C11 UNL     1     -42.034  15.029   9.982  1.00 20.00     0.010 C 
HETATM   12  C12 UNL     1     -42.681  16.529   5.390  1.00 20.00     0.015 C 
ENDROOT
TORSDOF 0
ENDMDL
