MODEL 1
REMARK VINA RESULT:      -3.6      0.000      0.000
REMARK  1 active torsions:
REMARK  status: ('A' for Active; 'I' for Inactive)
REMARK    1  A    between atoms: C5_5  and  N7_7 
ROOT
HETATM    1  C1  UNL     1     -40.805  15.003   7.759  1.00 20.00     0.160 C 
HETATM    2  N7  UNL     1     -41.130  14.658   6.687  1.00 20.00    -0.237 NA
HETATM    3  S9  UNL     1     -40.371  15.507   9.206  1.00 20.00    -0.055 SA
ENDROOT
BRANCH   2   4
HETATM    4  C5  UNL     1     -40.942  13.225   6.423  1.00 20.00     0.152 C 
HETATM    5  C3  UNL     1     -40.616  13.040   4.940  1.00 20.00     0.065 C 
HETATM    6  C2  UNL     1     -39.741  11.809   4.933  1.00 20.00     0.031 C 
HETATM    7  C4  UNL     1     -38.970  11.975   6.221  1.00 20.00     0.171 C 
HETATM    8  O8  UNL     1     -39.867  12.591   7.152  1.00 20.00    -0.359 OA
HETATM    9  C6  UNL     1     -42.233  12.506   6.819  1.00 20.00     0.073 C 
ENDBRANCH   2   4
TORSDOF 1
ENDMDL
MODEL 2
REMARK VINA RESULT:      -3.4     12.038     12.570
REMARK  1 active torsions:
REMARK  status: ('A' for Active; 'I' for Inactive)
REMARK    1  A    between atoms: C5_5  and  N7_7 
ROOT
HETATM    1  C1  UNL     1     -31.484  18.849  -0.404  1.00 20.00     0.160 C 
HETATM    2  N7  UNL     1     -31.777  19.101  -1.510  1.00 20.00    -0.237 NA
HETATM    3  S9  UNL     1     -31.056  18.526   1.095  1.00 20.00    -0.055 SA
ENDROOT
BRANCH   2   4
HETATM    4  C5  UNL     1     -33.013  18.460  -1.977  1.00 20.00     0.152 C 
HETATM    5  C3  UNL     1     -33.115  18.640  -3.493  1.00 20.00     0.065 C 
HETATM    6  C2  UNL     1     -33.871  17.410  -3.934  1.00 20.00     0.031 C 
HETATM    7  C4  UNL     1     -33.341  16.367  -2.980  1.00 20.00     0.171 C 
HETATM    8  O8  UNL     1     -33.109  17.039  -1.736  1.00 20.00    -0.359 OA
HETATM    9  C6  UNL     1     -34.183  19.117  -1.243  1.00 20.00     0.073 C 
ENDBRANCH   2   4
TORSDOF 1
ENDMDL
MODEL 3
REMARK VINA RESULT:      -3.3      1.775      1.775
REMARK  1 active torsions:
REMARK  status: ('A' for Active; 'I' for Inactive)
REMARK    1  A    between atoms: C5_5  and  N7_7 
ROOT
HETATM    1  C1  UNL     1     -42.063  15.139   6.079  1.00 20.00     0.160 C 
HETATM    2  N7  UNL     1     -41.194  14.656   6.699  1.00 20.00    -0.237 NA
HETATM    3  S9  UNL     1     -43.238  15.828   5.255  1.00 20.00    -0.055 SA
ENDROOT
BRANCH   2   4
HETATM    4  C5  UNL     1     -40.981  13.226   6.441  1.00 20.00     0.152 C 
HETATM    5  C3  UNL     1     -40.651  13.041   4.958  1.00 20.00     0.065 C 
HETATM    6  C2  UNL     1     -39.754  11.826   4.957  1.00 20.00     0.031 C 
HETATM    7  C4  UNL     1     -38.987  12.011   6.243  1.00 20.00     0.171 C 
HETATM    8  O8  UNL     1     -39.895  12.614   7.172  1.00 20.00    -0.359 OA
HETATM    9  C6  UNL     1     -42.259  12.486   6.840  1.00 20.00     0.073 C 
ENDBRANCH   2   4
TORSDOF 1
ENDMDL
MODEL 4
REMARK VINA RESULT:      -3.3      2.574      3.505
REMARK  1 active torsions:
REMARK  status: ('A' for Active; 'I' for Inactive)
REMARK    1  A    between atoms: C5_5  and  N7_7 
ROOT
HETATM    1  C1  UNL     1     -39.475  12.096   5.730  1.00 20.00     0.160 C 
HETATM    2  N7  UNL     1     -39.727  12.391   6.836  1.00 20.00    -0.237 NA
HETATM    3  S9  UNL     1     -39.103  11.677   4.239  1.00 20.00    -0.055 SA
ENDROOT
BRANCH   2   4
HETATM    4  C5  UNL     1     -40.891  13.274   6.983  1.00 20.00     0.152 C 
HETATM    5  C3  UNL     1     -41.377  13.679   5.590  1.00 20.00     0.065 C 
HETATM    6  C2  UNL     1     -42.861  13.874   5.788  1.00 20.00     0.031 C 
HETATM    7  C4  UNL     1     -43.178  12.797   6.797  1.00 20.00     0.171 C 
HETATM    8  O8  UNL     1     -42.034  12.695   7.652  1.00 20.00    -0.359 OA
HETATM    9  C6  UNL     1     -40.455  14.484   7.811  1.00 20.00     0.073 C 
ENDBRANCH   2   4
TORSDOF 1
ENDMDL
MODEL 5
REMARK VINA RESULT:      -3.3     13.372     14.140
REMARK  1 active torsions:
REMARK  status: ('A' for Active; 'I' for Inactive)
REMARK    1  A    between atoms: C5_5  and  N7_7 
ROOT
HETATM    1  C1  UNL     1     -33.399  15.727  -3.754  1.00 20.00     0.160 C 
HETATM    2  N7  UNL     1     -33.383  14.974  -4.651  1.00 20.00    -0.237 NA
HETATM    3  S9  UNL     1     -33.394  16.729  -2.517  1.00 20.00    -0.055 SA
ENDROOT
BRANCH   2   4
HETATM    4  C5  UNL     1     -34.363  15.261  -5.708  1.00 20.00     0.152 C 
HETATM    5  C3  UNL     1     -34.569  16.776  -5.784  1.00 20.00     0.065 C 
HETATM    6  C2  UNL     1     -34.904  17.002  -7.239  1.00 20.00     0.031 C 
HETATM    7  C4  UNL     1     -34.034  15.971  -7.917  1.00 20.00     0.171 C 
HETATM    8  O8  UNL     1     -33.989  14.841  -7.038  1.00 20.00    -0.359 OA
HETATM    9  C6  UNL     1     -35.656  14.525  -5.354  1.00 20.00     0.073 C 
ENDBRANCH   2   4
TORSDOF 1
ENDMDL
MODEL 6
REMARK VINA RESULT:      -3.2      9.155     10.070
REMARK  1 active torsions:
REMARK  status: ('A' for Active; 'I' for Inactive)
REMARK    1  A    between atoms: C5_5  and  N7_7 
ROOT
HETATM    1  C1  UNL     1     -32.251   7.830   3.342  1.00 20.00     0.160 C 
HETATM    2  N7  UNL     1     -32.207   7.650   4.499  1.00 20.00    -0.237 NA
HETATM    3  S9  UNL     1     -32.272   8.083   1.770  1.00 20.00    -0.055 SA
ENDROOT
BRANCH   2   4
HETATM    4  C5  UNL     1     -33.505   7.353   5.120  1.00 20.00     0.152 C 
HETATM    5  C3  UNL     1     -34.241   6.332   4.251  1.00 20.00     0.065 C 
HETATM    6  C2  UNL     1     -35.074   5.568   5.252  1.00 20.00     0.031 C 
HETATM    7  C4  UNL     1     -34.160   5.540   6.453  1.00 20.00     0.171 C 
HETATM    8  O8  UNL     1     -33.447   6.783   6.446  1.00 20.00    -0.359 OA
HETATM    9  C6  UNL     1     -34.277   8.669   5.234  1.00 20.00     0.073 C 
ENDBRANCH   2   4
TORSDOF 1
ENDMDL
MODEL 7
REMARK VINA RESULT:      -3.1     11.688     12.342
REMARK  1 active torsions:
REMARK  status: ('A' for Active; 'I' for Inactive)
REMARK    1  A    between atoms: C5_5  and  N7_7 
ROOT
HETATM    1  C1  UNL     1     -34.393  18.556  -0.929  1.00 20.00     0.160 C 
HETATM    2  N7  UNL     1     -34.877  18.456  -1.991  1.00 20.00    -0.237 NA
HETATM    3  S9  UNL     1     -33.767  18.708   0.528  1.00 20.00    -0.055 SA
ENDROOT
BRANCH   2   4
HETATM    4  C5  UNL     1     -33.986  17.902  -3.019  1.00 20.00     0.152 C 
HETATM    5  C3  UNL     1     -33.377  16.602  -2.490  1.00 20.00     0.065 C 
HETATM    6  C2  UNL     1     -33.165  15.788  -3.743  1.00 20.00     0.031 C 
HETATM    7  C4  UNL     1     -34.360  16.189  -4.574  1.00 20.00     0.171 C 
HETATM    8  O8  UNL     1     -34.615  17.566  -4.276  1.00 20.00    -0.359 OA
HETATM    9  C6  UNL     1     -32.917  18.953  -3.322  1.00 20.00     0.073 C 
ENDBRANCH   2   4
TORSDOF 1
ENDMDL
MODEL 8
REMARK VINA RESULT:      -3.1     11.831     12.405
REMARK  1 active torsions:
REMARK  status: ('A' for Active; 'I' for Inactive)
REMARK    1  A    between atoms: C5_5  and  N7_7 
ROOT
HETATM    1  C1  UNL     1     -34.870  18.607  -3.418  1.00 20.00     0.160 C 
HETATM    2  N7  UNL     1     -34.925  18.510  -2.252  1.00 20.00    -0.237 NA
HETATM    3  S9  UNL     1     -34.831  18.753  -5.003  1.00 20.00    -0.055 SA
ENDROOT
BRANCH   2   4
HETATM    4  C5  UNL     1     -33.721  17.945  -1.628  1.00 20.00     0.152 C 
HETATM    5  C3  UNL     1     -32.557  18.915  -1.847  1.00 20.00     0.065 C 
HETATM    6  C2  UNL     1     -31.691  18.688  -0.631  1.00 20.00     0.031 C 
HETATM    7  C4  UNL     1     -32.725  18.428   0.437  1.00 20.00     0.171 C 
HETATM    8  O8  UNL     1     -33.799  17.729  -0.202  1.00 20.00    -0.359 OA
HETATM    9  C6  UNL     1     -33.459  16.583  -2.272  1.00 20.00     0.073 C 
ENDBRANCH   2   4
TORSDOF 1
ENDMDL
MODEL 9
REMARK VINA RESULT:      -3.1      2.521      3.697
REMARK  1 active torsions:
REMARK  status: ('A' for Active; 'I' for Inactive)
REMARK    1  A    between atoms: C5_5  and  N7_7 
ROOT
HETATM    1  C1  UNL     1     -40.152  11.998   5.575  1.00 20.00     0.160 C 
HETATM    2  N7  UNL     1     -40.925  12.161   6.440  1.00 20.00    -0.237 NA
HETATM    3  S9  UNL     1     -39.100  11.739   4.407  1.00 20.00    -0.055 SA
ENDROOT
BRANCH   2   4
HETATM    4  C5  UNL     1     -41.316  13.561   6.654  1.00 20.00     0.152 C 
HETATM    5  C3  UNL     1     -42.242  13.629   7.870  1.00 20.00     0.065 C 
HETATM    6  C2  UNL     1     -41.961  14.999   8.438  1.00 20.00     0.031 C 
HETATM    7  C4  UNL     1     -40.483  15.144   8.168  1.00 20.00     0.171 C 
HETATM    8  O8  UNL     1     -40.232  14.477   6.925  1.00 20.00    -0.359 OA
HETATM    9  C6  UNL     1     -42.006  14.050   5.380  1.00 20.00     0.073 C 
ENDBRANCH   2   4
TORSDOF 1
ENDMDL
