MODEL 1
REMARK VINA RESULT:      -3.8      0.000      0.000
REMARK  1 active torsions:
REMARK  status: ('A' for Active; 'I' for Inactive)
REMARK    1  A    between atoms: C3_3  and  C4_4 
ROOT
HETATM    1  C1  UNL     1     -34.601   5.422   6.093  1.00 20.00     0.175 C 
HETATM    2  C2  UNL     1     -34.138   5.543   4.088  1.00 20.00     0.175 C 
HETATM    3  C3  UNL     1     -34.418   6.615   5.147  1.00 20.00     0.047 C 
HETATM    4  O5  UNL     1     -34.567   4.490   4.985  1.00 20.00    -0.390 OA
ENDROOT
BRANCH   3   5
HETATM    5  C4  UNL     1     -33.286   7.567   5.466  1.00 20.00     0.123 C 
HETATM    6 CL6  UNL     1     -32.383   7.980   3.993  1.00 20.00    -0.130 Cl
ENDBRANCH   3   5
TORSDOF 1
ENDMDL
MODEL 2
REMARK VINA RESULT:      -3.8      2.670      3.144
REMARK  1 active torsions:
REMARK  status: ('A' for Active; 'I' for Inactive)
REMARK    1  A    between atoms: C3_3  and  C4_4 
ROOT
HETATM    1  C1  UNL     1     -33.115   6.772   3.880  1.00 20.00     0.175 C 
HETATM    2  C2  UNL     1     -32.465   8.483   4.826  1.00 20.00     0.175 C 
HETATM    3  C3  UNL     1     -33.733   7.639   4.983  1.00 20.00     0.047 C 
HETATM    4  O5  UNL     1     -32.081   7.756   3.635  1.00 20.00    -0.390 OA
ENDROOT
BRANCH   3   5
HETATM    5  C4  UNL     1     -33.947   6.976   6.327  1.00 20.00     0.123 C 
HETATM    6 CL6  UNL     1     -34.692   5.376   6.122  1.00 20.00    -0.130 Cl
ENDBRANCH   3   5
TORSDOF 1
ENDMDL
MODEL 3
REMARK VINA RESULT:      -3.7      1.165      1.166
REMARK  1 active torsions:
REMARK  status: ('A' for Active; 'I' for Inactive)
REMARK    1  A    between atoms: C3_3  and  C4_4 
ROOT
HETATM    1  C1  UNL     1     -34.154   6.599   6.397  1.00 20.00     0.175 C 
HETATM    2  C2  UNL     1     -34.655   5.402   4.797  1.00 20.00     0.175 C 
HETATM    3  C3  UNL     1     -34.282   6.884   4.896  1.00 20.00     0.047 C 
HETATM    4  O5  UNL     1     -34.747   5.288   6.237  1.00 20.00    -0.390 OA
ENDROOT
BRANCH   3   5
HETATM    5  C4  UNL     1     -33.023   7.319   4.177  1.00 20.00     0.123 C 
HETATM    6 CL6  UNL     1     -32.383   8.816   4.889  1.00 20.00    -0.130 Cl
ENDBRANCH   3   5
TORSDOF 1
ENDMDL
MODEL 4
REMARK VINA RESULT:      -3.7      1.876      2.597
REMARK  1 active torsions:
REMARK  status: ('A' for Active; 'I' for Inactive)
REMARK    1  A    between atoms: C3_3  and  C4_4 
ROOT
HETATM    1  C1  UNL     1     -33.880   7.126   4.924  1.00 20.00     0.175 C 
HETATM    2  C2  UNL     1     -34.600   5.823   6.349  1.00 20.00     0.175 C 
HETATM    3  C3  UNL     1     -34.686   5.826   4.819  1.00 20.00     0.047 C 
HETATM    4  O5  UNL     1     -34.060   7.167   6.360  1.00 20.00    -0.390 OA
ENDROOT
BRANCH   3   5
HETATM    5  C4  UNL     1     -34.022   4.672   4.098  1.00 20.00     0.123 C 
HETATM    6 CL6  UNL     1     -33.045   5.266   2.739  1.00 20.00    -0.130 Cl
ENDBRANCH   3   5
TORSDOF 1
ENDMDL
MODEL 5
REMARK VINA RESULT:      -3.6      1.147      1.202
REMARK  1 active torsions:
REMARK  status: ('A' for Active; 'I' for Inactive)
REMARK    1  A    between atoms: C3_3  and  C4_4 
ROOT
HETATM    1  C1  UNL     1     -34.064   6.843   6.463  1.00 20.00     0.175 C 
HETATM    2  C2  UNL     1     -34.332   6.044   4.582  1.00 20.00     0.175 C 
HETATM    3  C3  UNL     1     -33.987   7.458   5.060  1.00 20.00     0.047 C 
HETATM    4  O5  UNL     1     -34.621   5.615   5.935  1.00 20.00    -0.390 OA
ENDROOT
BRANCH   3   5
HETATM    5  C4  UNL     1     -32.644   8.011   4.634  1.00 20.00     0.123 C 
HETATM    6 CL6  UNL     1     -32.187   7.378   3.038  1.00 20.00    -0.130 Cl
ENDBRANCH   3   5
TORSDOF 1
ENDMDL
MODEL 6
REMARK VINA RESULT:      -3.6      1.580      1.604
REMARK  1 active torsions:
REMARK  status: ('A' for Active; 'I' for Inactive)
REMARK    1  A    between atoms: C3_3  and  C4_4 
ROOT
HETATM    1  C1  UNL     1     -34.063   6.695   6.315  1.00 20.00     0.175 C 
HETATM    2  C2  UNL     1     -34.745   5.341   4.920  1.00 20.00     0.175 C 
HETATM    3  C3  UNL     1     -34.262   6.790   4.798  1.00 20.00     0.047 C 
HETATM    4  O5  UNL     1     -34.757   5.425   6.365  1.00 20.00    -0.390 OA
ENDROOT
BRANCH   3   5
HETATM    5  C4  UNL     1     -33.021   7.025   3.964  1.00 20.00     0.123 C 
HETATM    6 CL6  UNL     1     -32.816   5.725   2.770  1.00 20.00    -0.130 Cl
ENDBRANCH   3   5
TORSDOF 1
ENDMDL
MODEL 7
REMARK VINA RESULT:      -3.3      1.495      1.503
REMARK  1 active torsions:
REMARK  status: ('A' for Active; 'I' for Inactive)
REMARK    1  A    between atoms: C3_3  and  C4_4 
ROOT
HETATM    1  C1  UNL     1     -34.669   4.959   5.338  1.00 20.00     0.175 C 
HETATM    2  C2  UNL     1     -33.670   5.136   3.545  1.00 20.00     0.175 C 
HETATM    3  C3  UNL     1     -34.522   6.122   4.350  1.00 20.00     0.047 C 
HETATM    4  O5  UNL     1     -34.062   4.037   4.401  1.00 20.00    -0.390 OA
ENDROOT
BRANCH   3   5
HETATM    5  C4  UNL     1     -33.825   7.364   4.862  1.00 20.00     0.123 C 
HETATM    6 CL6  UNL     1     -33.954   7.468   6.631  1.00 20.00    -0.130 Cl
ENDBRANCH   3   5
TORSDOF 1
ENDMDL
MODEL 8
REMARK VINA RESULT:      -3.3      2.847      3.361
REMARK  1 active torsions:
REMARK  status: ('A' for Active; 'I' for Inactive)
REMARK    1  A    between atoms: C3_3  and  C4_4 
ROOT
HETATM    1  C1  UNL     1     -33.294   8.651   5.164  1.00 20.00     0.175 C 
HETATM    2  C2  UNL     1     -32.466   7.528   3.648  1.00 20.00     0.175 C 
HETATM    3  C3  UNL     1     -33.189   7.138   4.941  1.00 20.00     0.047 C 
HETATM    4  O5  UNL     1     -32.396   8.915   4.060  1.00 20.00    -0.390 OA
ENDROOT
BRANCH   3   5
HETATM    5  C4  UNL     1     -34.492   6.382   4.789  1.00 20.00     0.123 C 
HETATM    6 CL6  UNL     1     -34.784   5.352   6.207  1.00 20.00    -0.130 Cl
ENDBRANCH   3   5
TORSDOF 1
ENDMDL
MODEL 9
REMARK VINA RESULT:      -2.9     13.240     13.555
REMARK  1 active torsions:
REMARK  status: ('A' for Active; 'I' for Inactive)
REMARK    1  A    between atoms: C3_3  and  C4_4 
ROOT
HETATM    1  C1  UNL     1     -35.986  14.266  -5.329  1.00 20.00     0.175 C 
HETATM    2  C2  UNL     1     -34.676  15.137  -6.660  1.00 20.00     0.175 C 
HETATM    3  C3  UNL     1     -34.863  15.295  -5.148  1.00 20.00     0.047 C 
HETATM    4  O5  UNL     1     -35.898  14.367  -6.770  1.00 20.00    -0.390 OA
ENDROOT
BRANCH   3   5
HETATM    5  C4  UNL     1     -33.699  14.882  -4.272  1.00 20.00     0.123 C 
HETATM    6 CL6  UNL     1     -33.389  16.112  -3.028  1.00 20.00    -0.130 Cl
ENDBRANCH   3   5
TORSDOF 1
ENDMDL
