MODEL 1
REMARK VINA RESULT:      -4.5      0.000      0.000
REMARK  2 active torsions:
REMARK  status: ('A' for Active; 'I' for Inactive)
REMARK    1  A    between atoms: C1_1  and  C5_5 
REMARK    2  A    between atoms: C5_5  and  C7_7 
ROOT
HETATM    1  C2  UNL     1     -34.944   5.873   6.254  1.00 20.00     0.002 C 
HETATM    2  C3  UNL     1     -35.231   5.985   4.747  1.00 20.00     0.020 C 
HETATM    3  C4  UNL     1     -33.443   5.971   5.925  1.00 20.00     0.020 C 
HETATM    4  C5  UNL     1     -33.822   6.633   4.563  1.00 20.00     0.048 C 
ENDROOT
BRANCH   4   5
HETATM    5  C1  UNL     1     -33.015   6.128   3.335  1.00 20.00     0.181 C 
HETATM    6  O8  UNL     1     -33.196   4.916   3.033  1.00 20.00    -0.647 OA
HETATM    7  O9  UNL     1     -32.276   6.997   2.791  1.00 20.00    -0.647 OA
ENDBRANCH   4   5
BRANCH   4   8
HETATM    8  C7  UNL     1     -33.843   8.162   4.613  1.00 20.00     0.016 C 
HETATM    9  C6  UNL     1     -32.523   8.722   5.035  1.00 20.00     0.006 C 
ENDBRANCH   4   8
TORSDOF 2
ENDMDL
MODEL 2
REMARK VINA RESULT:      -4.3      1.758      2.828
REMARK  2 active torsions:
REMARK  status: ('A' for Active; 'I' for Inactive)
REMARK    1  A    between atoms: C1_1  and  C5_5 
REMARK    2  A    between atoms: C5_5  and  C7_7 
ROOT
HETATM    1  C2  UNL     1     -33.368   8.567   5.588  1.00 20.00     0.002 C 
HETATM    2  C3  UNL     1     -34.371   8.155   4.497  1.00 20.00     0.020 C 
HETATM    3  C4  UNL     1     -33.288   7.088   6.006  1.00 20.00     0.020 C 
HETATM    4  C5  UNL     1     -33.817   6.697   4.589  1.00 20.00     0.048 C 
ENDROOT
BRANCH   4   5
HETATM    5  C1  UNL     1     -34.893   5.577   4.571  1.00 20.00     0.181 C 
HETATM    6  O8  UNL     1     -36.034   5.932   4.167  1.00 20.00    -0.647 OA
HETATM    7  O9  UNL     1     -34.488   4.446   4.964  1.00 20.00    -0.647 OA
ENDBRANCH   4   5
BRANCH   4   8
HETATM    8  C7  UNL     1     -32.703   6.404   3.582  1.00 20.00     0.016 C 
HETATM    9  C6  UNL     1     -33.092   5.327   2.622  1.00 20.00     0.006 C 
ENDBRANCH   4   8
TORSDOF 2
ENDMDL
MODEL 3
REMARK VINA RESULT:      -4.3      1.287      2.931
REMARK  2 active torsions:
REMARK  status: ('A' for Active; 'I' for Inactive)
REMARK    1  A    between atoms: C1_1  and  C5_5 
REMARK    2  A    between atoms: C5_5  and  C7_7 
ROOT
HETATM    1  C2  UNL     1     -32.643   8.916   4.488  1.00 20.00     0.002 C 
HETATM    2  C3  UNL     1     -32.289   7.435   4.270  1.00 20.00     0.020 C 
HETATM    3  C4  UNL     1     -34.128   8.511   4.487  1.00 20.00     0.020 C 
HETATM    4  C5  UNL     1     -33.692   7.053   4.839  1.00 20.00     0.048 C 
ENDROOT
BRANCH   4   5
HETATM    5  C1  UNL     1     -34.440   5.933   4.063  1.00 20.00     0.181 C 
HETATM    6  O8  UNL     1     -33.705   5.168   3.381  1.00 20.00    -0.647 OA
HETATM    7  O9  UNL     1     -35.694   5.931   4.214  1.00 20.00    -0.647 OA
ENDBRANCH   4   5
BRANCH   4   8
HETATM    8  C7  UNL     1     -33.682   6.765   6.342  1.00 20.00     0.016 C 
HETATM    9  C6  UNL     1     -34.334   5.459   6.661  1.00 20.00     0.006 C 
ENDBRANCH   4   8
TORSDOF 2
ENDMDL
MODEL 4
REMARK VINA RESULT:      -4.2     15.486     16.534
REMARK  2 active torsions:
REMARK  status: ('A' for Active; 'I' for Inactive)
REMARK    1  A    between atoms: C1_1  and  C5_5 
REMARK    2  A    between atoms: C5_5  and  C7_7 
ROOT
HETATM    1  C2  UNL     1     -23.889  17.291  11.998  1.00 20.00     0.002 C 
HETATM    2  C3  UNL     1     -23.927  16.794  10.543  1.00 20.00     0.020 C 
HETATM    3  C4  UNL     1     -22.728  18.220  11.599  1.00 20.00     0.020 C 
HETATM    4  C5  UNL     1     -23.195  18.106  10.113  1.00 20.00     0.048 C 
ENDROOT
BRANCH   4   5
HETATM    5  C1  UNL     1     -22.056  17.919   9.073  1.00 20.00     0.181 C 
HETATM    6  O8  UNL     1     -21.306  18.920   8.910  1.00 20.00    -0.647 OA
HETATM    7  O9  UNL     1     -22.025  16.784   8.519  1.00 20.00    -0.647 OA
ENDBRANCH   4   5
BRANCH   4   8
HETATM    8  C7  UNL     1     -24.149  19.224   9.687  1.00 20.00     0.016 C 
HETATM    9  C6  UNL     1     -24.455  19.165   8.225  1.00 20.00     0.006 C 
ENDBRANCH   4   8
TORSDOF 2
ENDMDL
MODEL 5
REMARK VINA RESULT:      -4.0      0.808      2.604
REMARK  2 active torsions:
REMARK  status: ('A' for Active; 'I' for Inactive)
REMARK    1  A    between atoms: C1_1  and  C5_5 
REMARK    2  A    between atoms: C5_5  and  C7_7 
ROOT
HETATM    1  C2  UNL     1     -33.877   8.553   5.774  1.00 20.00     0.002 C 
HETATM    2  C3  UNL     1     -32.995   7.294   5.709  1.00 20.00     0.020 C 
HETATM    3  C4  UNL     1     -34.180   8.358   4.278  1.00 20.00     0.020 C 
HETATM    4  C5  UNL     1     -33.775   6.857   4.428  1.00 20.00     0.048 C 
ENDROOT
BRANCH   4   5
HETATM    5  C1  UNL     1     -32.897   6.291   3.278  1.00 20.00     0.181 C 
HETATM    6  O8  UNL     1     -32.052   7.095   2.799  1.00 20.00    -0.647 OA
HETATM    7  O9  UNL     1     -33.142   5.091   2.967  1.00 20.00    -0.647 OA
ENDBRANCH   4   5
BRANCH   4   8
HETATM    8  C7  UNL     1     -34.959   5.933   4.721  1.00 20.00     0.016 C 
HETATM    9  C6  UNL     1     -34.685   5.031   5.880  1.00 20.00     0.006 C 
ENDBRANCH   4   8
TORSDOF 2
ENDMDL
MODEL 6
REMARK VINA RESULT:      -3.9     12.677     13.735
REMARK  2 active torsions:
REMARK  status: ('A' for Active; 'I' for Inactive)
REMARK    1  A    between atoms: C1_1  and  C5_5 
REMARK    2  A    between atoms: C5_5  and  C7_7 
ROOT
HETATM    1  C2  UNL     1     -33.336  15.731  -3.790  1.00 20.00     0.002 C 
HETATM    2  C3  UNL     1     -34.310  16.567  -4.637  1.00 20.00     0.020 C 
HETATM    3  C4  UNL     1     -34.014  14.467  -4.345  1.00 20.00     0.020 C 
HETATM    4  C5  UNL     1     -34.535  15.317  -5.547  1.00 20.00     0.048 C 
ENDROOT
BRANCH   4   5
HETATM    5  C1  UNL     1     -36.010  15.051  -5.956  1.00 20.00     0.181 C 
HETATM    6  O8  UNL     1     -36.863  15.813  -5.422  1.00 20.00    -0.647 OA
HETATM    7  O9  UNL     1     -36.170  14.103  -6.775  1.00 20.00    -0.647 OA
ENDBRANCH   4   5
BRANCH   4   8
HETATM    8  C7  UNL     1     -33.612  15.277  -6.767  1.00 20.00     0.016 C 
HETATM    9  C6  UNL     1     -34.089  16.185  -7.854  1.00 20.00     0.006 C 
ENDBRANCH   4   8
TORSDOF 2
ENDMDL
MODEL 7
REMARK VINA RESULT:      -3.9      9.606     10.455
REMARK  2 active torsions:
REMARK  status: ('A' for Active; 'I' for Inactive)
REMARK    1  A    between atoms: C1_1  and  C5_5 
REMARK    2  A    between atoms: C5_5  and  C7_7 
ROOT
HETATM    1  C2  UNL     1     -39.722  11.876   4.789  1.00 20.00     0.002 C 
HETATM    2  C3  UNL     1     -40.497  13.198   4.912  1.00 20.00     0.020 C 
HETATM    3  C4  UNL     1     -39.506  11.917   6.312  1.00 20.00     0.020 C 
HETATM    4  C5  UNL     1     -40.731  12.879   6.423  1.00 20.00     0.048 C 
ENDROOT
BRANCH   4   5
HETATM    5  C1  UNL     1     -40.544  14.079   7.392  1.00 20.00     0.181 C 
HETATM    6  O8  UNL     1     -40.671  15.220   6.867  1.00 20.00    -0.647 OA
HETATM    7  O9  UNL     1     -40.286  13.761   8.587  1.00 20.00    -0.647 OA
ENDBRANCH   4   5
BRANCH   4   8
HETATM    8  C7  UNL     1     -42.051  12.155   6.696  1.00 20.00     0.016 C 
HETATM    9  C6  UNL     1     -43.184  13.114   6.872  1.00 20.00     0.006 C 
ENDBRANCH   4   8
TORSDOF 2
ENDMDL
MODEL 8
REMARK VINA RESULT:      -3.9      1.378      2.560
REMARK  2 active torsions:
REMARK  status: ('A' for Active; 'I' for Inactive)
REMARK    1  A    between atoms: C1_1  and  C5_5 
REMARK    2  A    between atoms: C5_5  and  C7_7 
ROOT
HETATM    1  C2  UNL     1     -35.103   5.341   6.046  1.00 20.00     0.002 C 
HETATM    2  C3  UNL     1     -33.702   5.956   6.201  1.00 20.00     0.020 C 
HETATM    3  C4  UNL     1     -35.255   6.136   4.737  1.00 20.00     0.020 C 
HETATM    4  C5  UNL     1     -33.698   6.246   4.666  1.00 20.00     0.048 C 
ENDROOT
BRANCH   4   5
HETATM    5  C1  UNL     1     -33.151   7.640   4.255  1.00 20.00     0.181 C 
HETATM    6  O8  UNL     1     -31.922   7.675   3.973  1.00 20.00    -0.647 OA
HETATM    7  O9  UNL     1     -34.009   8.568   4.255  1.00 20.00    -0.647 OA
ENDBRANCH   4   5
BRANCH   4   8
HETATM    8  C7  UNL     1     -33.047   5.136   3.838  1.00 20.00     0.016 C 
HETATM    9  C6  UNL     1     -33.049   5.458   2.379  1.00 20.00     0.006 C 
ENDBRANCH   4   8
TORSDOF 2
ENDMDL
MODEL 9
REMARK VINA RESULT:      -3.9      1.378      2.550
REMARK  2 active torsions:
REMARK  status: ('A' for Active; 'I' for Inactive)
REMARK    1  A    between atoms: C1_1  and  C5_5 
REMARK    2  A    between atoms: C5_5  and  C7_7 
ROOT
HETATM    1  C2  UNL     1     -35.091   5.346   6.053  1.00 20.00     0.002 C 
HETATM    2  C3  UNL     1     -33.694   5.973   6.198  1.00 20.00     0.020 C 
HETATM    3  C4  UNL     1     -35.255   6.134   4.741  1.00 20.00     0.020 C 
HETATM    4  C5  UNL     1     -33.700   6.255   4.661  1.00 20.00     0.048 C 
ENDROOT
BRANCH   4   5
HETATM    5  C1  UNL     1     -33.166   7.652   4.241  1.00 20.00     0.181 C 
HETATM    6  O8  UNL     1     -34.026   8.574   4.220  1.00 20.00    -0.647 OA
HETATM    7  O9  UNL     1     -31.932   7.689   3.972  1.00 20.00    -0.647 OA
ENDBRANCH   4   5
BRANCH   4   8
HETATM    8  C7  UNL     1     -33.044   5.146   3.836  1.00 20.00     0.016 C 
HETATM    9  C6  UNL     1     -33.024   5.477   2.379  1.00 20.00     0.006 C 
ENDBRANCH   4   8
TORSDOF 2
ENDMDL
