MODEL 1
REMARK VINA RESULT:      -4.6      0.000      0.000
REMARK  2 active torsions:
REMARK  status: ('A' for Active; 'I' for Inactive)
REMARK    1  A    between atoms: C1_1  and  C3_3 
REMARK    2  A    between atoms: C4_4  and  O10_10 
ROOT
HETATM    1  C3  UNL     1     -23.973  17.384  10.538  1.00 20.00     0.048 A 
HETATM    2  C4  UNL     1     -23.902  16.585  11.816  1.00 20.00     0.135 A 
HETATM    3  C5  UNL     1     -23.921  18.099  11.878  1.00 20.00    -0.012 A 
HETATM    4  C8  UNL     1     -25.177  18.803  12.330  1.00 20.00     0.018 C 
HETATM    5  C9  UNL     1     -22.655  18.784  12.332  1.00 20.00     0.018 C 
ENDROOT
BRANCH   1   6
HETATM    6  C1  UNL     1     -22.825  17.387   9.643  1.00 20.00    -0.017 C 
HETATM    7  C2  UNL     1     -22.608  18.190   8.584  1.00 20.00    -0.091 C 
HETATM    8  C6  UNL     1     -21.360  18.063   7.755  1.00 20.00     0.042 C 
HETATM    9  C7  UNL     1     -23.562  19.262   8.138  1.00 20.00     0.042 C 
ENDBRANCH   1   6
BRANCH   2  10
HETATM   10  O10 UNL     1     -25.107  15.895  12.190  1.00 20.00    -0.394 OA
HETATM   11  H26 UNL     1     -25.641  16.540  12.674  1.00 20.00     0.210 HD
ENDBRANCH   2  10
TORSDOF 2
ENDMDL
MODEL 2
REMARK VINA RESULT:      -3.8     14.904     15.962
REMARK  2 active torsions:
REMARK  status: ('A' for Active; 'I' for Inactive)
REMARK    1  A    between atoms: C1_1  and  C3_3 
REMARK    2  A    between atoms: C4_4  and  O10_10 
ROOT
HETATM    1  C3  UNL     1     -33.573   8.040   4.191  1.00 20.00     0.048 A 
HETATM    2  C4  UNL     1     -32.144   8.429   4.480  1.00 20.00     0.135 A 
HETATM    3  C5  UNL     1     -32.601   8.266   3.045  1.00 20.00    -0.012 A 
HETATM    4  C8  UNL     1     -32.817   9.494   2.194  1.00 20.00     0.018 C 
HETATM    5  C9  UNL     1     -32.040   7.096   2.274  1.00 20.00     0.018 C 
ENDROOT
BRANCH   1   6
HETATM    6  C1  UNL     1     -34.022   6.700   4.538  1.00 20.00    -0.017 C 
HETATM    7  C2  UNL     1     -34.350   6.230   5.758  1.00 20.00    -0.091 C 
HETATM    8  C6  UNL     1     -34.799   4.808   5.949  1.00 20.00     0.042 C 
HETATM    9  C7  UNL     1     -34.301   7.056   7.012  1.00 20.00     0.042 C 
ENDBRANCH   1   6
BRANCH   2  10
HETATM   10  O10 UNL     1     -31.947   9.771   4.960  1.00 20.00    -0.394 OA
HETATM   11  H26 UNL     1     -32.220   9.762   5.887  1.00 20.00     0.210 HD
ENDBRANCH   2  10
TORSDOF 2
ENDMDL
MODEL 3
REMARK VINA RESULT:      -3.8     17.046     18.805
REMARK  2 active torsions:
REMARK  status: ('A' for Active; 'I' for Inactive)
REMARK    1  A    between atoms: C1_1  and  C3_3 
REMARK    2  A    between atoms: C4_4  and  O10_10 
ROOT
HETATM    1  C3  UNL     1     -33.934  16.299  -4.688  1.00 20.00     0.048 A 
HETATM    2  C4  UNL     1     -34.260  14.845  -4.454  1.00 20.00     0.135 A 
HETATM    3  C5  UNL     1     -34.718  15.520  -5.731  1.00 20.00    -0.012 A 
HETATM    4  C8  UNL     1     -34.013  15.204  -7.027  1.00 20.00     0.018 C 
HETATM    5  C9  UNL     1     -36.203  15.741  -5.895  1.00 20.00     0.018 C 
ENDROOT
BRANCH   1   6
HETATM    6  C1  UNL     1     -34.582  17.309  -3.864  1.00 20.00    -0.017 C 
HETATM    7  C2  UNL     1     -34.217  17.729  -2.637  1.00 20.00    -0.091 C 
HETATM    8  C6  UNL     1     -35.001  18.789  -1.914  1.00 20.00     0.042 C 
HETATM    9  C7  UNL     1     -33.027  17.197  -1.891  1.00 20.00     0.042 C 
ENDBRANCH   1   6
BRANCH   2  10
HETATM   10  O10 UNL     1     -33.153  13.932  -4.552  1.00 20.00    -0.394 OA
HETATM   11  H26 UNL     1     -33.355  13.351  -5.297  1.00 20.00     0.210 HD
ENDBRANCH   2  10
TORSDOF 2
ENDMDL
MODEL 4
REMARK VINA RESULT:      -3.7     16.853     18.576
REMARK  2 active torsions:
REMARK  status: ('A' for Active; 'I' for Inactive)
REMARK    1  A    between atoms: C1_1  and  C3_3 
REMARK    2  A    between atoms: C4_4  and  O10_10 
ROOT
HETATM    1  C3  UNL     1     -33.620  16.218  -4.532  1.00 20.00     0.048 A 
HETATM    2  C4  UNL     1     -34.384  15.108  -5.209  1.00 20.00     0.135 A 
HETATM    3  C5  UNL     1     -34.774  16.549  -5.463  1.00 20.00    -0.012 A 
HETATM    4  C8  UNL     1     -34.428  17.186  -6.786  1.00 20.00     0.018 C 
HETATM    5  C9  UNL     1     -36.099  17.010  -4.905  1.00 20.00     0.018 C 
ENDROOT
BRANCH   1   6
HETATM    6  C1  UNL     1     -33.747  16.385  -3.092  1.00 20.00    -0.017 C 
HETATM    7  C2  UNL     1     -33.441  17.473  -2.358  1.00 20.00    -0.091 C 
HETATM    8  C6  UNL     1     -33.632  17.484  -0.867  1.00 20.00     0.042 C 
HETATM    9  C7  UNL     1     -32.894  18.746  -2.939  1.00 20.00     0.042 C 
ENDBRANCH   1   6
BRANCH   2  10
HETATM   10  O10 UNL     1     -33.685  14.420  -6.262  1.00 20.00    -0.394 OA
HETATM   11  H26 UNL     1     -32.816  14.199  -5.902  1.00 20.00     0.210 HD
ENDBRANCH   2  10
TORSDOF 2
ENDMDL
MODEL 5
REMARK VINA RESULT:      -3.7     14.929     16.479
REMARK  2 active torsions:
REMARK  status: ('A' for Active; 'I' for Inactive)
REMARK    1  A    between atoms: C1_1  and  C3_3 
REMARK    2  A    between atoms: C4_4  and  O10_10 
ROOT
HETATM    1  C3  UNL     1     -33.005  17.526  -2.112  1.00 20.00     0.048 A 
HETATM    2  C4  UNL     1     -32.299  18.778  -1.652  1.00 20.00     0.135 A 
HETATM    3  C5  UNL     1     -33.618  18.385  -1.018  1.00 20.00    -0.012 A 
HETATM    4  C8  UNL     1     -33.625  17.816   0.379  1.00 20.00     0.018 C 
HETATM    5  C9  UNL     1     -34.810  19.263  -1.313  1.00 20.00     0.018 C 
ENDROOT
BRANCH   1   6
HETATM    6  C1  UNL     1     -33.580  17.491  -3.448  1.00 20.00    -0.017 C 
HETATM    7  C2  UNL     1     -33.894  16.406  -4.182  1.00 20.00    -0.091 C 
HETATM    8  C6  UNL     1     -34.487  16.542  -5.557  1.00 20.00     0.042 C 
HETATM    9  C7  UNL     1     -33.691  14.993  -3.713  1.00 20.00     0.042 C 
ENDBRANCH   1   6
BRANCH   2  10
HETATM   10  O10 UNL     1     -31.107  18.574  -0.873  1.00 20.00    -0.394 OA
HETATM   11  H26 UNL     1     -30.417  19.092  -1.307  1.00 20.00     0.210 HD
ENDBRANCH   2  10
TORSDOF 2
ENDMDL
MODEL 6
REMARK VINA RESULT:      -3.7     18.429     20.052
REMARK  2 active torsions:
REMARK  status: ('A' for Active; 'I' for Inactive)
REMARK    1  A    between atoms: C1_1  and  C3_3 
REMARK    2  A    between atoms: C4_4  and  O10_10 
ROOT
HETATM    1  C3  UNL     1     -35.191  16.230  -5.770  1.00 20.00     0.048 A 
HETATM    2  C4  UNL     1     -36.093  15.022  -5.772  1.00 20.00     0.135 A 
HETATM    3  C5  UNL     1     -36.661  16.382  -6.121  1.00 20.00    -0.012 A 
HETATM    4  C8  UNL     1     -36.995  16.697  -7.559  1.00 20.00     0.018 C 
HETATM    5  C9  UNL     1     -37.624  16.997  -5.134  1.00 20.00     0.018 C 
ENDROOT
BRANCH   1   6
HETATM    6  C1  UNL     1     -34.669  16.718  -4.501  1.00 20.00    -0.017 C 
HETATM    7  C2  UNL     1     -33.674  16.192  -3.762  1.00 20.00    -0.091 C 
HETATM    8  C6  UNL     1     -33.252  16.822  -2.464  1.00 20.00     0.042 C 
HETATM    9  C7  UNL     1     -32.908  14.958  -4.149  1.00 20.00     0.042 C 
ENDBRANCH   1   6
BRANCH   2  10
HETATM   10  O10 UNL     1     -35.894  14.094  -6.853  1.00 20.00    -0.394 OA
HETATM   11  H26 UNL     1     -34.973  13.806  -6.788  1.00 20.00     0.210 HD
ENDBRANCH   2  10
TORSDOF 2
ENDMDL
MODEL 7
REMARK VINA RESULT:      -3.7     17.451     18.300
REMARK  2 active torsions:
REMARK  status: ('A' for Active; 'I' for Inactive)
REMARK    1  A    between atoms: C1_1  and  C3_3 
REMARK    2  A    between atoms: C4_4  and  O10_10 
ROOT
HETATM    1  C3  UNL     1     -40.853  13.040   6.707  1.00 20.00     0.048 A 
HETATM    2  C4  UNL     1     -40.444  14.442   7.086  1.00 20.00     0.135 A 
HETATM    3  C5  UNL     1     -41.905  14.129   6.835  1.00 20.00    -0.012 A 
HETATM    4  C8  UNL     1     -42.852  14.035   8.006  1.00 20.00     0.018 C 
HETATM    5  C9  UNL     1     -42.535  14.733   5.603  1.00 20.00     0.018 C 
ENDROOT
BRANCH   1   6
HETATM    6  C1  UNL     1     -40.467  12.522   5.403  1.00 20.00    -0.017 C 
HETATM    7  C2  UNL     1     -39.248  12.102   5.011  1.00 20.00    -0.091 C 
HETATM    8  C6  UNL     1     -39.013  11.590   3.617  1.00 20.00     0.042 C 
HETATM    9  C7  UNL     1     -38.037  12.103   5.901  1.00 20.00     0.042 C 
ENDBRANCH   1   6
BRANCH   2  10
HETATM   10  O10 UNL     1     -40.035  14.627   8.452  1.00 20.00    -0.394 OA
HETATM   11  H26 UNL     1     -39.184  14.178   8.536  1.00 20.00     0.210 HD
ENDBRANCH   2  10
TORSDOF 2
ENDMDL
MODEL 8
REMARK VINA RESULT:      -3.5     17.384     18.574
REMARK  2 active torsions:
REMARK  status: ('A' for Active; 'I' for Inactive)
REMARK    1  A    between atoms: C1_1  and  C3_3 
REMARK    2  A    between atoms: C4_4  and  O10_10 
ROOT
HETATM    1  C3  UNL     1     -40.439  13.880   6.570  1.00 20.00     0.048 A 
HETATM    2  C4  UNL     1     -40.655  12.498   6.004  1.00 20.00     0.135 A 
HETATM    3  C5  UNL     1     -41.771  13.520   5.934  1.00 20.00    -0.012 A 
HETATM    4  C8  UNL     1     -42.097  14.168   4.610  1.00 20.00     0.018 C 
HETATM    5  C9  UNL     1     -42.986  13.270   6.793  1.00 20.00     0.018 C 
ENDROOT
BRANCH   1   6
HETATM    6  C1  UNL     1     -40.316  14.041   8.011  1.00 20.00    -0.017 C 
HETATM    7  C2  UNL     1     -40.386  15.183   8.722  1.00 20.00    -0.091 C 
HETATM    8  C6  UNL     1     -40.237  15.178  10.218  1.00 20.00     0.042 C 
HETATM    9  C7  UNL     1     -40.613  16.536   8.109  1.00 20.00     0.042 C 
ENDBRANCH   1   6
BRANCH   2  10
HETATM   10  O10 UNL     1     -39.952  12.205   4.784  1.00 20.00    -0.394 OA
HETATM   11  H26 UNL     1     -39.192  11.666   5.039  1.00 20.00     0.210 HD
ENDBRANCH   2  10
TORSDOF 2
ENDMDL
MODEL 9
REMARK VINA RESULT:      -3.4     17.487     18.683
REMARK  2 active torsions:
REMARK  status: ('A' for Active; 'I' for Inactive)
REMARK    1  A    between atoms: C1_1  and  C3_3 
REMARK    2  A    between atoms: C4_4  and  O10_10 
ROOT
HETATM    1  C3  UNL     1     -41.025  13.741   7.183  1.00 20.00     0.048 A 
HETATM    2  C4  UNL     1     -42.273  12.982   6.805  1.00 20.00     0.135 A 
HETATM    3  C5  UNL     1     -41.110  13.044   5.836  1.00 20.00    -0.012 A 
HETATM    4  C8  UNL     1     -40.247  11.821   5.639  1.00 20.00     0.018 C 
HETATM    5  C9  UNL     1     -41.311  13.844   4.572  1.00 20.00     0.018 C 
ENDROOT
BRANCH   1   6
HETATM    6  C1  UNL     1     -41.085  15.192   7.281  1.00 20.00    -0.017 C 
HETATM    7  C2  UNL     1     -40.704  15.965   8.317  1.00 20.00    -0.091 C 
HETATM    8  C6  UNL     1     -40.832  17.461   8.259  1.00 20.00     0.042 C 
HETATM    9  C7  UNL     1     -40.130  15.424   9.596  1.00 20.00     0.042 C 
ENDBRANCH   1   6
BRANCH   2  10
HETATM   10  O10 UNL     1     -42.486  11.742   7.500  1.00 20.00    -0.394 OA
HETATM   11  H26 UNL     1     -41.639  11.277   7.477  1.00 20.00     0.210 HD
ENDBRANCH   2  10
TORSDOF 2
ENDMDL
