MODEL 1
REMARK VINA RESULT:      -4.4      0.000      0.000
REMARK  0 active torsions:
REMARK  status: ('A' for Active; 'I' for Inactive)
ROOT
HETATM    1  C1  UNL     1     -33.942   6.461   5.103  1.00 20.00    -0.054 C 
HETATM    2  C2  UNL     1     -33.132   7.132   4.260  1.00 20.00     0.091 C 
HETATM    3  C3  UNL     1     -34.579   5.156   4.704  1.00 20.00     0.046 C 
HETATM    4  C4  UNL     1     -34.306   6.925   6.487  1.00 20.00     0.046 C 
HETATM    5  C5  UNL     1     -32.414   8.409   4.554  1.00 20.00     0.082 C 
HETATM    6  F6  UNL     1     -32.915   6.599   3.033  1.00 20.00    -0.211 F 
ENDROOT
TORSDOF 0
ENDMDL
MODEL 2
REMARK VINA RESULT:      -4.4      1.714      2.315
REMARK  0 active torsions:
REMARK  status: ('A' for Active; 'I' for Inactive)
ROOT
HETATM    1  C1  UNL     1     -34.042   6.317   4.942  1.00 20.00    -0.054 C 
HETATM    2  C2  UNL     1     -33.774   5.360   4.032  1.00 20.00     0.091 C 
HETATM    3  C3  UNL     1     -34.740   5.994   6.236  1.00 20.00     0.046 C 
HETATM    4  C4  UNL     1     -33.701   7.773   4.773  1.00 20.00     0.046 C 
HETATM    5  C5  UNL     1     -33.056   5.549   2.735  1.00 20.00     0.082 C 
HETATM    6  F6  UNL     1     -34.163   4.092   4.315  1.00 20.00    -0.211 F 
ENDROOT
TORSDOF 0
ENDMDL
MODEL 3
REMARK VINA RESULT:      -4.4      1.763      3.255
REMARK  0 active torsions:
REMARK  status: ('A' for Active; 'I' for Inactive)
ROOT
HETATM    1  C1  UNL     1     -33.242   7.298   4.673  1.00 20.00    -0.054 C 
HETATM    2  C2  UNL     1     -34.082   6.731   5.561  1.00 20.00     0.091 C 
HETATM    3  C3  UNL     1     -32.632   8.651   4.924  1.00 20.00     0.046 C 
HETATM    4  C4  UNL     1     -32.838   6.674   3.364  1.00 20.00     0.046 C 
HETATM    5  C5  UNL     1     -34.716   5.383   5.443  1.00 20.00     0.082 C 
HETATM    6  F6  UNL     1     -34.370   7.425   6.690  1.00 20.00    -0.211 F 
ENDROOT
TORSDOF 0
ENDMDL
MODEL 4
REMARK VINA RESULT:      -4.4      1.445      2.066
REMARK  0 active torsions:
REMARK  status: ('A' for Active; 'I' for Inactive)
ROOT
HETATM    1  C1  UNL     1     -33.777   6.791   5.045  1.00 20.00    -0.054 C 
HETATM    2  C2  UNL     1     -32.867   7.627   4.505  1.00 20.00     0.091 C 
HETATM    3  C3  UNL     1     -34.262   6.970   6.458  1.00 20.00     0.046 C 
HETATM    4  C4  UNL     1     -34.383   5.614   4.330  1.00 20.00     0.046 C 
HETATM    5  C5  UNL     1     -32.341   7.577   3.107  1.00 20.00     0.082 C 
HETATM    6  F6  UNL     1     -32.394   8.633   5.281  1.00 20.00    -0.211 F 
ENDROOT
TORSDOF 0
ENDMDL
MODEL 5
REMARK VINA RESULT:      -4.3      1.235      2.540
REMARK  0 active torsions:
REMARK  status: ('A' for Active; 'I' for Inactive)
ROOT
HETATM    1  C1  UNL     1     -33.269   7.090   4.254  1.00 20.00    -0.054 C 
HETATM    2  C2  UNL     1     -33.826   5.875   4.084  1.00 20.00     0.091 C 
HETATM    3  C3  UNL     1     -32.224   7.612   3.306  1.00 20.00     0.046 C 
HETATM    4  C4  UNL     1     -33.603   8.031   5.381  1.00 20.00     0.046 C 
HETATM    5  C5  UNL     1     -34.897   5.266   4.931  1.00 20.00     0.082 C 
HETATM    6  F6  UNL     1     -33.407   5.129   3.032  1.00 20.00    -0.211 F 
ENDROOT
TORSDOF 0
ENDMDL
MODEL 6
REMARK VINA RESULT:      -4.3      1.777      2.215
REMARK  0 active torsions:
REMARK  status: ('A' for Active; 'I' for Inactive)
ROOT
HETATM    1  C1  UNL     1     -33.897   6.094   4.612  1.00 20.00    -0.054 C 
HETATM    2  C2  UNL     1     -33.670   7.235   5.292  1.00 20.00     0.091 C 
HETATM    3  C3  UNL     1     -34.793   5.018   5.164  1.00 20.00     0.046 C 
HETATM    4  C4  UNL     1     -33.292   5.765   3.273  1.00 20.00     0.046 C 
HETATM    5  C5  UNL     1     -32.837   8.388   4.832  1.00 20.00     0.082 C 
HETATM    6  F6  UNL     1     -34.269   7.381   6.499  1.00 20.00    -0.211 F 
ENDROOT
TORSDOF 0
ENDMDL
MODEL 7
REMARK VINA RESULT:      -4.2      1.410      2.235
REMARK  0 active torsions:
REMARK  status: ('A' for Active; 'I' for Inactive)
ROOT
HETATM    1  C1  UNL     1     -33.765   6.779   4.555  1.00 20.00    -0.054 C 
HETATM    2  C2  UNL     1     -32.929   6.487   3.539  1.00 20.00     0.091 C 
HETATM    3  C3  UNL     1     -33.640   8.064   5.327  1.00 20.00     0.046 C 
HETATM    4  C4  UNL     1     -34.874   5.880   5.031  1.00 20.00     0.046 C 
HETATM    5  C5  UNL     1     -32.978   5.267   2.676  1.00 20.00     0.082 C 
HETATM    6  F6  UNL     1     -31.961   7.387   3.238  1.00 20.00    -0.211 F 
ENDROOT
TORSDOF 0
ENDMDL
MODEL 8
REMARK VINA RESULT:      -4.2      1.381      1.713
REMARK  0 active torsions:
REMARK  status: ('A' for Active; 'I' for Inactive)
ROOT
HETATM    1  C1  UNL     1     -33.582   6.049   3.875  1.00 20.00    -0.054 C 
HETATM    2  C2  UNL     1     -33.052   7.258   4.147  1.00 20.00     0.091 C 
HETATM    3  C3  UNL     1     -33.045   5.192   2.761  1.00 20.00     0.046 C 
HETATM    4  C4  UNL     1     -34.741   5.439   4.618  1.00 20.00     0.046 C 
HETATM    5  C5  UNL     1     -33.471   8.179   5.247  1.00 20.00     0.082 C 
HETATM    6  F6  UNL     1     -32.022   7.685   3.376  1.00 20.00    -0.211 F 
ENDROOT
TORSDOF 0
ENDMDL
MODEL 9
REMARK VINA RESULT:      -4.0      1.719      2.992
REMARK  0 active torsions:
REMARK  status: ('A' for Active; 'I' for Inactive)
ROOT
HETATM    1  C1  UNL     1     -33.135   6.763   3.894  1.00 20.00    -0.054 C 
HETATM    2  C2  UNL     1     -33.842   7.065   5.001  1.00 20.00     0.091 C 
HETATM    3  C3  UNL     1     -32.272   7.790   3.212  1.00 20.00     0.046 C 
HETATM    4  C4  UNL     1     -33.134   5.415   3.224  1.00 20.00     0.046 C 
HETATM    5  C5  UNL     1     -34.699   6.125   5.786  1.00 20.00     0.082 C 
HETATM    6  F6  UNL     1     -33.759   8.331   5.478  1.00 20.00    -0.211 F 
ENDROOT
TORSDOF 0
ENDMDL
