MODEL 1
REMARK VINA RESULT:      -3.7      0.000      0.000
REMARK  0 active torsions:
REMARK  status: ('A' for Active; 'I' for Inactive)
ROOT
HETATM    1  C1  UNL     1     -33.176   7.706   5.105  1.00 20.00     0.238 C 
HETATM    2  C2  UNL     1     -34.045   6.908   5.721  1.00 20.00     0.189 C 
HETATM    3  F3  UNL     1     -32.692   7.413   3.884  1.00 20.00    -0.216 F 
HETATM    4  F4  UNL     1     -34.493   7.261   6.947  1.00 20.00    -0.196 F 
HETATM    5 BR5  UNL     1     -34.672   5.327   4.971  1.00 20.00    -0.015 Br
ENDROOT
TORSDOF 0
ENDMDL
MODEL 2
REMARK VINA RESULT:      -3.6      2.430      2.940
REMARK  0 active torsions:
REMARK  status: ('A' for Active; 'I' for Inactive)
ROOT
HETATM    1  C1  UNL     1     -34.701   5.175   6.017  1.00 20.00     0.238 C 
HETATM    2  C2  UNL     1     -34.812   6.118   5.083  1.00 20.00     0.189 C 
HETATM    3  F3  UNL     1     -33.710   5.199   6.928  1.00 20.00    -0.216 F 
HETATM    4  F4  UNL     1     -35.830   6.035   4.198  1.00 20.00    -0.196 F 
HETATM    5 BR5  UNL     1     -33.627   7.543   4.941  1.00 20.00    -0.015 Br
ENDROOT
TORSDOF 0
ENDMDL
MODEL 3
REMARK VINA RESULT:      -3.6      1.960      2.166
REMARK  0 active torsions:
REMARK  status: ('A' for Active; 'I' for Inactive)
ROOT
HETATM    1  C1  UNL     1     -34.684   5.657   5.216  1.00 20.00     0.238 C 
HETATM    2  C2  UNL     1     -34.188   6.794   5.701  1.00 20.00     0.189 C 
HETATM    3  F3  UNL     1     -34.402   5.243   3.967  1.00 20.00    -0.216 F 
HETATM    4  F4  UNL     1     -34.510   7.153   6.964  1.00 20.00    -0.196 F 
HETATM    5 BR5  UNL     1     -33.072   7.910   4.719  1.00 20.00    -0.015 Br
ENDROOT
TORSDOF 0
ENDMDL
MODEL 4
REMARK VINA RESULT:      -3.6      2.158      2.275
REMARK  0 active torsions:
REMARK  status: ('A' for Active; 'I' for Inactive)
ROOT
HETATM    1  C1  UNL     1     -32.330   7.631   3.570  1.00 20.00     0.238 C 
HETATM    2  C2  UNL     1     -32.729   8.099   4.750  1.00 20.00     0.189 C 
HETATM    3  F3  UNL     1     -32.700   6.413   3.132  1.00 20.00    -0.216 F 
HETATM    4  F4  UNL     1     -32.322   9.330   5.130  1.00 20.00    -0.196 F 
HETATM    5 BR5  UNL     1     -33.823   7.133   5.902  1.00 20.00    -0.015 Br
ENDROOT
TORSDOF 0
ENDMDL
MODEL 5
REMARK VINA RESULT:      -3.6      2.075      2.256
REMARK  0 active torsions:
REMARK  status: ('A' for Active; 'I' for Inactive)
ROOT
HETATM    1  C1  UNL     1     -34.411   5.055   4.537  1.00 20.00     0.238 C 
HETATM    2  C2  UNL     1     -34.426   5.975   5.499  1.00 20.00     0.189 C 
HETATM    3  F3  UNL     1     -33.757   5.258   3.378  1.00 20.00    -0.216 F 
HETATM    4  F4  UNL     1     -35.101   5.709   6.639  1.00 20.00    -0.196 F 
HETATM    5 BR5  UNL     1     -33.560   7.613   5.345  1.00 20.00    -0.015 Br
ENDROOT
TORSDOF 0
ENDMDL
MODEL 6
REMARK VINA RESULT:      -3.5      1.986      3.020
REMARK  0 active torsions:
REMARK  status: ('A' for Active; 'I' for Inactive)
ROOT
HETATM    1  C1  UNL     1     -34.698   5.788   5.808  1.00 20.00     0.238 C 
HETATM    2  C2  UNL     1     -34.117   6.272   4.712  1.00 20.00     0.189 C 
HETATM    3  F3  UNL     1     -34.718   6.482   6.960  1.00 20.00    -0.216 F 
HETATM    4  F4  UNL     1     -34.133   5.525   3.586  1.00 20.00    -0.196 F 
HETATM    5 BR5  UNL     1     -33.281   7.932   4.662  1.00 20.00    -0.015 Br
ENDROOT
TORSDOF 0
ENDMDL
MODEL 7
REMARK VINA RESULT:      -3.5      1.120      1.163
REMARK  0 active torsions:
REMARK  status: ('A' for Active; 'I' for Inactive)
ROOT
HETATM    1  C1  UNL     1     -32.733   7.504   4.008  1.00 20.00     0.238 C 
HETATM    2  C2  UNL     1     -33.714   7.325   4.890  1.00 20.00     0.189 C 
HETATM    3  F3  UNL     1     -32.429   6.567   3.092  1.00 20.00    -0.216 F 
HETATM    4  F4  UNL     1     -33.969   8.306   5.784  1.00 20.00    -0.196 F 
HETATM    5 BR5  UNL     1     -34.749   5.782   4.949  1.00 20.00    -0.015 Br
ENDROOT
TORSDOF 0
ENDMDL
MODEL 8
REMARK VINA RESULT:      -3.5      1.484      2.180
REMARK  0 active torsions:
REMARK  status: ('A' for Active; 'I' for Inactive)
ROOT
HETATM    1  C1  UNL     1     -33.541   7.840   4.565  1.00 20.00     0.238 C 
HETATM    2  C2  UNL     1     -33.814   6.538   4.619  1.00 20.00     0.189 C 
HETATM    3  F3  UNL     1     -33.825   8.663   5.591  1.00 20.00    -0.216 F 
HETATM    4  F4  UNL     1     -33.503   5.766   3.554  1.00 20.00    -0.196 F 
HETATM    5 BR5  UNL     1     -34.607   5.733   6.095  1.00 20.00    -0.015 Br
ENDROOT
TORSDOF 0
ENDMDL
MODEL 9
REMARK VINA RESULT:      -3.4      0.632      2.331
REMARK  0 active torsions:
REMARK  status: ('A' for Active; 'I' for Inactive)
ROOT
HETATM    1  C1  UNL     1     -33.733   7.583   5.783  1.00 20.00     0.238 C 
HETATM    2  C2  UNL     1     -33.736   6.747   4.747  1.00 20.00     0.189 C 
HETATM    3  F3  UNL     1     -34.431   7.320   6.903  1.00 20.00    -0.216 F 
HETATM    4  F4  UNL     1     -33.012   7.070   3.652  1.00 20.00    -0.196 F 
HETATM    5 BR5  UNL     1     -34.692   5.153   4.739  1.00 20.00    -0.015 Br
ENDROOT
TORSDOF 0
ENDMDL
