MODEL 1
REMARK VINA RESULT:      -6.0      0.000      0.000
REMARK  1 active torsions:
REMARK  status: ('A' for Active; 'I' for Inactive)
REMARK    1  A    between atoms: C2_2  and  C4_4 
ROOT
HETATM    1  C1  UNL     1     -33.397   7.692   4.982  1.00 20.00     0.116 C 
HETATM    2  C2  UNL     1     -33.709   6.520   4.402  1.00 20.00     0.151 C 
HETATM    3  C3  UNL     1     -32.327   8.649   4.560  1.00 20.00     0.084 C 
HETATM    4  F5  UNL     1     -34.117   8.066   6.068  1.00 20.00    -0.209 F 
HETATM    5 CL9  UNL     1     -32.863   5.929   3.007  1.00 20.00    -0.076 Cl
ENDROOT
BRANCH   2   6
HETATM    6  C4  UNL     1     -34.793   5.603   4.871  1.00 20.00     0.430 C 
HETATM    7  F6  UNL     1     -34.558   4.316   4.500  1.00 20.00    -0.165 F 
HETATM    8  F7  UNL     1     -34.946   5.589   6.221  1.00 20.00    -0.165 F 
HETATM    9  F8  UNL     1     -36.001   5.947   4.352  1.00 20.00    -0.165 F 
ENDBRANCH   2   6
TORSDOF 1
ENDMDL
MODEL 2
REMARK VINA RESULT:      -6.0      0.045      1.249
REMARK  1 active torsions:
REMARK  status: ('A' for Active; 'I' for Inactive)
REMARK    1  A    between atoms: C2_2  and  C4_4 
ROOT
HETATM    1  C1  UNL     1     -33.385   7.683   4.955  1.00 20.00     0.116 C 
HETATM    2  C2  UNL     1     -33.689   6.506   4.380  1.00 20.00     0.151 C 
HETATM    3  C3  UNL     1     -32.321   8.644   4.531  1.00 20.00     0.084 C 
HETATM    4  F5  UNL     1     -34.110   8.057   6.039  1.00 20.00    -0.209 F 
HETATM    5 CL9  UNL     1     -32.837   5.915   2.989  1.00 20.00    -0.076 Cl
ENDROOT
BRANCH   2   6
HETATM    6  C4  UNL     1     -34.768   5.585   4.851  1.00 20.00     0.430 C 
HETATM    7  F6  UNL     1     -34.863   5.573   6.207  1.00 20.00    -0.165 F 
HETATM    8  F7  UNL     1     -36.002   5.910   4.385  1.00 20.00    -0.165 F 
HETATM    9  F8  UNL     1     -34.537   4.303   4.463  1.00 20.00    -0.165 F 
ENDBRANCH   2   6
TORSDOF 1
ENDMDL
MODEL 3
REMARK VINA RESULT:      -5.7      1.835      2.279
REMARK  1 active torsions:
REMARK  status: ('A' for Active; 'I' for Inactive)
REMARK    1  A    between atoms: C2_2  and  C4_4 
ROOT
HETATM    1  C1  UNL     1     -33.055   7.124   4.144  1.00 20.00     0.116 C 
HETATM    2  C2  UNL     1     -33.896   6.665   5.086  1.00 20.00     0.151 C 
HETATM    3  C3  UNL     1     -32.187   8.340   4.226  1.00 20.00     0.084 C 
HETATM    4  F5  UNL     1     -32.969   6.424   2.985  1.00 20.00    -0.209 F 
HETATM    5 CL9  UNL     1     -34.098   7.469   6.611  1.00 20.00    -0.076 Cl
ENDROOT
BRANCH   2   6
HETATM    6  C4  UNL     1     -34.741   5.439   4.946  1.00 20.00     0.430 C 
HETATM    7  F6  UNL     1     -35.877   5.690   4.241  1.00 20.00    -0.165 F 
HETATM    8  F7  UNL     1     -34.114   4.417   4.307  1.00 20.00    -0.165 F 
HETATM    9  F8  UNL     1     -35.129   4.956   6.155  1.00 20.00    -0.165 F 
ENDBRANCH   2   6
TORSDOF 1
ENDMDL
MODEL 4
REMARK VINA RESULT:      -5.7      1.834      2.272
REMARK  1 active torsions:
REMARK  status: ('A' for Active; 'I' for Inactive)
REMARK    1  A    between atoms: C2_2  and  C4_4 
ROOT
HETATM    1  C1  UNL     1     -33.054   7.131   4.145  1.00 20.00     0.116 C 
HETATM    2  C2  UNL     1     -33.900   6.675   5.085  1.00 20.00     0.151 C 
HETATM    3  C3  UNL     1     -32.174   8.338   4.235  1.00 20.00     0.084 C 
HETATM    4  F5  UNL     1     -32.973   6.437   2.983  1.00 20.00    -0.209 F 
HETATM    5 CL9  UNL     1     -34.095   7.473   6.614  1.00 20.00    -0.076 Cl
ENDROOT
BRANCH   2   6
HETATM    6  C4  UNL     1     -34.756   5.459   4.937  1.00 20.00     0.430 C 
HETATM    7  F6  UNL     1     -35.143   4.966   6.144  1.00 20.00    -0.165 F 
HETATM    8  F7  UNL     1     -35.896   5.679   4.232  1.00 20.00    -0.165 F 
HETATM    9  F8  UNL     1     -34.098   4.456   4.297  1.00 20.00    -0.165 F 
ENDBRANCH   2   6
TORSDOF 1
ENDMDL
MODEL 5
REMARK VINA RESULT:      -5.7      1.843      1.919
REMARK  1 active torsions:
REMARK  status: ('A' for Active; 'I' for Inactive)
REMARK    1  A    between atoms: C2_2  and  C4_4 
ROOT
HETATM    1  C1  UNL     1     -33.055   7.132   4.142  1.00 20.00     0.116 C 
HETATM    2  C2  UNL     1     -33.895   6.672   5.086  1.00 20.00     0.151 C 
HETATM    3  C3  UNL     1     -32.183   8.345   4.227  1.00 20.00     0.084 C 
HETATM    4  F5  UNL     1     -32.975   6.437   2.981  1.00 20.00    -0.209 F 
HETATM    5 CL9  UNL     1     -34.089   7.471   6.614  1.00 20.00    -0.076 Cl
ENDROOT
BRANCH   2   6
HETATM    6  C4  UNL     1     -34.744   5.450   4.943  1.00 20.00     0.430 C 
HETATM    7  F6  UNL     1     -34.084   4.451   4.299  1.00 20.00    -0.165 F 
HETATM    8  F7  UNL     1     -35.154   4.932   6.130  1.00 20.00    -0.165 F 
HETATM    9  F8  UNL     1     -35.870   5.702   4.226  1.00 20.00    -0.165 F 
ENDBRANCH   2   6
TORSDOF 1
ENDMDL
MODEL 6
REMARK VINA RESULT:      -5.4      2.024      3.294
REMARK  1 active torsions:
REMARK  status: ('A' for Active; 'I' for Inactive)
REMARK    1  A    between atoms: C2_2  and  C4_4 
ROOT
HETATM    1  C1  UNL     1     -34.048   6.610   5.446  1.00 20.00     0.116 C 
HETATM    2  C2  UNL     1     -33.379   6.662   4.282  1.00 20.00     0.151 C 
HETATM    3  C3  UNL     1     -34.814   5.448   5.994  1.00 20.00     0.084 C 
HETATM    4  F5  UNL     1     -34.040   7.721   6.224  1.00 20.00    -0.209 F 
HETATM    5 CL9  UNL     1     -33.312   5.308   3.198  1.00 20.00    -0.076 Cl
ENDROOT
BRANCH   2   6
HETATM    6  C4  UNL     1     -32.629   7.857   3.786  1.00 20.00     0.430 C 
HETATM    7  F6  UNL     1     -33.455   8.915   3.570  1.00 20.00    -0.165 F 
HETATM    8  F7  UNL     1     -31.670   8.291   4.644  1.00 20.00    -0.165 F 
HETATM    9  F8  UNL     1     -32.002   7.602   2.607  1.00 20.00    -0.165 F 
ENDBRANCH   2   6
TORSDOF 1
ENDMDL
MODEL 7
REMARK VINA RESULT:      -5.4      1.627      2.670
REMARK  1 active torsions:
REMARK  status: ('A' for Active; 'I' for Inactive)
REMARK    1  A    between atoms: C2_2  and  C4_4 
ROOT
HETATM    1  C1  UNL     1     -33.591   5.331   3.917  1.00 20.00     0.116 C 
HETATM    2  C2  UNL     1     -33.785   6.313   4.815  1.00 20.00     0.151 C 
HETATM    3  C3  UNL     1     -33.014   5.468   2.543  1.00 20.00     0.084 C 
HETATM    4  F5  UNL     1     -33.949   4.074   4.276  1.00 20.00    -0.209 F 
HETATM    5 CL9  UNL     1     -33.369   7.964   4.477  1.00 20.00    -0.076 Cl
ENDROOT
BRANCH   2   6
HETATM    6  C4  UNL     1     -34.368   6.115   6.177  1.00 20.00     0.430 C 
HETATM    7  F6  UNL     1     -33.601   5.287   6.936  1.00 20.00    -0.165 F 
HETATM    8  F7  UNL     1     -34.500   7.267   6.884  1.00 20.00    -0.165 F 
HETATM    9  F8  UNL     1     -35.606   5.558   6.117  1.00 20.00    -0.165 F 
ENDBRANCH   2   6
TORSDOF 1
ENDMDL
MODEL 8
REMARK VINA RESULT:      -5.4      2.398      3.913
REMARK  1 active torsions:
REMARK  status: ('A' for Active; 'I' for Inactive)
REMARK    1  A    between atoms: C2_2  and  C4_4 
ROOT
HETATM    1  C1  UNL     1     -33.770   6.035   4.221  1.00 20.00     0.116 C 
HETATM    2  C2  UNL     1     -33.433   7.176   4.847  1.00 20.00     0.151 C 
HETATM    3  C3  UNL     1     -34.678   4.962   4.732  1.00 20.00     0.084 C 
HETATM    4  F5  UNL     1     -33.241   5.814   2.992  1.00 20.00    -0.209 F 
HETATM    5 CL9  UNL     1     -34.043   7.576   6.423  1.00 20.00    -0.076 Cl
ENDROOT
BRANCH   2   6
HETATM    6  C4  UNL     1     -32.517   8.215   4.285  1.00 20.00     0.430 C 
HETATM    7  F6  UNL     1     -32.238   9.185   5.195  1.00 20.00    -0.165 F 
HETATM    8  F7  UNL     1     -31.320   7.719   3.876  1.00 20.00    -0.165 F 
HETATM    9  F8  UNL     1     -33.064   8.835   3.206  1.00 20.00    -0.165 F 
ENDBRANCH   2   6
TORSDOF 1
ENDMDL
MODEL 9
REMARK VINA RESULT:      -5.4      2.412      3.919
REMARK  1 active torsions:
REMARK  status: ('A' for Active; 'I' for Inactive)
REMARK    1  A    between atoms: C2_2  and  C4_4 
ROOT
HETATM    1  C1  UNL     1     -33.735   6.040   4.193  1.00 20.00     0.116 C 
HETATM    2  C2  UNL     1     -33.424   7.189   4.818  1.00 20.00     0.151 C 
HETATM    3  C3  UNL     1     -34.616   4.946   4.707  1.00 20.00     0.084 C 
HETATM    4  F5  UNL     1     -33.203   5.830   2.964  1.00 20.00    -0.209 F 
HETATM    5 CL9  UNL     1     -34.039   7.576   6.394  1.00 20.00    -0.076 Cl
ENDROOT
BRANCH   2   6
HETATM    6  C4  UNL     1     -32.534   8.249   4.252  1.00 20.00     0.430 C 
HETATM    7  F6  UNL     1     -31.310   7.756   3.926  1.00 20.00    -0.165 F 
HETATM    8  F7  UNL     1     -33.025   8.826   3.125  1.00 20.00    -0.165 F 
HETATM    9  F8  UNL     1     -32.327   9.257   5.139  1.00 20.00    -0.165 F 
ENDBRANCH   2   6
TORSDOF 1
ENDMDL
