MODEL 1
REMARK VINA RESULT:      -5.9      0.000      0.000
REMARK  1 active torsions:
REMARK  status: ('A' for Active; 'I' for Inactive)
REMARK    1  A    between atoms: C1_1  and  C3_3 
ROOT
HETATM    1  C1  UNL     1     -34.003   6.955   5.507  1.00 20.00     0.249 C 
HETATM    2  C2  UNL     1     -33.089   7.595   4.765  1.00 20.00     0.229 C 
HETATM    3  F4  UNL     1     -34.331   7.472   6.716  1.00 20.00    -0.197 F 
HETATM    4  F5  UNL     1     -32.518   8.729   5.225  1.00 20.00    -0.189 F 
HETATM    5 CL9  UNL     1     -32.614   7.005   3.216  1.00 20.00    -0.049 Cl
ENDROOT
BRANCH   1   6
HETATM    6  C3  UNL     1     -34.697   5.702   5.103  1.00 20.00     0.448 C 
HETATM    7  F6  UNL     1     -35.796   5.968   4.354  1.00 20.00    -0.164 F 
HETATM    8  F7  UNL     1     -33.922   4.858   4.376  1.00 20.00    -0.164 F 
HETATM    9  F8  UNL     1     -35.123   5.004   6.187  1.00 20.00    -0.164 F 
ENDBRANCH   1   6
TORSDOF 1
ENDMDL
MODEL 2
REMARK VINA RESULT:      -5.8      0.031      1.258
REMARK  1 active torsions:
REMARK  status: ('A' for Active; 'I' for Inactive)
REMARK    1  A    between atoms: C1_1  and  C3_3 
ROOT
HETATM    1  C1  UNL     1     -33.999   6.958   5.516  1.00 20.00     0.249 C 
HETATM    2  C2  UNL     1     -33.078   7.591   4.780  1.00 20.00     0.229 C 
HETATM    3  F4  UNL     1     -34.313   7.462   6.734  1.00 20.00    -0.197 F 
HETATM    4  F5  UNL     1     -32.483   8.708   5.254  1.00 20.00    -0.189 F 
HETATM    5 CL9  UNL     1     -32.620   7.016   3.220  1.00 20.00    -0.049 Cl
ENDROOT
BRANCH   1   6
HETATM    6  C3  UNL     1     -34.718   5.723   5.096  1.00 20.00     0.448 C 
HETATM    7  F6  UNL     1     -35.135   5.008   6.171  1.00 20.00    -0.164 F 
HETATM    8  F7  UNL     1     -35.815   5.961   4.334  1.00 20.00    -0.164 F 
HETATM    9  F8  UNL     1     -33.910   4.906   4.373  1.00 20.00    -0.164 F 
ENDBRANCH   1   6
TORSDOF 1
ENDMDL
MODEL 3
REMARK VINA RESULT:      -5.8      0.037      1.252
REMARK  1 active torsions:
REMARK  status: ('A' for Active; 'I' for Inactive)
REMARK    1  A    between atoms: C1_1  and  C3_3 
ROOT
HETATM    1  C1  UNL     1     -34.000   6.971   5.498  1.00 20.00     0.249 C 
HETATM    2  C2  UNL     1     -33.089   7.608   4.751  1.00 20.00     0.229 C 
HETATM    3  F4  UNL     1     -34.330   7.495   6.703  1.00 20.00    -0.197 F 
HETATM    4  F5  UNL     1     -32.522   8.748   5.203  1.00 20.00    -0.189 F 
HETATM    5 CL9  UNL     1     -32.613   7.010   3.206  1.00 20.00    -0.049 Cl
ENDROOT
BRANCH   1   6
HETATM    6  C3  UNL     1     -34.689   5.712   5.102  1.00 20.00     0.448 C 
HETATM    7  F6  UNL     1     -33.879   4.922   4.354  1.00 20.00    -0.164 F 
HETATM    8  F7  UNL     1     -35.105   4.962   6.154  1.00 20.00    -0.164 F 
HETATM    9  F8  UNL     1     -35.789   5.969   4.348  1.00 20.00    -0.164 F 
ENDBRANCH   1   6
TORSDOF 1
ENDMDL
MODEL 4
REMARK VINA RESULT:      -5.7      1.040      1.654
REMARK  1 active torsions:
REMARK  status: ('A' for Active; 'I' for Inactive)
REMARK    1  A    between atoms: C1_1  and  C3_3 
ROOT
HETATM    1  C1  UNL     1     -33.831   6.853   4.865  1.00 20.00     0.249 C 
HETATM    2  C2  UNL     1     -32.980   6.886   3.833  1.00 20.00     0.229 C 
HETATM    3  F4  UNL     1     -33.839   7.895   5.731  1.00 20.00    -0.197 F 
HETATM    4  F5  UNL     1     -32.154   7.942   3.670  1.00 20.00    -0.189 F 
HETATM    5 CL9  UNL     1     -32.905   5.600   2.686  1.00 20.00    -0.049 Cl
ENDROOT
BRANCH   1   6
HETATM    6  C3  UNL     1     -34.785   5.744   5.143  1.00 20.00     0.448 C 
HETATM    7  F6  UNL     1     -34.235   4.538   4.851  1.00 20.00    -0.164 F 
HETATM    8  F7  UNL     1     -35.195   5.685   6.435  1.00 20.00    -0.164 F 
HETATM    9  F8  UNL     1     -35.905   5.856   4.383  1.00 20.00    -0.164 F 
ENDBRANCH   1   6
TORSDOF 1
ENDMDL
MODEL 5
REMARK VINA RESULT:      -5.5      1.536      2.355
REMARK  1 active torsions:
REMARK  status: ('A' for Active; 'I' for Inactive)
REMARK    1  A    between atoms: C1_1  and  C3_3 
ROOT
HETATM    1  C1  UNL     1     -33.480   6.164   3.927  1.00 20.00     0.249 C 
HETATM    2  C2  UNL     1     -33.009   7.403   4.118  1.00 20.00     0.229 C 
HETATM    3  F4  UNL     1     -32.960   5.424   2.918  1.00 20.00    -0.197 F 
HETATM    4  F5  UNL     1     -32.037   7.889   3.316  1.00 20.00    -0.189 F 
HETATM    5 CL9  UNL     1     -33.615   8.412   5.378  1.00 20.00    -0.049 Cl
ENDROOT
BRANCH   1   6
HETATM    6  C3  UNL     1     -34.546   5.526   4.747  1.00 20.00     0.448 C 
HETATM    7  F6  UNL     1     -34.580   4.184   4.550  1.00 20.00    -0.164 F 
HETATM    8  F7  UNL     1     -34.401   5.722   6.082  1.00 20.00    -0.164 F 
HETATM    9  F8  UNL     1     -35.773   6.001   4.414  1.00 20.00    -0.164 F 
ENDBRANCH   1   6
TORSDOF 1
ENDMDL
MODEL 6
REMARK VINA RESULT:      -5.5      1.546      2.372
REMARK  1 active torsions:
REMARK  status: ('A' for Active; 'I' for Inactive)
REMARK    1  A    between atoms: C1_1  and  C3_3 
ROOT
HETATM    1  C1  UNL     1     -33.447   6.180   3.919  1.00 20.00     0.249 C 
HETATM    2  C2  UNL     1     -33.004   7.427   4.125  1.00 20.00     0.229 C 
HETATM    3  F4  UNL     1     -32.901   5.458   2.910  1.00 20.00    -0.197 F 
HETATM    4  F5  UNL     1     -32.034   7.939   3.336  1.00 20.00    -0.189 F 
HETATM    5 CL9  UNL     1     -33.645   8.413   5.386  1.00 20.00    -0.049 Cl
ENDROOT
BRANCH   1   6
HETATM    6  C3  UNL     1     -34.508   5.513   4.723  1.00 20.00     0.448 C 
HETATM    7  F6  UNL     1     -34.289   5.671   6.052  1.00 20.00    -0.164 F 
HETATM    8  F7  UNL     1     -35.757   5.979   4.474  1.00 20.00    -0.164 F 
HETATM    9  F8  UNL     1     -34.535   4.176   4.487  1.00 20.00    -0.164 F 
ENDBRANCH   1   6
TORSDOF 1
ENDMDL
MODEL 7
REMARK VINA RESULT:      -5.5      1.546      2.067
REMARK  1 active torsions:
REMARK  status: ('A' for Active; 'I' for Inactive)
REMARK    1  A    between atoms: C1_1  and  C3_3 
ROOT
HETATM    1  C1  UNL     1     -33.445   6.219   3.943  1.00 20.00     0.249 C 
HETATM    2  C2  UNL     1     -33.028   7.470   4.171  1.00 20.00     0.229 C 
HETATM    3  F4  UNL     1     -32.892   5.529   2.916  1.00 20.00    -0.197 F 
HETATM    4  F5  UNL     1     -32.076   8.020   3.387  1.00 20.00    -0.189 F 
HETATM    5 CL9  UNL     1     -33.680   8.417   5.457  1.00 20.00    -0.049 Cl
ENDROOT
BRANCH   1   6
HETATM    6  C3  UNL     1     -34.485   5.513   4.741  1.00 20.00     0.448 C 
HETATM    7  F6  UNL     1     -35.720   6.019   4.496  1.00 20.00    -0.164 F 
HETATM    8  F7  UNL     1     -34.552   4.180   4.496  1.00 20.00    -0.164 F 
HETATM    9  F8  UNL     1     -34.263   5.654   6.073  1.00 20.00    -0.164 F 
ENDBRANCH   1   6
TORSDOF 1
ENDMDL
MODEL 8
REMARK VINA RESULT:      -5.4      1.321      3.371
REMARK  1 active torsions:
REMARK  status: ('A' for Active; 'I' for Inactive)
REMARK    1  A    between atoms: C1_1  and  C3_3 
ROOT
HETATM    1  C1  UNL     1     -33.546   7.379   4.917  1.00 20.00     0.249 C 
HETATM    2  C2  UNL     1     -33.883   6.194   4.393  1.00 20.00     0.229 C 
HETATM    3  F4  UNL     1     -34.138   7.768   6.072  1.00 20.00    -0.197 F 
HETATM    4  F5  UNL     1     -34.794   5.414   5.015  1.00 20.00    -0.189 F 
HETATM    5 CL9  UNL     1     -33.177   5.624   2.927  1.00 20.00    -0.049 Cl
ENDROOT
BRANCH   1   6
HETATM    6  C3  UNL     1     -32.556   8.319   4.321  1.00 20.00     0.448 C 
HETATM    7  F6  UNL     1     -32.322   9.373   5.144  1.00 20.00    -0.164 F 
HETATM    8  F7  UNL     1     -31.352   7.752   4.059  1.00 20.00    -0.164 F 
HETATM    9  F8  UNL     1     -33.010   8.832   3.149  1.00 20.00    -0.164 F 
ENDBRANCH   1   6
TORSDOF 1
ENDMDL
MODEL 9
REMARK VINA RESULT:      -5.4      2.102      3.482
REMARK  1 active torsions:
REMARK  status: ('A' for Active; 'I' for Inactive)
REMARK    1  A    between atoms: C1_1  and  C3_3 
ROOT
HETATM    1  C1  UNL     1     -32.819   7.020   3.863  1.00 20.00     0.249 C 
HETATM    2  C2  UNL     1     -33.466   5.881   3.587  1.00 20.00     0.229 C 
HETATM    3  F4  UNL     1     -31.859   7.443   3.006  1.00 20.00    -0.197 F 
HETATM    4  F5  UNL     1     -33.158   5.181   2.474  1.00 20.00    -0.189 F 
HETATM    5 CL9  UNL     1     -34.701   5.272   4.625  1.00 20.00    -0.049 Cl
ENDROOT
BRANCH   1   6
HETATM    6  C3  UNL     1     -33.075   7.873   5.057  1.00 20.00     0.448 C 
HETATM    7  F6  UNL     1     -34.301   8.452   4.994  1.00 20.00    -0.164 F 
HETATM    8  F7  UNL     1     -33.021   7.199   6.233  1.00 20.00    -0.164 F 
HETATM    9  F8  UNL     1     -32.171   8.882   5.143  1.00 20.00    -0.164 F 
ENDBRANCH   1   6
TORSDOF 1
ENDMDL
