MODEL 1
REMARK VINA RESULT:      -4.8      0.000      0.000
REMARK  1 active torsions:
REMARK  status: ('A' for Active; 'I' for Inactive)
REMARK    1  A    between atoms: C2_2  and  C3_3 
ROOT
HETATM    1  C3  UNL     1     -34.553   5.738   4.778  1.00 20.00     0.351 C 
HETATM    2  F5  UNL     1     -35.819   5.919   4.320  1.00 20.00    -0.185 F 
HETATM    3  F6  UNL     1     -34.572   4.597   5.516  1.00 20.00    -0.185 F 
HETATM    4 BR7  UNL     1     -33.351   5.507   3.264  1.00 20.00    -0.003 Br
ENDROOT
BRANCH   1   5
HETATM    5  C2  UNL     1     -34.064   6.886   5.594  1.00 20.00     0.167 C 
HETATM    6  C1  UNL     1     -33.226   7.827   5.147  1.00 20.00     0.059 C 
HETATM    7  F4  UNL     1     -34.522   7.006   6.862  1.00 20.00    -0.204 F 
ENDBRANCH   1   5
TORSDOF 1
ENDMDL
MODEL 2
REMARK VINA RESULT:      -4.6      1.725      2.726
REMARK  1 active torsions:
REMARK  status: ('A' for Active; 'I' for Inactive)
REMARK    1  A    between atoms: C2_2  and  C3_3 
ROOT
HETATM    1  C3  UNL     1     -34.719   5.904   4.954  1.00 20.00     0.351 C 
HETATM    2  F5  UNL     1     -34.974   5.329   6.158  1.00 20.00    -0.185 F 
HETATM    3  F6  UNL     1     -35.929   6.176   4.396  1.00 20.00    -0.185 F 
HETATM    4 BR7  UNL     1     -33.746   7.567   5.230  1.00 20.00    -0.003 Br
ENDROOT
BRANCH   1   5
HETATM    5  C2  UNL     1     -33.909   5.030   4.057  1.00 20.00     0.167 C 
HETATM    6  C1  UNL     1     -33.219   5.467   2.999  1.00 20.00     0.059 C 
HETATM    7  F4  UNL     1     -33.838   3.710   4.350  1.00 20.00    -0.204 F 
ENDBRANCH   1   5
TORSDOF 1
ENDMDL
MODEL 3
REMARK VINA RESULT:      -4.6      1.998      2.610
REMARK  1 active torsions:
REMARK  status: ('A' for Active; 'I' for Inactive)
REMARK    1  A    between atoms: C2_2  and  C3_3 
ROOT
HETATM    1  C3  UNL     1     -34.463   5.629   4.559  1.00 20.00     0.351 C 
HETATM    2  F5  UNL     1     -34.304   4.285   4.443  1.00 20.00    -0.185 F 
HETATM    3  F6  UNL     1     -35.701   5.912   4.074  1.00 20.00    -0.185 F 
HETATM    4 BR7  UNL     1     -34.377   6.126   6.439  1.00 20.00    -0.003 Br
ENDROOT
BRANCH   1   5
HETATM    5  C2  UNL     1     -33.419   6.399   3.823  1.00 20.00     0.167 C 
HETATM    6  C1  UNL     1     -32.973   7.605   4.187  1.00 20.00     0.059 C 
HETATM    7  F4  UNL     1     -32.859   5.827   2.731  1.00 20.00    -0.204 F 
ENDBRANCH   1   5
TORSDOF 1
ENDMDL
MODEL 4
REMARK VINA RESULT:      -4.4      1.557      2.750
REMARK  1 active torsions:
REMARK  status: ('A' for Active; 'I' for Inactive)
REMARK    1  A    between atoms: C2_2  and  C3_3 
ROOT
HETATM    1  C3  UNL     1     -33.668   7.220   4.761  1.00 20.00     0.351 C 
HETATM    2  F5  UNL     1     -32.797   7.488   5.768  1.00 20.00    -0.185 F 
HETATM    3  F6  UNL     1     -34.300   8.391   4.479  1.00 20.00    -0.185 F 
HETATM    4 BR7  UNL     1     -32.676   6.629   3.194  1.00 20.00    -0.003 Br
ENDROOT
BRANCH   1   5
HETATM    5  C2  UNL     1     -34.655   6.161   5.118  1.00 20.00     0.167 C 
HETATM    6  C1  UNL     1     -34.577   5.394   6.210  1.00 20.00     0.059 C 
HETATM    7  F4  UNL     1     -35.721   5.983   4.302  1.00 20.00    -0.204 F 
ENDBRANCH   1   5
TORSDOF 1
ENDMDL
MODEL 5
REMARK VINA RESULT:      -4.4      2.153      2.728
REMARK  1 active torsions:
REMARK  status: ('A' for Active; 'I' for Inactive)
REMARK    1  A    between atoms: C2_2  and  C3_3 
ROOT
HETATM    1  C3  UNL     1     -33.620   7.414   5.566  1.00 20.00     0.351 C 
HETATM    2  F5  UNL     1     -34.436   8.374   6.074  1.00 20.00    -0.185 F 
HETATM    3  F6  UNL     1     -32.920   6.911   6.617  1.00 20.00    -0.185 F 
HETATM    4 BR7  UNL     1     -34.702   6.004   4.774  1.00 20.00    -0.003 Br
ENDROOT
BRANCH   1   5
HETATM    5  C2  UNL     1     -32.695   7.939   4.520  1.00 20.00     0.167 C 
HETATM    6  C1  UNL     1     -32.390   7.294   3.389  1.00 20.00     0.059 C 
HETATM    7  F4  UNL     1     -32.151   9.164   4.709  1.00 20.00    -0.204 F 
ENDBRANCH   1   5
TORSDOF 1
ENDMDL
MODEL 6
REMARK VINA RESULT:      -4.4      2.102      2.628
REMARK  1 active torsions:
REMARK  status: ('A' for Active; 'I' for Inactive)
REMARK    1  A    between atoms: C2_2  and  C3_3 
ROOT
HETATM    1  C3  UNL     1     -33.744   7.175   5.629  1.00 20.00     0.351 C 
HETATM    2  F5  UNL     1     -34.484   8.211   6.104  1.00 20.00    -0.185 F 
HETATM    3  F6  UNL     1     -32.968   6.753   6.663  1.00 20.00    -0.185 F 
HETATM    4 BR7  UNL     1     -34.933   5.733   5.084  1.00 20.00    -0.003 Br
ENDROOT
BRANCH   1   5
HETATM    5  C2  UNL     1     -32.902   7.556   4.459  1.00 20.00     0.167 C 
HETATM    6  C1  UNL     1     -32.257   8.721   4.340  1.00 20.00     0.059 C 
HETATM    7  F4  UNL     1     -32.751   6.652   3.462  1.00 20.00    -0.204 F 
ENDBRANCH   1   5
TORSDOF 1
ENDMDL
MODEL 7
REMARK VINA RESULT:      -4.3      2.661      3.083
REMARK  1 active torsions:
REMARK  status: ('A' for Active; 'I' for Inactive)
REMARK    1  A    between atoms: C2_2  and  C3_3 
ROOT
HETATM    1  C3  UNL     1     -33.598   7.179   4.672  1.00 20.00     0.351 C 
HETATM    2  F5  UNL     1     -34.308   8.307   4.406  1.00 20.00    -0.185 F 
HETATM    3  F6  UNL     1     -32.812   7.466   5.744  1.00 20.00    -0.185 F 
HETATM    4 BR7  UNL     1     -34.825   5.742   5.137  1.00 20.00    -0.003 Br
ENDROOT
BRANCH   1   5
HETATM    5  C2  UNL     1     -32.769   6.733   3.516  1.00 20.00     0.167 C 
HETATM    6  C1  UNL     1     -32.968   5.598   2.838  1.00 20.00     0.059 C 
HETATM    7  F4  UNL     1     -31.768   7.544   3.100  1.00 20.00    -0.204 F 
ENDBRANCH   1   5
TORSDOF 1
ENDMDL
MODEL 8
REMARK VINA RESULT:      -4.1      1.832      2.125
REMARK  1 active torsions:
REMARK  status: ('A' for Active; 'I' for Inactive)
REMARK    1  A    between atoms: C2_2  and  C3_3 
ROOT
HETATM    1  C3  UNL     1     -33.962   6.918   4.653  1.00 20.00     0.351 C 
HETATM    2  F5  UNL     1     -35.046   7.411   3.999  1.00 20.00    -0.185 F 
HETATM    3  F6  UNL     1     -33.489   5.895   3.891  1.00 20.00    -0.185 F 
HETATM    4 BR7  UNL     1     -32.605   8.306   4.785  1.00 20.00    -0.003 Br
ENDROOT
BRANCH   1   5
HETATM    5  C2  UNL     1     -34.285   6.444   6.029  1.00 20.00     0.167 C 
HETATM    6  C1  UNL     1     -34.463   5.163   6.365  1.00 20.00     0.059 C 
HETATM    7  F4  UNL     1     -34.372   7.368   7.015  1.00 20.00    -0.204 F 
ENDBRANCH   1   5
TORSDOF 1
ENDMDL
MODEL 9
REMARK VINA RESULT:      -4.0      2.507      3.140
REMARK  1 active torsions:
REMARK  status: ('A' for Active; 'I' for Inactive)
REMARK    1  A    between atoms: C2_2  and  C3_3 
ROOT
HETATM    1  C3  UNL     1     -32.652   7.806   3.948  1.00 20.00     0.351 C 
HETATM    2  F5  UNL     1     -31.349   7.975   4.294  1.00 20.00    -0.185 F 
HETATM    3  F6  UNL     1     -32.962   8.833   3.113  1.00 20.00    -0.185 F 
HETATM    4 BR7  UNL     1     -32.850   6.119   2.999  1.00 20.00    -0.003 Br
ENDROOT
BRANCH   1   5
HETATM    5  C2  UNL     1     -33.564   7.791   5.127  1.00 20.00     0.167 C 
HETATM    6  C1  UNL     1     -34.039   6.680   5.700  1.00 20.00     0.059 C 
HETATM    7  F4  UNL     1     -33.913   8.977   5.678  1.00 20.00    -0.204 F 
ENDBRANCH   1   5
TORSDOF 1
ENDMDL
