MODEL 1
REMARK VINA RESULT:      -5.2      0.000      0.000
REMARK  0 active torsions:
REMARK  status: ('A' for Active; 'I' for Inactive)
ROOT
HETATM    1  C1  UNL     1     -32.754   7.655   4.409  1.00 20.00     0.145 C 
HETATM    2  C2  UNL     1     -33.788   7.058   4.989  1.00 20.00    -0.034 C 
HETATM    3  C3  UNL     1     -34.273   6.905   6.374  1.00 20.00     0.038 C 
HETATM    4  C4  UNL     1     -34.711   5.427   6.359  1.00 20.00     0.007 C 
HETATM    5  C5  UNL     1     -34.142   4.811   5.063  1.00 20.00     0.034 C 
HETATM    6  C6  UNL     1     -34.193   5.965   4.084  1.00 20.00     0.161 C 
HETATM    7  N7  UNL     1     -32.420   7.041   3.225  1.00 20.00    -0.167 NA
HETATM    8  N8  UNL     1     -33.137   6.003   3.054  1.00 20.00    -0.183 NA
ENDROOT
TORSDOF 0
ENDMDL
MODEL 2
REMARK VINA RESULT:      -5.1      1.711      2.581
REMARK  0 active torsions:
REMARK  status: ('A' for Active; 'I' for Inactive)
ROOT
HETATM    1  C1  UNL     1     -33.477   5.259   3.574  1.00 20.00     0.145 C 
HETATM    2  C2  UNL     1     -33.760   6.451   4.084  1.00 20.00    -0.034 C 
HETATM    3  C3  UNL     1     -33.069   7.753   4.159  1.00 20.00     0.038 C 
HETATM    4  C4  UNL     1     -33.404   8.168   5.606  1.00 20.00     0.007 C 
HETATM    5  C5  UNL     1     -33.988   6.918   6.299  1.00 20.00     0.034 C 
HETATM    6  C6  UNL     1     -34.721   6.214   5.177  1.00 20.00     0.161 C 
HETATM    7  N7  UNL     1     -34.136   4.257   4.247  1.00 20.00    -0.167 NA
HETATM    8  N8  UNL     1     -34.766   4.740   5.241  1.00 20.00    -0.183 NA
ENDROOT
TORSDOF 0
ENDMDL
MODEL 3
REMARK VINA RESULT:      -4.9      1.961      3.294
REMARK  0 active torsions:
REMARK  status: ('A' for Active; 'I' for Inactive)
ROOT
HETATM    1  C1  UNL     1     -34.389   4.993   5.149  1.00 20.00     0.145 C 
HETATM    2  C2  UNL     1     -34.012   5.892   4.249  1.00 20.00    -0.034 C 
HETATM    3  C3  UNL     1     -33.159   5.880   3.044  1.00 20.00     0.038 C 
HETATM    4  C4  UNL     1     -32.404   7.213   3.219  1.00 20.00     0.007 C 
HETATM    5  C5  UNL     1     -32.680   7.691   4.661  1.00 20.00     0.034 C 
HETATM    6  C6  UNL     1     -34.090   7.204   4.919  1.00 20.00     0.161 C 
HETATM    7  N7  UNL     1     -34.679   5.584   6.357  1.00 20.00    -0.167 NA
HETATM    8  N8  UNL     1     -34.412   6.827   6.309  1.00 20.00    -0.183 NA
ENDROOT
TORSDOF 0
ENDMDL
MODEL 4
REMARK VINA RESULT:      -4.3      1.607      2.240
REMARK  0 active torsions:
REMARK  status: ('A' for Active; 'I' for Inactive)
ROOT
HETATM    1  C1  UNL     1     -32.449   7.728   3.258  1.00 20.00     0.145 C 
HETATM    2  C2  UNL     1     -32.916   6.651   3.878  1.00 20.00    -0.034 C 
HETATM    3  C3  UNL     1     -33.572   5.398   3.457  1.00 20.00     0.038 C 
HETATM    4  C4  UNL     1     -34.651   5.263   4.550  1.00 20.00     0.007 C 
HETATM    5  C5  UNL     1     -34.696   6.615   5.295  1.00 20.00     0.034 C 
HETATM    6  C6  UNL     1     -33.256   7.080   5.248  1.00 20.00     0.161 C 
HETATM    7  N7  UNL     1     -32.477   8.831   4.080  1.00 20.00    -0.167 NA
HETATM    8  N8  UNL     1     -33.036   8.537   5.184  1.00 20.00    -0.183 NA
ENDROOT
TORSDOF 0
ENDMDL
MODEL 5
REMARK VINA RESULT:      -4.1      1.402      2.587
REMARK  0 active torsions:
REMARK  status: ('A' for Active; 'I' for Inactive)
ROOT
HETATM    1  C1  UNL     1     -34.774   5.352   5.984  1.00 20.00     0.145 C 
HETATM    2  C2  UNL     1     -33.957   6.397   5.926  1.00 20.00    -0.034 C 
HETATM    3  C3  UNL     1     -33.863   7.698   6.615  1.00 20.00     0.038 C 
HETATM    4  C4  UNL     1     -33.502   8.619   5.433  1.00 20.00     0.007 C 
HETATM    5  C5  UNL     1     -33.733   7.797   4.146  1.00 20.00     0.034 C 
HETATM    6  C6  UNL     1     -33.375   6.389   4.570  1.00 20.00     0.161 C 
HETATM    7  N7  UNL     1     -34.808   4.676   4.788  1.00 20.00    -0.167 NA
HETATM    8  N8  UNL     1     -34.118   5.295   3.916  1.00 20.00    -0.183 NA
ENDROOT
TORSDOF 0
ENDMDL
MODEL 6
REMARK VINA RESULT:      -4.0     12.810     13.185
REMARK  0 active torsions:
REMARK  status: ('A' for Active; 'I' for Inactive)
ROOT
HETATM    1  C1  UNL     1     -31.769  18.522   1.452  1.00 20.00     0.145 C 
HETATM    2  C2  UNL     1     -32.700  18.645   0.514  1.00 20.00    -0.034 C 
HETATM    3  C3  UNL     1     -34.081  18.158   0.334  1.00 20.00     0.038 C 
HETATM    4  C4  UNL     1     -34.053  17.774  -1.159  1.00 20.00     0.007 C 
HETATM    5  C5  UNL     1     -32.570  17.792  -1.591  1.00 20.00     0.034 C 
HETATM    6  C6  UNL     1     -31.981  18.902  -0.748  1.00 20.00     0.161 C 
HETATM    7  N7  UNL     1     -30.505  18.644   0.923  1.00 20.00    -0.167 NA
HETATM    8  N8  UNL     1     -30.571  18.745  -0.343  1.00 20.00    -0.183 NA
ENDROOT
TORSDOF 0
ENDMDL
MODEL 7
REMARK VINA RESULT:      -3.9      1.409      2.694
REMARK  0 active torsions:
REMARK  status: ('A' for Active; 'I' for Inactive)
ROOT
HETATM    1  C1  UNL     1     -34.807   6.323   5.333  1.00 20.00     0.145 C 
HETATM    2  C2  UNL     1     -33.687   7.023   5.207  1.00 20.00    -0.034 C 
HETATM    3  C3  UNL     1     -33.278   8.412   5.490  1.00 20.00     0.038 C 
HETATM    4  C4  UNL     1     -32.425   8.717   4.243  1.00 20.00     0.007 C 
HETATM    5  C5  UNL     1     -32.694   7.577   3.236  1.00 20.00     0.034 C 
HETATM    6  C6  UNL     1     -32.916   6.376   4.129  1.00 20.00     0.161 C 
HETATM    7  N7  UNL     1     -34.861   5.294   4.422  1.00 20.00    -0.167 NA
HETATM    8  N8  UNL     1     -33.861   5.354   3.637  1.00 20.00    -0.183 NA
ENDROOT
TORSDOF 0
ENDMDL
MODEL 8
REMARK VINA RESULT:      -3.8     16.261     16.645
REMARK  0 active torsions:
REMARK  status: ('A' for Active; 'I' for Inactive)
ROOT
HETATM    1  C1  UNL     1     -21.867  17.327   8.813  1.00 20.00     0.145 C 
HETATM    2  C2  UNL     1     -22.544  18.048   9.698  1.00 20.00    -0.034 C 
HETATM    3  C3  UNL     1     -23.137  17.797  11.026  1.00 20.00     0.038 C 
HETATM    4  C4  UNL     1     -24.474  18.552  10.886  1.00 20.00     0.007 C 
HETATM    5  C5  UNL     1     -24.636  18.889   9.388  1.00 20.00     0.034 C 
HETATM    6  C6  UNL     1     -23.211  19.119   8.932  1.00 20.00     0.161 C 
HETATM    7  N7  UNL     1     -22.047  17.802   7.535  1.00 20.00    -0.167 NA
HETATM    8  N8  UNL     1     -22.896  18.750   7.539  1.00 20.00    -0.183 NA
ENDROOT
TORSDOF 0
ENDMDL
MODEL 9
REMARK VINA RESULT:      -3.7      1.969      2.665
REMARK  0 active torsions:
REMARK  status: ('A' for Active; 'I' for Inactive)
ROOT
HETATM    1  C1  UNL     1     -33.175   8.548   4.598  1.00 20.00     0.145 C 
HETATM    2  C2  UNL     1     -32.861   7.326   4.187  1.00 20.00    -0.034 C 
HETATM    3  C3  UNL     1     -32.513   6.709   2.893  1.00 20.00     0.038 C 
HETATM    4  C4  UNL     1     -33.304   5.389   2.987  1.00 20.00     0.007 C 
HETATM    5  C5  UNL     1     -34.264   5.534   4.187  1.00 20.00     0.034 C 
HETATM    6  C6  UNL     1     -33.478   6.396   5.152  1.00 20.00     0.161 C 
HETATM    7  N7  UNL     1     -33.964   8.512   5.723  1.00 20.00    -0.167 NA
HETATM    8  N8  UNL     1     -34.260   7.308   6.009  1.00 20.00    -0.183 NA
ENDROOT
TORSDOF 0
ENDMDL
