MODEL 1
REMARK VINA RESULT:      -5.1      0.000      0.000
REMARK  0 active torsions:
REMARK  status: ('A' for Active; 'I' for Inactive)
ROOT
HETATM    1  C1  UNL     1     -33.883   5.457   3.672  1.00 20.00     0.009 C 
HETATM    2  C2  UNL     1     -34.889   5.433   4.825  1.00 20.00     0.035 C 
HETATM    3  C3  UNL     1     -32.906   6.648   3.684  1.00 20.00     0.082 C 
HETATM    4  C4  UNL     1     -34.221   5.770   6.119  1.00 20.00     0.157 A 
HETATM    5  C5  UNL     1     -33.311   6.964   6.117  1.00 20.00     0.223 A 
HETATM    6  C6  UNL     1     -33.150   7.650   4.806  1.00 20.00     0.271 C 
HETATM    7  O7  UNL     1     -34.614   7.017   6.703  1.00 20.00    -0.369 OA
HETATM    8  F8  UNL     1     -32.112   8.521   4.867  1.00 20.00    -0.203 F 
HETATM    9  F9  UNL     1     -34.254   8.388   4.520  1.00 20.00    -0.203 F 
ENDROOT
TORSDOF 0
ENDMDL
MODEL 2
REMARK VINA RESULT:      -5.1      1.955      2.698
REMARK  0 active torsions:
REMARK  status: ('A' for Active; 'I' for Inactive)
ROOT
HETATM    1  C1  UNL     1     -34.343   5.358   6.540  1.00 20.00     0.009 C 
HETATM    2  C2  UNL     1     -34.393   6.888   6.565  1.00 20.00     0.035 C 
HETATM    3  C3  UNL     1     -34.180   4.735   5.141  1.00 20.00     0.082 C 
HETATM    4  C4  UNL     1     -33.350   7.468   5.664  1.00 20.00     0.157 A 
HETATM    5  C5  UNL     1     -33.243   6.875   4.289  1.00 20.00     0.223 A 
HETATM    6  C6  UNL     1     -34.167   5.744   4.000  1.00 20.00     0.271 C 
HETATM    7  O7  UNL     1     -33.853   8.150   4.509  1.00 20.00    -0.369 OA
HETATM    8  F8  UNL     1     -33.791   5.126   2.852  1.00 20.00    -0.203 F 
HETATM    9  F9  UNL     1     -35.428   6.206   3.791  1.00 20.00    -0.203 F 
ENDROOT
TORSDOF 0
ENDMDL
MODEL 3
REMARK VINA RESULT:      -5.1      1.814      2.627
REMARK  0 active torsions:
REMARK  status: ('A' for Active; 'I' for Inactive)
ROOT
HETATM    1  C1  UNL     1     -34.219   5.457   4.033  1.00 20.00     0.009 C 
HETATM    2  C2  UNL     1     -32.952   6.197   3.595  1.00 20.00     0.035 C 
HETATM    3  C3  UNL     1     -34.799   5.906   5.388  1.00 20.00     0.082 C 
HETATM    4  C4  UNL     1     -33.083   7.665   3.841  1.00 20.00     0.157 A 
HETATM    5  C5  UNL     1     -33.606   8.078   5.186  1.00 20.00     0.223 A 
HETATM    6  C6  UNL     1     -33.974   6.967   6.105  1.00 20.00     0.271 C 
HETATM    7  O7  UNL     1     -32.220   8.193   4.855  1.00 20.00    -0.369 OA
HETATM    8  F8  UNL     1     -34.679   7.454   7.157  1.00 20.00    -0.203 F 
HETATM    9  F9  UNL     1     -32.856   6.394   6.625  1.00 20.00    -0.203 F 
ENDROOT
TORSDOF 0
ENDMDL
MODEL 4
REMARK VINA RESULT:      -4.8      2.181      3.217
REMARK  0 active torsions:
REMARK  status: ('A' for Active; 'I' for Inactive)
ROOT
HETATM    1  C1  UNL     1     -34.237   6.976   6.653  1.00 20.00     0.009 C 
HETATM    2  C2  UNL     1     -33.905   8.035   5.597  1.00 20.00     0.035 C 
HETATM    3  C3  UNL     1     -34.473   5.558   6.101  1.00 20.00     0.082 C 
HETATM    4  C4  UNL     1     -32.921   7.504   4.605  1.00 20.00     0.157 A 
HETATM    5  C5  UNL     1     -33.198   6.138   4.046  1.00 20.00     0.223 A 
HETATM    6  C6  UNL     1     -34.407   5.455   4.582  1.00 20.00     0.271 C 
HETATM    7  O7  UNL     1     -33.430   7.323   3.278  1.00 20.00    -0.369 OA
HETATM    8  F8  UNL     1     -34.395   4.148   4.218  1.00 20.00    -0.203 F 
HETATM    9  F9  UNL     1     -35.533   5.993   4.044  1.00 20.00    -0.203 F 
ENDROOT
TORSDOF 0
ENDMDL
MODEL 5
REMARK VINA RESULT:      -4.6      2.251      3.286
REMARK  0 active torsions:
REMARK  status: ('A' for Active; 'I' for Inactive)
ROOT
HETATM    1  C1  UNL     1     -33.305   8.035   5.324  1.00 20.00     0.009 C 
HETATM    2  C2  UNL     1     -33.109   7.910   3.810  1.00 20.00     0.035 C 
HETATM    3  C3  UNL     1     -34.045   6.857   5.984  1.00 20.00     0.082 C 
HETATM    4  C4  UNL     1     -32.676   6.526   3.445  1.00 20.00     0.157 A 
HETATM    5  C5  UNL     1     -33.444   5.395   4.065  1.00 20.00     0.223 A 
HETATM    6  C6  UNL     1     -34.525   5.789   5.009  1.00 20.00     0.271 C 
HETATM    7  O7  UNL     1     -33.633   5.766   2.697  1.00 20.00    -0.369 OA
HETATM    8  F8  UNL     1     -34.950   4.702   5.701  1.00 20.00    -0.203 F 
HETATM    9  F9  UNL     1     -35.604   6.254   4.325  1.00 20.00    -0.203 F 
ENDROOT
TORSDOF 0
ENDMDL
MODEL 6
REMARK VINA RESULT:      -4.3      1.419      1.900
REMARK  0 active torsions:
REMARK  status: ('A' for Active; 'I' for Inactive)
ROOT
HETATM    1  C1  UNL     1     -32.192   6.900   3.066  1.00 20.00     0.009 C 
HETATM    2  C2  UNL     1     -33.327   5.900   2.823  1.00 20.00     0.035 C 
HETATM    3  C3  UNL     1     -32.447   7.911   4.200  1.00 20.00     0.082 C 
HETATM    4  C4  UNL     1     -33.855   5.372   4.118  1.00 20.00     0.157 A 
HETATM    5  C5  UNL     1     -34.140   6.383   5.192  1.00 20.00     0.223 A 
HETATM    6  C6  UNL     1     -33.821   7.795   4.849  1.00 20.00     0.271 C 
HETATM    7  O7  UNL     1     -35.192   5.772   4.440  1.00 20.00    -0.369 OA
HETATM    8  F8  UNL     1     -33.858   8.559   5.970  1.00 20.00    -0.203 F 
HETATM    9  F9  UNL     1     -34.761   8.302   4.008  1.00 20.00    -0.203 F 
ENDROOT
TORSDOF 0
ENDMDL
MODEL 7
REMARK VINA RESULT:      -4.2      1.811      2.777
REMARK  0 active torsions:
REMARK  status: ('A' for Active; 'I' for Inactive)
ROOT
HETATM    1  C1  UNL     1     -32.899   5.971   2.926  1.00 20.00     0.009 C 
HETATM    2  C2  UNL     1     -32.056   7.208   3.252  1.00 20.00     0.035 C 
HETATM    3  C3  UNL     1     -34.016   5.659   3.939  1.00 20.00     0.082 C 
HETATM    4  C4  UNL     1     -32.926   8.340   3.695  1.00 20.00     0.157 A 
HETATM    5  C5  UNL     1     -33.978   8.020   4.719  1.00 20.00     0.223 A 
HETATM    6  C6  UNL     1     -34.055   6.595   5.141  1.00 20.00     0.271 C 
HETATM    7  O7  UNL     1     -32.780   8.719   5.069  1.00 20.00    -0.369 OA
HETATM    8  F8  UNL     1     -35.198   6.385   5.841  1.00 20.00    -0.203 F 
HETATM    9  F9  UNL     1     -33.030   6.294   5.980  1.00 20.00    -0.203 F 
ENDROOT
TORSDOF 0
ENDMDL
MODEL 8
REMARK VINA RESULT:      -4.2      1.556      2.416
REMARK  0 active torsions:
REMARK  status: ('A' for Active; 'I' for Inactive)
ROOT
HETATM    1  C1  UNL     1     -34.357   6.793   6.761  1.00 20.00     0.009 C 
HETATM    2  C2  UNL     1     -34.242   5.387   6.165  1.00 20.00     0.035 C 
HETATM    3  C3  UNL     1     -33.985   7.939   5.802  1.00 20.00     0.082 C 
HETATM    4  C4  UNL     1     -34.812   5.348   4.783  1.00 20.00     0.157 A 
HETATM    5  C5  UNL     1     -34.397   6.451   3.853  1.00 20.00     0.223 A 
HETATM    6  C6  UNL     1     -33.494   7.481   4.434  1.00 20.00     0.271 C 
HETATM    7  O7  UNL     1     -33.859   5.131   3.736  1.00 20.00    -0.369 OA
HETATM    8  F8  UNL     1     -33.416   8.548   3.600  1.00 20.00    -0.203 F 
HETATM    9  F9  UNL     1     -32.231   6.991   4.549  1.00 20.00    -0.203 F 
ENDROOT
TORSDOF 0
ENDMDL
MODEL 9
REMARK VINA RESULT:      -4.0      2.027      2.735
REMARK  0 active torsions:
REMARK  status: ('A' for Active; 'I' for Inactive)
ROOT
HETATM    1  C1  UNL     1     -33.112   7.721   5.258  1.00 20.00     0.009 C 
HETATM    2  C2  UNL     1     -33.689   6.670   6.211  1.00 20.00     0.035 C 
HETATM    3  C3  UNL     1     -33.029   7.286   3.782  1.00 20.00     0.082 C 
HETATM    4  C4  UNL     1     -34.893   6.016   5.612  1.00 20.00     0.157 A 
HETATM    5  C5  UNL     1     -34.771   5.559   4.186  1.00 20.00     0.223 A 
HETATM    6  C6  UNL     1     -33.472   5.852   3.523  1.00 20.00     0.271 C 
HETATM    7  O7  UNL     1     -34.731   4.633   5.276  1.00 20.00    -0.369 OA
HETATM    8  F8  UNL     1     -33.581   5.647   2.187  1.00 20.00    -0.203 F 
HETATM    9  F9  UNL     1     -32.512   4.997   3.965  1.00 20.00    -0.203 F 
ENDROOT
TORSDOF 0
ENDMDL
