MODEL 1
REMARK VINA RESULT:      -4.6      0.000      0.000
REMARK  1 active torsions:
REMARK  status: ('A' for Active; 'I' for Inactive)
REMARK    1  A    between atoms: C6_6  and  C8_8 
ROOT
HETATM    1  C1  UNL     1     -34.676   5.255   6.115  1.00 20.00     0.000 C 
HETATM    2  C2  UNL     1     -34.903   5.332   4.610  1.00 20.00     0.001 C 
HETATM    3  C3  UNL     1     -34.357   6.620   6.713  1.00 20.00     0.001 C 
HETATM    4  C4  UNL     1     -33.727   5.997   3.895  1.00 20.00     0.010 C 
HETATM    5  C5  UNL     1     -33.180   7.288   6.001  1.00 20.00     0.010 C 
HETATM    6  C6  UNL     1     -33.363   7.386   4.469  1.00 20.00    -0.032 C 
HETATM    7  C7  UNL     1     -34.453   8.418   4.119  1.00 20.00     0.016 C 
ENDROOT
BRANCH   6   8
HETATM    8  C8  UNL     1     -32.042   7.858   3.836  1.00 20.00     0.123 C 
HETATM    9 CL9  UNL     1     -32.089   7.591   2.089  1.00 20.00    -0.130 Cl
ENDBRANCH   6   8
TORSDOF 1
ENDMDL
MODEL 2
REMARK VINA RESULT:      -4.5      1.312      2.727
REMARK  1 active torsions:
REMARK  status: ('A' for Active; 'I' for Inactive)
REMARK    1  A    between atoms: C6_6  and  C8_8 
ROOT
HETATM    1  C1  UNL     1     -33.490   7.936   6.345  1.00 20.00     0.000 C 
HETATM    2  C2  UNL     1     -34.419   6.833   6.838  1.00 20.00     0.001 C 
HETATM    3  C3  UNL     1     -33.625   8.165   4.843  1.00 20.00     0.001 C 
HETATM    4  C4  UNL     1     -34.224   5.536   6.052  1.00 20.00     0.010 C 
HETATM    5  C5  UNL     1     -33.429   6.871   4.054  1.00 20.00     0.010 C 
HETATM    6  C6  UNL     1     -34.349   5.720   4.521  1.00 20.00    -0.032 C 
HETATM    7  C7  UNL     1     -35.812   6.003   4.129  1.00 20.00     0.016 C 
ENDROOT
BRANCH   6   8
HETATM    8  C8  UNL     1     -33.915   4.418   3.824  1.00 20.00     0.123 C 
HETATM    9 CL9  UNL     1     -32.811   4.792   2.495  1.00 20.00    -0.130 Cl
ENDBRANCH   6   8
TORSDOF 1
ENDMDL
MODEL 3
REMARK VINA RESULT:      -4.1      2.252      3.735
REMARK  1 active torsions:
REMARK  status: ('A' for Active; 'I' for Inactive)
REMARK    1  A    between atoms: C6_6  and  C8_8 
ROOT
HETATM    1  C1  UNL     1     -32.040   8.156   3.848  1.00 20.00     0.000 C 
HETATM    2  C2  UNL     1     -33.127   8.418   4.884  1.00 20.00     0.001 C 
HETATM    3  C3  UNL     1     -32.494   7.162   2.786  1.00 20.00     0.001 C 
HETATM    4  C4  UNL     1     -33.634   7.119   5.511  1.00 20.00     0.010 C 
HETATM    5  C5  UNL     1     -33.002   5.861   3.409  1.00 20.00     0.010 C 
HETATM    6  C6  UNL     1     -34.104   6.077   4.470  1.00 20.00    -0.032 C 
HETATM    7  C7  UNL     1     -35.417   6.532   3.803  1.00 20.00     0.016 C 
ENDROOT
BRANCH   6   8
HETATM    8  C8  UNL     1     -34.376   4.742   5.187  1.00 20.00     0.123 C 
HETATM    9 CL9  UNL     1     -34.757   5.045   6.887  1.00 20.00    -0.130 Cl
ENDBRANCH   6   8
TORSDOF 1
ENDMDL
MODEL 4
REMARK VINA RESULT:      -3.5      9.176     10.397
REMARK  1 active torsions:
REMARK  status: ('A' for Active; 'I' for Inactive)
REMARK    1  A    between atoms: C6_6  and  C8_8 
ROOT
HETATM    1  C1  UNL     1     -41.143   8.401  -0.182  1.00 20.00     0.000 C 
HETATM    2  C2  UNL     1     -42.648   8.358  -0.418  1.00 20.00     0.001 C 
HETATM    3  C3  UNL     1     -40.518   7.012  -0.243  1.00 20.00     0.001 C 
HETATM    4  C4  UNL     1     -43.343   7.388   0.538  1.00 20.00     0.010 C 
HETATM    5  C5  UNL     1     -41.209   6.038   0.712  1.00 20.00     0.010 C 
HETATM    6  C6  UNL     1     -42.740   5.964   0.513  1.00 20.00    -0.032 C 
HETATM    7  C7  UNL     1     -43.080   5.256  -0.813  1.00 20.00     0.016 C 
ENDROOT
BRANCH   6   8
HETATM    8  C8  UNL     1     -43.354   5.141   1.660  1.00 20.00     0.123 C 
HETATM    9 CL9  UNL     1     -43.417   3.435   1.203  1.00 20.00    -0.130 Cl
ENDBRANCH   6   8
TORSDOF 1
ENDMDL
MODEL 5
REMARK VINA RESULT:      -3.4     12.263     13.413
REMARK  1 active torsions:
REMARK  status: ('A' for Active; 'I' for Inactive)
REMARK    1  A    between atoms: C6_6  and  C8_8 
ROOT
HETATM    1  C1  UNL     1     -34.320  15.715  -4.645  1.00 20.00     0.000 C 
HETATM    2  C2  UNL     1     -33.147  15.786  -3.675  1.00 20.00     0.001 C 
HETATM    3  C3  UNL     1     -34.832  17.101  -5.020  1.00 20.00     0.001 C 
HETATM    4  C4  UNL     1     -33.487  16.613  -2.435  1.00 20.00     0.010 C 
HETATM    5  C5  UNL     1     -35.175  17.931  -3.783  1.00 20.00     0.010 C 
HETATM    6  C6  UNL     1     -34.015  18.028  -2.767  1.00 20.00    -0.032 C 
HETATM    7  C7  UNL     1     -32.881  18.912  -3.322  1.00 20.00     0.016 C 
ENDROOT
BRANCH   6   8
HETATM    8  C8  UNL     1     -34.536  18.683  -1.474  1.00 20.00     0.123 C 
HETATM    9 CL9  UNL     1     -33.809  17.890  -0.070  1.00 20.00    -0.130 Cl
ENDBRANCH   6   8
TORSDOF 1
ENDMDL
MODEL 6
REMARK VINA RESULT:      -3.4     12.413     13.337
REMARK  1 active torsions:
REMARK  status: ('A' for Active; 'I' for Inactive)
REMARK    1  A    between atoms: C6_6  and  C8_8 
ROOT
HETATM    1  C1  UNL     1     -32.361  18.800   0.812  1.00 20.00     0.000 C 
HETATM    2  C2  UNL     1     -31.469  18.505  -0.387  1.00 20.00     0.001 C 
HETATM    3  C3  UNL     1     -33.747  18.184   0.655  1.00 20.00     0.001 C 
HETATM    4  C4  UNL     1     -32.127  18.931  -1.700  1.00 20.00     0.010 C 
HETATM    5  C5  UNL     1     -34.409  18.609  -0.655  1.00 20.00     0.010 C 
HETATM    6  C6  UNL     1     -33.539  18.333  -1.902  1.00 20.00    -0.032 C 
HETATM    7  C7  UNL     1     -33.450  16.819  -2.176  1.00 20.00     0.016 C 
ENDROOT
BRANCH   6   8
HETATM    8  C8  UNL     1     -34.193  18.998  -3.127  1.00 20.00     0.123 C 
HETATM    9 CL9  UNL     1     -32.978  19.257  -4.385  1.00 20.00    -0.130 Cl
ENDBRANCH   6   8
TORSDOF 1
ENDMDL
MODEL 7
REMARK VINA RESULT:      -3.4     12.195     12.929
REMARK  1 active torsions:
REMARK  status: ('A' for Active; 'I' for Inactive)
REMARK    1  A    between atoms: C6_6  and  C8_8 
ROOT
HETATM    1  C1  UNL     1     -32.262  18.982   1.378  1.00 20.00     0.000 C 
HETATM    2  C2  UNL     1     -33.735  18.891   1.000  1.00 20.00     0.001 C 
HETATM    3  C3  UNL     1     -31.374  19.211   0.160  1.00 20.00     0.001 C 
HETATM    4  C4  UNL     1     -33.977  17.833  -0.077  1.00 20.00     0.010 C 
HETATM    5  C5  UNL     1     -31.613  18.155  -0.919  1.00 20.00     0.010 C 
HETATM    6  C6  UNL     1     -33.096  18.022  -1.334  1.00 20.00    -0.032 C 
HETATM    7  C7  UNL     1     -33.548  19.261  -2.130  1.00 20.00     0.016 C 
ENDROOT
BRANCH   6   8
HETATM    8  C8  UNL     1     -33.253  16.791  -2.244  1.00 20.00     0.123 C 
HETATM    9 CL9  UNL     1     -33.881  17.291  -3.820  1.00 20.00    -0.130 Cl
ENDBRANCH   6   8
TORSDOF 1
ENDMDL
MODEL 8
REMARK VINA RESULT:      -3.3      9.377     10.481
REMARK  1 active torsions:
REMARK  status: ('A' for Active; 'I' for Inactive)
REMARK    1  A    between atoms: C6_6  and  C8_8 
ROOT
HETATM    1  C1  UNL     1     -42.302  13.964   8.713  1.00 20.00     0.000 C 
HETATM    2  C2  UNL     1     -43.111  13.109   7.744  1.00 20.00     0.001 C 
HETATM    3  C3  UNL     1     -41.388  14.941   7.983  1.00 20.00     0.001 C 
HETATM    4  C4  UNL     1     -42.211  12.392   6.737  1.00 20.00     0.010 C 
HETATM    5  C5  UNL     1     -40.486  14.228   6.976  1.00 20.00     0.010 C 
HETATM    6  C6  UNL     1     -41.262  13.344   5.973  1.00 20.00    -0.032 C 
HETATM    7  C7  UNL     1     -42.055  14.218   4.982  1.00 20.00     0.016 C 
ENDROOT
BRANCH   6   8
HETATM    8  C8  UNL     1     -40.257  12.505   5.163  1.00 20.00     0.123 C 
HETATM    9 CL9  UNL     1     -38.995  11.888   6.237  1.00 20.00    -0.130 Cl
ENDBRANCH   6   8
TORSDOF 1
ENDMDL
MODEL 9
REMARK VINA RESULT:      -3.3      1.290      2.516
REMARK  1 active torsions:
REMARK  status: ('A' for Active; 'I' for Inactive)
REMARK    1  A    between atoms: C6_6  and  C8_8 
ROOT
HETATM    1  C1  UNL     1     -34.273   5.489   4.293  1.00 20.00     0.000 C 
HETATM    2  C2  UNL     1     -34.103   6.716   5.181  1.00 20.00     0.001 C 
HETATM    3  C3  UNL     1     -33.120   5.336   3.307  1.00 20.00     0.001 C 
HETATM    4  C4  UNL     1     -33.897   7.987   4.356  1.00 20.00     0.010 C 
HETATM    5  C5  UNL     1     -32.911   6.604   2.480  1.00 20.00     0.010 C 
HETATM    6  C6  UNL     1     -32.738   7.878   3.338  1.00 20.00    -0.032 C 
HETATM    7  C7  UNL     1     -31.380   7.859   4.065  1.00 20.00     0.016 C 
ENDROOT
BRANCH   6   8
HETATM    8  C8  UNL     1     -32.765   9.110   2.416  1.00 20.00     0.123 C 
HETATM    9 CL9  UNL     1     -32.312   8.637   0.774  1.00 20.00    -0.130 Cl
ENDBRANCH   6   8
TORSDOF 1
ENDMDL
