MODEL 1
REMARK VINA RESULT:      -4.7      0.000      0.000
REMARK  0 active torsions:
REMARK  status: ('A' for Active; 'I' for Inactive)
ROOT
HETATM    1  C1  UNL     1     -33.759   5.880   3.967  1.00 20.00     0.164 C 
HETATM    2  C2  UNL     1     -34.840   5.207   4.779  1.00 20.00     0.107 C 
HETATM    3  C3  UNL     1     -34.581   5.454   6.256  1.00 20.00     0.175 C 
HETATM    4  C4  UNL     1     -33.306   7.401   5.863  1.00 20.00     0.212 C 
HETATM    5  C5  UNL     1     -33.448   7.305   4.354  1.00 20.00     0.263 C 
HETATM    6  O6  UNL     1     -33.235   5.336   2.998  1.00 20.00    -0.295 OA
HETATM    7  O7  UNL     1     -34.448   6.853   6.520  1.00 20.00    -0.388 OA
HETATM    8  F8  UNL     1     -32.296   7.735   3.774  1.00 20.00    -0.239 F 
ENDROOT
TORSDOF 0
ENDMDL
MODEL 2
REMARK VINA RESULT:      -4.7      1.432      1.741
REMARK  0 active torsions:
REMARK  status: ('A' for Active; 'I' for Inactive)
ROOT
HETATM    1  C1  UNL     1     -34.188   5.191   4.666  1.00 20.00     0.164 C 
HETATM    2  C2  UNL     1     -34.848   5.813   5.875  1.00 20.00     0.107 C 
HETATM    3  C3  UNL     1     -33.997   6.974   6.365  1.00 20.00     0.175 C 
HETATM    4  C4  UNL     1     -32.968   7.304   4.267  1.00 20.00     0.212 C 
HETATM    5  C5  UNL     1     -33.722   6.163   3.609  1.00 20.00     0.263 C 
HETATM    6  O6  UNL     1     -34.120   3.974   4.513  1.00 20.00    -0.295 OA
HETATM    7  O7  UNL     1     -33.745   7.900   5.305  1.00 20.00    -0.388 OA
HETATM    8  F8  UNL     1     -32.906   5.556   2.707  1.00 20.00    -0.239 F 
ENDROOT
TORSDOF 0
ENDMDL
MODEL 3
REMARK VINA RESULT:      -4.5      1.802      3.320
REMARK  0 active torsions:
REMARK  status: ('A' for Active; 'I' for Inactive)
ROOT
HETATM    1  C1  UNL     1     -34.065   6.680   5.230  1.00 20.00     0.164 C 
HETATM    2  C2  UNL     1     -33.523   8.042   4.862  1.00 20.00     0.107 C 
HETATM    3  C3  UNL     1     -32.294   7.868   3.984  1.00 20.00     0.175 C 
HETATM    4  C4  UNL     1     -32.928   5.714   3.257  1.00 20.00     0.212 C 
HETATM    5  C5  UNL     1     -34.201   5.705   4.086  1.00 20.00     0.263 C 
HETATM    6  O6  UNL     1     -34.455   6.417   6.364  1.00 20.00    -0.295 OA
HETATM    7  O7  UNL     1     -32.589   7.041   2.857  1.00 20.00    -0.388 OA
HETATM    8  F8  UNL     1     -34.424   4.442   4.537  1.00 20.00    -0.239 F 
ENDROOT
TORSDOF 0
ENDMDL
MODEL 4
REMARK VINA RESULT:      -4.3      2.040      2.757
REMARK  0 active torsions:
REMARK  status: ('A' for Active; 'I' for Inactive)
ROOT
HETATM    1  C1  UNL     1     -34.084   6.268   4.588  1.00 20.00     0.164 C 
HETATM    2  C2  UNL     1     -33.162   5.986   3.424  1.00 20.00     0.107 C 
HETATM    3  C3  UNL     1     -32.505   7.284   2.982  1.00 20.00     0.175 C 
HETATM    4  C4  UNL     1     -32.806   8.328   5.078  1.00 20.00     0.212 C 
HETATM    5  C5  UNL     1     -33.499   7.122   5.686  1.00 20.00     0.263 C 
HETATM    6  O6  UNL     1     -35.199   5.760   4.675  1.00 20.00    -0.295 OA
HETATM    7  O7  UNL     1     -31.862   7.928   4.085  1.00 20.00    -0.388 OA
HETATM    8  F8  UNL     1     -34.463   7.553   6.543  1.00 20.00    -0.239 F 
ENDROOT
TORSDOF 0
ENDMDL
MODEL 5
REMARK VINA RESULT:      -4.3      1.983      2.574
REMARK  0 active torsions:
REMARK  status: ('A' for Active; 'I' for Inactive)
ROOT
HETATM    1  C1  UNL     1     -33.432   6.987   4.666  1.00 20.00     0.164 C 
HETATM    2  C2  UNL     1     -33.561   6.073   3.470  1.00 20.00     0.107 C 
HETATM    3  C3  UNL     1     -33.760   4.645   3.953  1.00 20.00     0.175 C 
HETATM    4  C4  UNL     1     -34.609   5.312   6.052  1.00 20.00     0.212 C 
HETATM    5  C5  UNL     1     -34.467   6.792   5.747  1.00 20.00     0.263 C 
HETATM    6  O6  UNL     1     -32.598   7.888   4.712  1.00 20.00    -0.295 OA
HETATM    7  O7  UNL     1     -34.861   4.566   4.861  1.00 20.00    -0.388 OA
HETATM    8  F8  UNL     1     -34.119   7.446   6.887  1.00 20.00    -0.239 F 
ENDROOT
TORSDOF 0
ENDMDL
MODEL 6
REMARK VINA RESULT:      -4.1      1.814      2.634
REMARK  0 active torsions:
REMARK  status: ('A' for Active; 'I' for Inactive)
ROOT
HETATM    1  C1  UNL     1     -32.443   7.301   3.151  1.00 20.00     0.164 C 
HETATM    2  C2  UNL     1     -32.315   8.203   4.357  1.00 20.00     0.107 C 
HETATM    3  C3  UNL     1     -33.583   8.104   5.190  1.00 20.00     0.175 C 
HETATM    4  C4  UNL     1     -34.154   5.975   4.347  1.00 20.00     0.212 C 
HETATM    5  C5  UNL     1     -32.942   5.905   3.435  1.00 20.00     0.263 C 
HETATM    6  O6  UNL     1     -32.078   7.652   2.032  1.00 20.00    -0.295 OA
HETATM    7  O7  UNL     1     -33.870   6.743   5.516  1.00 20.00    -0.388 OA
HETATM    8  F8  UNL     1     -33.289   5.263   2.288  1.00 20.00    -0.239 F 
ENDROOT
TORSDOF 0
ENDMDL
MODEL 7
REMARK VINA RESULT:      -4.1      1.310      2.355
REMARK  0 active torsions:
REMARK  status: ('A' for Active; 'I' for Inactive)
ROOT
HETATM    1  C1  UNL     1     -33.525   7.456   5.077  1.00 20.00     0.164 C 
HETATM    2  C2  UNL     1     -34.165   6.559   6.111  1.00 20.00     0.107 C 
HETATM    3  C3  UNL     1     -34.966   5.477   5.405  1.00 20.00     0.175 C 
HETATM    4  C4  UNL     1     -33.716   5.640   3.410  1.00 20.00     0.212 C 
HETATM    5  C5  UNL     1     -32.823   6.744   3.946  1.00 20.00     0.263 C 
HETATM    6  O6  UNL     1     -33.498   8.677   5.199  1.00 20.00    -0.295 OA
HETATM    7  O7  UNL     1     -34.151   4.778   4.461  1.00 20.00    -0.388 OA
HETATM    8  F8  UNL     1     -32.523   7.601   2.934  1.00 20.00    -0.239 F 
ENDROOT
TORSDOF 0
ENDMDL
MODEL 8
REMARK VINA RESULT:      -3.8      0.970      2.580
REMARK  0 active torsions:
REMARK  status: ('A' for Active; 'I' for Inactive)
ROOT
HETATM    1  C1  UNL     1     -34.047   6.869   6.203  1.00 20.00     0.164 C 
HETATM    2  C2  UNL     1     -34.437   5.417   6.054  1.00 20.00     0.107 C 
HETATM    3  C3  UNL     1     -34.757   5.134   4.595  1.00 20.00     0.175 C 
HETATM    4  C4  UNL     1     -33.460   6.940   3.802  1.00 20.00     0.212 C 
HETATM    5  C5  UNL     1     -33.046   7.379   5.195  1.00 20.00     0.263 C 
HETATM    6  O6  UNL     1     -34.447   7.560   7.137  1.00 20.00    -0.295 OA
HETATM    7  O7  UNL     1     -33.672   5.529   3.753  1.00 20.00    -0.388 OA
HETATM    8  F8  UNL     1     -32.964   8.736   5.224  1.00 20.00    -0.239 F 
ENDROOT
TORSDOF 0
ENDMDL
MODEL 9
REMARK VINA RESULT:      -3.6     12.594     13.572
REMARK  0 active torsions:
REMARK  status: ('A' for Active; 'I' for Inactive)
ROOT
HETATM    1  C1  UNL     1     -33.977  14.941  -4.470  1.00 20.00     0.164 C 
HETATM    2  C2  UNL     1     -34.150  15.156  -5.956  1.00 20.00     0.107 C 
HETATM    3  C3  UNL     1     -34.906  16.454  -6.187  1.00 20.00     0.175 C 
HETATM    4  C4  UNL     1     -34.285  17.367  -4.101  1.00 20.00     0.212 C 
HETATM    5  C5  UNL     1     -33.490  16.140  -3.693  1.00 20.00     0.263 C 
HETATM    6  O6  UNL     1     -34.135  13.841  -3.947  1.00 20.00    -0.295 OA
HETATM    7  O7  UNL     1     -34.265  17.541  -5.518  1.00 20.00    -0.388 OA
HETATM    8  F8  UNL     1     -33.629  15.950  -2.354  1.00 20.00    -0.239 F 
ENDROOT
TORSDOF 0
ENDMDL
