MODEL 1
REMARK VINA RESULT:      -5.5      0.000      0.000
REMARK  1 active torsions:
REMARK  status: ('A' for Active; 'I' for Inactive)
REMARK    1  A    between atoms: C1_1  and  C3_3 
ROOT
HETATM    1  C1  UNL     1     -33.768   6.584   4.612  1.00 20.00     0.143 C 
HETATM    2  C2  UNL     1     -33.545   7.677   5.351  1.00 20.00     0.190 C 
HETATM    3  F4  UNL     1     -34.260   7.894   6.476  1.00 20.00    -0.193 F 
HETATM    4 CL8  UNL     1     -32.348   8.830   4.895  1.00 20.00    -0.051 Cl
ENDROOT
BRANCH   1   5
HETATM    5  C3  UNL     1     -34.776   5.532   4.920  1.00 20.00     0.411 C 
HETATM    6  F5  UNL     1     -34.964   5.329   6.248  1.00 20.00    -0.167 F 
HETATM    7  F6  UNL     1     -34.417   4.335   4.389  1.00 20.00    -0.167 F 
HETATM    8  F7  UNL     1     -35.989   5.843   4.396  1.00 20.00    -0.167 F 
ENDBRANCH   1   5
TORSDOF 1
ENDMDL
MODEL 2
REMARK VINA RESULT:      -5.5      0.046      1.349
REMARK  1 active torsions:
REMARK  status: ('A' for Active; 'I' for Inactive)
REMARK    1  A    between atoms: C1_1  and  C3_3 
ROOT
HETATM    1  C1  UNL     1     -33.775   6.570   4.593  1.00 20.00     0.143 C 
HETATM    2  C2  UNL     1     -33.560   7.655   5.347  1.00 20.00     0.190 C 
HETATM    3  F4  UNL     1     -34.276   7.851   6.475  1.00 20.00    -0.193 F 
HETATM    4 CL8  UNL     1     -32.373   8.824   4.905  1.00 20.00    -0.051 Cl
ENDROOT
BRANCH   1   5
HETATM    5  C3  UNL     1     -34.774   5.506   4.888  1.00 20.00     0.411 C 
HETATM    6  F5  UNL     1     -34.466   4.303   4.343  1.00 20.00    -0.167 F 
HETATM    7  F6  UNL     1     -36.004   5.843   4.424  1.00 20.00    -0.167 F 
HETATM    8  F7  UNL     1     -34.902   5.308   6.225  1.00 20.00    -0.167 F 
ENDBRANCH   1   5
TORSDOF 1
ENDMDL
MODEL 3
REMARK VINA RESULT:      -5.5      0.065      1.342
REMARK  1 active torsions:
REMARK  status: ('A' for Active; 'I' for Inactive)
REMARK    1  A    between atoms: C1_1  and  C3_3 
ROOT
HETATM    1  C1  UNL     1     -33.755   6.598   4.594  1.00 20.00     0.143 C 
HETATM    2  C2  UNL     1     -33.536   7.707   5.310  1.00 20.00     0.190 C 
HETATM    3  F4  UNL     1     -34.286   7.971   6.402  1.00 20.00    -0.193 F 
HETATM    4 CL8  UNL     1     -32.301   8.824   4.864  1.00 20.00    -0.051 Cl
ENDROOT
BRANCH   1   5
HETATM    5  C3  UNL     1     -34.794   5.575   4.897  1.00 20.00     0.411 C 
HETATM    6  F5  UNL     1     -36.013   5.865   4.378  1.00 20.00    -0.167 F 
HETATM    7  F6  UNL     1     -34.964   5.426   6.235  1.00 20.00    -0.167 F 
HETATM    8  F7  UNL     1     -34.442   4.357   4.410  1.00 20.00    -0.167 F 
ENDBRANCH   1   5
TORSDOF 1
ENDMDL
MODEL 4
REMARK VINA RESULT:      -5.4      1.192      1.903
REMARK  1 active torsions:
REMARK  status: ('A' for Active; 'I' for Inactive)
REMARK    1  A    between atoms: C1_1  and  C3_3 
ROOT
HETATM    1  C1  UNL     1     -33.993   6.932   5.323  1.00 20.00     0.143 C 
HETATM    2  C2  UNL     1     -33.110   7.380   4.423  1.00 20.00     0.190 C 
HETATM    3  F4  UNL     1     -32.879   6.681   3.290  1.00 20.00    -0.193 F 
HETATM    4 CL8  UNL     1     -32.248   8.851   4.678  1.00 20.00    -0.051 Cl
ENDROOT
BRANCH   1   5
HETATM    5  C3  UNL     1     -34.785   5.678   5.195  1.00 20.00     0.411 C 
HETATM    6  F5  UNL     1     -34.102   4.657   4.618  1.00 20.00    -0.167 F 
HETATM    7  F6  UNL     1     -35.901   5.874   4.447  1.00 20.00    -0.167 F 
HETATM    8  F7  UNL     1     -35.202   5.233   6.408  1.00 20.00    -0.167 F 
ENDBRANCH   1   5
TORSDOF 1
ENDMDL
MODEL 5
REMARK VINA RESULT:      -5.1      2.720      3.885
REMARK  1 active torsions:
REMARK  status: ('A' for Active; 'I' for Inactive)
REMARK    1  A    between atoms: C1_1  and  C3_3 
ROOT
HETATM    1  C1  UNL     1     -33.384   7.561   5.393  1.00 20.00     0.143 C 
HETATM    2  C2  UNL     1     -33.957   6.401   5.052  1.00 20.00     0.190 C 
HETATM    3  F4  UNL     1     -33.815   5.915   3.799  1.00 20.00    -0.193 F 
HETATM    4 CL8  UNL     1     -34.886   5.499   6.190  1.00 20.00    -0.051 Cl
ENDROOT
BRANCH   1   5
HETATM    5  C3  UNL     1     -32.566   8.412   4.486  1.00 20.00     0.411 C 
HETATM    6  F5  UNL     1     -31.454   7.795   4.014  1.00 20.00    -0.167 F 
HETATM    7  F6  UNL     1     -32.150   9.543   5.113  1.00 20.00    -0.167 F 
HETATM    8  F7  UNL     1     -33.282   8.808   3.402  1.00 20.00    -0.167 F 
ENDBRANCH   1   5
TORSDOF 1
ENDMDL
MODEL 6
REMARK VINA RESULT:      -5.1      2.711      3.887
REMARK  1 active torsions:
REMARK  status: ('A' for Active; 'I' for Inactive)
REMARK    1  A    between atoms: C1_1  and  C3_3 
ROOT
HETATM    1  C1  UNL     1     -33.394   7.548   5.413  1.00 20.00     0.143 C 
HETATM    2  C2  UNL     1     -33.957   6.388   5.055  1.00 20.00     0.190 C 
HETATM    3  F4  UNL     1     -33.823   5.928   3.792  1.00 20.00    -0.193 F 
HETATM    4 CL8  UNL     1     -34.864   5.453   6.185  1.00 20.00    -0.051 Cl
ENDROOT
BRANCH   1   5
HETATM    5  C3  UNL     1     -32.595   8.426   4.514  1.00 20.00     0.411 C 
HETATM    6  F5  UNL     1     -32.150   9.559   5.112  1.00 20.00    -0.167 F 
HETATM    7  F6  UNL     1     -33.318   8.812   3.432  1.00 20.00    -0.167 F 
HETATM    8  F7  UNL     1     -31.499   7.778   4.040  1.00 20.00    -0.167 F 
ENDBRANCH   1   5
TORSDOF 1
ENDMDL
MODEL 7
REMARK VINA RESULT:      -5.1      2.717      3.874
REMARK  1 active torsions:
REMARK  status: ('A' for Active; 'I' for Inactive)
REMARK    1  A    between atoms: C1_1  and  C3_3 
ROOT
HETATM    1  C1  UNL     1     -33.373   7.551   5.406  1.00 20.00     0.143 C 
HETATM    2  C2  UNL     1     -33.968   6.403   5.059  1.00 20.00     0.190 C 
HETATM    3  F4  UNL     1     -33.882   5.950   3.789  1.00 20.00    -0.193 F 
HETATM    4 CL8  UNL     1     -34.855   5.476   6.211  1.00 20.00    -0.051 Cl
ENDROOT
BRANCH   1   5
HETATM    5  C3  UNL     1     -32.587   8.420   4.488  1.00 20.00     0.411 C 
HETATM    6  F5  UNL     1     -33.277   8.818   3.390  1.00 20.00    -0.167 F 
HETATM    7  F6  UNL     1     -31.473   7.786   4.042  1.00 20.00    -0.167 F 
HETATM    8  F7  UNL     1     -32.169   9.549   5.117  1.00 20.00    -0.167 F 
ENDBRANCH   1   5
TORSDOF 1
ENDMDL
MODEL 8
REMARK VINA RESULT:      -4.8      1.824      2.841
REMARK  1 active torsions:
REMARK  status: ('A' for Active; 'I' for Inactive)
REMARK    1  A    between atoms: C1_1  and  C3_3 
ROOT
HETATM    1  C1  UNL     1     -33.813   6.257   4.815  1.00 20.00     0.143 C 
HETATM    2  C2  UNL     1     -33.654   5.239   3.961  1.00 20.00     0.190 C 
HETATM    3  F4  UNL     1     -33.993   3.985   4.329  1.00 20.00    -0.193 F 
HETATM    4 CL8  UNL     1     -33.017   5.496   2.380  1.00 20.00    -0.051 Cl
ENDROOT
BRANCH   1   5
HETATM    5  C3  UNL     1     -34.353   6.140   6.198  1.00 20.00     0.411 C 
HETATM    6  F5  UNL     1     -34.471   7.328   6.841  1.00 20.00    -0.167 F 
HETATM    7  F6  UNL     1     -33.560   5.354   6.971  1.00 20.00    -0.167 F 
HETATM    8  F7  UNL     1     -35.586   5.571   6.199  1.00 20.00    -0.167 F 
ENDBRANCH   1   5
TORSDOF 1
ENDMDL
MODEL 9
REMARK VINA RESULT:      -4.8      1.816      2.751
REMARK  1 active torsions:
REMARK  status: ('A' for Active; 'I' for Inactive)
REMARK    1  A    between atoms: C1_1  and  C3_3 
ROOT
HETATM    1  C1  UNL     1     -33.557   6.981   4.559  1.00 20.00     0.143 C 
HETATM    2  C2  UNL     1     -32.581   7.711   4.006  1.00 20.00     0.190 C 
HETATM    3  F4  UNL     1     -31.888   8.597   4.754  1.00 20.00    -0.193 F 
HETATM    4 CL8  UNL     1     -32.183   7.546   2.337  1.00 20.00    -0.051 Cl
ENDROOT
BRANCH   1   5
HETATM    5  C3  UNL     1     -33.974   7.050   5.987  1.00 20.00     0.411 C 
HETATM    6  F5  UNL     1     -35.002   6.221   6.295  1.00 20.00    -0.167 F 
HETATM    7  F6  UNL     1     -34.369   8.305   6.324  1.00 20.00    -0.167 F 
HETATM    8  F7  UNL     1     -32.949   6.727   6.816  1.00 20.00    -0.167 F 
ENDBRANCH   1   5
TORSDOF 1
ENDMDL
