MODEL 1
REMARK VINA RESULT:      -4.1      0.000      0.000
REMARK  2 active torsions:
REMARK  status: ('A' for Active; 'I' for Inactive)
REMARK    1  A    between atoms: C1_1  and  C4_4 
REMARK    2  A    between atoms: C4_4  and  C5_5 
ROOT
HETATM    1  C2  UNL     1     -34.339   4.911   4.385  1.00 20.00     0.020 A 
HETATM    2  C3  UNL     1     -35.469   5.894   4.433  1.00 20.00     0.020 A 
HETATM    3  C4  UNL     1     -34.131   6.260   5.040  1.00 20.00     0.039 A 
ENDROOT
BRANCH   3   4
HETATM    4  C1  UNL     1     -33.306   7.245   4.301  1.00 20.00     0.243 C 
HETATM    5  O6  UNL     1     -32.529   8.022   4.847  1.00 20.00    -0.306 OA
ENDBRANCH   3   4
BRANCH   3   6
HETATM    6  C5  UNL     1     -34.045   6.285   6.546  1.00 20.00     0.238 C 
HETATM    7  F7  UNL     1     -34.556   7.463   6.995  1.00 20.00    -0.254 F 
ENDBRANCH   3   6
TORSDOF 2
ENDMDL
MODEL 2
REMARK VINA RESULT:      -4.0      2.047      2.449
REMARK  2 active torsions:
REMARK  status: ('A' for Active; 'I' for Inactive)
REMARK    1  A    between atoms: C1_1  and  C4_4 
REMARK    2  A    between atoms: C4_4  and  C5_5 
ROOT
HETATM    1  C2  UNL     1     -35.525   5.753   4.591  1.00 20.00     0.020 A 
HETATM    2  C3  UNL     1     -34.522   5.303   5.609  1.00 20.00     0.020 A 
HETATM    3  C4  UNL     1     -34.064   6.107   4.411  1.00 20.00     0.039 A 
ENDROOT
BRANCH   3   4
HETATM    4  C1  UNL     1     -33.679   7.518   4.657  1.00 20.00     0.243 C 
HETATM    5  O6  UNL     1     -32.728   7.847   5.358  1.00 20.00    -0.306 OA
ENDBRANCH   3   4
BRANCH   3   6
HETATM    6  C5  UNL     1     -33.307   5.367   3.336  1.00 20.00     0.238 C 
HETATM    7  F7  UNL     1     -32.544   6.255   2.646  1.00 20.00    -0.254 F 
ENDBRANCH   3   6
TORSDOF 2
ENDMDL
MODEL 3
REMARK VINA RESULT:      -3.9      1.766      1.945
REMARK  2 active torsions:
REMARK  status: ('A' for Active; 'I' for Inactive)
REMARK    1  A    between atoms: C1_1  and  C4_4 
REMARK    2  A    between atoms: C4_4  and  C5_5 
ROOT
HETATM    1  C2  UNL     1     -34.590   5.092   5.522  1.00 20.00     0.020 A 
HETATM    2  C3  UNL     1     -35.490   5.854   4.597  1.00 20.00     0.020 A 
HETATM    3  C4  UNL     1     -33.990   6.043   4.508  1.00 20.00     0.039 A 
ENDROOT
BRANCH   3   4
HETATM    4  C1  UNL     1     -33.306   5.435   3.341  1.00 20.00     0.243 C 
HETATM    5  O6  UNL     1     -32.591   6.069   2.572  1.00 20.00    -0.306 OA
ENDBRANCH   3   4
BRANCH   3   6
HETATM    6  C5  UNL     1     -33.429   7.340   5.033  1.00 20.00     0.238 C 
HETATM    7  F7  UNL     1     -34.059   8.374   4.414  1.00 20.00    -0.254 F 
ENDBRANCH   3   6
TORSDOF 2
ENDMDL
MODEL 4
REMARK VINA RESULT:      -3.8      1.697      2.474
REMARK  2 active torsions:
REMARK  status: ('A' for Active; 'I' for Inactive)
REMARK    1  A    between atoms: C1_1  and  C4_4 
REMARK    2  A    between atoms: C4_4  and  C5_5 
ROOT
HETATM    1  C2  UNL     1     -33.928   8.210   4.266  1.00 20.00     0.020 A 
HETATM    2  C3  UNL     1     -32.710   7.362   4.058  1.00 20.00     0.020 A 
HETATM    3  C4  UNL     1     -33.842   6.849   4.922  1.00 20.00     0.039 A 
ENDROOT
BRANCH   3   4
HETATM    4  C1  UNL     1     -34.688   5.773   4.351  1.00 20.00     0.243 C 
HETATM    5  O6  UNL     1     -34.659   4.611   4.743  1.00 20.00    -0.306 OA
ENDBRANCH   3   4
BRANCH   3   6
HETATM    6  C5  UNL     1     -33.608   6.819   6.412  1.00 20.00     0.238 C 
HETATM    7  F7  UNL     1     -34.807   6.699   7.043  1.00 20.00    -0.254 F 
ENDBRANCH   3   6
TORSDOF 2
ENDMDL
MODEL 5
REMARK VINA RESULT:      -3.7      1.993      2.626
REMARK  2 active torsions:
REMARK  status: ('A' for Active; 'I' for Inactive)
REMARK    1  A    between atoms: C1_1  and  C4_4 
REMARK    2  A    between atoms: C4_4  and  C5_5 
ROOT
HETATM    1  C2  UNL     1     -34.032   8.132   4.967  1.00 20.00     0.020 A 
HETATM    2  C3  UNL     1     -33.317   7.181   5.878  1.00 20.00     0.020 A 
HETATM    3  C4  UNL     1     -33.894   6.677   4.572  1.00 20.00     0.039 A 
ENDROOT
BRANCH   3   4
HETATM    4  C1  UNL     1     -32.930   6.364   3.489  1.00 20.00     0.243 C 
HETATM    5  O6  UNL     1     -33.033   5.386   2.755  1.00 20.00    -0.306 OA
ENDBRANCH   3   4
BRANCH   3   6
HETATM    6  C5  UNL     1     -35.135   5.824   4.654  1.00 20.00     0.238 C 
HETATM    7  F7  UNL     1     -34.843   4.688   5.344  1.00 20.00    -0.254 F 
ENDBRANCH   3   6
TORSDOF 2
ENDMDL
MODEL 6
REMARK VINA RESULT:      -3.6      2.628      3.269
REMARK  2 active torsions:
REMARK  status: ('A' for Active; 'I' for Inactive)
REMARK    1  A    between atoms: C1_1  and  C4_4 
REMARK    2  A    between atoms: C4_4  and  C5_5 
ROOT
HETATM    1  C2  UNL     1     -33.288   7.223   5.840  1.00 20.00     0.020 A 
HETATM    2  C3  UNL     1     -34.085   8.120   4.941  1.00 20.00     0.020 A 
HETATM    3  C4  UNL     1     -33.783   6.701   4.507  1.00 20.00     0.039 A 
ENDROOT
BRANCH   3   4
HETATM    4  C1  UNL     1     -34.908   5.735   4.540  1.00 20.00     0.243 C 
HETATM    5  O6  UNL     1     -34.782   4.563   4.878  1.00 20.00    -0.306 OA
ENDBRANCH   3   4
BRANCH   3   6
HETATM    6  C5  UNL     1     -32.757   6.521   3.417  1.00 20.00     0.238 C 
HETATM    7  F7  UNL     1     -33.134   5.482   2.625  1.00 20.00    -0.254 F 
ENDBRANCH   3   6
TORSDOF 2
ENDMDL
MODEL 7
REMARK VINA RESULT:      -3.5      1.703      2.302
REMARK  2 active torsions:
REMARK  status: ('A' for Active; 'I' for Inactive)
REMARK    1  A    between atoms: C1_1  and  C4_4 
REMARK    2  A    between atoms: C4_4  and  C5_5 
ROOT
HETATM    1  C2  UNL     1     -35.489   6.051   4.224  1.00 20.00     0.020 A 
HETATM    2  C3  UNL     1     -34.185   5.336   4.045  1.00 20.00     0.020 A 
HETATM    3  C4  UNL     1     -34.276   6.496   5.013  1.00 20.00     0.039 A 
ENDROOT
BRANCH   3   4
HETATM    4  C1  UNL     1     -34.258   6.166   6.459  1.00 20.00     0.243 C 
HETATM    5  O6  UNL     1     -33.981   5.053   6.895  1.00 20.00    -0.306 OA
ENDBRANCH   3   4
BRANCH   3   6
HETATM    6  C5  UNL     1     -33.624   7.790   4.597  1.00 20.00     0.238 C 
HETATM    7  F7  UNL     1     -33.858   8.728   5.553  1.00 20.00    -0.254 F 
ENDBRANCH   3   6
TORSDOF 2
ENDMDL
MODEL 8
REMARK VINA RESULT:      -3.5      2.052      2.861
REMARK  2 active torsions:
REMARK  status: ('A' for Active; 'I' for Inactive)
REMARK    1  A    between atoms: C1_1  and  C4_4 
REMARK    2  A    between atoms: C4_4  and  C5_5 
ROOT
HETATM    1  C2  UNL     1     -32.686   7.735   4.585  1.00 20.00     0.020 A 
HETATM    2  C3  UNL     1     -33.996   8.434   4.791  1.00 20.00     0.020 A 
HETATM    3  C4  UNL     1     -33.898   6.942   5.027  1.00 20.00     0.039 A 
ENDROOT
BRANCH   3   4
HETATM    4  C1  UNL     1     -33.922   6.483   6.437  1.00 20.00     0.243 C 
HETATM    5  O6  UNL     1     -34.132   5.320   6.765  1.00 20.00    -0.306 OA
ENDBRANCH   3   4
BRANCH   3   6
HETATM    6  C5  UNL     1     -34.539   6.041   4.001  1.00 20.00     0.238 C 
HETATM    7  F7  UNL     1     -35.866   5.934   4.279  1.00 20.00    -0.254 F 
ENDBRANCH   3   6
TORSDOF 2
ENDMDL
MODEL 9
REMARK VINA RESULT:      -3.2     12.622     13.306
REMARK  2 active torsions:
REMARK  status: ('A' for Active; 'I' for Inactive)
REMARK    1  A    between atoms: C1_1  and  C4_4 
REMARK    2  A    between atoms: C4_4  and  C5_5 
ROOT
HETATM    1  C2  UNL     1     -34.351  19.045  -0.588  1.00 20.00     0.020 A 
HETATM    2  C3  UNL     1     -33.814  17.947   0.279  1.00 20.00     0.020 A 
HETATM    3  C4  UNL     1     -33.061  18.351  -0.971  1.00 20.00     0.039 A 
ENDROOT
BRANCH   3   4
HETATM    4  C1  UNL     1     -31.805  19.116  -0.779  1.00 20.00     0.243 C 
HETATM    5  O6  UNL     1     -30.730  18.594  -0.502  1.00 20.00    -0.306 OA
ENDBRANCH   3   4
BRANCH   3   6
HETATM    6  C5  UNL     1     -33.113  17.401  -2.141  1.00 20.00     0.238 C 
HETATM    7  F7  UNL     1     -33.647  16.221  -1.725  1.00 20.00    -0.254 F 
ENDBRANCH   3   6
TORSDOF 2
ENDMDL
