MODEL 1
REMARK VINA RESULT:      -3.6      0.000      0.000
REMARK  1 active torsions:
REMARK  status: ('A' for Active; 'I' for Inactive)
REMARK    1  A    between atoms: C5_5  and  C6_6 
ROOT
HETATM    1  C1  UNL     1     -33.570   6.273   3.782  1.00 20.00     0.015 C 
HETATM    2  C2  UNL     1     -33.305   7.623   5.924  1.00 20.00     0.015 C 
HETATM    3  C3  UNL     1     -34.678   5.395   4.349  1.00 20.00     0.074 C 
HETATM    4  C4  UNL     1     -34.393   6.855   6.664  1.00 20.00     0.074 C 
HETATM    5  C5  UNL     1     -33.526   7.675   4.405  1.00 20.00    -0.003 C 
HETATM    6  S7  UNL     1     -34.478   5.123   6.132  1.00 20.00    -0.169 SA
ENDROOT
BRANCH   5   7
HETATM    7  C6  UNL     1     -32.430   8.511   3.742  1.00 20.00     0.089 C 
HETATM    8 BR8  UNL     1     -32.188   7.920   1.913  1.00 20.00    -0.096 Br
ENDBRANCH   5   7
TORSDOF 1
ENDMDL
MODEL 2
REMARK VINA RESULT:      -3.4      0.686      1.972
REMARK  1 active torsions:
REMARK  status: ('A' for Active; 'I' for Inactive)
REMARK    1  A    between atoms: C5_5  and  C6_6 
ROOT
HETATM    1  C1  UNL     1     -33.727   7.831   5.412  1.00 20.00     0.015 C 
HETATM    2  C2  UNL     1     -33.404   6.376   3.347  1.00 20.00     0.015 C 
HETATM    3  C3  UNL     1     -34.089   6.655   6.310  1.00 20.00     0.074 C 
HETATM    4  C4  UNL     1     -33.741   5.083   4.079  1.00 20.00     0.074 C 
HETATM    5  C5  UNL     1     -32.788   7.447   4.260  1.00 20.00    -0.003 C 
HETATM    6  S7  UNL     1     -34.958   5.350   5.397  1.00 20.00    -0.169 SA
ENDROOT
BRANCH   5   7
HETATM    7  C6  UNL     1     -32.423   8.688   3.442  1.00 20.00     0.089 C 
HETATM    8 BR8  UNL     1     -32.226   8.195   1.579  1.00 20.00    -0.096 Br
ENDBRANCH   5   7
TORSDOF 1
ENDMDL
MODEL 3
REMARK VINA RESULT:      -3.2     15.894     16.638
REMARK  1 active torsions:
REMARK  status: ('A' for Active; 'I' for Inactive)
REMARK    1  A    between atoms: C5_5  and  C6_6 
ROOT
HETATM    1  C1  UNL     1     -22.435  18.044  10.742  1.00 20.00     0.015 C 
HETATM    2  C2  UNL     1     -24.446  18.673   9.311  1.00 20.00     0.015 C 
HETATM    3  C3  UNL     1     -21.423  18.581   9.738  1.00 20.00     0.074 C 
HETATM    4  C4  UNL     1     -23.595  19.262   8.192  1.00 20.00     0.074 C 
HETATM    5  C5  UNL     1     -23.784  18.775  10.693  1.00 20.00    -0.003 C 
HETATM    6  S7  UNL     1     -22.005  18.403   8.030  1.00 20.00    -0.169 SA
ENDROOT
BRANCH   5   7
HETATM    7  C6  UNL     1     -24.722  18.220  11.767  1.00 20.00     0.089 C 
HETATM    8 BR8  UNL     1     -24.496  16.300  11.888  1.00 20.00    -0.096 Br
ENDBRANCH   5   7
TORSDOF 1
ENDMDL
MODEL 4
REMARK VINA RESULT:      -3.2     15.705     16.041
REMARK  1 active torsions:
REMARK  status: ('A' for Active; 'I' for Inactive)
REMARK    1  A    between atoms: C5_5  and  C6_6 
ROOT
HETATM    1  C1  UNL     1     -23.755  16.978  11.461  1.00 20.00     0.015 C 
HETATM    2  C2  UNL     1     -24.213  18.993   9.972  1.00 20.00     0.015 C 
HETATM    3  C3  UNL     1     -25.094  17.076  12.181  1.00 20.00     0.074 C 
HETATM    4  C4  UNL     1     -25.589  19.253  10.572  1.00 20.00     0.074 C 
HETATM    5  C5  UNL     1     -23.799  17.514  10.023  1.00 20.00    -0.003 C 
HETATM    6  S7  UNL     1     -25.658  18.794  12.326  1.00 20.00    -0.169 SA
ENDROOT
BRANCH   5   7
HETATM    7  C6  UNL     1     -22.438  17.325   9.350  1.00 20.00     0.089 C 
HETATM    8 BR8  UNL     1     -21.570  19.047   9.161  1.00 20.00    -0.096 Br
ENDBRANCH   5   7
TORSDOF 1
ENDMDL
MODEL 5
REMARK VINA RESULT:      -3.1     12.445     13.170
REMARK  1 active torsions:
REMARK  status: ('A' for Active; 'I' for Inactive)
REMARK    1  A    between atoms: C5_5  and  C6_6 
ROOT
HETATM    1  C1  UNL     1     -34.518  17.539  -4.481  1.00 20.00     0.015 C 
HETATM    2  C2  UNL     1     -33.022  15.604  -3.769  1.00 20.00     0.015 C 
HETATM    3  C3  UNL     1     -35.448  16.654  -5.300  1.00 20.00     0.074 C 
HETATM    4  C4  UNL     1     -33.833  14.563  -4.531  1.00 20.00     0.074 C 
HETATM    5  C5  UNL     1     -33.862  16.804  -3.303  1.00 20.00    -0.003 C 
HETATM    6  S7  UNL     1     -34.567  15.251  -6.040  1.00 20.00    -0.169 SA
ENDROOT
BRANCH   5   7
HETATM    7  C6  UNL     1     -32.994  17.771  -2.497  1.00 20.00     0.089 C 
HETATM    8 BR8  UNL     1     -33.712  17.939  -0.706  1.00 20.00    -0.096 Br
ENDBRANCH   5   7
TORSDOF 1
ENDMDL
MODEL 6
REMARK VINA RESULT:      -3.1     12.698     13.273
REMARK  1 active torsions:
REMARK  status: ('A' for Active; 'I' for Inactive)
REMARK    1  A    between atoms: C5_5  and  C6_6 
ROOT
HETATM    1  C1  UNL     1     -34.738  18.911  -1.960  1.00 20.00     0.015 C 
HETATM    2  C2  UNL     1     -32.973  17.086  -2.156  1.00 20.00     0.015 C 
HETATM    3  C3  UNL     1     -35.479  18.473  -3.217  1.00 20.00     0.074 C 
HETATM    4  C4  UNL     1     -33.572  16.500  -3.429  1.00 20.00     0.074 C 
HETATM    5  C5  UNL     1     -34.015  17.759  -1.249  1.00 20.00    -0.003 C 
HETATM    6  S7  UNL     1     -34.353  17.775  -4.456  1.00 20.00    -0.169 SA
ENDROOT
BRANCH   5   7
HETATM    7  C6  UNL     1     -33.349  18.266   0.031  1.00 20.00     0.089 C 
HETATM    8 BR8  UNL     1     -31.478  18.627  -0.318  1.00 20.00    -0.096 Br
ENDBRANCH   5   7
TORSDOF 1
ENDMDL
MODEL 7
REMARK VINA RESULT:      -3.1     12.355     13.375
REMARK  1 active torsions:
REMARK  status: ('A' for Active; 'I' for Inactive)
REMARK    1  A    between atoms: C5_5  and  C6_6 
ROOT
HETATM    1  C1  UNL     1     -33.361  16.106  -3.224  1.00 20.00     0.015 C 
HETATM    2  C2  UNL     1     -34.636  17.720  -4.725  1.00 20.00     0.015 C 
HETATM    3  C3  UNL     1     -33.329  14.997  -4.268  1.00 20.00     0.074 C 
HETATM    4  C4  UNL     1     -34.707  16.741  -5.890  1.00 20.00     0.074 C 
HETATM    5  C5  UNL     1     -33.401  17.514  -3.835  1.00 20.00    -0.003 C 
HETATM    6  S7  UNL     1     -34.806  15.021  -5.323  1.00 20.00    -0.169 SA
ENDROOT
BRANCH   5   7
HETATM    7  C6  UNL     1     -33.369  18.569  -2.728  1.00 20.00     0.089 C 
HETATM    8 BR8  UNL     1     -33.662  17.712  -1.015  1.00 20.00    -0.096 Br
ENDBRANCH   5   7
TORSDOF 1
ENDMDL
MODEL 8
REMARK VINA RESULT:      -3.0      9.870     10.414
REMARK  1 active torsions:
REMARK  status: ('A' for Active; 'I' for Inactive)
REMARK    1  A    between atoms: C5_5  and  C6_6 
ROOT
HETATM    1  C1  UNL     1     -40.465  13.865   7.411  1.00 20.00     0.015 C 
HETATM    2  C2  UNL     1     -41.101  13.439   4.982  1.00 20.00     0.015 C 
HETATM    3  C3  UNL     1     -41.712  14.690   7.701  1.00 20.00     0.074 C 
HETATM    4  C4  UNL     1     -42.400  14.230   5.077  1.00 20.00     0.074 C 
HETATM    5  C5  UNL     1     -40.677  12.809   6.317  1.00 20.00    -0.003 C 
HETATM    6  S7  UNL     1     -42.265  15.615   6.241  1.00 20.00    -0.169 SA
ENDROOT
BRANCH   5   7
HETATM    7  C6  UNL     1     -39.402  11.985   6.128  1.00 20.00     0.089 C 
HETATM    8 BR8  UNL     1     -39.088  11.712   4.236  1.00 20.00    -0.096 Br
ENDBRANCH   5   7
TORSDOF 1
ENDMDL
MODEL 9
REMARK VINA RESULT:      -3.0      2.899      4.023
REMARK  1 active torsions:
REMARK  status: ('A' for Active; 'I' for Inactive)
REMARK    1  A    between atoms: C5_5  and  C6_6 
ROOT
HETATM    1  C1  UNL     1     -33.737   7.257   5.152  1.00 20.00     0.015 C 
HETATM    2  C2  UNL     1     -32.995   5.831   3.178  1.00 20.00     0.015 C 
HETATM    3  C3  UNL     1     -33.162   8.543   4.572  1.00 20.00     0.074 C 
HETATM    4  C4  UNL     1     -32.360   7.002   2.438  1.00 20.00     0.074 C 
HETATM    5  C5  UNL     1     -34.167   6.247   4.079  1.00 20.00    -0.003 C 
HETATM    6  S7  UNL     1     -31.674   8.231   3.582  1.00 20.00    -0.169 SA
ENDROOT
BRANCH   5   7
HETATM    7  C6  UNL     1     -34.788   5.013   4.738  1.00 20.00     0.089 C 
HETATM    8 BR8  UNL     1     -34.623   5.160   6.662  1.00 20.00    -0.096 Br
ENDBRANCH   5   7
TORSDOF 1
ENDMDL
