MODEL 1
REMARK VINA RESULT:      -3.4      0.000      0.000
REMARK  3 active torsions:
REMARK  status: ('A' for Active; 'I' for Inactive)
REMARK    1  A    between atoms: C3_3  and  C5_5 
REMARK    2  A    between atoms: C5_5  and  C6_6 
REMARK    3  A    between atoms: C6_6  and  S9_9 
ROOT
HETATM    1  C1  UNL     1     -31.182  18.518  -0.084  1.00 20.00     0.179 C 
HETATM    2  C2  UNL     1     -32.112  19.035   0.997  1.00 20.00     0.103 C 
HETATM    3  C3  UNL     1     -33.162  18.432  -1.308  1.00 20.00     0.183 C 
HETATM    4  O7  UNL     1     -31.775  18.795  -1.359  1.00 20.00    -0.375 OA
HETATM    5  S8  UNL     1     -33.735  18.527   0.409  1.00 20.00    -0.135 SA
ENDROOT
BRANCH   3   6
HETATM    6  C5  UNL     1     -33.347  17.030  -1.866  1.00 20.00     0.057 C 
BRANCH   6   7
HETATM    7  C6  UNL     1     -33.349  16.965  -3.400  1.00 20.00     0.043 C 
HETATM    8  C4  UNL     1     -33.368  15.518  -3.884  1.00 20.00     0.021 C 
BRANCH   7   9
HETATM    9  S9  UNL     1     -34.785  17.841  -4.118  1.00 20.00    -0.178 SA
HETATM   10  H21 UNL     1     -35.262  18.285  -2.949  1.00 20.00     0.102 HD
ENDBRANCH   7   9
ENDBRANCH   6   7
ENDBRANCH   3   6
TORSDOF 3
ENDMDL
MODEL 2
REMARK VINA RESULT:      -3.1      1.725      4.430
REMARK  3 active torsions:
REMARK  status: ('A' for Active; 'I' for Inactive)
REMARK    1  A    between atoms: C3_3  and  C5_5 
REMARK    2  A    between atoms: C5_5  and  C6_6 
REMARK    3  A    between atoms: C6_6  and  S9_9 
ROOT
HETATM    1  C1  UNL     1     -33.277  16.019  -3.436  1.00 20.00     0.179 C 
HETATM    2  C2  UNL     1     -34.094  16.924  -4.339  1.00 20.00     0.103 C 
HETATM    3  C3  UNL     1     -33.653  17.732  -1.903  1.00 20.00     0.183 C 
HETATM    4  O7  UNL     1     -33.624  16.309  -2.075  1.00 20.00    -0.375 OA
HETATM    5  S8  UNL     1     -34.008  18.514  -3.499  1.00 20.00    -0.135 SA
ENDROOT
BRANCH   3   6
HETATM    6  C5  UNL     1     -32.321  18.211  -1.348  1.00 20.00     0.057 C 
BRANCH   6   7
HETATM    7  C6  UNL     1     -32.431  18.926   0.007  1.00 20.00     0.043 C 
HETATM    8  C4  UNL     1     -33.687  18.484   0.754  1.00 20.00     0.021 C 
BRANCH   7   9
HETATM    9  S9  UNL     1     -30.976  18.607   1.068  1.00 20.00    -0.178 SA
HETATM   10  H21 UNL     1     -31.544  19.042   2.199  1.00 20.00     0.102 HD
ENDBRANCH   7   9
ENDBRANCH   6   7
ENDBRANCH   3   6
TORSDOF 3
ENDMDL
MODEL 3
REMARK VINA RESULT:      -3.0      2.516      4.871
REMARK  3 active torsions:
REMARK  status: ('A' for Active; 'I' for Inactive)
REMARK    1  A    between atoms: C3_3  and  C5_5 
REMARK    2  A    between atoms: C5_5  and  C6_6 
REMARK    3  A    between atoms: C6_6  and  S9_9 
ROOT
HETATM    1  C1  UNL     1     -35.208  16.630  -5.024  1.00 20.00     0.179 C 
HETATM    2  C2  UNL     1     -34.973  15.184  -5.421  1.00 20.00     0.103 C 
HETATM    3  C3  UNL     1     -33.238  16.295  -3.828  1.00 20.00     0.183 C 
HETATM    4  O7  UNL     1     -33.946  17.212  -4.673  1.00 20.00    -0.375 OA
HETATM    5  S8  UNL     1     -33.809  14.609  -4.175  1.00 20.00    -0.135 SA
ENDROOT
BRANCH   3   6
HETATM    6  C5  UNL     1     -33.469  16.657  -2.369  1.00 20.00     0.057 C 
BRANCH   6   7
HETATM    7  C6  UNL     1     -33.351  18.159  -2.075  1.00 20.00     0.043 C 
HETATM    8  C4  UNL     1     -34.673  18.716  -1.554  1.00 20.00     0.021 C 
BRANCH   7   9
HETATM    9  S9  UNL     1     -32.043  18.514  -0.847  1.00 20.00    -0.178 SA
HETATM   10  H21 UNL     1     -31.608  19.631  -1.442  1.00 20.00     0.102 HD
ENDBRANCH   7   9
ENDBRANCH   6   7
ENDBRANCH   3   6
TORSDOF 3
ENDMDL
MODEL 4
REMARK VINA RESULT:      -3.0     14.693     15.229
REMARK  3 active torsions:
REMARK  status: ('A' for Active; 'I' for Inactive)
REMARK    1  A    between atoms: C3_3  and  C5_5 
REMARK    2  A    between atoms: C5_5  and  C6_6 
REMARK    3  A    between atoms: C6_6  and  S9_9 
ROOT
HETATM    1  C1  UNL     1     -25.892  19.137  11.953  1.00 20.00     0.179 C 
HETATM    2  C2  UNL     1     -26.181  17.696  12.331  1.00 20.00     0.103 C 
HETATM    3  C3  UNL     1     -24.443  18.121  10.438  1.00 20.00     0.183 C 
HETATM    4  O7  UNL     1     -25.417  19.161  10.601  1.00 20.00    -0.375 OA
HETATM    5  S8  UNL     1     -24.771  16.811  11.647  1.00 20.00    -0.135 SA
ENDROOT
BRANCH   3   6
HETATM    6  C5  UNL     1     -23.046  18.691  10.620  1.00 20.00     0.057 C 
BRANCH   6   7
HETATM    7  C6  UNL     1     -22.234  18.777   9.319  1.00 20.00     0.043 C 
HETATM    8  C4  UNL     1     -21.566  17.440   9.006  1.00 20.00     0.021 C 
BRANCH   7   9
HETATM    9  S9  UNL     1     -23.276  19.258   7.896  1.00 20.00    -0.178 SA
HETATM   10  H21 UNL     1     -23.133  18.102   7.236  1.00 20.00     0.102 HD
ENDBRANCH   7   9
ENDBRANCH   6   7
ENDBRANCH   3   6
TORSDOF 3
ENDMDL
MODEL 5
REMARK VINA RESULT:      -2.9      3.108      5.469
REMARK  3 active torsions:
REMARK  status: ('A' for Active; 'I' for Inactive)
REMARK    1  A    between atoms: C3_3  and  C5_5 
REMARK    2  A    between atoms: C5_5  and  C6_6 
REMARK    3  A    between atoms: C6_6  and  S9_9 
ROOT
HETATM    1  C1  UNL     1     -33.988  15.443  -6.941  1.00 20.00     0.179 C 
HETATM    2  C2  UNL     1     -35.384  16.032  -7.019  1.00 20.00     0.103 C 
HETATM    3  C3  UNL     1     -34.465  15.419  -4.661  1.00 20.00     0.183 C 
HETATM    4  O7  UNL     1     -33.893  14.666  -5.740  1.00 20.00    -0.375 OA
HETATM    5  S8  UNL     1     -35.684  16.581  -5.331  1.00 20.00    -0.135 SA
ENDROOT
BRANCH   3   6
HETATM    6  C5  UNL     1     -33.367  16.156  -3.910  1.00 20.00     0.057 C 
BRANCH   6   7
HETATM    7  C6  UNL     1     -33.868  17.365  -3.105  1.00 20.00     0.043 C 
HETATM    8  C4  UNL     1     -33.580  17.183  -1.617  1.00 20.00     0.021 C 
BRANCH   7   9
HETATM    9  S9  UNL     1     -33.095  18.925  -3.665  1.00 20.00    -0.178 SA
HETATM   10  H21 UNL     1     -33.645  19.689  -2.713  1.00 20.00     0.102 HD
ENDBRANCH   7   9
ENDBRANCH   6   7
ENDBRANCH   3   6
TORSDOF 3
ENDMDL
MODEL 6
REMARK VINA RESULT:      -2.9     14.785     15.866
REMARK  3 active torsions:
REMARK  status: ('A' for Active; 'I' for Inactive)
REMARK    1  A    between atoms: C3_3  and  C5_5 
REMARK    2  A    between atoms: C5_5  and  C6_6 
REMARK    3  A    between atoms: C6_6  and  S9_9 
ROOT
HETATM    1  C1  UNL     1     -24.565  16.309  11.741  1.00 20.00     0.179 C 
HETATM    2  C2  UNL     1     -25.704  17.121  12.329  1.00 20.00     0.103 C 
HETATM    3  C3  UNL     1     -23.357  18.242  12.217  1.00 20.00     0.183 C 
HETATM    4  O7  UNL     1     -23.333  16.809  12.275  1.00 20.00    -0.375 OA
HETATM    5  S8  UNL     1     -25.079  18.807  12.249  1.00 20.00    -0.135 SA
ENDROOT
BRANCH   3   6
HETATM    6  C5  UNL     1     -22.653  18.718  10.956  1.00 20.00     0.057 C 
BRANCH   6   7
HETATM    7  C6  UNL     1     -23.247  18.147   9.659  1.00 20.00     0.043 C 
HETATM    8  C4  UNL     1     -23.849  19.257   8.802  1.00 20.00     0.021 C 
BRANCH   7   9
HETATM    9  S9  UNL     1     -21.994  17.256   8.669  1.00 20.00    -0.178 SA
HETATM   10  H21 UNL     1     -22.870  16.469   8.032  1.00 20.00     0.102 HD
ENDBRANCH   7   9
ENDBRANCH   6   7
ENDBRANCH   3   6
TORSDOF 3
ENDMDL
MODEL 7
REMARK VINA RESULT:      -2.8      2.369      3.331
REMARK  3 active torsions:
REMARK  status: ('A' for Active; 'I' for Inactive)
REMARK    1  A    between atoms: C3_3  and  C5_5 
REMARK    2  A    between atoms: C5_5  and  C6_6 
REMARK    3  A    between atoms: C6_6  and  S9_9 
ROOT
HETATM    1  C1  UNL     1     -33.651  17.190  -1.656  1.00 20.00     0.179 C 
HETATM    2  C2  UNL     1     -33.013  18.534  -1.955  1.00 20.00     0.103 C 
HETATM    3  C3  UNL     1     -33.343  16.888  -3.945  1.00 20.00     0.183 C 
HETATM    4  O7  UNL     1     -33.230  16.259  -2.661  1.00 20.00    -0.375 OA
HETATM    5  S8  UNL     1     -33.206  18.684  -3.738  1.00 20.00    -0.135 SA
ENDROOT
BRANCH   3   6
HETATM    6  C5  UNL     1     -34.671  16.515  -4.585  1.00 20.00     0.057 C 
BRANCH   6   7
HETATM    7  C6  UNL     1     -34.611  15.248  -5.451  1.00 20.00     0.043 C 
HETATM    8  C4  UNL     1     -35.919  14.467  -5.364  1.00 20.00     0.021 C 
BRANCH   7   9
HETATM    9  S9  UNL     1     -34.276  15.636  -7.206  1.00 20.00    -0.178 SA
HETATM   10  H21 UNL     1     -32.944  15.680  -7.076  1.00 20.00     0.102 HD
ENDBRANCH   7   9
ENDBRANCH   6   7
ENDBRANCH   3   6
TORSDOF 3
ENDMDL
MODEL 8
REMARK VINA RESULT:      -2.8      3.111      5.712
REMARK  3 active torsions:
REMARK  status: ('A' for Active; 'I' for Inactive)
REMARK    1  A    between atoms: C3_3  and  C5_5 
REMARK    2  A    between atoms: C5_5  and  C6_6 
REMARK    3  A    between atoms: C6_6  and  S9_9 
ROOT
HETATM    1  C1  UNL     1     -36.452  15.263  -5.491  1.00 20.00     0.179 C 
HETATM    2  C2  UNL     1     -35.754  14.784  -6.750  1.00 20.00     0.103 C 
HETATM    3  C3  UNL     1     -34.544  16.589  -5.314  1.00 20.00     0.183 C 
HETATM    4  O7  UNL     1     -35.973  16.579  -5.183  1.00 20.00    -0.375 OA
HETATM    5  S8  UNL     1     -34.049  15.296  -6.485  1.00 20.00    -0.135 SA
ENDROOT
BRANCH   3   6
HETATM    6  C5  UNL     1     -33.902  16.365  -3.954  1.00 20.00     0.057 C 
BRANCH   6   7
HETATM    7  C6  UNL     1     -33.972  17.585  -3.025  1.00 20.00     0.043 C 
HETATM    8  C4  UNL     1     -33.284  17.295  -1.694  1.00 20.00     0.021 C 
BRANCH   7   9
HETATM    9  S9  UNL     1     -33.195  19.061  -3.776  1.00 20.00    -0.178 SA
HETATM   10  H21 UNL     1     -32.202  19.152  -2.883  1.00 20.00     0.102 HD
ENDBRANCH   7   9
ENDBRANCH   6   7
ENDBRANCH   3   6
TORSDOF 3
ENDMDL
MODEL 9
REMARK VINA RESULT:      -2.7      2.018      4.753
REMARK  3 active torsions:
REMARK  status: ('A' for Active; 'I' for Inactive)
REMARK    1  A    between atoms: C3_3  and  C5_5 
REMARK    2  A    between atoms: C5_5  and  C6_6 
REMARK    3  A    between atoms: C6_6  and  S9_9 
ROOT
HETATM    1  C1  UNL     1     -33.393  14.750  -4.764  1.00 20.00     0.179 C 
HETATM    2  C2  UNL     1     -34.296  15.444  -5.766  1.00 20.00     0.103 C 
HETATM    3  C3  UNL     1     -34.137  16.467  -3.377  1.00 20.00     0.183 C 
HETATM    4  O7  UNL     1     -33.860  15.062  -3.445  1.00 20.00    -0.375 OA
HETATM    5  S8  UNL     1     -34.524  17.075  -5.040  1.00 20.00    -0.135 SA
ENDROOT
BRANCH   3   6
HETATM    6  C5  UNL     1     -32.937  17.200  -2.797  1.00 20.00     0.057 C 
BRANCH   6   7
HETATM    7  C6  UNL     1     -33.157  17.721  -1.369  1.00 20.00     0.043 C 
HETATM    8  C4  UNL     1     -31.899  18.404  -0.840  1.00 20.00     0.021 C 
BRANCH   7   9
HETATM    9  S9  UNL     1     -34.547  18.906  -1.282  1.00 20.00    -0.178 SA
HETATM   10  H21 UNL     1     -35.046  18.606  -2.488  1.00 20.00     0.102 HD
ENDBRANCH   7   9
ENDBRANCH   6   7
ENDBRANCH   3   6
TORSDOF 3
ENDMDL
