MODEL 1
REMARK VINA RESULT:      -4.7      0.000      0.000
REMARK  1 active torsions:
REMARK  status: ('A' for Active; 'I' for Inactive)
REMARK    1  A    between atoms: C6_6  and  C7_7 
ROOT
HETATM    1  C1  UNL     1     -34.319   6.783   6.508  1.00 20.00     0.005 C 
HETATM    2  C2  UNL     1     -33.465   7.086   5.273  1.00 20.00     0.011 C 
HETATM    3  C3  UNL     1     -35.448   5.836   4.554  1.00 20.00     0.015 C 
HETATM    4  C4  UNL     1     -33.895   4.673   5.343  1.00 20.00     0.015 C 
HETATM    5  C5  UNL     1     -35.020   5.517   6.021  1.00 20.00    -0.013 C 
HETATM    6  C6  UNL     1     -33.893   5.910   4.384  1.00 20.00    -0.031 C 
ENDROOT
BRANCH   6   7
HETATM    7  C7  UNL     1     -33.263   5.828   3.024  1.00 20.00     0.094 C 
HETATM    8 BR8  UNL     1     -32.163   7.402   2.698  1.00 20.00    -0.096 Br
ENDBRANCH   6   7
TORSDOF 1
ENDMDL
MODEL 2
REMARK VINA RESULT:      -4.6      1.257      1.622
REMARK  1 active torsions:
REMARK  status: ('A' for Active; 'I' for Inactive)
REMARK    1  A    between atoms: C6_6  and  C7_7 
ROOT
HETATM    1  C1  UNL     1     -34.420   5.281   6.445  1.00 20.00     0.005 C 
HETATM    2  C2  UNL     1     -33.943   6.715   6.194  1.00 20.00     0.011 C 
HETATM    3  C3  UNL     1     -35.547   6.116   4.438  1.00 20.00     0.015 C 
HETATM    4  C4  UNL     1     -33.594   5.415   4.145  1.00 20.00     0.015 C 
HETATM    5  C5  UNL     1     -34.778   4.885   5.014  1.00 20.00    -0.013 C 
HETATM    6  C6  UNL     1     -34.148   6.780   4.675  1.00 20.00    -0.031 C 
ENDROOT
BRANCH   6   7
HETATM    7  C7  UNL     1     -33.786   8.071   4.000  1.00 20.00     0.094 C 
HETATM    8 BR8  UNL     1     -32.222   8.859   4.852  1.00 20.00    -0.096 Br
ENDBRANCH   6   7
TORSDOF 1
ENDMDL
MODEL 3
REMARK VINA RESULT:      -4.4      1.222      2.333
REMARK  1 active torsions:
REMARK  status: ('A' for Active; 'I' for Inactive)
REMARK    1  A    between atoms: C6_6  and  C7_7 
ROOT
HETATM    1  C1  UNL     1     -33.707   4.666   3.813  1.00 20.00     0.005 C 
HETATM    2  C2  UNL     1     -33.193   6.108   3.837  1.00 20.00     0.011 C 
HETATM    3  C3  UNL     1     -34.128   5.585   6.042  1.00 20.00     0.015 C 
HETATM    4  C4  UNL     1     -35.530   6.108   4.576  1.00 20.00     0.015 C 
HETATM    5  C5  UNL     1     -34.788   4.769   4.885  1.00 20.00    -0.013 C 
HETATM    6  C6  UNL     1     -34.114   6.680   4.922  1.00 20.00    -0.031 C 
ENDROOT
BRANCH   6   7
HETATM    7  C7  UNL     1     -33.934   8.129   5.267  1.00 20.00     0.094 C 
HETATM    8 BR8  UNL     1     -32.239   8.781   4.560  1.00 20.00    -0.096 Br
ENDBRANCH   6   7
TORSDOF 1
ENDMDL
MODEL 4
REMARK VINA RESULT:      -4.0      2.282      3.690
REMARK  1 active torsions:
REMARK  status: ('A' for Active; 'I' for Inactive)
REMARK    1  A    between atoms: C6_6  and  C7_7 
ROOT
HETATM    1  C1  UNL     1     -32.364   7.412   2.796  1.00 20.00     0.005 C 
HETATM    2  C2  UNL     1     -32.952   6.493   3.871  1.00 20.00     0.011 C 
HETATM    3  C3  UNL     1     -33.977   8.708   4.102  1.00 20.00     0.015 C 
HETATM    4  C4  UNL     1     -32.079   8.505   4.967  1.00 20.00     0.015 C 
HETATM    5  C5  UNL     1     -32.539   8.757   3.496  1.00 20.00    -0.013 C 
HETATM    6  C6  UNL     1     -33.318   7.548   4.923  1.00 20.00    -0.031 C 
ENDROOT
BRANCH   6   7
HETATM    7  C7  UNL     1     -33.949   7.049   6.190  1.00 20.00     0.094 C 
HETATM    8 BR8  UNL     1     -34.689   5.268   5.914  1.00 20.00    -0.096 Br
ENDBRANCH   6   7
TORSDOF 1
ENDMDL
MODEL 5
REMARK VINA RESULT:      -3.8      1.592      2.401
REMARK  1 active torsions:
REMARK  status: ('A' for Active; 'I' for Inactive)
REMARK    1  A    between atoms: C6_6  and  C7_7 
ROOT
HETATM    1  C1  UNL     1     -32.364   8.763   4.772  1.00 20.00     0.005 C 
HETATM    2  C2  UNL     1     -32.451   7.485   3.932  1.00 20.00     0.011 C 
HETATM    3  C3  UNL     1     -34.694   8.013   4.768  1.00 20.00     0.015 C 
HETATM    4  C4  UNL     1     -33.438   7.033   6.130  1.00 20.00     0.015 C 
HETATM    5  C5  UNL     1     -33.553   8.531   5.700  1.00 20.00    -0.013 C 
HETATM    6  C6  UNL     1     -33.674   6.837   4.594  1.00 20.00    -0.031 C 
ENDROOT
BRANCH   6   7
HETATM    7  C7  UNL     1     -34.115   5.511   4.047  1.00 20.00     0.094 C 
HETATM    8 BR8  UNL     1     -33.001   5.006   2.531  1.00 20.00    -0.096 Br
ENDBRANCH   6   7
TORSDOF 1
ENDMDL
MODEL 6
REMARK VINA RESULT:      -3.7      2.343      3.381
REMARK  1 active torsions:
REMARK  status: ('A' for Active; 'I' for Inactive)
REMARK    1  A    between atoms: C6_6  and  C7_7 
ROOT
HETATM    1  C1  UNL     1     -32.264   8.912   5.091  1.00 20.00     0.005 C 
HETATM    2  C2  UNL     1     -33.017   7.701   5.650  1.00 20.00     0.011 C 
HETATM    3  C3  UNL     1     -32.320   7.187   3.356  1.00 20.00     0.015 C 
HETATM    4  C4  UNL     1     -34.058   8.346   3.526  1.00 20.00     0.015 C 
HETATM    5  C5  UNL     1     -32.542   8.712   3.604  1.00 20.00    -0.013 C 
HETATM    6  C6  UNL     1     -33.541   7.109   4.335  1.00 20.00    -0.031 C 
ENDROOT
BRANCH   6   7
HETATM    7  C7  UNL     1     -34.365   5.859   4.438  1.00 20.00     0.094 C 
HETATM    8 BR8  UNL     1     -34.607   5.366   6.307  1.00 20.00    -0.096 Br
ENDBRANCH   6   7
TORSDOF 1
ENDMDL
MODEL 7
REMARK VINA RESULT:      -3.6     15.790     16.895
REMARK  1 active torsions:
REMARK  status: ('A' for Active; 'I' for Inactive)
REMARK    1  A    between atoms: C6_6  and  C7_7 
ROOT
HETATM    1  C1  UNL     1     -24.667  16.543  11.715  1.00 20.00     0.005 C 
HETATM    2  C2  UNL     1     -23.844  16.864  10.464  1.00 20.00     0.011 C 
HETATM    3  C3  UNL     1     -23.290  18.508  12.197  1.00 20.00     0.015 C 
HETATM    4  C4  UNL     1     -25.055  18.888  11.134  1.00 20.00     0.015 C 
HETATM    5  C5  UNL     1     -24.737  17.938  12.332  1.00 20.00    -0.013 C 
HETATM    6  C6  UNL     1     -23.649  18.371  10.678  1.00 20.00    -0.031 C 
ENDROOT
BRANCH   6   7
HETATM    7  C7  UNL     1     -22.861  19.106   9.634  1.00 20.00     0.094 C 
HETATM    8 BR8  UNL     1     -22.021  17.840   8.414  1.00 20.00    -0.096 Br
ENDBRANCH   6   7
TORSDOF 1
ENDMDL
MODEL 8
REMARK VINA RESULT:      -3.6     16.971     17.714
REMARK  1 active torsions:
REMARK  status: ('A' for Active; 'I' for Inactive)
REMARK    1  A    between atoms: C6_6  and  C7_7 
ROOT
HETATM    1  C1  UNL     1     -23.593  19.122   7.983  1.00 20.00     0.005 C 
HETATM    2  C2  UNL     1     -23.891  19.141   9.485  1.00 20.00     0.011 C 
HETATM    3  C3  UNL     1     -21.460  19.246   9.178  1.00 20.00     0.015 C 
HETATM    4  C4  UNL     1     -22.299  17.331   9.037  1.00 20.00     0.015 C 
HETATM    5  C5  UNL     1     -22.196  18.508   8.015  1.00 20.00    -0.013 C 
HETATM    6  C6  UNL     1     -22.583  18.530  10.004  1.00 20.00    -0.031 C 
ENDROOT
BRANCH   6   7
HETATM    7  C7  UNL     1     -22.456  18.365  11.490  1.00 20.00     0.094 C 
HETATM    8 BR8  UNL     1     -24.208  18.496  12.331  1.00 20.00    -0.096 Br
ENDBRANCH   6   7
TORSDOF 1
ENDMDL
MODEL 9
REMARK VINA RESULT:      -3.4      9.436     10.169
REMARK  1 active torsions:
REMARK  status: ('A' for Active; 'I' for Inactive)
REMARK    1  A    between atoms: C6_6  and  C7_7 
ROOT
HETATM    1  C1  UNL     1     -42.227  14.480   5.386  1.00 20.00     0.005 C 
HETATM    2  C2  UNL     1     -41.196  13.514   4.795  1.00 20.00     0.011 C 
HETATM    3  C3  UNL     1     -42.138  12.498   6.818  1.00 20.00     0.015 C 
HETATM    4  C4  UNL     1     -40.626  13.911   7.146  1.00 20.00     0.015 C 
HETATM    5  C5  UNL     1     -42.152  14.059   6.851  1.00 20.00    -0.013 C 
HETATM    6  C6  UNL     1     -40.786  12.778   6.077  1.00 20.00    -0.031 C 
ENDROOT
BRANCH   6   7
HETATM    7  C7  UNL     1     -39.750  11.702   5.937  1.00 20.00     0.094 C 
HETATM    8 BR8  UNL     1     -39.038  11.689   4.123  1.00 20.00    -0.096 Br
ENDBRANCH   6   7
TORSDOF 1
ENDMDL
