MODEL 1
REMARK VINA RESULT:      -3.7      0.000      0.000
REMARK  2 active torsions:
REMARK  status: ('A' for Active; 'I' for Inactive)
REMARK    1  A    between atoms: C1_1  and  C3_3 
REMARK    2  A    between atoms: C3_3  and  C4_4 
ROOT
HETATM    1  C1  UNL     1     -32.956   7.810   4.265  1.00 20.00     0.078 C 
HETATM    2  S5  UNL     1     -32.236   7.157   2.914  1.00 20.00    -0.072 SA
HETATM    3 CL6  UNL     1     -32.195   9.144   5.020  1.00 20.00    -0.076 Cl
ENDROOT
BRANCH   1   4
HETATM    4  C3  UNL     1     -34.250   7.322   4.858  1.00 20.00     0.063 C 
BRANCH   4   5
HETATM    5  C4  UNL     1     -34.035   6.772   6.268  1.00 20.00     0.002 C 
HETATM    6  C2  UNL     1     -34.531   5.340   6.388  1.00 20.00     0.005 C 
ENDBRANCH   4   5
ENDBRANCH   1   4
TORSDOF 2
ENDMDL
MODEL 2
REMARK VINA RESULT:      -3.7      1.711      1.711
REMARK  2 active torsions:
REMARK  status: ('A' for Active; 'I' for Inactive)
REMARK    1  A    between atoms: C1_1  and  C3_3 
REMARK    2  A    between atoms: C3_3  and  C4_4 
ROOT
HETATM    1  C1  UNL     1     -33.123   7.490   4.233  1.00 20.00     0.078 C 
HETATM    2  S5  UNL     1     -32.195   8.789   4.700  1.00 20.00    -0.072 SA
HETATM    3 CL6  UNL     1     -32.540   6.493   2.969  1.00 20.00    -0.076 Cl
ENDROOT
BRANCH   1   4
HETATM    4  C3  UNL     1     -34.436   7.112   4.864  1.00 20.00     0.063 C 
BRANCH   4   5
HETATM    5  C4  UNL     1     -34.230   6.576   6.282  1.00 20.00     0.002 C 
HETATM    6  C2  UNL     1     -34.487   5.079   6.353  1.00 20.00     0.005 C 
ENDBRANCH   4   5
ENDBRANCH   1   4
TORSDOF 2
ENDMDL
MODEL 3
REMARK VINA RESULT:      -3.4      2.242      3.244
REMARK  2 active torsions:
REMARK  status: ('A' for Active; 'I' for Inactive)
REMARK    1  A    between atoms: C1_1  and  C3_3 
REMARK    2  A    between atoms: C3_3  and  C4_4 
ROOT
HETATM    1  C1  UNL     1     -34.169   6.718   5.171  1.00 20.00     0.078 C 
HETATM    2  S5  UNL     1     -34.353   5.281   4.352  1.00 20.00    -0.072 SA
HETATM    3 CL6  UNL     1     -34.470   6.733   6.855  1.00 20.00    -0.076 Cl
ENDROOT
BRANCH   1   4
HETATM    4  C3  UNL     1     -33.728   8.009   4.534  1.00 20.00     0.063 C 
BRANCH   4   5
HETATM    5  C4  UNL     1     -32.263   7.936   4.101  1.00 20.00     0.002 C 
HETATM    6  C2  UNL     1     -32.137   7.629   2.618  1.00 20.00     0.005 C 
ENDBRANCH   4   5
ENDBRANCH   1   4
TORSDOF 2
ENDMDL
MODEL 4
REMARK VINA RESULT:      -3.4      2.490      2.847
REMARK  2 active torsions:
REMARK  status: ('A' for Active; 'I' for Inactive)
REMARK    1  A    between atoms: C1_1  and  C3_3 
REMARK    2  A    between atoms: C3_3  and  C4_4 
ROOT
HETATM    1  C1  UNL     1     -34.002   6.949   5.134  1.00 20.00     0.078 C 
HETATM    2  S5  UNL     1     -32.946   8.122   4.606  1.00 20.00    -0.072 SA
HETATM    3 CL6  UNL     1     -34.337   6.859   6.811  1.00 20.00    -0.076 Cl
ENDROOT
BRANCH   1   4
HETATM    4  C3  UNL     1     -34.708   5.971   4.233  1.00 20.00     0.063 C 
BRANCH   4   5
HETATM    5  C4  UNL     1     -33.794   4.800   3.872  1.00 20.00     0.002 C 
HETATM    6  C2  UNL     1     -32.972   5.100   2.627  1.00 20.00     0.005 C 
ENDBRANCH   4   5
ENDBRANCH   1   4
TORSDOF 2
ENDMDL
MODEL 5
REMARK VINA RESULT:      -3.4      2.695      3.615
REMARK  2 active torsions:
REMARK  status: ('A' for Active; 'I' for Inactive)
REMARK    1  A    between atoms: C1_1  and  C3_3 
REMARK    2  A    between atoms: C3_3  and  C4_4 
ROOT
HETATM    1  C1  UNL     1     -33.956   6.357   4.831  1.00 20.00     0.078 C 
HETATM    2  S5  UNL     1     -34.631   5.524   6.103  1.00 20.00    -0.072 SA
HETATM    3 CL6  UNL     1     -33.567   5.486   3.410  1.00 20.00    -0.076 Cl
ENDROOT
BRANCH   1   4
HETATM    4  C3  UNL     1     -33.685   7.838   4.832  1.00 20.00     0.063 C 
BRANCH   4   5
HETATM    5  C4  UNL     1     -32.328   8.148   4.200  1.00 20.00     0.002 C 
HETATM    6  C2  UNL     1     -32.486   8.828   2.849  1.00 20.00     0.005 C 
ENDBRANCH   4   5
ENDBRANCH   1   4
TORSDOF 2
ENDMDL
MODEL 6
REMARK VINA RESULT:      -3.3      1.833      2.160
REMARK  2 active torsions:
REMARK  status: ('A' for Active; 'I' for Inactive)
REMARK    1  A    between atoms: C1_1  and  C3_3 
REMARK    2  A    between atoms: C3_3  and  C4_4 
ROOT
HETATM    1  C1  UNL     1     -32.495   7.141   3.086  1.00 20.00     0.078 C 
HETATM    2  S5  UNL     1     -32.967   5.551   2.943  1.00 20.00    -0.072 SA
HETATM    3 CL6  UNL     1     -32.086   7.993   1.659  1.00 20.00    -0.076 Cl
ENDROOT
BRANCH   1   4
HETATM    4  C3  UNL     1     -32.425   7.894   4.387  1.00 20.00     0.063 C 
BRANCH   4   5
HETATM    5  C4  UNL     1     -33.801   7.973   5.050  1.00 20.00     0.002 C 
HETATM    6  C2  UNL     1     -33.891   7.048   6.254  1.00 20.00     0.005 C 
ENDBRANCH   4   5
ENDBRANCH   1   4
TORSDOF 2
ENDMDL
MODEL 7
REMARK VINA RESULT:      -3.3      1.606      1.790
REMARK  2 active torsions:
REMARK  status: ('A' for Active; 'I' for Inactive)
REMARK    1  A    between atoms: C1_1  and  C3_3 
REMARK    2  A    between atoms: C3_3  and  C4_4 
ROOT
HETATM    1  C1  UNL     1     -33.690   6.136   3.758  1.00 20.00     0.078 C 
HETATM    2  S5  UNL     1     -32.946   5.130   2.661  1.00 20.00    -0.072 SA
HETATM    3 CL6  UNL     1     -32.991   7.671   4.049  1.00 20.00    -0.076 Cl
ENDROOT
BRANCH   1   4
HETATM    4  C3  UNL     1     -34.955   5.798   4.501  1.00 20.00     0.063 C 
BRANCH   4   5
HETATM    5  C4  UNL     1     -34.660   5.454   5.961  1.00 20.00     0.002 C 
HETATM    6  C2  UNL     1     -34.286   6.694   6.759  1.00 20.00     0.005 C 
ENDBRANCH   4   5
ENDBRANCH   1   4
TORSDOF 2
ENDMDL
MODEL 8
REMARK VINA RESULT:      -3.2      2.541      3.088
REMARK  2 active torsions:
REMARK  status: ('A' for Active; 'I' for Inactive)
REMARK    1  A    between atoms: C1_1  and  C3_3 
REMARK    2  A    between atoms: C3_3  and  C4_4 
ROOT
HETATM    1  C1  UNL     1     -33.953   5.878   4.242  1.00 20.00     0.078 C 
HETATM    2  S5  UNL     1     -33.079   5.371   2.920  1.00 20.00    -0.072 SA
HETATM    3 CL6  UNL     1     -34.517   4.693   5.340  1.00 20.00    -0.076 Cl
ENDROOT
BRANCH   1   4
HETATM    4  C3  UNL     1     -34.264   7.318   4.555  1.00 20.00     0.063 C 
BRANCH   4   5
HETATM    5  C4  UNL     1     -33.173   7.937   5.430  1.00 20.00     0.002 C 
HETATM    6  C2  UNL     1     -32.216   8.785   4.608  1.00 20.00     0.005 C 
ENDBRANCH   4   5
ENDBRANCH   1   4
TORSDOF 2
ENDMDL
MODEL 9
REMARK VINA RESULT:      -3.0      9.084      9.502
REMARK  2 active torsions:
REMARK  status: ('A' for Active; 'I' for Inactive)
REMARK    1  A    between atoms: C1_1  and  C3_3 
REMARK    2  A    between atoms: C3_3  and  C4_4 
ROOT
HETATM    1  C1  UNL     1     -40.922  13.504   6.058  1.00 20.00     0.078 C 
HETATM    2  S5  UNL     1     -40.648  14.548   7.325  1.00 20.00    -0.072 SA
HETATM    3 CL6  UNL     1     -41.845  14.069   4.731  1.00 20.00    -0.076 Cl
ENDROOT
BRANCH   1   4
HETATM    4  C3  UNL     1     -40.391  12.097   5.984  1.00 20.00     0.063 C 
BRANCH   4   5
HETATM    5  C4  UNL     1     -38.968  12.076   5.425  1.00 20.00     0.002 C 
HETATM    6  C2  UNL     1     -38.951  11.655   3.964  1.00 20.00     0.005 C 
ENDBRANCH   4   5
ENDBRANCH   1   4
TORSDOF 2
ENDMDL
