MODEL 1
REMARK VINA RESULT:      -4.5      0.000      0.000
REMARK  1 active torsions:
REMARK  status: ('A' for Active; 'I' for Inactive)
REMARK    1  A    between atoms: C2_2  and  C5_5 
ROOT
HETATM    1  C1  UNL     1     -33.344   5.513   3.351  1.00 20.00     0.077 C 
HETATM    2  C3  UNL     1     -35.517   5.901   4.569  1.00 20.00     0.034 A 
HETATM    3  C4  UNL     1     -34.664   5.039   5.447  1.00 20.00     0.034 A 
HETATM    4  C5  UNL     1     -34.010   6.036   4.514  1.00 20.00     0.109 A 
HETATM    5  N7  UNL     1     -32.806   5.091   2.414  1.00 20.00    -0.196 NA
ENDROOT
BRANCH   4   6
HETATM    6  C2  UNL     1     -33.408   7.241   5.114  1.00 20.00     0.145 C 
HETATM    7  C6  UNL     1     -32.886   8.283   4.162  1.00 20.00     0.093 C 
HETATM    8  O8  UNL     1     -33.340   7.390   6.333  1.00 20.00    -0.296 OA
ENDBRANCH   4   6
TORSDOF 1
ENDMDL
MODEL 2
REMARK VINA RESULT:      -4.0      0.932      2.488
REMARK  1 active torsions:
REMARK  status: ('A' for Active; 'I' for Inactive)
REMARK    1  A    between atoms: C2_2  and  C5_5 
ROOT
HETATM    1  C1  UNL     1     -33.178   6.155   3.521  1.00 20.00     0.077 C 
HETATM    2  C3  UNL     1     -32.411   8.170   4.830  1.00 20.00     0.034 A 
HETATM    3  C4  UNL     1     -33.719   8.525   4.192  1.00 20.00     0.034 A 
HETATM    4  C5  UNL     1     -33.443   7.088   4.583  1.00 20.00     0.109 A 
HETATM    5  N7  UNL     1     -32.965   5.402   2.665  1.00 20.00    -0.196 NA
ENDROOT
BRANCH   4   6
HETATM    6  C2  UNL     1     -34.160   6.548   5.753  1.00 20.00     0.145 C 
HETATM    7  C6  UNL     1     -34.632   5.123   5.659  1.00 20.00     0.093 C 
HETATM    8  O8  UNL     1     -34.359   7.229   6.759  1.00 20.00    -0.296 OA
ENDBRANCH   4   6
TORSDOF 1
ENDMDL
MODEL 3
REMARK VINA RESULT:      -3.9      2.409      2.798
REMARK  1 active torsions:
REMARK  status: ('A' for Active; 'I' for Inactive)
REMARK    1  A    between atoms: C2_2  and  C5_5 
ROOT
HETATM    1  C1  UNL     1     -33.805   7.617   5.192  1.00 20.00     0.077 C 
HETATM    2  C3  UNL     1     -34.383   5.175   5.441  1.00 20.00     0.034 A 
HETATM    3  C4  UNL     1     -35.409   5.785   4.536  1.00 20.00     0.034 A 
HETATM    4  C5  UNL     1     -34.001   6.342   4.555  1.00 20.00     0.109 A 
HETATM    5  N7  UNL     1     -33.647   8.645   5.705  1.00 20.00    -0.196 NA
ENDROOT
BRANCH   4   6
HETATM    6  C2  UNL     1     -33.140   6.063   3.391  1.00 20.00     0.145 C 
HETATM    7  C6  UNL     1     -32.223   7.171   2.947  1.00 20.00     0.093 C 
HETATM    8  O8  UNL     1     -33.167   4.978   2.813  1.00 20.00    -0.296 OA
ENDBRANCH   4   6
TORSDOF 1
ENDMDL
MODEL 4
REMARK VINA RESULT:      -3.9      2.024      2.835
REMARK  1 active torsions:
REMARK  status: ('A' for Active; 'I' for Inactive)
REMARK    1  A    between atoms: C2_2  and  C5_5 
ROOT
HETATM    1  C1  UNL     1     -34.454   5.740   4.839  1.00 20.00     0.077 C 
HETATM    2  C3  UNL     1     -34.119   8.236   4.701  1.00 20.00     0.034 A 
HETATM    3  C4  UNL     1     -33.025   7.687   5.564  1.00 20.00     0.034 A 
HETATM    4  C5  UNL     1     -33.602   6.834   4.454  1.00 20.00     0.109 A 
HETATM    5  N7  UNL     1     -35.140   4.858   5.148  1.00 20.00    -0.196 NA
ENDROOT
BRANCH   4   6
HETATM    6  C2  UNL     1     -32.770   6.614   3.257  1.00 20.00     0.145 C 
HETATM    7  C6  UNL     1     -32.889   5.271   2.587  1.00 20.00     0.093 C 
HETATM    8  O8  UNL     1     -32.017   7.485   2.825  1.00 20.00    -0.296 OA
ENDBRANCH   4   6
TORSDOF 1
ENDMDL
MODEL 5
REMARK VINA RESULT:      -3.8      2.150      2.762
REMARK  1 active torsions:
REMARK  status: ('A' for Active; 'I' for Inactive)
REMARK    1  A    between atoms: C2_2  and  C5_5 
ROOT
HETATM    1  C1  UNL     1     -33.274   7.472   4.511  1.00 20.00     0.077 C 
HETATM    2  C3  UNL     1     -33.914   5.911   6.386  1.00 20.00     0.034 A 
HETATM    3  C4  UNL     1     -35.176   6.294   5.674  1.00 20.00     0.034 A 
HETATM    4  C5  UNL     1     -33.874   6.225   4.904  1.00 20.00     0.109 A 
HETATM    5  N7  UNL     1     -32.790   8.477   4.194  1.00 20.00    -0.196 NA
ENDROOT
BRANCH   4   6
HETATM    6  C2  UNL     1     -33.690   5.098   3.971  1.00 20.00     0.145 C 
HETATM    7  C6  UNL     1     -32.951   5.391   2.694  1.00 20.00     0.093 C 
HETATM    8  O8  UNL     1     -34.117   3.973   4.226  1.00 20.00    -0.296 OA
ENDBRANCH   4   6
TORSDOF 1
ENDMDL
MODEL 6
REMARK VINA RESULT:      -3.6      2.478      3.567
REMARK  1 active torsions:
REMARK  status: ('A' for Active; 'I' for Inactive)
REMARK    1  A    between atoms: C2_2  and  C5_5 
ROOT
HETATM    1  C1  UNL     1     -33.770   7.291   5.722  1.00 20.00     0.077 C 
HETATM    2  C3  UNL     1     -33.227   8.509   3.582  1.00 20.00     0.034 A 
HETATM    3  C4  UNL     1     -31.934   8.013   4.152  1.00 20.00     0.034 A 
HETATM    4  C5  UNL     1     -33.209   7.234   4.399  1.00 20.00     0.109 A 
HETATM    5  N7  UNL     1     -34.223   7.336   6.788  1.00 20.00    -0.196 NA
ENDROOT
BRANCH   4   6
HETATM    6  C2  UNL     1     -33.381   5.958   3.678  1.00 20.00     0.145 C 
HETATM    7  C6  UNL     1     -34.359   4.977   4.265  1.00 20.00     0.093 C 
HETATM    8  O8  UNL     1     -32.758   5.710   2.647  1.00 20.00    -0.296 OA
ENDBRANCH   4   6
TORSDOF 1
ENDMDL
MODEL 7
REMARK VINA RESULT:      -3.5     15.781     16.350
REMARK  1 active torsions:
REMARK  status: ('A' for Active; 'I' for Inactive)
REMARK    1  A    between atoms: C2_2  and  C5_5 
ROOT
HETATM    1  C1  UNL     1     -22.699  17.270   9.489  1.00 20.00     0.077 C 
HETATM    2  C3  UNL     1     -24.301  16.498  11.277  1.00 20.00     0.034 A 
HETATM    3  C4  UNL     1     -23.369  17.485  11.910  1.00 20.00     0.034 A 
HETATM    4  C5  UNL     1     -23.717  17.619  10.443  1.00 20.00     0.109 A 
HETATM    5  N7  UNL     1     -21.878  16.988   8.720  1.00 20.00    -0.196 NA
ENDROOT
BRANCH   4   6
HETATM    6  C2  UNL     1     -24.617  18.720  10.052  1.00 20.00     0.145 C 
HETATM    7  C6  UNL     1     -24.502  19.218   8.636  1.00 20.00     0.093 C 
HETATM    8  O8  UNL     1     -25.424  19.206  10.843  1.00 20.00    -0.296 OA
ENDBRANCH   4   6
TORSDOF 1
ENDMDL
MODEL 8
REMARK VINA RESULT:      -3.5     15.916     16.952
REMARK  1 active torsions:
REMARK  status: ('A' for Active; 'I' for Inactive)
REMARK    1  A    between atoms: C2_2  and  C5_5 
ROOT
HETATM    1  C1  UNL     1     -24.169  18.752   9.343  1.00 20.00     0.077 C 
HETATM    2  C3  UNL     1     -22.046  17.408   9.120  1.00 20.00     0.034 A 
HETATM    3  C4  UNL     1     -21.683  18.711   9.762  1.00 20.00     0.034 A 
HETATM    4  C5  UNL     1     -23.056  18.118   9.998  1.00 20.00     0.109 A 
HETATM    5  N7  UNL     1     -25.066  19.263   8.815  1.00 20.00    -0.196 NA
ENDROOT
BRANCH   4   6
HETATM    6  C2  UNL     1     -23.332  17.541  11.327  1.00 20.00     0.145 C 
HETATM    7  C6  UNL     1     -24.408  16.491  11.397  1.00 20.00     0.093 C 
HETATM    8  O8  UNL     1     -22.712  17.897  12.327  1.00 20.00    -0.296 OA
ENDBRANCH   4   6
TORSDOF 1
ENDMDL
MODEL 9
REMARK VINA RESULT:      -3.5      9.680     10.266
REMARK  1 active torsions:
REMARK  status: ('A' for Active; 'I' for Inactive)
REMARK    1  A    between atoms: C2_2  and  C5_5 
ROOT
HETATM    1  C1  UNL     1     -40.505  14.294   7.587  1.00 20.00     0.077 C 
HETATM    2  C3  UNL     1     -42.242  12.695   6.701  1.00 20.00     0.034 A 
HETATM    3  C4  UNL     1     -41.884  13.626   5.584  1.00 20.00     0.034 A 
HETATM    4  C5  UNL     1     -40.845  13.276   6.629  1.00 20.00     0.109 A 
HETATM    5  N7  UNL     1     -40.229  15.114   8.359  1.00 20.00    -0.196 NA
ENDROOT
BRANCH   4   6
HETATM    6  C2  UNL     1     -39.749  12.374   6.228  1.00 20.00     0.145 C 
HETATM    7  C6  UNL     1     -39.627  12.069   4.760  1.00 20.00     0.093 C 
HETATM    8  O8  UNL     1     -38.972  11.897   7.053  1.00 20.00    -0.296 OA
ENDBRANCH   4   6
TORSDOF 1
ENDMDL
