MODEL 1
REMARK VINA RESULT:      -4.4      0.000      0.000
REMARK  1 active torsions:
REMARK  status: ('A' for Active; 'I' for Inactive)
REMARK    1  A    between atoms: C2_2  and  C3_3 
ROOT
HETATM    1  C1  UNL     1     -33.267   7.546   4.457  1.00 20.00     0.018 C 
HETATM    2  C2  UNL     1     -34.016   6.811   5.288  1.00 20.00     0.188 C 
HETATM    3  C4  UNL     1     -32.433   8.709   4.888  1.00 20.00     0.039 C 
HETATM    4  F7  UNL     1     -34.034   7.123   6.606  1.00 20.00    -0.199 F 
ENDROOT
BRANCH   2   5
HETATM    5  C3  UNL     1     -34.863   5.622   4.808  1.00 20.00     0.238 C 
HETATM    6  O5  UNL     1     -35.952   5.952   4.254  1.00 20.00    -0.642 OA
HETATM    7  O6  UNL     1     -34.391   4.468   5.012  1.00 20.00    -0.642 OA
ENDBRANCH   2   5
TORSDOF 1
ENDMDL
MODEL 2
REMARK VINA RESULT:      -4.3      1.630      1.757
REMARK  1 active torsions:
REMARK  status: ('A' for Active; 'I' for Inactive)
REMARK    1  A    between atoms: C2_2  and  C3_3 
ROOT
HETATM    1  C1  UNL     1     -33.271   7.794   5.167  1.00 20.00     0.018 C 
HETATM    2  C2  UNL     1     -33.631   6.606   4.668  1.00 20.00     0.188 C 
HETATM    3  C4  UNL     1     -32.387   8.769   4.457  1.00 20.00     0.039 C 
HETATM    4  F7  UNL     1     -33.180   6.244   3.444  1.00 20.00    -0.199 F 
ENDROOT
BRANCH   2   5
HETATM    5  C3  UNL     1     -34.542   5.629   5.428  1.00 20.00     0.238 C 
HETATM    6  O5  UNL     1     -34.856   4.595   4.769  1.00 20.00    -0.642 OA
HETATM    7  O6  UNL     1     -34.871   5.955   6.603  1.00 20.00    -0.642 OA
ENDBRANCH   2   5
TORSDOF 1
ENDMDL
MODEL 3
REMARK VINA RESULT:      -4.3      2.556      3.383
REMARK  1 active torsions:
REMARK  status: ('A' for Active; 'I' for Inactive)
REMARK    1  A    between atoms: C2_2  and  C3_3 
ROOT
HETATM    1  C1  UNL     1     -34.092   6.135   4.522  1.00 20.00     0.018 C 
HETATM    2  C2  UNL     1     -33.620   7.257   5.079  1.00 20.00     0.188 C 
HETATM    3  C4  UNL     1     -35.127   5.258   5.150  1.00 20.00     0.039 C 
HETATM    4  F7  UNL     1     -34.097   7.641   6.286  1.00 20.00    -0.199 F 
ENDROOT
BRANCH   2   5
HETATM    5  C3  UNL     1     -32.555   8.133   4.401  1.00 20.00     0.238 C 
HETATM    6  O5  UNL     1     -32.107   7.657   3.317  1.00 20.00    -0.642 OA
HETATM    7  O6  UNL     1     -32.247   9.209   4.985  1.00 20.00    -0.642 OA
ENDBRANCH   2   5
TORSDOF 1
ENDMDL
MODEL 4
REMARK VINA RESULT:      -4.3      2.843      3.513
REMARK  1 active torsions:
REMARK  status: ('A' for Active; 'I' for Inactive)
REMARK    1  A    between atoms: C2_2  and  C3_3 
ROOT
HETATM    1  C1  UNL     1     -33.920   6.875   5.825  1.00 20.00     0.018 C 
HETATM    2  C2  UNL     1     -33.455   6.939   4.572  1.00 20.00     0.188 C 
HETATM    3  C4  UNL     1     -34.739   5.744   6.359  1.00 20.00     0.039 C 
HETATM    4  F7  UNL     1     -33.731   5.927   3.716  1.00 20.00    -0.199 F 
ENDROOT
BRANCH   2   5
HETATM    5  C3  UNL     1     -32.615   8.121   4.059  1.00 20.00     0.238 C 
HETATM    6  O5  UNL     1     -32.279   8.026   2.842  1.00 20.00    -0.642 OA
HETATM    7  O6  UNL     1     -32.358   9.038   4.888  1.00 20.00    -0.642 OA
ENDBRANCH   2   5
TORSDOF 1
ENDMDL
MODEL 5
REMARK VINA RESULT:      -4.3      2.562      3.333
REMARK  1 active torsions:
REMARK  status: ('A' for Active; 'I' for Inactive)
REMARK    1  A    between atoms: C2_2  and  C3_3 
ROOT
HETATM    1  C1  UNL     1     -34.100   6.125   4.529  1.00 20.00     0.018 C 
HETATM    2  C2  UNL     1     -33.623   7.257   5.062  1.00 20.00     0.188 C 
HETATM    3  C4  UNL     1     -35.127   5.258   5.183  1.00 20.00     0.039 C 
HETATM    4  F7  UNL     1     -34.087   7.660   6.269  1.00 20.00    -0.199 F 
ENDROOT
BRANCH   2   5
HETATM    5  C3  UNL     1     -32.566   8.123   4.359  1.00 20.00     0.238 C 
HETATM    6  O5  UNL     1     -32.256   9.175   4.992  1.00 20.00    -0.642 OA
HETATM    7  O6  UNL     1     -32.131   7.702   3.251  1.00 20.00    -0.642 OA
ENDBRANCH   2   5
TORSDOF 1
ENDMDL
MODEL 6
REMARK VINA RESULT:      -4.2      1.001      1.157
REMARK  1 active torsions:
REMARK  status: ('A' for Active; 'I' for Inactive)
REMARK    1  A    between atoms: C2_2  and  C3_3 
ROOT
HETATM    1  C1  UNL     1     -32.857   7.624   4.279  1.00 20.00     0.018 C 
HETATM    2  C2  UNL     1     -33.740   6.791   4.844  1.00 20.00     0.188 C 
HETATM    3  C4  UNL     1     -32.473   8.951   4.850  1.00 20.00     0.039 C 
HETATM    4  F7  UNL     1     -34.334   7.153   6.005  1.00 20.00    -0.199 F 
ENDROOT
BRANCH   2   5
HETATM    5  C3  UNL     1     -34.110   5.433   4.226  1.00 20.00     0.238 C 
HETATM    6  O5  UNL     1     -34.960   4.775   4.895  1.00 20.00    -0.642 OA
HETATM    7  O6  UNL     1     -33.540   5.127   3.142  1.00 20.00    -0.642 OA
ENDBRANCH   2   5
TORSDOF 1
ENDMDL
MODEL 7
REMARK VINA RESULT:      -3.8      2.556      3.145
REMARK  1 active torsions:
REMARK  status: ('A' for Active; 'I' for Inactive)
REMARK    1  A    between atoms: C2_2  and  C3_3 
ROOT
HETATM    1  C1  UNL     1     -33.910   6.626   5.128  1.00 20.00     0.018 C 
HETATM    2  C2  UNL     1     -33.222   7.697   4.714  1.00 20.00     0.188 C 
HETATM    3  C4  UNL     1     -34.501   6.487   6.494  1.00 20.00     0.039 C 
HETATM    4  F7  UNL     1     -33.039   8.731   5.568  1.00 20.00    -0.199 F 
ENDROOT
BRANCH   2   5
HETATM    5  C3  UNL     1     -32.628   7.803   3.300  1.00 20.00     0.238 C 
HETATM    6  O5  UNL     1     -32.568   8.986   2.852  1.00 20.00    -0.642 OA
HETATM    7  O6  UNL     1     -32.271   6.724   2.750  1.00 20.00    -0.642 OA
ENDBRANCH   2   5
TORSDOF 1
ENDMDL
MODEL 8
REMARK VINA RESULT:      -3.7      2.285      2.524
REMARK  1 active torsions:
REMARK  status: ('A' for Active; 'I' for Inactive)
REMARK    1  A    between atoms: C2_2  and  C3_3 
ROOT
HETATM    1  C1  UNL     1     -32.938   7.707   4.681  1.00 20.00     0.018 C 
HETATM    2  C2  UNL     1     -32.776   6.975   3.571  1.00 20.00     0.188 C 
HETATM    3  C4  UNL     1     -32.345   9.063   4.885  1.00 20.00     0.039 C 
HETATM    4  F7  UNL     1     -32.033   7.477   2.557  1.00 20.00    -0.199 F 
ENDROOT
BRANCH   2   5
HETATM    5  C3  UNL     1     -33.403   5.582   3.398  1.00 20.00     0.238 C 
HETATM    6  O5  UNL     1     -32.874   4.888   2.482  1.00 20.00    -0.642 OA
HETATM    7  O6  UNL     1     -34.355   5.287   4.173  1.00 20.00    -0.642 OA
ENDBRANCH   2   5
TORSDOF 1
ENDMDL
MODEL 9
REMARK VINA RESULT:      -3.7      3.082      3.594
REMARK  1 active torsions:
REMARK  status: ('A' for Active; 'I' for Inactive)
REMARK    1  A    between atoms: C2_2  and  C3_3 
ROOT
HETATM    1  C1  UNL     1     -33.279   5.977   3.628  1.00 20.00     0.018 C 
HETATM    2  C2  UNL     1     -32.713   7.180   3.785  1.00 20.00     0.188 C 
HETATM    3  C4  UNL     1     -33.000   5.063   2.478  1.00 20.00     0.039 C 
HETATM    4  F7  UNL     1     -31.829   7.616   2.856  1.00 20.00    -0.199 F 
ENDROOT
BRANCH   2   5
HETATM    5  C3  UNL     1     -33.025   8.092   4.981  1.00 20.00     0.238 C 
HETATM    6  O5  UNL     1     -32.349   9.162   5.006  1.00 20.00    -0.642 OA
HETATM    7  O6  UNL     1     -33.903   7.686   5.793  1.00 20.00    -0.642 OA
ENDBRANCH   2   5
TORSDOF 1
ENDMDL
