MODEL 1
REMARK VINA RESULT:      -3.6      0.000      0.000
REMARK  1 active torsions:
REMARK  status: ('A' for Active; 'I' for Inactive)
REMARK    1  A    between atoms: C3_3  and  C4_4 
ROOT
HETATM    1  C1  UNL     1     -32.312   8.862   4.106  1.00 20.00     0.149 A 
HETATM    2  C2  UNL     1     -32.508   7.875   3.163  1.00 20.00     0.093 A 
HETATM    3  C3  UNL     1     -33.452   7.450   5.338  1.00 20.00     0.089 A 
HETATM    4  N5  UNL     1     -32.853   8.621   5.353  1.00 20.00    -0.255 NA
HETATM    5  S6  UNL     1     -33.403   6.587   3.856  1.00 20.00    -0.060 SA
HETATM    6 CL7  UNL     1     -31.991   7.824   1.535  1.00 20.00    -0.075 Cl
ENDROOT
BRANCH   3   7
HETATM    7  C4  UNL     1     -34.148   6.851   6.497  1.00 20.00     0.181 C 
HETATM    8 CL8  UNL     1     -34.728   5.210   6.116  1.00 20.00    -0.123 Cl
ENDBRANCH   3   7
TORSDOF 1
ENDMDL
MODEL 2
REMARK VINA RESULT:      -3.5     11.950     12.395
REMARK  1 active torsions:
REMARK  status: ('A' for Active; 'I' for Inactive)
REMARK    1  A    between atoms: C3_3  and  C4_4 
ROOT
HETATM    1  C1  UNL     1     -30.707  18.822   0.942  1.00 20.00     0.149 A 
HETATM    2  C2  UNL     1     -31.851  18.955   1.699  1.00 20.00     0.093 A 
HETATM    3  C3  UNL     1     -32.189  18.523  -0.646  1.00 20.00     0.089 A 
HETATM    4  N5  UNL     1     -30.898  18.574  -0.402  1.00 20.00    -0.255 NA
HETATM    5  S6  UNL     1     -33.229  18.765   0.696  1.00 20.00    -0.060 SA
HETATM    6 CL7  UNL     1     -32.005  19.263   3.372  1.00 20.00    -0.075 Cl
ENDROOT
BRANCH   3   7
HETATM    7  C4  UNL     1     -32.781  18.275  -1.979  1.00 20.00     0.181 C 
HETATM    8 CL8  UNL     1     -33.441  16.624  -2.089  1.00 20.00    -0.123 Cl
ENDBRANCH   3   7
TORSDOF 1
ENDMDL
MODEL 3
REMARK VINA RESULT:      -3.3      1.582      1.775
REMARK  1 active torsions:
REMARK  status: ('A' for Active; 'I' for Inactive)
REMARK    1  A    between atoms: C3_3  and  C4_4 
ROOT
HETATM    1  C1  UNL     1     -32.951   6.167   2.706  1.00 20.00     0.149 A 
HETATM    2  C2  UNL     1     -32.478   7.452   2.546  1.00 20.00     0.093 A 
HETATM    3  C3  UNL     1     -33.417   6.941   4.704  1.00 20.00     0.089 A 
HETATM    4  N5  UNL     1     -33.489   5.871   3.942  1.00 20.00    -0.255 NA
HETATM    5  S6  UNL     1     -32.713   8.336   3.996  1.00 20.00    -0.060 SA
HETATM    6 CL7  UNL     1     -31.755   8.170   1.175  1.00 20.00    -0.075 Cl
ENDROOT
BRANCH   3   7
HETATM    7  C4  UNL     1     -33.897   7.007   6.102  1.00 20.00     0.181 C 
HETATM    8 CL8  UNL     1     -34.708   5.491   6.572  1.00 20.00    -0.123 Cl
ENDBRANCH   3   7
TORSDOF 1
ENDMDL
MODEL 4
REMARK VINA RESULT:      -3.3      1.015      3.871
REMARK  1 active torsions:
REMARK  status: ('A' for Active; 'I' for Inactive)
REMARK    1  A    between atoms: C3_3  and  C4_4 
ROOT
HETATM    1  C1  UNL     1     -33.387   7.711   5.672  1.00 20.00     0.149 A 
HETATM    2  C2  UNL     1     -33.926   6.481   5.360  1.00 20.00     0.093 A 
HETATM    3  C3  UNL     1     -32.730   7.584   3.583  1.00 20.00     0.089 A 
HETATM    4  N5  UNL     1     -32.701   8.345   4.655  1.00 20.00    -0.255 NA
HETATM    5  S6  UNL     1     -33.566   6.093   3.729  1.00 20.00    -0.060 SA
HETATM    6 CL7  UNL     1     -34.828   5.420   6.348  1.00 20.00    -0.075 Cl
ENDROOT
BRANCH   3   7
HETATM    7  C4  UNL     1     -32.099   7.932   2.292  1.00 20.00     0.181 C 
HETATM    8 CL8  UNL     1     -32.815   9.414   1.608  1.00 20.00    -0.123 Cl
ENDBRANCH   3   7
TORSDOF 1
ENDMDL
MODEL 5
REMARK VINA RESULT:      -3.2      2.205      2.302
REMARK  1 active torsions:
REMARK  status: ('A' for Active; 'I' for Inactive)
REMARK    1  A    between atoms: C3_3  and  C4_4 
ROOT
HETATM    1  C1  UNL     1     -32.214   7.575   3.343  1.00 20.00     0.149 A 
HETATM    2  C2  UNL     1     -32.464   8.327   4.472  1.00 20.00     0.093 A 
HETATM    3  C3  UNL     1     -33.668   6.246   4.309  1.00 20.00     0.089 A 
HETATM    4  N5  UNL     1     -32.902   6.382   3.249  1.00 20.00    -0.255 NA
HETATM    5  S6  UNL     1     -33.608   7.518   5.460  1.00 20.00    -0.060 SA
HETATM    6 CL7  UNL     1     -31.808   9.837   4.925  1.00 20.00    -0.075 Cl
ENDROOT
BRANCH   3   7
HETATM    7  C4  UNL     1     -34.554   5.089   4.560  1.00 20.00     0.181 C 
HETATM    8 CL8  UNL     1     -34.881   4.900   6.302  1.00 20.00    -0.123 Cl
ENDBRANCH   3   7
TORSDOF 1
ENDMDL
MODEL 6
REMARK VINA RESULT:      -3.2     12.120     12.317
REMARK  1 active torsions:
REMARK  status: ('A' for Active; 'I' for Inactive)
REMARK    1  A    between atoms: C3_3  and  C4_4 
ROOT
HETATM    1  C1  UNL     1     -31.876  18.634  -1.172  1.00 20.00     0.149 A 
HETATM    2  C2  UNL     1     -33.110  18.714  -0.563  1.00 20.00     0.093 A 
HETATM    3  C3  UNL     1     -31.209  18.683   0.916  1.00 20.00     0.089 A 
HETATM    4  N5  UNL     1     -30.785  18.616  -0.327  1.00 20.00    -0.255 NA
HETATM    5  S6  UNL     1     -32.908  18.768   1.139  1.00 20.00    -0.060 SA
HETATM    6 CL7  UNL     1     -34.662  18.757  -1.276  1.00 20.00    -0.075 Cl
ENDROOT
BRANCH   3   7
HETATM    7  C4  UNL     1     -30.326  18.688   2.103  1.00 20.00     0.181 C 
HETATM    8 CL8  UNL     1     -31.265  18.935   3.597  1.00 20.00    -0.123 Cl
ENDBRANCH   3   7
TORSDOF 1
ENDMDL
MODEL 7
REMARK VINA RESULT:      -3.1     12.226     12.650
REMARK  1 active torsions:
REMARK  status: ('A' for Active; 'I' for Inactive)
REMARK    1  A    between atoms: C3_3  and  C4_4 
ROOT
HETATM    1  C1  UNL     1     -33.737  14.760  -4.787  1.00 20.00     0.149 A 
HETATM    2  C2  UNL     1     -34.748  15.405  -5.469  1.00 20.00     0.093 A 
HETATM    3  C3  UNL     1     -33.633  16.701  -3.772  1.00 20.00     0.089 A 
HETATM    4  N5  UNL     1     -33.096  15.502  -3.815  1.00 20.00    -0.255 NA
HETATM    5  S6  UNL     1     -34.913  17.004  -4.874  1.00 20.00    -0.060 SA
HETATM    6 CL7  UNL     1     -35.749  14.814  -6.720  1.00 20.00    -0.075 Cl
ENDROOT
BRANCH   3   7
HETATM    7  C4  UNL     1     -33.206  17.777  -2.851  1.00 20.00     0.181 C 
HETATM    8 CL8  UNL     1     -33.610  17.372  -1.163  1.00 20.00    -0.123 Cl
ENDBRANCH   3   7
TORSDOF 1
ENDMDL
MODEL 8
REMARK VINA RESULT:      -3.0      9.991     10.421
REMARK  1 active torsions:
REMARK  status: ('A' for Active; 'I' for Inactive)
REMARK    1  A    between atoms: C3_3  and  C4_4 
ROOT
HETATM    1  C1  UNL     1     -41.186  14.370   7.738  1.00 20.00     0.149 A 
HETATM    2  C2  UNL     1     -41.877  14.635   6.575  1.00 20.00     0.093 A 
HETATM    3  C3  UNL     1     -40.231  12.881   6.442  1.00 20.00     0.089 A 
HETATM    4  N5  UNL     1     -40.243  13.365   7.665  1.00 20.00    -0.255 NA
HETATM    5  S6  UNL     1     -41.329  13.590   5.330  1.00 20.00    -0.060 SA
HETATM    6 CL7  UNL     1     -43.101  15.792   6.289  1.00 20.00    -0.075 Cl
ENDROOT
BRANCH   3   7
HETATM    7  C4  UNL     1     -39.346  11.789   5.982  1.00 20.00     0.181 C 
HETATM    8 CL8  UNL     1     -39.193  11.794   4.207  1.00 20.00    -0.123 Cl
ENDBRANCH   3   7
TORSDOF 1
ENDMDL
MODEL 9
REMARK VINA RESULT:      -2.9      9.326      9.515
REMARK  1 active torsions:
REMARK  status: ('A' for Active; 'I' for Inactive)
REMARK    1  A    between atoms: C3_3  and  C4_4 
ROOT
HETATM    1  C1  UNL     1     -39.057  12.073   6.331  1.00 20.00     0.149 A 
HETATM    2  C2  UNL     1     -39.597  12.254   5.075  1.00 20.00     0.093 A 
HETATM    3  C3  UNL     1     -40.687  13.439   6.867  1.00 20.00     0.089 A 
HETATM    4  N5  UNL     1     -39.679  12.752   7.359  1.00 20.00    -0.255 NA
HETATM    5  S6  UNL     1     -40.942  13.314   5.175  1.00 20.00    -0.060 SA
HETATM    6 CL7  UNL     1     -39.102  11.585   3.584  1.00 20.00    -0.075 Cl
ENDROOT
BRANCH   3   7
HETATM    7  C4  UNL     1     -41.590  14.293   7.669  1.00 20.00     0.181 C 
HETATM    8 CL8  UNL     1     -40.669  15.499   8.602  1.00 20.00    -0.123 Cl
ENDBRANCH   3   7
TORSDOF 1
ENDMDL
