MODEL 1
REMARK VINA RESULT:      -5.8      0.000      0.000
REMARK  0 active torsions:
REMARK  status: ('A' for Active; 'I' for Inactive)
ROOT
HETATM    1  C1  UNL     1     -32.959   6.547   2.656  1.00 20.00     0.052 A 
HETATM    2  C2  UNL     1     -32.837   8.511   4.543  1.00 20.00     0.126 A 
HETATM    3  C3  UNL     1     -33.505   6.303   3.920  1.00 20.00    -0.047 A 
HETATM    4  C4  UNL     1     -33.428   7.302   4.900  1.00 20.00    -0.034 A 
HETATM    5  C5  UNL     1     -32.384   7.784   2.414  1.00 20.00     0.126 A 
HETATM    6  C6  UNL     1     -34.107   4.953   4.219  1.00 20.00     0.039 C 
HETATM    7  C7  UNL     1     -34.014   7.121   6.273  1.00 20.00     0.040 C 
HETATM    8  C8  UNL     1     -34.985   4.952   5.470  1.00 20.00     0.005 C 
HETATM    9  C9  UNL     1     -34.278   5.657   6.621  1.00 20.00     0.005 C 
HETATM   10  N10 UNL     1     -32.311   8.776   3.326  1.00 20.00    -0.248 NA
HETATM   11 CL11 UNL     1     -31.697   8.157   0.886  1.00 20.00    -0.062 Cl
ENDROOT
TORSDOF 0
ENDMDL
MODEL 2
REMARK VINA RESULT:      -5.2      1.184      2.172
REMARK  0 active torsions:
REMARK  status: ('A' for Active; 'I' for Inactive)
ROOT
HETATM    1  C1  UNL     1     -32.791   7.986   3.409  1.00 20.00     0.052 A 
HETATM    2  C2  UNL     1     -33.181   5.355   2.810  1.00 20.00     0.126 A 
HETATM    3  C3  UNL     1     -33.393   7.160   4.362  1.00 20.00    -0.047 A 
HETATM    4  C4  UNL     1     -33.613   5.810   4.053  1.00 20.00    -0.034 A 
HETATM    5  C5  UNL     1     -32.411   7.428   2.198  1.00 20.00     0.126 A 
HETATM    6  C6  UNL     1     -33.846   7.749   5.674  1.00 20.00     0.039 C 
HETATM    7  C7  UNL     1     -34.233   4.856   5.037  1.00 20.00     0.040 C 
HETATM    8  C8  UNL     1     -34.126   6.693   6.742  1.00 20.00     0.005 C 
HETATM    9  C9  UNL     1     -34.975   5.564   6.168  1.00 20.00     0.005 C 
HETATM   10  N10 UNL     1     -32.589   6.130   1.875  1.00 20.00    -0.248 NA
HETATM   11 CL11 UNL     1     -31.664   8.379   0.980  1.00 20.00    -0.062 Cl
ENDROOT
TORSDOF 0
ENDMDL
MODEL 3
REMARK VINA RESULT:      -4.3     12.500     12.735
REMARK  0 active torsions:
REMARK  status: ('A' for Active; 'I' for Inactive)
ROOT
HETATM    1  C1  UNL     1     -30.292  18.487   1.463  1.00 20.00     0.052 A 
HETATM    2  C2  UNL     1     -32.577  19.263   2.733  1.00 20.00     0.126 A 
HETATM    3  C3  UNL     1     -31.480  18.563   0.728  1.00 20.00    -0.047 A 
HETATM    4  C4  UNL     1     -32.661  18.944   1.380  1.00 20.00    -0.034 A 
HETATM    5  C5  UNL     1     -30.327  18.817   2.809  1.00 20.00     0.126 A 
HETATM    6  C6  UNL     1     -31.476  18.178  -0.729  1.00 20.00     0.039 C 
HETATM    7  C7  UNL     1     -33.971  19.071   0.651  1.00 20.00     0.040 C 
HETATM    8  C8  UNL     1     -32.714  18.662  -1.482  1.00 20.00     0.005 C 
HETATM    9  C9  UNL     1     -33.979  18.344  -0.692  1.00 20.00     0.005 C 
HETATM   10  N10 UNL     1     -31.441  19.206   3.463  1.00 20.00    -0.248 NA
HETATM   11 CL11 UNL     1     -28.910  18.750   3.773  1.00 20.00    -0.062 Cl
ENDROOT
TORSDOF 0
ENDMDL
MODEL 4
REMARK VINA RESULT:      -4.2     11.986     13.243
REMARK  0 active torsions:
REMARK  status: ('A' for Active; 'I' for Inactive)
ROOT
HETATM    1  C1  UNL     1     -33.323  16.621  -2.269  1.00 20.00     0.052 A 
HETATM    2  C2  UNL     1     -34.172  18.751  -3.745  1.00 20.00     0.126 A 
HETATM    3  C3  UNL     1     -33.748  16.404  -3.583  1.00 20.00    -0.047 A 
HETATM    4  C4  UNL     1     -34.203  17.493  -4.341  1.00 20.00    -0.034 A 
HETATM    5  C5  UNL     1     -33.345  17.916  -1.774  1.00 20.00     0.126 A 
HETATM    6  C6  UNL     1     -33.765  15.001  -4.134  1.00 20.00     0.039 C 
HETATM    7  C7  UNL     1     -34.652  17.340  -5.768  1.00 20.00     0.040 C 
HETATM    8  C8  UNL     1     -33.880  14.956  -5.657  1.00 20.00     0.005 C 
HETATM    9  C9  UNL     1     -34.980  15.895  -6.139  1.00 20.00     0.005 C 
HETATM   10  N10 UNL     1     -33.758  18.989  -2.481  1.00 20.00    -0.248 NA
HETATM   11 CL11 UNL     1     -32.837  18.260  -0.171  1.00 20.00    -0.062 Cl
ENDROOT
TORSDOF 0
ENDMDL
MODEL 5
REMARK VINA RESULT:      -4.1      2.176      3.238
REMARK  0 active torsions:
REMARK  status: ('A' for Active; 'I' for Inactive)
ROOT
HETATM    1  C1  UNL     1     -32.651   6.203   2.786  1.00 20.00     0.052 A 
HETATM    2  C2  UNL     1     -34.243   5.246   4.781  1.00 20.00     0.126 A 
HETATM    3  C3  UNL     1     -32.939   7.032   3.874  1.00 20.00    -0.047 A 
HETATM    4  C4  UNL     1     -33.773   6.552   4.894  1.00 20.00    -0.034 A 
HETATM    5  C5  UNL     1     -33.183   4.923   2.772  1.00 20.00     0.126 A 
HETATM    6  C6  UNL     1     -32.400   8.439   3.897  1.00 20.00     0.039 C 
HETATM    7  C7  UNL     1     -34.108   7.377   6.107  1.00 20.00     0.040 C 
HETATM    8  C8  UNL     1     -32.467   9.085   5.280  1.00 20.00     0.005 C 
HETATM    9  C9  UNL     1     -33.839   8.867   5.907  1.00 20.00     0.005 C 
HETATM   10  N10 UNL     1     -33.972   4.422   3.745  1.00 20.00    -0.248 NA
HETATM   11 CL11 UNL     1     -32.871   3.848   1.471  1.00 20.00    -0.062 Cl
ENDROOT
TORSDOF 0
ENDMDL
MODEL 6
REMARK VINA RESULT:      -4.0     15.248     16.477
REMARK  0 active torsions:
REMARK  status: ('A' for Active; 'I' for Inactive)
ROOT
HETATM    1  C1  UNL     1     -25.358  18.899   9.444  1.00 20.00     0.052 A 
HETATM    2  C2  UNL     1     -23.005  19.109   8.082  1.00 20.00     0.126 A 
HETATM    3  C3  UNL     1     -24.157  18.808  10.154  1.00 20.00    -0.047 A 
HETATM    4  C4  UNL     1     -22.944  18.897   9.457  1.00 20.00    -0.034 A 
HETATM    5  C5  UNL     1     -25.300  19.099   8.073  1.00 20.00     0.126 A 
HETATM    6  C6  UNL     1     -24.193  18.557  11.641  1.00 20.00     0.039 C 
HETATM    7  C7  UNL     1     -21.614  18.832  10.157  1.00 20.00     0.040 C 
HETATM    8  C8  UNL     1     -22.864  18.857  12.332  1.00 20.00     0.005 C 
HETATM    9  C9  UNL     1     -21.706  18.235  11.559  1.00 20.00     0.005 C 
HETATM   10  N10 UNL     1     -24.152  19.209   7.374  1.00 20.00    -0.248 NA
HETATM   11 CL11 UNL     1     -26.731  19.223   7.135  1.00 20.00    -0.062 Cl
ENDROOT
TORSDOF 0
ENDMDL
MODEL 7
REMARK VINA RESULT:      -4.0     12.156     13.363
REMARK  0 active torsions:
REMARK  status: ('A' for Active; 'I' for Inactive)
ROOT
HETATM    1  C1  UNL     1     -34.812  17.156  -5.718  1.00 20.00     0.052 A 
HETATM    2  C2  UNL     1     -33.483  15.226  -4.324  1.00 20.00     0.126 A 
HETATM    3  C3  UNL     1     -34.433  17.418  -4.398  1.00 20.00    -0.047 A 
HETATM    4  C4  UNL     1     -33.765  16.423  -3.670  1.00 20.00    -0.034 A 
HETATM    5  C5  UNL     1     -34.489  15.924  -6.265  1.00 20.00     0.126 A 
HETATM    6  C6  UNL     1     -34.801  18.738  -3.769  1.00 20.00     0.039 C 
HETATM    7  C7  UNL     1     -33.305  16.641  -2.255  1.00 20.00     0.040 C 
HETATM    8  C8  UNL     1     -34.014  19.036  -2.493  1.00 20.00     0.005 C 
HETATM    9  C9  UNL     1     -34.002  17.818  -1.576  1.00 20.00     0.005 C 
HETATM   10  N10 UNL     1     -33.830  14.952  -5.601  1.00 20.00    -0.248 NA
HETATM   11 CL11 UNL     1     -34.919  15.532  -7.879  1.00 20.00    -0.062 Cl
ENDROOT
TORSDOF 0
ENDMDL
MODEL 8
REMARK VINA RESULT:      -4.0      1.542      2.522
REMARK  0 active torsions:
REMARK  status: ('A' for Active; 'I' for Inactive)
ROOT
HETATM    1  C1  UNL     1     -33.068   8.484   5.564  1.00 20.00     0.052 A 
HETATM    2  C2  UNL     1     -32.546   7.236   3.197  1.00 20.00     0.126 A 
HETATM    3  C3  UNL     1     -33.572   7.197   5.355  1.00 20.00    -0.047 A 
HETATM    4  C4  UNL     1     -33.322   6.558   4.133  1.00 20.00    -0.034 A 
HETATM    5  C5  UNL     1     -32.316   9.070   4.558  1.00 20.00     0.126 A 
HETATM    6  C6  UNL     1     -34.421   6.551   6.421  1.00 20.00     0.039 C 
HETATM    7  C7  UNL     1     -33.811   5.164   3.846  1.00 20.00     0.040 C 
HETATM    8  C8  UNL     1     -34.577   5.043   6.231  1.00 20.00     0.005 C 
HETATM    9  C9  UNL     1     -34.931   4.719   4.784  1.00 20.00     0.005 C 
HETATM   10  N10 UNL     1     -32.040   8.476   3.378  1.00 20.00    -0.248 NA
HETATM   11 CL11 UNL     1     -31.664  10.646   4.743  1.00 20.00    -0.062 Cl
ENDROOT
TORSDOF 0
ENDMDL
MODEL 9
REMARK VINA RESULT:      -3.9     12.304     13.191
REMARK  0 active torsions:
REMARK  status: ('A' for Active; 'I' for Inactive)
ROOT
HETATM    1  C1  UNL     1     -33.614  16.212  -4.019  1.00 20.00     0.052 A 
HETATM    2  C2  UNL     1     -35.671  17.953  -4.431  1.00 20.00     0.126 A 
HETATM    3  C3  UNL     1     -33.930  17.131  -3.014  1.00 20.00    -0.047 A 
HETATM    4  C4  UNL     1     -34.975  18.041  -3.228  1.00 20.00    -0.034 A 
HETATM    5  C5  UNL     1     -34.367  16.221  -5.183  1.00 20.00     0.126 A 
HETATM    6  C6  UNL     1     -33.105  17.164  -1.753  1.00 20.00     0.039 C 
HETATM    7  C7  UNL     1     -35.389  19.042  -2.184  1.00 20.00     0.040 C 
HETATM    8  C8  UNL     1     -33.780  17.928  -0.614  1.00 20.00     0.005 C 
HETATM    9  C9  UNL     1     -34.322  19.263  -1.113  1.00 20.00     0.005 C 
HETATM   10  N10 UNL     1     -35.391  17.069  -5.414  1.00 20.00    -0.248 NA
HETATM   11 CL11 UNL     1     -34.039  15.122  -6.458  1.00 20.00    -0.062 Cl
ENDROOT
TORSDOF 0
ENDMDL
