MODEL 1
REMARK VINA RESULT:      -4.2      0.000      0.000
REMARK  2 active torsions:
REMARK  status: ('A' for Active; 'I' for Inactive)
REMARK    1  A    between atoms: C5_5  and  C6_6 
REMARK    2  A    between atoms: C6_6  and  C7_7 
ROOT
HETATM    1  C1  UNL     1     -32.581   6.675   3.240  1.00 20.00     0.012 C 
HETATM    2  C6  UNL     1     -33.672   7.042   4.263  1.00 20.00     0.002 C 
ENDROOT
BRANCH   2   3
HETATM    3  C5  UNL     1     -33.052   7.839   5.431  1.00 20.00     0.119 C 
HETATM    4 CL8  UNL     1     -32.092   9.236   4.864  1.00 20.00    -0.130 Cl
ENDBRANCH   2   3
BRANCH   2   5
HETATM    5  C7  UNL     1     -34.501   5.793   4.756  1.00 20.00    -0.047 C 
HETATM    6  C2  UNL     1     -35.962   5.889   4.261  1.00 20.00     0.015 C 
HETATM    7  C3  UNL     1     -34.552   5.748   6.300  1.00 20.00     0.015 C 
HETATM    8  C4  UNL     1     -33.910   4.462   4.256  1.00 20.00     0.015 C 
ENDBRANCH   2   5
TORSDOF 2
ENDMDL
MODEL 2
REMARK VINA RESULT:      -4.2      0.032      1.519
REMARK  2 active torsions:
REMARK  status: ('A' for Active; 'I' for Inactive)
REMARK    1  A    between atoms: C5_5  and  C6_6 
REMARK    2  A    between atoms: C6_6  and  C7_7 
ROOT
HETATM    1  C1  UNL     1     -32.599   6.689   3.239  1.00 20.00     0.012 C 
HETATM    2  C6  UNL     1     -33.680   7.057   4.272  1.00 20.00     0.002 C 
ENDROOT
BRANCH   2   3
HETATM    3  C5  UNL     1     -33.046   7.847   5.438  1.00 20.00     0.119 C 
HETATM    4 CL8  UNL     1     -32.092   9.247   4.868  1.00 20.00    -0.130 Cl
ENDBRANCH   2   3
BRANCH   2   5
HETATM    5  C7  UNL     1     -34.511   5.810   4.769  1.00 20.00    -0.047 C 
HETATM    6  C2  UNL     1     -33.907   4.504   4.205  1.00 20.00     0.015 C 
HETATM    7  C3  UNL     1     -35.967   5.887   4.261  1.00 20.00     0.015 C 
HETATM    8  C4  UNL     1     -34.542   5.702   6.305  1.00 20.00     0.015 C 
ENDBRANCH   2   5
TORSDOF 2
ENDMDL
MODEL 3
REMARK VINA RESULT:      -4.2      0.024      1.527
REMARK  2 active torsions:
REMARK  status: ('A' for Active; 'I' for Inactive)
REMARK    1  A    between atoms: C5_5  and  C6_6 
REMARK    2  A    between atoms: C6_6  and  C7_7 
ROOT
HETATM    1  C1  UNL     1     -32.592   6.654   3.227  1.00 20.00     0.012 C 
HETATM    2  C6  UNL     1     -33.675   7.045   4.251  1.00 20.00     0.002 C 
ENDROOT
BRANCH   2   3
HETATM    3  C5  UNL     1     -33.037   7.829   5.419  1.00 20.00     0.119 C 
HETATM    4 CL8  UNL     1     -32.092   9.238   4.854  1.00 20.00    -0.130 Cl
ENDBRANCH   2   3
BRANCH   2   5
HETATM    5  C7  UNL     1     -34.531   5.815   4.745  1.00 20.00    -0.047 C 
HETATM    6  C2  UNL     1     -34.545   5.758   6.289  1.00 20.00     0.015 C 
HETATM    7  C3  UNL     1     -33.914   4.488   4.252  1.00 20.00     0.015 C 
HETATM    8  C4  UNL     1     -35.989   5.880   4.252  1.00 20.00     0.015 C 
ENDBRANCH   2   5
TORSDOF 2
ENDMDL
MODEL 4
REMARK VINA RESULT:      -4.2      0.883      1.524
REMARK  2 active torsions:
REMARK  status: ('A' for Active; 'I' for Inactive)
REMARK    1  A    between atoms: C5_5  and  C6_6 
REMARK    2  A    between atoms: C6_6  and  C7_7 
ROOT
HETATM    1  C1  UNL     1     -33.763   8.269   5.332  1.00 20.00     0.012 C 
HETATM    2  C6  UNL     1     -33.260   6.900   4.837  1.00 20.00     0.002 C 
ENDROOT
BRANCH   2   3
HETATM    3  C5  UNL     1     -32.702   7.032   3.403  1.00 20.00     0.119 C 
HETATM    4 CL8  UNL     1     -32.597   8.734   2.870  1.00 20.00    -0.130 Cl
ENDBRANCH   2   3
BRANCH   2   5
HETATM    5  C7  UNL     1     -34.347   5.762   4.960  1.00 20.00    -0.047 C 
HETATM    6  C2  UNL     1     -35.669   6.209   4.299  1.00 20.00     0.015 C 
HETATM    7  C3  UNL     1     -34.663   5.467   6.444  1.00 20.00     0.015 C 
HETATM    8  C4  UNL     1     -33.896   4.447   4.295  1.00 20.00     0.015 C 
ENDBRANCH   2   5
TORSDOF 2
ENDMDL
MODEL 5
REMARK VINA RESULT:      -4.2      0.897      2.162
REMARK  2 active torsions:
REMARK  status: ('A' for Active; 'I' for Inactive)
REMARK    1  A    between atoms: C5_5  and  C6_6 
REMARK    2  A    between atoms: C6_6  and  C7_7 
ROOT
HETATM    1  C1  UNL     1     -33.766   8.287   5.288  1.00 20.00     0.012 C 
HETATM    2  C6  UNL     1     -33.267   6.908   4.818  1.00 20.00     0.002 C 
ENDROOT
BRANCH   2   3
HETATM    3  C5  UNL     1     -32.683   7.017   3.393  1.00 20.00     0.119 C 
HETATM    4 CL8  UNL     1     -32.614   8.708   2.816  1.00 20.00    -0.130 Cl
ENDBRANCH   2   3
BRANCH   2   5
HETATM    5  C7  UNL     1     -34.365   5.780   4.936  1.00 20.00    -0.047 C 
HETATM    6  C2  UNL     1     -34.645   5.456   6.420  1.00 20.00     0.015 C 
HETATM    7  C3  UNL     1     -33.877   4.472   4.274  1.00 20.00     0.015 C 
HETATM    8  C4  UNL     1     -35.695   6.187   4.273  1.00 20.00     0.015 C 
ENDBRANCH   2   5
TORSDOF 2
ENDMDL
MODEL 6
REMARK VINA RESULT:      -4.2      0.887      2.129
REMARK  2 active torsions:
REMARK  status: ('A' for Active; 'I' for Inactive)
REMARK    1  A    between atoms: C5_5  and  C6_6 
REMARK    2  A    between atoms: C6_6  and  C7_7 
ROOT
HETATM    1  C1  UNL     1     -33.774   8.283   5.311  1.00 20.00     0.012 C 
HETATM    2  C6  UNL     1     -33.263   6.911   4.835  1.00 20.00     0.002 C 
ENDROOT
BRANCH   2   3
HETATM    3  C5  UNL     1     -32.690   7.029   3.405  1.00 20.00     0.119 C 
HETATM    4 CL8  UNL     1     -32.565   8.728   2.864  1.00 20.00    -0.130 Cl
ENDBRANCH   2   3
BRANCH   2   5
HETATM    5  C7  UNL     1     -34.347   5.770   4.958  1.00 20.00    -0.047 C 
HETATM    6  C2  UNL     1     -33.866   4.492   4.236  1.00 20.00     0.015 C 
HETATM    7  C3  UNL     1     -35.668   6.199   4.281  1.00 20.00     0.015 C 
HETATM    8  C4  UNL     1     -34.653   5.409   6.424  1.00 20.00     0.015 C 
ENDBRANCH   2   5
TORSDOF 2
ENDMDL
MODEL 7
REMARK VINA RESULT:      -3.7      1.930      2.619
REMARK  2 active torsions:
REMARK  status: ('A' for Active; 'I' for Inactive)
REMARK    1  A    between atoms: C5_5  and  C6_6 
REMARK    2  A    between atoms: C6_6  and  C7_7 
ROOT
HETATM    1  C1  UNL     1     -32.834   8.315   4.843  1.00 20.00     0.012 C 
HETATM    2  C6  UNL     1     -33.012   6.824   4.503  1.00 20.00     0.002 C 
ENDROOT
BRANCH   2   3
HETATM    3  C5  UNL     1     -33.061   6.635   2.971  1.00 20.00     0.119 C 
HETATM    4 CL8  UNL     1     -32.767   4.940   2.487  1.00 20.00    -0.130 Cl
ENDBRANCH   2   3
BRANCH   2   5
HETATM    5  C7  UNL     1     -34.249   6.168   5.232  1.00 20.00    -0.047 C 
HETATM    6  C2  UNL     1     -34.499   6.858   6.591  1.00 20.00     0.015 C 
HETATM    7  C3  UNL     1     -33.979   4.676   5.528  1.00 20.00     0.015 C 
HETATM    8  C4  UNL     1     -35.540   6.266   4.397  1.00 20.00     0.015 C 
ENDBRANCH   2   5
TORSDOF 2
ENDMDL
MODEL 8
REMARK VINA RESULT:      -3.5      2.225      3.783
REMARK  2 active torsions:
REMARK  status: ('A' for Active; 'I' for Inactive)
REMARK    1  A    between atoms: C5_5  and  C6_6 
REMARK    2  A    between atoms: C6_6  and  C7_7 
ROOT
HETATM    1  C1  UNL     1     -33.876   7.436   6.206  1.00 20.00     0.012 C 
HETATM    2  C6  UNL     1     -34.025   7.394   4.673  1.00 20.00     0.002 C 
ENDROOT
BRANCH   2   3
HETATM    3  C5  UNL     1     -34.259   5.941   4.207  1.00 20.00     0.119 C 
HETATM    4 CL8  UNL     1     -34.555   4.829   5.575  1.00 20.00    -0.130 Cl
ENDBRANCH   2   3
BRANCH   2   5
HETATM    5  C7  UNL     1     -32.825   8.085   3.917  1.00 20.00    -0.047 C 
HETATM    6  C2  UNL     1     -31.867   8.754   4.928  1.00 20.00     0.015 C 
HETATM    7  C3  UNL     1     -33.340   9.201   2.981  1.00 20.00     0.015 C 
HETATM    8  C4  UNL     1     -32.012   7.086   3.071  1.00 20.00     0.015 C 
ENDBRANCH   2   5
TORSDOF 2
ENDMDL
MODEL 9
REMARK VINA RESULT:      -3.2     15.423     16.958
REMARK  2 active torsions:
REMARK  status: ('A' for Active; 'I' for Inactive)
REMARK    1  A    between atoms: C5_5  and  C6_6 
REMARK    2  A    between atoms: C6_6  and  C7_7 
ROOT
HETATM    1  C1  UNL     1     -24.335  16.527  11.042  1.00 20.00     0.012 C 
HETATM    2  C6  UNL     1     -23.191  17.533  11.269  1.00 20.00     0.002 C 
ENDROOT
BRANCH   2   3
HETATM    3  C5  UNL     1     -23.630  18.606  12.290  1.00 20.00     0.119 C 
HETATM    4 CL8  UNL     1     -25.404  18.819  12.331  1.00 20.00    -0.130 Cl
ENDBRANCH   2   3
BRANCH   2   5
HETATM    5  C7  UNL     1     -22.646  18.163   9.929  1.00 20.00    -0.047 C 
HETATM    6  C2  UNL     1     -22.360  17.053   8.893  1.00 20.00     0.015 C 
HETATM    7  C3  UNL     1     -21.312  18.901  10.176  1.00 20.00     0.015 C 
HETATM    8  C4  UNL     1     -23.640  19.160   9.303  1.00 20.00     0.015 C 
ENDBRANCH   2   5
TORSDOF 2
ENDMDL
