MODEL 1
REMARK VINA RESULT:      -4.2      0.000      0.000
REMARK  0 active torsions:
REMARK  status: ('A' for Active; 'I' for Inactive)
ROOT
HETATM    1  C1  UNL     1     -34.458   5.123   6.318  1.00 20.00     0.001 C 
HETATM    2  C2  UNL     1     -34.198   4.300   5.277  1.00 20.00     0.001 C 
HETATM    3  C3  UNL     1     -32.192   8.559   4.251  1.00 20.00     0.001 C 
HETATM    4  C4  UNL     1     -31.905   7.662   3.116  1.00 20.00     0.001 C 
HETATM    5  C5  UNL     1     -33.118   8.456   5.231  1.00 20.00     0.009 C 
HETATM    6  C6  UNL     1     -32.495   6.498   2.755  1.00 20.00     0.009 C 
HETATM    7  C7  UNL     1     -34.053   6.527   6.391  1.00 20.00     0.009 C 
HETATM    8  C8  UNL     1     -33.471   4.690   4.068  1.00 20.00     0.009 C 
HETATM    9  C9  UNL     1     -34.069   7.355   5.323  1.00 20.00    -0.039 C 
HETATM   10  C10 UNL     1     -33.609   5.903   3.487  1.00 20.00    -0.039 C 
HETATM   11  C11 UNL     1     -34.584   6.935   3.977  1.00 20.00     0.123 C 
HETATM   12 BR12 UNL     1     -36.446   6.381   3.948  1.00 20.00    -0.081 Br
ENDROOT
TORSDOF 0
ENDMDL
MODEL 2
REMARK VINA RESULT:      -4.2     12.547     13.814
REMARK  0 active torsions:
REMARK  status: ('A' for Active; 'I' for Inactive)
ROOT
HETATM    1  C1  UNL     1     -34.283  18.175  -1.684  1.00 20.00     0.001 C 
HETATM    2  C2  UNL     1     -35.354  18.704  -2.319  1.00 20.00     0.001 C 
HETATM    3  C3  UNL     1     -34.187  14.648  -4.645  1.00 20.00     0.001 C 
HETATM    4  C4  UNL     1     -35.356  15.223  -5.337  1.00 20.00     0.001 C 
HETATM    5  C5  UNL     1     -33.312  15.223  -3.789  1.00 20.00     0.009 C 
HETATM    6  C6  UNL     1     -35.861  16.478  -5.299  1.00 20.00     0.009 C 
HETATM    7  C7  UNL     1     -33.591  16.953  -2.094  1.00 20.00     0.009 C 
HETATM    8  C8  UNL     1     -35.980  18.133  -3.513  1.00 20.00     0.009 C 
HETATM    9  C9  UNL     1     -33.385  16.623  -3.389  1.00 20.00    -0.039 C 
HETATM   10  C10 UNL     1     -35.273  17.555  -4.509  1.00 20.00    -0.039 C 
HETATM   11  C11 UNL     1     -33.772  17.520  -4.528  1.00 20.00     0.123 C 
HETATM   12 BR12 UNL     1     -32.912  19.263  -4.528  1.00 20.00    -0.081 Br
ENDROOT
TORSDOF 0
ENDMDL
MODEL 3
REMARK VINA RESULT:      -4.1     12.865     14.546
REMARK  0 active torsions:
REMARK  status: ('A' for Active; 'I' for Inactive)
ROOT
HETATM    1  C1  UNL     1     -34.334  15.808  -7.658  1.00 20.00     0.001 C 
HETATM    2  C2  UNL     1     -34.447  17.151  -7.774  1.00 20.00     0.001 C 
HETATM    3  C3  UNL     1     -33.237  16.219  -3.204  1.00 20.00     0.001 C 
HETATM    4  C4  UNL     1     -33.357  17.684  -3.330  1.00 20.00     0.001 C 
HETATM    5  C5  UNL     1     -33.709  15.235  -4.002  1.00 20.00     0.009 C 
HETATM    6  C6  UNL     1     -33.972  18.430  -4.277  1.00 20.00     0.009 C 
HETATM    7  C7  UNL     1     -34.014  15.103  -6.417  1.00 20.00     0.009 C 
HETATM    8  C8  UNL     1     -34.264  18.100  -6.675  1.00 20.00     0.009 C 
HETATM    9  C9  UNL     1     -34.486  15.486  -5.210  1.00 20.00    -0.039 C 
HETATM   10  C10 UNL     1     -34.683  17.854  -5.414  1.00 20.00    -0.039 C 
HETATM   11  C11 UNL     1     -35.453  16.621  -5.038  1.00 20.00     0.123 C 
HETATM   12 BR12 UNL     1     -37.149  16.401  -5.961  1.00 20.00    -0.081 Br
ENDROOT
TORSDOF 0
ENDMDL
MODEL 4
REMARK VINA RESULT:      -4.1     12.834     13.971
REMARK  0 active torsions:
REMARK  status: ('A' for Active; 'I' for Inactive)
ROOT
HETATM    1  C1  UNL     1     -37.084  16.255  -5.653  1.00 20.00     0.001 C 
HETATM    2  C2  UNL     1     -36.285  15.178  -5.828  1.00 20.00     0.001 C 
HETATM    3  C3  UNL     1     -34.268  17.897  -2.398  1.00 20.00     0.001 C 
HETATM    4  C4  UNL     1     -33.397  16.721  -2.587  1.00 20.00     0.001 C 
HETATM    5  C5  UNL     1     -35.226  18.409  -3.204  1.00 20.00     0.009 C 
HETATM    6  C6  UNL     1     -33.326  15.845  -3.616  1.00 20.00     0.009 C 
HETATM    7  C7  UNL     1     -36.813  17.351  -4.722  1.00 20.00     0.009 C 
HETATM    8  C8  UNL     1     -35.030  14.947  -5.112  1.00 20.00     0.009 C 
HETATM    9  C9  UNL     1     -35.572  17.839  -4.501  1.00 20.00    -0.039 C 
HETATM   10  C10 UNL     1     -34.163  15.939  -4.808  1.00 20.00    -0.039 C 
HETATM   11  C11 UNL     1     -34.364  17.359  -5.251  1.00 20.00     0.123 C 
HETATM   12 BR12 UNL     1     -34.441  17.614  -7.176  1.00 20.00    -0.081 Br
ENDROOT
TORSDOF 0
ENDMDL
MODEL 5
REMARK VINA RESULT:      -3.9     12.756     14.116
REMARK  0 active torsions:
REMARK  status: ('A' for Active; 'I' for Inactive)
ROOT
HETATM    1  C1  UNL     1     -37.343  17.585  -5.137  1.00 20.00     0.001 C 
HETATM    2  C2  UNL     1     -37.414  16.380  -5.748  1.00 20.00     0.001 C 
HETATM    3  C3  UNL     1     -33.361  16.410  -3.141  1.00 20.00     0.001 C 
HETATM    4  C4  UNL     1     -33.439  15.096  -3.805  1.00 20.00     0.001 C 
HETATM    5  C5  UNL     1     -34.005  17.566  -3.420  1.00 20.00     0.009 C 
HETATM    6  C6  UNL     1     -34.174  14.699  -4.870  1.00 20.00     0.009 C 
HETATM    7  C7  UNL     1     -36.243  18.018  -4.274  1.00 20.00     0.009 C 
HETATM    8  C8  UNL     1     -36.401  15.329  -5.637  1.00 20.00     0.009 C 
HETATM    9  C9  UNL     1     -34.950  17.712  -4.521  1.00 20.00    -0.039 C 
HETATM   10  C10 UNL     1     -35.075  15.588  -5.598  1.00 20.00    -0.039 C 
HETATM   11  C11 UNL     1     -34.510  16.970  -5.749  1.00 20.00     0.123 C 
HETATM   12 BR12 UNL     1     -34.930  17.847  -7.431  1.00 20.00    -0.081 Br
ENDROOT
TORSDOF 0
ENDMDL
MODEL 6
REMARK VINA RESULT:      -3.7     10.215     11.335
REMARK  0 active torsions:
REMARK  status: ('A' for Active; 'I' for Inactive)
ROOT
HETATM    1  C1  UNL     1     -40.002  12.428   5.986  1.00 20.00     0.001 C 
HETATM    2  C2  UNL     1     -40.793  12.765   4.942  1.00 20.00     0.001 C 
HETATM    3  C3  UNL     1     -40.866  16.464   8.030  1.00 20.00     0.001 C 
HETATM    4  C4  UNL     1     -41.727  16.834   6.891  1.00 20.00     0.001 C 
HETATM    5  C5  UNL     1     -40.418  15.251   8.424  1.00 20.00     0.009 C 
HETATM    6  C6  UNL     1     -42.296  16.057   5.940  1.00 20.00     0.009 C 
HETATM    7  C7  UNL     1     -39.778  13.264   7.166  1.00 20.00     0.009 C 
HETATM    8  C8  UNL     1     -41.542  14.018   4.836  1.00 20.00     0.009 C 
HETATM    9  C9  UNL     1     -40.751  14.010   7.735  1.00 20.00    -0.039 C 
HETATM   10  C10 UNL     1     -42.145  14.606   5.894  1.00 20.00    -0.039 C 
HETATM   11  C11 UNL     1     -42.175  13.988   7.261  1.00 20.00     0.123 C 
HETATM   12 BR12 UNL     1     -43.043  12.252   7.356  1.00 20.00    -0.081 Br
ENDROOT
TORSDOF 0
ENDMDL
MODEL 7
REMARK VINA RESULT:      -3.6     12.938     14.139
REMARK  0 active torsions:
REMARK  status: ('A' for Active; 'I' for Inactive)
ROOT
HETATM    1  C1  UNL     1     -36.054  17.224  -5.130  1.00 20.00     0.001 C 
HETATM    2  C2  UNL     1     -35.027  16.345  -5.176  1.00 20.00     0.001 C 
HETATM    3  C3  UNL     1     -34.696  18.693  -0.980  1.00 20.00     0.001 C 
HETATM    4  C4  UNL     1     -33.577  17.732  -1.029  1.00 20.00     0.001 C 
HETATM    5  C5  UNL     1     -35.472  19.176  -1.977  1.00 20.00     0.009 C 
HETATM    6  C6  UNL     1     -33.031  17.082  -2.083  1.00 20.00     0.009 C 
HETATM    7  C7  UNL     1     -36.299  18.162  -4.034  1.00 20.00     0.009 C 
HETATM    8  C8  UNL     1     -34.007  16.200  -4.135  1.00 20.00     0.009 C 
HETATM    9  C9  UNL     1     -35.306  18.801  -3.376  1.00 20.00    -0.039 C 
HETATM   10  C10 UNL     1     -33.496  17.251  -3.456  1.00 20.00    -0.039 C 
HETATM   11  C11 UNL     1     -33.861  18.674  -3.762  1.00 20.00     0.123 C 
HETATM   12 BR12 UNL     1     -33.441  19.258  -5.568  1.00 20.00    -0.081 Br
ENDROOT
TORSDOF 0
ENDMDL
MODEL 8
REMARK VINA RESULT:      -3.6     12.702     14.092
REMARK  0 active torsions:
REMARK  status: ('A' for Active; 'I' for Inactive)
ROOT
HETATM    1  C1  UNL     1     -34.677  14.025  -4.576  1.00 20.00     0.001 C 
HETATM    2  C2  UNL     1     -33.720  14.898  -4.185  1.00 20.00     0.001 C 
HETATM    3  C3  UNL     1     -37.740  17.446  -4.938  1.00 20.00     0.001 C 
HETATM    4  C4  UNL     1     -36.698  18.398  -4.509  1.00 20.00     0.001 C 
HETATM    5  C5  UNL     1     -37.625  16.189  -5.422  1.00 20.00     0.009 C 
HETATM    6  C6  UNL     1     -35.351  18.265  -4.489  1.00 20.00     0.009 C 
HETATM    7  C7  UNL     1     -36.044  14.397  -4.940  1.00 20.00     0.009 C 
HETATM    8  C8  UNL     1     -33.910  16.344  -4.067  1.00 20.00     0.009 C 
HETATM    9  C9  UNL     1     -36.344  15.522  -5.625  1.00 20.00    -0.039 C 
HETATM   10  C10 UNL     1     -34.657  17.061  -4.935  1.00 20.00    -0.039 C 
HETATM   11  C11 UNL     1     -35.294  16.456  -6.153  1.00 20.00     0.123 C 
HETATM   12 BR12 UNL     1     -34.052  15.663  -7.419  1.00 20.00    -0.081 Br
ENDROOT
TORSDOF 0
ENDMDL
MODEL 9
REMARK VINA RESULT:      -3.6     10.645     11.679
REMARK  0 active torsions:
REMARK  status: ('A' for Active; 'I' for Inactive)
ROOT
HETATM    1  C1  UNL     1     -40.013  12.871   6.595  1.00 20.00     0.001 C 
HETATM    2  C2  UNL     1     -40.503  12.720   5.344  1.00 20.00     0.001 C 
HETATM    3  C3  UNL     1     -42.193  16.904   7.035  1.00 20.00     0.001 C 
HETATM    4  C4  UNL     1     -42.727  16.742   5.669  1.00 20.00     0.001 C 
HETATM    5  C5  UNL     1     -41.664  15.988   7.877  1.00 20.00     0.009 C 
HETATM    6  C6  UNL     1     -42.828  15.634   4.899  1.00 20.00     0.009 C 
HETATM    7  C7  UNL     1     -40.314  13.998   7.478  1.00 20.00     0.009 C 
HETATM    8  C8  UNL     1     -41.408  13.663   4.685  1.00 20.00     0.009 C 
HETATM    9  C9  UNL     1     -41.535  14.574   7.546  1.00 20.00    -0.039 C 
HETATM   10  C10 UNL     1     -42.399  14.310   5.339  1.00 20.00    -0.039 C 
HETATM   11  C11 UNL     1     -42.721  14.059   6.784  1.00 20.00     0.123 C 
HETATM   12 BR12 UNL     1     -43.234  12.232   7.203  1.00 20.00    -0.081 Br
ENDROOT
TORSDOF 0
ENDMDL
