MODEL 1
REMARK VINA RESULT:      -5.3      0.000      0.000
REMARK  2 active torsions:
REMARK  status: ('A' for Active; 'I' for Inactive)
REMARK    1  A    between atoms: C3_3  and  C4_4 
REMARK    2  A    between atoms: C3_3  and  C5_5 
ROOT
HETATM    1  C3  UNL     1     -33.912   6.970   4.288  1.00 20.00     0.157 C 
ENDROOT
BRANCH   1   2
HETATM    2  C4  UNL     1     -33.325   7.906   5.340  1.00 20.00     0.245 C 
HETATM    3  C1  UNL     1     -32.204   8.768   4.795  1.00 20.00     0.090 C 
HETATM    4  F6  UNL     1     -32.849   7.184   6.385  1.00 20.00    -0.207 F 
HETATM    5  F7  UNL     1     -34.297   8.715   5.831  1.00 20.00    -0.207 F 
ENDBRANCH   1   2
BRANCH   1   6
HETATM    6  C5  UNL     1     -34.838   5.922   4.896  1.00 20.00     0.245 C 
HETATM    7  C2  UNL     1     -34.299   4.513   4.754  1.00 20.00     0.090 C 
HETATM    8  F8  UNL     1     -35.028   6.184   6.213  1.00 20.00    -0.207 F 
HETATM    9  F9  UNL     1     -36.056   5.984   4.303  1.00 20.00    -0.207 F 
ENDBRANCH   1   6
TORSDOF 2
ENDMDL
MODEL 2
REMARK VINA RESULT:      -5.2      1.088      3.383
REMARK  2 active torsions:
REMARK  status: ('A' for Active; 'I' for Inactive)
REMARK    1  A    between atoms: C3_3  and  C4_4 
REMARK    2  A    between atoms: C3_3  and  C5_5 
ROOT
HETATM    1  C3  UNL     1     -33.491   6.303   4.146  1.00 20.00     0.157 C 
ENDROOT
BRANCH   1   2
HETATM    2  C4  UNL     1     -34.610   5.464   4.757  1.00 20.00     0.245 C 
HETATM    3  C1  UNL     1     -34.595   5.485   6.272  1.00 20.00     0.090 C 
HETATM    4  F6  UNL     1     -34.502   4.179   4.338  1.00 20.00    -0.207 F 
HETATM    5  F7  UNL     1     -35.813   5.919   4.326  1.00 20.00    -0.207 F 
ENDBRANCH   1   2
BRANCH   1   6
HETATM    6  C5  UNL     1     -33.297   7.630   4.874  1.00 20.00     0.245 C 
HETATM    7  C2  UNL     1     -32.229   8.495   4.237  1.00 20.00     0.090 C 
HETATM    8  F8  UNL     1     -34.464   8.321   4.890  1.00 20.00    -0.207 F 
HETATM    9  F9  UNL     1     -32.959   7.400   6.167  1.00 20.00    -0.207 F 
ENDBRANCH   1   6
TORSDOF 2
ENDMDL
MODEL 3
REMARK VINA RESULT:      -5.2      1.089      1.335
REMARK  2 active torsions:
REMARK  status: ('A' for Active; 'I' for Inactive)
REMARK    1  A    between atoms: C3_3  and  C4_4 
REMARK    2  A    between atoms: C3_3  and  C5_5 
ROOT
HETATM    1  C3  UNL     1     -33.490   6.302   4.147  1.00 20.00     0.157 C 
ENDROOT
BRANCH   1   2
HETATM    2  C4  UNL     1     -33.297   7.630   4.873  1.00 20.00     0.245 C 
HETATM    3  C1  UNL     1     -32.228   8.494   4.236  1.00 20.00     0.090 C 
HETATM    4  F6  UNL     1     -32.960   7.402   6.167  1.00 20.00    -0.207 F 
HETATM    5  F7  UNL     1     -34.465   8.320   4.887  1.00 20.00    -0.207 F 
ENDBRANCH   1   2
BRANCH   1   6
HETATM    6  C5  UNL     1     -34.609   5.464   4.757  1.00 20.00     0.245 C 
HETATM    7  C2  UNL     1     -34.595   5.484   6.271  1.00 20.00     0.090 C 
HETATM    8  F8  UNL     1     -35.812   5.918   4.326  1.00 20.00    -0.207 F 
HETATM    9  F9  UNL     1     -34.502   4.178   4.337  1.00 20.00    -0.207 F 
ENDBRANCH   1   6
TORSDOF 2
ENDMDL
MODEL 4
REMARK VINA RESULT:      -5.1      1.303      1.637
REMARK  2 active torsions:
REMARK  status: ('A' for Active; 'I' for Inactive)
REMARK    1  A    between atoms: C3_3  and  C4_4 
REMARK    2  A    between atoms: C3_3  and  C5_5 
ROOT
HETATM    1  C3  UNL     1     -33.737   6.807   5.772  1.00 20.00     0.157 C 
ENDROOT
BRANCH   1   2
HETATM    2  C4  UNL     1     -33.378   7.673   4.569  1.00 20.00     0.245 C 
HETATM    3  C1  UNL     1     -32.278   8.670   4.873  1.00 20.00     0.090 C 
HETATM    4  F6  UNL     1     -34.474   8.350   4.146  1.00 20.00    -0.207 F 
HETATM    5  F7  UNL     1     -32.979   6.886   3.538  1.00 20.00    -0.207 F 
ENDBRANCH   1   2
BRANCH   1   6
HETATM    6  C5  UNL     1     -34.717   5.694   5.415  1.00 20.00     0.245 C 
HETATM    7  C2  UNL     1     -34.060   4.553   4.667  1.00 20.00     0.090 C 
HETATM    8  F8  UNL     1     -35.287   5.203   6.544  1.00 20.00    -0.207 F 
HETATM    9  F9  UNL     1     -35.723   6.194   4.654  1.00 20.00    -0.207 F 
ENDBRANCH   1   6
TORSDOF 2
ENDMDL
MODEL 5
REMARK VINA RESULT:      -5.1      1.301      3.384
REMARK  2 active torsions:
REMARK  status: ('A' for Active; 'I' for Inactive)
REMARK    1  A    between atoms: C3_3  and  C4_4 
REMARK    2  A    between atoms: C3_3  and  C5_5 
ROOT
HETATM    1  C3  UNL     1     -33.719   6.803   5.768  1.00 20.00     0.157 C 
ENDROOT
BRANCH   1   2
HETATM    2  C4  UNL     1     -34.711   5.699   5.414  1.00 20.00     0.245 C 
HETATM    3  C1  UNL     1     -34.064   4.548   4.671  1.00 20.00     0.090 C 
HETATM    4  F6  UNL     1     -35.709   6.206   4.648  1.00 20.00    -0.207 F 
HETATM    5  F7  UNL     1     -35.288   5.219   6.544  1.00 20.00    -0.207 F 
ENDBRANCH   1   2
BRANCH   1   6
HETATM    6  C5  UNL     1     -33.370   7.677   4.568  1.00 20.00     0.245 C 
HETATM    7  C2  UNL     1     -32.276   8.679   4.873  1.00 20.00     0.090 C 
HETATM    8  F8  UNL     1     -32.969   6.898   3.532  1.00 20.00    -0.207 F 
HETATM    9  F9  UNL     1     -34.472   8.348   4.151  1.00 20.00    -0.207 F 
ENDBRANCH   1   6
TORSDOF 2
ENDMDL
MODEL 6
REMARK VINA RESULT:      -4.7      1.638      3.259
REMARK  2 active torsions:
REMARK  status: ('A' for Active; 'I' for Inactive)
REMARK    1  A    between atoms: C3_3  and  C4_4 
REMARK    2  A    between atoms: C3_3  and  C5_5 
ROOT
HETATM    1  C3  UNL     1     -34.023   7.964   4.885  1.00 20.00     0.157 C 
ENDROOT
BRANCH   1   2
HETATM    2  C4  UNL     1     -34.042   6.926   6.002  1.00 20.00     0.245 C 
HETATM    3  C1  UNL     1     -34.713   5.632   5.588  1.00 20.00     0.090 C 
HETATM    4  F6  UNL     1     -34.691   7.425   7.084  1.00 20.00    -0.207 F 
HETATM    5  F7  UNL     1     -32.773   6.651   6.397  1.00 20.00    -0.207 F 
ENDBRANCH   1   2
BRANCH   1   6
HETATM    6  C5  UNL     1     -32.730   7.922   4.076  1.00 20.00     0.245 C 
HETATM    7  C2  UNL     1     -32.763   8.842   2.873  1.00 20.00     0.090 C 
HETATM    8  F8  UNL     1     -31.683   8.273   4.864  1.00 20.00    -0.207 F 
HETATM    9  F9  UNL     1     -32.493   6.656   3.650  1.00 20.00    -0.207 F 
ENDBRANCH   1   6
TORSDOF 2
ENDMDL
MODEL 7
REMARK VINA RESULT:      -4.7      1.603      3.352
REMARK  2 active torsions:
REMARK  status: ('A' for Active; 'I' for Inactive)
REMARK    1  A    between atoms: C3_3  and  C4_4 
REMARK    2  A    between atoms: C3_3  and  C5_5 
ROOT
HETATM    1  C3  UNL     1     -33.749   6.913   5.965  1.00 20.00     0.157 C 
ENDROOT
BRANCH   1   2
HETATM    2  C4  UNL     1     -34.569   5.653   5.710  1.00 20.00     0.245 C 
HETATM    3  C1  UNL     1     -35.537   5.809   4.554  1.00 20.00     0.090 C 
HETATM    4  F6  UNL     1     -35.272   5.326   6.824  1.00 20.00    -0.207 F 
HETATM    5  F7  UNL     1     -33.742   4.610   5.447  1.00 20.00    -0.207 F 
ENDBRANCH   1   2
BRANCH   1   6
HETATM    6  C5  UNL     1     -33.343   7.614   4.672  1.00 20.00     0.245 C 
HETATM    7  C2  UNL     1     -32.199   8.587   4.869  1.00 20.00     0.090 C 
HETATM    8  F8  UNL     1     -32.977   6.693   3.745  1.00 20.00    -0.207 F 
HETATM    9  F9  UNL     1     -34.404   8.286   4.160  1.00 20.00    -0.207 F 
ENDBRANCH   1   6
TORSDOF 2
ENDMDL
MODEL 8
REMARK VINA RESULT:      -4.7      1.639      2.241
REMARK  2 active torsions:
REMARK  status: ('A' for Active; 'I' for Inactive)
REMARK    1  A    between atoms: C3_3  and  C4_4 
REMARK    2  A    between atoms: C3_3  and  C5_5 
ROOT
HETATM    1  C3  UNL     1     -34.014   7.966   4.878  1.00 20.00     0.157 C 
ENDROOT
BRANCH   1   2
HETATM    2  C4  UNL     1     -32.721   7.922   4.070  1.00 20.00     0.245 C 
HETATM    3  C1  UNL     1     -32.751   8.841   2.866  1.00 20.00     0.090 C 
HETATM    4  F6  UNL     1     -32.486   6.655   3.645  1.00 20.00    -0.207 F 
HETATM    5  F7  UNL     1     -31.674   8.272   4.859  1.00 20.00    -0.207 F 
ENDBRANCH   1   2
BRANCH   1   6
HETATM    6  C5  UNL     1     -34.040   6.925   5.992  1.00 20.00     0.245 C 
HETATM    7  C2  UNL     1     -34.715   5.636   5.572  1.00 20.00     0.090 C 
HETATM    8  F8  UNL     1     -32.773   6.644   6.388  1.00 20.00    -0.207 F 
HETATM    9  F9  UNL     1     -34.687   7.424   7.074  1.00 20.00    -0.207 F 
ENDBRANCH   1   6
TORSDOF 2
ENDMDL
MODEL 9
REMARK VINA RESULT:      -4.5      2.216      2.951
REMARK  2 active torsions:
REMARK  status: ('A' for Active; 'I' for Inactive)
REMARK    1  A    between atoms: C3_3  and  C4_4 
REMARK    2  A    between atoms: C3_3  and  C5_5 
ROOT
HETATM    1  C3  UNL     1     -33.577   6.543   4.300  1.00 20.00     0.157 C 
ENDROOT
BRANCH   1   2
HETATM    2  C4  UNL     1     -32.930   6.124   2.984  1.00 20.00     0.245 C 
HETATM    3  C1  UNL     1     -32.139   7.244   2.339  1.00 20.00     0.090 C 
HETATM    4  F6  UNL     1     -33.884   5.708   2.114  1.00 20.00    -0.207 F 
HETATM    5  F7  UNL     1     -32.102   5.070   3.193  1.00 20.00    -0.207 F 
ENDBRANCH   1   2
BRANCH   1   6
HETATM    6  C5  UNL     1     -34.588   5.517   4.802  1.00 20.00     0.245 C 
HETATM    7  C2  UNL     1     -34.673   5.471   6.314  1.00 20.00     0.090 C 
HETATM    8  F8  UNL     1     -35.818   5.802   4.306  1.00 20.00    -0.207 F 
HETATM    9  F9  UNL     1     -34.258   4.283   4.346  1.00 20.00    -0.207 F 
ENDBRANCH   1   6
TORSDOF 2
ENDMDL
