MODEL 1
REMARK VINA RESULT:      -4.0      0.000      0.000
REMARK  2 active torsions:
REMARK  status: ('A' for Active; 'I' for Inactive)
REMARK    1  A    between atoms: C3_3  and  O10_10 
REMARK    2  A    between atoms: C8_8  and  O10_10 
ROOT
HETATM    1  C1  UNL     1     -33.929   7.290   6.314  1.00 20.00     0.069 C 
HETATM    2  C2  UNL     1     -33.973   5.759   6.104  1.00 20.00     0.173 C 
HETATM    3  C3  UNL     1     -33.789   7.484   4.787  1.00 20.00     0.134 C 
HETATM    4  C4  UNL     1     -34.309   6.015   4.595  1.00 20.00     0.008 C 
HETATM    5  C5  UNL     1     -35.814   6.005   4.273  1.00 20.00     0.020 C 
HETATM    6  C6  UNL     1     -33.572   5.063   3.649  1.00 20.00     0.020 C 
HETATM    7  O9  UNL     1     -34.955   5.039   6.871  1.00 20.00    -0.234 OA
ENDROOT
BRANCH   3   8
HETATM    8  O10 UNL     1     -32.455   7.704   4.395  1.00 20.00    -0.385 OA
BRANCH   8   9
HETATM    9  C8  UNL     1     -32.384   8.666   3.361  1.00 20.00     0.163 C 
HETATM   10  C7  UNL     1     -32.204   7.957   2.037  1.00 20.00     0.033 C 
ENDBRANCH   8   9
ENDBRANCH   3   8
TORSDOF 2
ENDMDL
MODEL 2
REMARK VINA RESULT:      -3.6     12.853     13.973
REMARK  2 active torsions:
REMARK  status: ('A' for Active; 'I' for Inactive)
REMARK    1  A    between atoms: C3_3  and  O10_10 
REMARK    2  A    between atoms: C8_8  and  O10_10 
ROOT
HETATM    1  C1  UNL     1     -34.120  15.301  -6.700  1.00 20.00     0.069 C 
HETATM    2  C2  UNL     1     -35.615  15.334  -7.092  1.00 20.00     0.173 C 
HETATM    3  C3  UNL     1     -34.490  15.819  -5.291  1.00 20.00     0.134 C 
HETATM    4  C4  UNL     1     -35.974  15.387  -5.569  1.00 20.00     0.008 C 
HETATM    5  C5  UNL     1     -36.269  14.013  -4.941  1.00 20.00     0.020 C 
HETATM    6  C6  UNL     1     -37.120  16.353  -5.258  1.00 20.00     0.020 C 
HETATM    7  O9  UNL     1     -36.104  14.200  -7.832  1.00 20.00    -0.234 OA
ENDROOT
BRANCH   3   8
HETATM    8  O10 UNL     1     -34.284  17.206  -5.161  1.00 20.00    -0.385 OA
BRANCH   8   9
HETATM    9  C8  UNL     1     -33.706  17.515  -3.907  1.00 20.00     0.163 C 
HETATM   10  C7  UNL     1     -33.353  16.228  -3.194  1.00 20.00     0.033 C 
ENDBRANCH   8   9
ENDBRANCH   3   8
TORSDOF 2
ENDMDL
MODEL 3
REMARK VINA RESULT:      -3.6      9.810     10.522
REMARK  2 active torsions:
REMARK  status: ('A' for Active; 'I' for Inactive)
REMARK    1  A    between atoms: C3_3  and  O10_10 
REMARK    2  A    between atoms: C8_8  and  O10_10 
ROOT
HETATM    1  C1  UNL     1     -40.472  14.751   7.471  1.00 20.00     0.069 C 
HETATM    2  C2  UNL     1     -41.870  14.383   8.021  1.00 20.00     0.173 C 
HETATM    3  C3  UNL     1     -40.559  13.562   6.486  1.00 20.00     0.134 C 
HETATM    4  C4  UNL     1     -42.110  13.530   6.729  1.00 20.00     0.008 C 
HETATM    5  C5  UNL     1     -42.855  14.277   5.608  1.00 20.00     0.020 C 
HETATM    6  C6  UNL     1     -42.810  12.198   7.014  1.00 20.00     0.020 C 
HETATM    7  O9  UNL     1     -42.773  15.480   8.248  1.00 20.00    -0.234 OA
ENDROOT
BRANCH   3   8
HETATM    8  O10 UNL     1     -39.857  12.433   6.948  1.00 20.00    -0.385 OA
BRANCH   8   9
HETATM    9  C8  UNL     1     -38.877  12.029   6.011  1.00 20.00     0.163 C 
HETATM   10  C7  UNL     1     -39.532  11.845   4.659  1.00 20.00     0.033 C 
ENDBRANCH   8   9
ENDBRANCH   3   8
TORSDOF 2
ENDMDL
MODEL 4
REMARK VINA RESULT:      -3.3     12.644     13.934
REMARK  2 active torsions:
REMARK  status: ('A' for Active; 'I' for Inactive)
REMARK    1  A    between atoms: C3_3  and  O10_10 
REMARK    2  A    between atoms: C8_8  and  O10_10 
ROOT
HETATM    1  C1  UNL     1     -36.106  16.598  -6.108  1.00 20.00     0.069 C 
HETATM    2  C2  UNL     1     -35.884  15.072  -5.994  1.00 20.00     0.173 C 
HETATM    3  C3  UNL     1     -34.732  16.836  -5.440  1.00 20.00     0.134 C 
HETATM    4  C4  UNL     1     -34.358  15.349  -5.779  1.00 20.00     0.008 C 
HETATM    5  C5  UNL     1     -33.515  15.277  -7.065  1.00 20.00     0.020 C 
HETATM    6  C6  UNL     1     -33.735  14.456  -4.703  1.00 20.00     0.020 C 
HETATM    7  O9  UNL     1     -36.242  14.289  -7.147  1.00 20.00    -0.234 OA
ENDROOT
BRANCH   3   8
HETATM    8  O10 UNL     1     -34.849  17.127  -4.068  1.00 20.00    -0.385 OA
BRANCH   8   9
HETATM    9  C8  UNL     1     -33.758  17.910  -3.623  1.00 20.00     0.163 C 
HETATM   10  C7  UNL     1     -33.198  17.303  -2.355  1.00 20.00     0.033 C 
ENDBRANCH   8   9
ENDBRANCH   3   8
TORSDOF 2
ENDMDL
MODEL 5
REMARK VINA RESULT:      -3.3     12.627     13.974
REMARK  2 active torsions:
REMARK  status: ('A' for Active; 'I' for Inactive)
REMARK    1  A    between atoms: C3_3  and  O10_10 
REMARK    2  A    between atoms: C8_8  and  O10_10 
ROOT
HETATM    1  C1  UNL     1     -34.727  14.689  -4.880  1.00 20.00     0.069 C 
HETATM    2  C2  UNL     1     -34.969  15.066  -6.359  1.00 20.00     0.173 C 
HETATM    3  C3  UNL     1     -34.683  16.191  -4.516  1.00 20.00     0.134 C 
HETATM    4  C4  UNL     1     -35.386  16.499  -5.886  1.00 20.00     0.008 C 
HETATM    5  C5  UNL     1     -36.902  16.684  -5.692  1.00 20.00     0.020 C 
HETATM    6  C6  UNL     1     -34.843  17.609  -6.789  1.00 20.00     0.020 C 
HETATM    7  O9  UNL     1     -35.968  14.300  -7.057  1.00 20.00    -0.234 OA
ENDROOT
BRANCH   3   8
HETATM    8  O10 UNL     1     -33.366  16.674  -4.397  1.00 20.00    -0.385 OA
BRANCH   8   9
HETATM    9  C8  UNL     1     -33.262  17.600  -3.333  1.00 20.00     0.163 C 
HETATM   10  C7  UNL     1     -33.482  16.875  -2.023  1.00 20.00     0.033 C 
ENDBRANCH   8   9
ENDBRANCH   3   8
TORSDOF 2
ENDMDL
MODEL 6
REMARK VINA RESULT:      -3.1     10.159     10.941
REMARK  2 active torsions:
REMARK  status: ('A' for Active; 'I' for Inactive)
REMARK    1  A    between atoms: C3_3  and  O10_10 
REMARK    2  A    between atoms: C8_8  and  O10_10 
ROOT
HETATM    1  C1  UNL     1     -42.158  13.959   5.694  1.00 20.00     0.069 C 
HETATM    2  C2  UNL     1     -42.135  15.200   6.616  1.00 20.00     0.173 C 
HETATM    3  C3  UNL     1     -41.155  13.255   6.636  1.00 20.00     0.134 C 
HETATM    4  C4  UNL     1     -41.527  14.301   7.746  1.00 20.00     0.008 C 
HETATM    5  C5  UNL     1     -42.569  13.719   8.718  1.00 20.00     0.020 C 
HETATM    6  C6  UNL     1     -40.419  15.002   8.537  1.00 20.00     0.020 C 
HETATM    7  O9  UNL     1     -43.408  15.812   6.893  1.00 20.00    -0.234 OA
ENDROOT
BRANCH   3   8
HETATM    8  O10 UNL     1     -39.832  13.331   6.161  1.00 20.00    -0.385 OA
BRANCH   8   9
HETATM    9  C8  UNL     1     -39.284  12.039   5.982  1.00 20.00     0.163 C 
HETATM   10  C7  UNL     1     -39.247  11.718   4.504  1.00 20.00     0.033 C 
ENDBRANCH   8   9
ENDBRANCH   3   8
TORSDOF 2
ENDMDL
MODEL 7
REMARK VINA RESULT:      -3.1     12.348     13.706
REMARK  2 active torsions:
REMARK  status: ('A' for Active; 'I' for Inactive)
REMARK    1  A    between atoms: C3_3  and  O10_10 
REMARK    2  A    between atoms: C8_8  and  O10_10 
ROOT
HETATM    1  C1  UNL     1     -33.700  16.089  -3.534  1.00 20.00     0.069 C 
HETATM    2  C2  UNL     1     -33.236  15.067  -4.597  1.00 20.00     0.173 C 
HETATM    3  C3  UNL     1     -34.639  16.733  -4.579  1.00 20.00     0.134 C 
HETATM    4  C4  UNL     1     -34.505  15.428  -5.441  1.00 20.00     0.008 C 
HETATM    5  C5  UNL     1     -35.705  14.493  -5.208  1.00 20.00     0.020 C 
HETATM    6  C6  UNL     1     -34.215  15.530  -6.941  1.00 20.00     0.020 C 
HETATM    7  O9  UNL     1     -33.119  13.701  -4.159  1.00 20.00    -0.234 OA
ENDROOT
BRANCH   3   8
HETATM    8  O10 UNL     1     -34.083  17.891  -5.156  1.00 20.00    -0.385 OA
BRANCH   8   9
HETATM    9  C8  UNL     1     -35.038  18.932  -5.220  1.00 20.00     0.163 C 
HETATM   10  C7  UNL     1     -36.332  18.455  -4.598  1.00 20.00     0.033 C 
ENDBRANCH   8   9
ENDBRANCH   3   8
TORSDOF 2
ENDMDL
MODEL 8
REMARK VINA RESULT:      -3.0     13.041     14.371
REMARK  2 active torsions:
REMARK  status: ('A' for Active; 'I' for Inactive)
REMARK    1  A    between atoms: C3_3  and  O10_10 
REMARK    2  A    between atoms: C8_8  and  O10_10 
ROOT
HETATM    1  C1  UNL     1     -34.554  17.075  -6.595  1.00 20.00     0.069 C 
HETATM    2  C2  UNL     1     -34.671  15.574  -6.947  1.00 20.00     0.173 C 
HETATM    3  C3  UNL     1     -35.245  16.799  -5.239  1.00 20.00     0.134 C 
HETATM    4  C4  UNL     1     -34.911  15.276  -5.428  1.00 20.00     0.008 C 
HETATM    5  C5  UNL     1     -33.639  14.895  -4.650  1.00 20.00     0.020 C 
HETATM    6  C6  UNL     1     -35.996  14.223  -5.190  1.00 20.00     0.020 C 
HETATM    7  O9  UNL     1     -33.511  14.969  -7.548  1.00 20.00    -0.234 OA
ENDROOT
BRANCH   3   8
HETATM    8  O10 UNL     1     -36.615  17.119  -5.262  1.00 20.00    -0.385 OA
BRANCH   8   9
HETATM    9  C8  UNL     1     -36.915  18.125  -4.314  1.00 20.00     0.163 C 
HETATM   10  C7  UNL     1     -35.687  18.392  -3.471  1.00 20.00     0.033 C 
ENDBRANCH   8   9
ENDBRANCH   3   8
TORSDOF 2
ENDMDL
MODEL 9
REMARK VINA RESULT:      -3.0     12.140     13.326
REMARK  2 active torsions:
REMARK  status: ('A' for Active; 'I' for Inactive)
REMARK    1  A    between atoms: C3_3  and  O10_10 
REMARK    2  A    between atoms: C8_8  and  O10_10 
ROOT
HETATM    1  C1  UNL     1     -26.623  -0.521  11.706  1.00 20.00     0.069 C 
HETATM    2  C2  UNL     1     -27.800  -1.365  12.247  1.00 20.00     0.173 C 
HETATM    3  C3  UNL     1     -26.025  -1.790  11.058  1.00 20.00     0.134 C 
HETATM    4  C4  UNL     1     -27.429  -2.477  11.208  1.00 20.00     0.008 C 
HETATM    5  C5  UNL     1     -28.219  -2.398   9.890  1.00 20.00     0.020 C 
HETATM    6  C6  UNL     1     -27.529  -3.891  11.785  1.00 20.00     0.020 C 
HETATM    7  O9  UNL     1     -29.110  -0.781  12.128  1.00 20.00    -0.234 OA
ENDROOT
BRANCH   3   8
HETATM    8  O10 UNL     1     -24.996  -2.354  11.837  1.00 20.00    -0.385 OA
BRANCH   8   9
HETATM    9  C8  UNL     1     -23.819  -2.525  11.072  1.00 20.00     0.163 C 
HETATM   10  C7  UNL     1     -24.175  -3.188   9.759  1.00 20.00     0.033 C 
ENDBRANCH   8   9
ENDBRANCH   3   8
TORSDOF 2
ENDMDL
