MODEL 1
REMARK VINA RESULT:      -4.1      0.000      0.000
REMARK  1 active torsions:
REMARK  status: ('A' for Active; 'I' for Inactive)
REMARK    1  A    between atoms: C4_4  and  C9_9 
ROOT
HETATM    1  C1  UNL     1     -30.436  18.689   1.901  1.00 20.00     0.017 C 
HETATM    2  C2  UNL     1     -30.954  18.573   0.824  1.00 20.00    -0.089 C 
HETATM    3  C3  UNL     1     -31.547  18.439  -0.464  1.00 20.00     0.066 C 
HETATM    4  C4  UNL     1     -32.863  18.231  -0.684  1.00 20.00    -0.068 C 
HETATM    5  C5  UNL     1     -33.847  18.105   0.465  1.00 20.00     0.044 C 
ENDROOT
BRANCH   4   6
HETATM    6  C9  UNL     1     -33.464  18.103  -2.111  1.00 20.00    -0.028 C 
HETATM    7  C6  UNL     1     -34.947  18.534  -2.110  1.00 20.00     0.019 C 
HETATM    8  C7  UNL     1     -32.750  18.972  -3.174  1.00 20.00     0.019 C 
HETATM    9  C8  UNL     1     -33.368  16.638  -2.587  1.00 20.00     0.019 C 
ENDBRANCH   4   6
TORSDOF 1
ENDMDL
MODEL 2
REMARK VINA RESULT:      -4.1     12.255     13.149
REMARK  1 active torsions:
REMARK  status: ('A' for Active; 'I' for Inactive)
REMARK    1  A    between atoms: C4_4  and  C9_9 
ROOT
HETATM    1  C1  UNL     1     -31.799   9.839   4.836  1.00 20.00     0.017 C 
HETATM    2  C2  UNL     1     -32.531   8.908   5.036  1.00 20.00    -0.089 C 
HETATM    3  C3  UNL     1     -33.406   7.815   5.295  1.00 20.00     0.066 C 
HETATM    4  C4  UNL     1     -33.532   6.729   4.501  1.00 20.00    -0.068 C 
HETATM    5  C5  UNL     1     -32.731   6.589   3.220  1.00 20.00     0.044 C 
ENDROOT
BRANCH   4   6
HETATM    6  C9  UNL     1     -34.494   5.555   4.834  1.00 20.00    -0.028 C 
HETATM    7  C6  UNL     1     -33.965   4.239   4.225  1.00 20.00     0.019 C 
HETATM    8  C7  UNL     1     -34.676   5.302   6.350  1.00 20.00     0.019 C 
HETATM    9  C8  UNL     1     -35.893   5.850   4.254  1.00 20.00     0.019 C 
ENDBRANCH   4   6
TORSDOF 1
ENDMDL
MODEL 3
REMARK VINA RESULT:      -4.1     12.240     13.092
REMARK  1 active torsions:
REMARK  status: ('A' for Active; 'I' for Inactive)
REMARK    1  A    between atoms: C4_4  and  C9_9 
ROOT
HETATM    1  C1  UNL     1     -31.800   9.869   4.842  1.00 20.00     0.017 C 
HETATM    2  C2  UNL     1     -32.524   8.933   5.048  1.00 20.00    -0.089 C 
HETATM    3  C3  UNL     1     -33.389   7.833   5.312  1.00 20.00     0.066 C 
HETATM    4  C4  UNL     1     -33.526   6.755   4.510  1.00 20.00    -0.068 C 
HETATM    5  C5  UNL     1     -32.751   6.632   3.211  1.00 20.00     0.044 C 
ENDROOT
BRANCH   4   6
HETATM    6  C9  UNL     1     -34.475   5.573   4.849  1.00 20.00    -0.028 C 
HETATM    7  C6  UNL     1     -35.879   5.824   4.257  1.00 20.00     0.019 C 
HETATM    8  C7  UNL     1     -33.999   4.207   4.299  1.00 20.00     0.019 C 
HETATM    9  C8  UNL     1     -34.596   5.426   6.380  1.00 20.00     0.019 C 
ENDBRANCH   4   6
TORSDOF 1
ENDMDL
MODEL 4
REMARK VINA RESULT:      -3.9     12.088     13.099
REMARK  1 active torsions:
REMARK  status: ('A' for Active; 'I' for Inactive)
REMARK    1  A    between atoms: C4_4  and  C9_9 
ROOT
HETATM    1  C1  UNL     1     -31.741   8.287   1.413  1.00 20.00     0.017 C 
HETATM    2  C2  UNL     1     -32.346   7.513   2.103  1.00 20.00    -0.089 C 
HETATM    3  C3  UNL     1     -33.064   6.579   2.904  1.00 20.00     0.066 C 
HETATM    4  C4  UNL     1     -33.540   6.837   4.141  1.00 20.00    -0.068 C 
HETATM    5  C5  UNL     1     -33.330   8.185   4.805  1.00 20.00     0.044 C 
ENDROOT
BRANCH   4   6
HETATM    6  C9  UNL     1     -34.329   5.787   4.971  1.00 20.00    -0.028 C 
HETATM    7  C6  UNL     1     -35.804   5.740   4.518  1.00 20.00     0.019 C 
HETATM    8  C7  UNL     1     -33.780   4.345   4.845  1.00 20.00     0.019 C 
HETATM    9  C8  UNL     1     -34.275   6.160   6.468  1.00 20.00     0.019 C 
ENDBRANCH   4   6
TORSDOF 1
ENDMDL
MODEL 5
REMARK VINA RESULT:      -3.9     12.091     13.124
REMARK  1 active torsions:
REMARK  status: ('A' for Active; 'I' for Inactive)
REMARK    1  A    between atoms: C4_4  and  C9_9 
ROOT
HETATM    1  C1  UNL     1     -31.765   8.362   1.448  1.00 20.00     0.017 C 
HETATM    2  C2  UNL     1     -32.366   7.562   2.113  1.00 20.00    -0.089 C 
HETATM    3  C3  UNL     1     -33.077   6.598   2.882  1.00 20.00     0.066 C 
HETATM    4  C4  UNL     1     -33.577   6.821   4.117  1.00 20.00    -0.068 C 
HETATM    5  C5  UNL     1     -33.402   8.158   4.813  1.00 20.00     0.044 C 
ENDROOT
BRANCH   4   6
HETATM    6  C9  UNL     1     -34.357   5.738   4.913  1.00 20.00    -0.028 C 
HETATM    7  C6  UNL     1     -33.766   4.339   4.639  1.00 20.00     0.019 C 
HETATM    8  C7  UNL     1     -34.326   5.941   6.447  1.00 20.00     0.019 C 
HETATM    9  C8  UNL     1     -35.841   5.748   4.487  1.00 20.00     0.019 C 
ENDBRANCH   4   6
TORSDOF 1
ENDMDL
MODEL 6
REMARK VINA RESULT:      -3.8     10.690     12.460
REMARK  1 active torsions:
REMARK  status: ('A' for Active; 'I' for Inactive)
REMARK    1  A    between atoms: C4_4  and  C9_9 
ROOT
HETATM    1  C1  UNL     1     -39.000  11.536   4.052  1.00 20.00     0.017 C 
HETATM    2  C2  UNL     1     -39.440  12.083   5.027  1.00 20.00    -0.089 C 
HETATM    3  C3  UNL     1     -39.946  12.719   6.196  1.00 20.00     0.066 C 
HETATM    4  C4  UNL     1     -40.989  13.577   6.211  1.00 20.00    -0.068 C 
HETATM    5  C5  UNL     1     -41.723  13.953   4.937  1.00 20.00     0.044 C 
ENDROOT
BRANCH   4   6
HETATM    6  C9  UNL     1     -41.511  14.238   7.516  1.00 20.00    -0.028 C 
HETATM    7  C6  UNL     1     -42.070  15.646   7.220  1.00 20.00     0.019 C 
HETATM    8  C7  UNL     1     -42.647  13.447   8.210  1.00 20.00     0.019 C 
HETATM    9  C8  UNL     1     -40.359  14.359   8.535  1.00 20.00     0.019 C 
ENDBRANCH   4   6
TORSDOF 1
ENDMDL
MODEL 7
REMARK VINA RESULT:      -3.8     10.694     12.467
REMARK  1 active torsions:
REMARK  status: ('A' for Active; 'I' for Inactive)
REMARK    1  A    between atoms: C4_4  and  C9_9 
ROOT
HETATM    1  C1  UNL     1     -39.024  11.559   4.062  1.00 20.00     0.017 C 
HETATM    2  C2  UNL     1     -39.450  12.108   5.041  1.00 20.00    -0.089 C 
HETATM    3  C3  UNL     1     -39.939  12.748   6.216  1.00 20.00     0.066 C 
HETATM    4  C4  UNL     1     -40.987  13.599   6.245  1.00 20.00    -0.068 C 
HETATM    5  C5  UNL     1     -41.746  13.965   4.982  1.00 20.00     0.044 C 
ENDROOT
BRANCH   4   6
HETATM    6  C9  UNL     1     -41.490  14.264   7.556  1.00 20.00    -0.028 C 
HETATM    7  C6  UNL     1     -42.625  13.426   8.182  1.00 20.00     0.019 C 
HETATM    8  C7  UNL     1     -40.399  14.416   8.643  1.00 20.00     0.019 C 
HETATM    9  C8  UNL     1     -42.022  15.680   7.250  1.00 20.00     0.019 C 
ENDBRANCH   4   6
TORSDOF 1
ENDMDL
MODEL 8
REMARK VINA RESULT:      -3.8     10.672     12.452
REMARK  1 active torsions:
REMARK  status: ('A' for Active; 'I' for Inactive)
REMARK    1  A    between atoms: C4_4  and  C9_9 
ROOT
HETATM    1  C1  UNL     1     -38.996  11.560   4.050  1.00 20.00     0.017 C 
HETATM    2  C2  UNL     1     -39.443  12.101   5.025  1.00 20.00    -0.089 C 
HETATM    3  C3  UNL     1     -39.957  12.730   6.195  1.00 20.00     0.066 C 
HETATM    4  C4  UNL     1     -40.999  13.589   6.208  1.00 20.00    -0.068 C 
HETATM    5  C5  UNL     1     -41.722  13.976   4.931  1.00 20.00     0.044 C 
ENDROOT
BRANCH   4   6
HETATM    6  C9  UNL     1     -41.531  14.242   7.514  1.00 20.00    -0.028 C 
HETATM    7  C6  UNL     1     -40.397  14.365   8.554  1.00 20.00     0.019 C 
HETATM    8  C7  UNL     1     -42.108  15.664   7.316  1.00 20.00     0.019 C 
HETATM    9  C8  UNL     1     -42.662  13.374   8.105  1.00 20.00     0.019 C 
ENDBRANCH   4   6
TORSDOF 1
ENDMDL
MODEL 9
REMARK VINA RESULT:      -3.7      2.743      4.325
REMARK  1 active torsions:
REMARK  status: ('A' for Active; 'I' for Inactive)
REMARK    1  A    between atoms: C4_4  and  C9_9 
ROOT
HETATM    1  C1  UNL     1     -32.562  17.974  -1.376  1.00 20.00     0.017 C 
HETATM    2  C2  UNL     1     -33.035  17.174  -2.137  1.00 20.00    -0.089 C 
HETATM    3  C3  UNL     1     -33.588  16.208  -3.025  1.00 20.00     0.066 C 
HETATM    4  C4  UNL     1     -34.174  16.499  -4.206  1.00 20.00    -0.068 C 
HETATM    5  C5  UNL     1     -34.306  17.931  -4.693  1.00 20.00     0.044 C 
ENDROOT
BRANCH   4   6
HETATM    6  C9  UNL     1     -34.754  15.406  -5.146  1.00 20.00    -0.028 C 
HETATM    7  C6  UNL     1     -36.177  15.791  -5.604  1.00 20.00     0.019 C 
HETATM    8  C7  UNL     1     -33.921  15.176  -6.431  1.00 20.00     0.019 C 
HETATM    9  C8  UNL     1     -34.814  14.057  -4.400  1.00 20.00     0.019 C 
ENDBRANCH   4   6
TORSDOF 1
ENDMDL
