MODEL 1
REMARK VINA RESULT:      -5.8      0.000      0.000
REMARK  1 active torsions:
REMARK  status: ('A' for Active; 'I' for Inactive)
REMARK    1  A    between atoms: C3_3  and  C5_5 
ROOT
HETATM    1  C1  UNL     1     -34.352   5.986   6.175  1.00 20.00     0.055 A 
HETATM    2  C2  UNL     1     -33.890   7.159   6.602  1.00 20.00     0.085 A 
HETATM    3  C3  UNL     1     -34.346   5.953   4.689  1.00 20.00     0.273 A 
HETATM    4  C4  UNL     1     -33.534   7.997   5.439  1.00 20.00     0.378 A 
HETATM    5  O6  UNL     1     -33.784   7.210   4.266  1.00 20.00    -0.273 OA
HETATM    6  F7  UNL     1     -35.611   5.891   4.197  1.00 20.00    -0.202 F 
HETATM    7  F8  UNL     1     -34.276   9.128   5.360  1.00 20.00    -0.171 F 
HETATM    8  F9  UNL     1     -32.229   8.360   5.435  1.00 20.00    -0.171 F 
ENDROOT
BRANCH   3   9
HETATM    9  C5  UNL     1     -33.532   4.813   4.104  1.00 20.00     0.337 C 
HETATM   10  F10 UNL     1     -34.323   3.712   4.021  1.00 20.00    -0.226 F 
HETATM   11 CL11 UNL     1     -32.940   5.232   2.487  1.00 20.00    -0.083 Cl
ENDBRANCH   3   9
TORSDOF 1
ENDMDL
MODEL 2
REMARK VINA RESULT:      -5.7      2.118      2.560
REMARK  1 active torsions:
REMARK  status: ('A' for Active; 'I' for Inactive)
REMARK    1  A    between atoms: C3_3  and  C5_5 
ROOT
HETATM    1  C1  UNL     1     -34.852   6.141   4.144  1.00 20.00     0.055 A 
HETATM    2  C2  UNL     1     -35.170   5.599   5.317  1.00 20.00     0.085 A 
HETATM    3  C3  UNL     1     -33.693   7.058   4.311  1.00 20.00     0.273 A 
HETATM    4  C4  UNL     1     -34.250   6.104   6.355  1.00 20.00     0.378 A 
HETATM    5  O6  UNL     1     -33.316   6.972   5.698  1.00 20.00    -0.273 OA
HETATM    6  F7  UNL     1     -34.051   8.346   4.070  1.00 20.00    -0.202 F 
HETATM    7  F8  UNL     1     -34.884   6.813   7.320  1.00 20.00    -0.171 F 
HETATM    8  F9  UNL     1     -33.552   5.114   6.962  1.00 20.00    -0.171 F 
ENDROOT
BRANCH   3   9
HETATM    9  C5  UNL     1     -32.502   6.705   3.440  1.00 20.00     0.337 C 
HETATM   10  F10 UNL     1     -32.749   5.521   2.823  1.00 20.00    -0.226 F 
HETATM   11 CL11 UNL     1     -32.229   7.957   2.215  1.00 20.00    -0.083 Cl
ENDBRANCH   3   9
TORSDOF 1
ENDMDL
MODEL 3
REMARK VINA RESULT:      -5.7      2.328      3.224
REMARK  1 active torsions:
REMARK  status: ('A' for Active; 'I' for Inactive)
REMARK    1  A    between atoms: C3_3  and  C5_5 
ROOT
HETATM    1  C1  UNL     1     -34.274   5.937   4.007  1.00 20.00     0.055 A 
HETATM    2  C2  UNL     1     -34.596   5.048   4.943  1.00 20.00     0.085 A 
HETATM    3  C3  UNL     1     -33.815   7.197   4.646  1.00 20.00     0.273 A 
HETATM    4  C4  UNL     1     -34.373   5.640   6.277  1.00 20.00     0.378 A 
HETATM    5  O6  UNL     1     -33.846   6.957   6.066  1.00 20.00    -0.273 OA
HETATM    6  F7  UNL     1     -34.677   8.217   4.391  1.00 20.00    -0.202 F 
HETATM    7  F8  UNL     1     -35.513   5.748   7.002  1.00 20.00    -0.171 F 
HETATM    8  F9  UNL     1     -33.479   4.941   7.018  1.00 20.00    -0.171 F 
ENDROOT
BRANCH   3   9
HETATM    9  C5  UNL     1     -32.417   7.620   4.235  1.00 20.00     0.337 C 
HETATM   10  F10 UNL     1     -32.344   7.622   2.880  1.00 20.00    -0.226 F 
HETATM   11 CL11 UNL     1     -32.048   9.243   4.844  1.00 20.00    -0.083 Cl
ENDBRANCH   3   9
TORSDOF 1
ENDMDL
MODEL 4
REMARK VINA RESULT:      -5.6      1.779      2.095
REMARK  1 active torsions:
REMARK  status: ('A' for Active; 'I' for Inactive)
REMARK    1  A    between atoms: C3_3  and  C5_5 
ROOT
HETATM    1  C1  UNL     1     -33.808   7.966   5.701  1.00 20.00     0.055 A 
HETATM    2  C2  UNL     1     -32.839   8.662   5.112  1.00 20.00     0.085 A 
HETATM    3  C3  UNL     1     -34.145   6.775   4.878  1.00 20.00     0.273 A 
HETATM    4  C4  UNL     1     -32.450   7.992   3.856  1.00 20.00     0.378 A 
HETATM    5  O6  UNL     1     -33.242   6.800   3.756  1.00 20.00    -0.273 OA
HETATM    6  F7  UNL     1     -35.407   6.866   4.382  1.00 20.00    -0.202 F 
HETATM    7  F8  UNL     1     -32.684   8.752   2.759  1.00 20.00    -0.171 F 
HETATM    8  F9  UNL     1     -31.143   7.633   3.837  1.00 20.00    -0.171 F 
ENDROOT
BRANCH   3   9
HETATM    9  C5  UNL     1     -33.998   5.458   5.616  1.00 20.00     0.337 C 
HETATM   10  F10 UNL     1     -35.043   5.320   6.472  1.00 20.00    -0.226 F 
HETATM   11 CL11 UNL     1     -33.992   4.099   4.478  1.00 20.00    -0.083 Cl
ENDBRANCH   3   9
TORSDOF 1
ENDMDL
MODEL 5
REMARK VINA RESULT:      -5.4      1.856      2.667
REMARK  1 active torsions:
REMARK  status: ('A' for Active; 'I' for Inactive)
REMARK    1  A    between atoms: C3_3  and  C5_5 
ROOT
HETATM    1  C1  UNL     1     -34.901   6.362   4.161  1.00 20.00     0.055 A 
HETATM    2  C2  UNL     1     -35.083   5.739   5.322  1.00 20.00     0.085 A 
HETATM    3  C3  UNL     1     -33.821   7.375   4.296  1.00 20.00     0.273 A 
HETATM    4  C4  UNL     1     -34.140   6.280   6.321  1.00 20.00     0.378 A 
HETATM    5  O6  UNL     1     -33.338   7.261   5.649  1.00 20.00    -0.273 OA
HETATM    6  F7  UNL     1     -34.311   8.634   4.148  1.00 20.00    -0.202 F 
HETATM    7  F8  UNL     1     -34.764   6.881   7.363  1.00 20.00    -0.171 F 
HETATM    8  F9  UNL     1     -33.313   5.334   6.827  1.00 20.00    -0.171 F 
ENDROOT
BRANCH   3   9
HETATM    9  C5  UNL     1     -32.669   7.177   3.329  1.00 20.00     0.337 C 
HETATM   10  F10 UNL     1     -31.508   7.468   3.970  1.00 20.00    -0.226 F 
HETATM   11 CL11 UNL     1     -32.615   5.501   2.754  1.00 20.00    -0.083 Cl
ENDBRANCH   3   9
TORSDOF 1
ENDMDL
MODEL 6
REMARK VINA RESULT:      -5.3      1.507      3.227
REMARK  1 active torsions:
REMARK  status: ('A' for Active; 'I' for Inactive)
REMARK    1  A    between atoms: C3_3  and  C5_5 
ROOT
HETATM    1  C1  UNL     1     -35.087   7.004   4.233  1.00 20.00     0.055 A 
HETATM    2  C2  UNL     1     -35.418   5.800   4.692  1.00 20.00     0.085 A 
HETATM    3  C3  UNL     1     -33.809   7.444   4.849  1.00 20.00     0.273 A 
HETATM    4  C4  UNL     1     -34.388   5.339   5.644  1.00 20.00     0.378 A 
HETATM    5  O6  UNL     1     -33.378   6.357   5.690  1.00 20.00    -0.273 OA
HETATM    6  F7  UNL     1     -34.000   8.523   5.653  1.00 20.00    -0.202 F 
HETATM    7  F8  UNL     1     -34.871   5.162   6.897  1.00 20.00    -0.171 F 
HETATM    8  F9  UNL     1     -33.802   4.179   5.261  1.00 20.00    -0.171 F 
ENDROOT
BRANCH   3   9
HETATM    9  C5  UNL     1     -32.721   7.766   3.842  1.00 20.00     0.337 C 
HETATM   10  F10 UNL     1     -31.585   8.086   4.515  1.00 20.00    -0.226 F 
HETATM   11 CL11 UNL     1     -32.406   6.372   2.793  1.00 20.00    -0.083 Cl
ENDBRANCH   3   9
TORSDOF 1
ENDMDL
MODEL 7
REMARK VINA RESULT:      -5.3      2.331      3.558
REMARK  1 active torsions:
REMARK  status: ('A' for Active; 'I' for Inactive)
REMARK    1  A    between atoms: C3_3  and  C5_5 
ROOT
HETATM    1  C1  UNL     1     -32.673   7.778   4.071  1.00 20.00     0.055 A 
HETATM    2  C2  UNL     1     -32.179   7.074   3.056  1.00 20.00     0.085 A 
HETATM    3  C3  UNL     1     -33.829   7.059   4.667  1.00 20.00     0.273 A 
HETATM    4  C4  UNL     1     -32.961   5.831   2.896  1.00 20.00     0.378 A 
HETATM    5  O6  UNL     1     -33.949   5.824   3.936  1.00 20.00    -0.273 OA
HETATM    6  F7  UNL     1     -34.983   7.752   4.480  1.00 20.00    -0.202 F 
HETATM    7  F8  UNL     1     -33.598   5.759   1.703  1.00 20.00    -0.171 F 
HETATM    8  F9  UNL     1     -32.203   4.716   3.027  1.00 20.00    -0.171 F 
ENDROOT
BRANCH   3   9
HETATM    9  C5  UNL     1     -33.669   6.758   6.145  1.00 20.00     0.337 C 
HETATM   10  F10 UNL     1     -34.354   7.689   6.857  1.00 20.00    -0.226 F 
HETATM   11 CL11 UNL     1     -34.301   5.147   6.529  1.00 20.00    -0.083 Cl
ENDBRANCH   3   9
TORSDOF 1
ENDMDL
MODEL 8
REMARK VINA RESULT:      -4.9      1.814      3.605
REMARK  1 active torsions:
REMARK  status: ('A' for Active; 'I' for Inactive)
REMARK    1  A    between atoms: C3_3  and  C5_5 
ROOT
HETATM    1  C1  UNL     1     -33.123   7.888   5.329  1.00 20.00     0.055 A 
HETATM    2  C2  UNL     1     -34.035   7.028   5.777  1.00 20.00     0.085 A 
HETATM    3  C3  UNL     1     -32.734   7.532   3.939  1.00 20.00     0.273 A 
HETATM    4  C4  UNL     1     -34.330   6.036   4.724  1.00 20.00     0.378 A 
HETATM    5  O6  UNL     1     -33.544   6.396   3.579  1.00 20.00    -0.273 OA
HETATM    6  F7  UNL     1     -31.436   7.135   3.883  1.00 20.00    -0.202 F 
HETATM    7  F8  UNL     1     -34.001   4.772   5.086  1.00 20.00    -0.171 F 
HETATM    8  F9  UNL     1     -35.634   6.033   4.358  1.00 20.00    -0.171 F 
ENDROOT
BRANCH   3   9
HETATM    9  C5  UNL     1     -32.953   8.648   2.935  1.00 20.00     0.337 C 
HETATM   10  F10 UNL     1     -32.397   9.787   3.422  1.00 20.00    -0.226 F 
HETATM   11 CL11 UNL     1     -32.201   8.248   1.380  1.00 20.00    -0.083 Cl
ENDBRANCH   3   9
TORSDOF 1
ENDMDL
MODEL 9
REMARK VINA RESULT:      -4.4      9.098     10.329
REMARK  1 active torsions:
REMARK  status: ('A' for Active; 'I' for Inactive)
REMARK    1  A    between atoms: C3_3  and  C5_5 
ROOT
HETATM    1  C1  UNL     1     -41.217  13.666   5.512  1.00 20.00     0.055 A 
HETATM    2  C2  UNL     1     -40.455  12.791   4.859  1.00 20.00     0.085 A 
HETATM    3  C3  UNL     1     -40.868  13.659   6.956  1.00 20.00     0.273 A 
HETATM    4  C4  UNL     1     -39.536  12.137   5.812  1.00 20.00     0.378 A 
HETATM    5  O6  UNL     1     -39.781  12.724   7.098  1.00 20.00    -0.273 OA
HETATM    6  F7  UNL     1     -41.901  13.192   7.706  1.00 20.00    -0.202 F 
HETATM    7  F8  UNL     1     -39.742  10.801   5.908  1.00 20.00    -0.171 F 
HETATM    8  F9  UNL     1     -38.233  12.331   5.500  1.00 20.00    -0.171 F 
ENDROOT
BRANCH   3   9
HETATM    9  C5  UNL     1     -40.442  15.013   7.491  1.00 20.00     0.337 C 
HETATM   10  F10 UNL     1     -41.437  15.906   7.255  1.00 20.00    -0.226 F 
HETATM   11 CL11 UNL     1     -40.133  14.930   9.235  1.00 20.00    -0.083 Cl
ENDBRANCH   3   9
TORSDOF 1
ENDMDL
