MODEL 1
REMARK VINA RESULT:      -5.0      0.000      0.000
REMARK  2 active torsions:
REMARK  status: ('A' for Active; 'I' for Inactive)
REMARK    1  A    between atoms: C2_2  and  C3_3 
REMARK    2  A    between atoms: C3_3  and  C7_7 
ROOT
HETATM    1  C3  UNL     1     -34.781   5.808   4.851  1.00 20.00     0.255 C 
HETATM    2  O8  UNL     1     -35.947   5.823   4.466  1.00 20.00    -0.283 OA
ENDROOT
BRANCH   1   3
HETATM    3  C2  UNL     1     -33.634   5.879   3.907  1.00 20.00     0.062 C 
HETATM    4  C1  UNL     1     -33.006   7.032   3.676  1.00 20.00    -0.076 C 
HETATM    5  C4  UNL     1     -31.837   7.416   2.796  1.00 20.00     0.034 C 
HETATM    6  C5  UNL     1     -33.193   8.437   4.204  1.00 20.00     0.034 C 
HETATM    7  C6  UNL     1     -32.387   8.851   2.954  1.00 20.00     0.009 C 
ENDBRANCH   1   3
BRANCH   1   8
HETATM    8  C7  UNL     1     -34.434   5.716   6.308  1.00 20.00     0.455 C 
HETATM    9  F9  UNL     1     -35.541   5.659   7.091  1.00 20.00    -0.163 F 
HETATM   10  F10 UNL     1     -33.698   4.610   6.585  1.00 20.00    -0.163 F 
HETATM   11  F11 UNL     1     -33.710   6.784   6.730  1.00 20.00    -0.163 F 
ENDBRANCH   1   8
TORSDOF 2
ENDMDL
MODEL 2
REMARK VINA RESULT:      -4.9      1.683      2.244
REMARK  2 active torsions:
REMARK  status: ('A' for Active; 'I' for Inactive)
REMARK    1  A    between atoms: C2_2  and  C3_3 
REMARK    2  A    between atoms: C3_3  and  C7_7 
ROOT
HETATM    1  C3  UNL     1     -33.877   6.787   5.746  1.00 20.00     0.255 C 
HETATM    2  O8  UNL     1     -33.236   6.702   6.789  1.00 20.00    -0.283 OA
ENDROOT
BRANCH   1   3
HETATM    3  C2  UNL     1     -33.793   7.977   4.858  1.00 20.00     0.062 C 
HETATM    4  C1  UNL     1     -33.169   7.912   3.681  1.00 20.00    -0.076 C 
HETATM    5  C4  UNL     1     -32.921   8.923   2.583  1.00 20.00     0.034 C 
HETATM    6  C5  UNL     1     -32.455   6.797   2.948  1.00 20.00     0.034 C 
HETATM    7  C6  UNL     1     -31.806   7.947   2.147  1.00 20.00     0.009 C 
ENDBRANCH   1   3
BRANCH   1   8
HETATM    8  C7  UNL     1     -34.797   5.690   5.295  1.00 20.00     0.455 C 
HETATM    9  F9  UNL     1     -34.145   4.748   4.569  1.00 20.00    -0.163 F 
HETATM   10  F10 UNL     1     -35.375   5.050   6.343  1.00 20.00    -0.163 F 
HETATM   11  F11 UNL     1     -35.806   6.157   4.516  1.00 20.00    -0.163 F 
ENDBRANCH   1   8
TORSDOF 2
ENDMDL
MODEL 3
REMARK VINA RESULT:      -4.6      2.356      3.819
REMARK  2 active torsions:
REMARK  status: ('A' for Active; 'I' for Inactive)
REMARK    1  A    between atoms: C2_2  and  C3_3 
REMARK    2  A    between atoms: C3_3  and  C7_7 
ROOT
HETATM    1  C3  UNL     1     -32.708   8.251   3.607  1.00 20.00     0.255 C 
HETATM    2  O8  UNL     1     -32.749   9.041   2.667  1.00 20.00    -0.283 OA
ENDROOT
BRANCH   1   3
HETATM    3  C2  UNL     1     -32.646   6.779   3.403  1.00 20.00     0.062 C 
HETATM    4  C1  UNL     1     -33.603   5.980   3.876  1.00 20.00    -0.076 C 
HETATM    5  C4  UNL     1     -33.818   4.483   3.832  1.00 20.00     0.034 C 
HETATM    6  C5  UNL     1     -34.881   6.237   4.645  1.00 20.00     0.034 C 
HETATM    7  C6  UNL     1     -34.780   4.742   5.013  1.00 20.00     0.009 C 
ENDBRANCH   1   3
BRANCH   1   8
HETATM    8  C7  UNL     1     -32.720   8.721   5.033  1.00 20.00     0.455 C 
HETATM    9  F9  UNL     1     -31.849   9.740   5.238  1.00 20.00    -0.163 F 
HETATM   10  F10 UNL     1     -33.945   9.168   5.409  1.00 20.00    -0.163 F 
HETATM   11  F11 UNL     1     -32.380   7.734   5.899  1.00 20.00    -0.163 F 
ENDBRANCH   1   8
TORSDOF 2
ENDMDL
MODEL 4
REMARK VINA RESULT:      -4.6      1.653      1.841
REMARK  2 active torsions:
REMARK  status: ('A' for Active; 'I' for Inactive)
REMARK    1  A    between atoms: C2_2  and  C3_3 
REMARK    2  A    between atoms: C3_3  and  C7_7 
ROOT
HETATM    1  C3  UNL     1     -33.639   6.572   4.894  1.00 20.00     0.255 C 
HETATM    2  O8  UNL     1     -33.298   7.349   5.782  1.00 20.00    -0.283 OA
ENDROOT
BRANCH   1   3
HETATM    3  C2  UNL     1     -32.966   6.538   3.568  1.00 20.00     0.062 C 
HETATM    4  C1  UNL     1     -32.670   7.665   2.920  1.00 20.00    -0.076 C 
HETATM    5  C4  UNL     1     -32.005   7.952   1.592  1.00 20.00     0.034 C 
HETATM    6  C5  UNL     1     -32.867   9.129   3.247  1.00 20.00     0.034 C 
HETATM    7  C6  UNL     1     -32.678   9.336   1.728  1.00 20.00     0.009 C 
ENDBRANCH   1   3
BRANCH   1   8
HETATM    8  C7  UNL     1     -34.766   5.599   5.089  1.00 20.00     0.455 C 
HETATM    9  F9  UNL     1     -35.883   5.977   4.418  1.00 20.00    -0.163 F 
HETATM   10  F10 UNL     1     -34.443   4.356   4.651  1.00 20.00    -0.163 F 
HETATM   11  F11 UNL     1     -35.115   5.476   6.394  1.00 20.00    -0.163 F 
ENDBRANCH   1   8
TORSDOF 2
ENDMDL
MODEL 5
REMARK VINA RESULT:      -4.6      2.265      2.778
REMARK  2 active torsions:
REMARK  status: ('A' for Active; 'I' for Inactive)
REMARK    1  A    between atoms: C2_2  and  C3_3 
REMARK    2  A    between atoms: C3_3  and  C7_7 
ROOT
HETATM    1  C3  UNL     1     -32.650   7.894   4.362  1.00 20.00     0.255 C 
HETATM    2  O8  UNL     1     -32.214   8.863   4.978  1.00 20.00    -0.283 OA
ENDROOT
BRANCH   1   3
HETATM    3  C2  UNL     1     -32.115   7.493   3.033  1.00 20.00     0.062 C 
HETATM    4  C1  UNL     1     -32.266   8.279   1.967  1.00 20.00    -0.076 C 
HETATM    5  C4  UNL     1     -31.845   8.153   0.519  1.00 20.00     0.034 C 
HETATM    6  C5  UNL     1     -32.913   9.631   1.761  1.00 20.00     0.034 C 
HETATM    7  C6  UNL     1     -32.928   9.226   0.271  1.00 20.00     0.009 C 
ENDBRANCH   1   3
BRANCH   1   8
HETATM    8  C7  UNL     1     -33.761   7.046   4.911  1.00 20.00     0.455 C 
HETATM    9  F9  UNL     1     -34.976   7.617   4.722  1.00 20.00    -0.163 F 
HETATM   10  F10 UNL     1     -33.802   5.824   4.323  1.00 20.00    -0.163 F 
HETATM   11  F11 UNL     1     -33.630   6.834   6.245  1.00 20.00    -0.163 F 
ENDBRANCH   1   8
TORSDOF 2
ENDMDL
MODEL 6
REMARK VINA RESULT:      -4.6      2.965      4.414
REMARK  2 active torsions:
REMARK  status: ('A' for Active; 'I' for Inactive)
REMARK    1  A    between atoms: C2_2  and  C3_3 
REMARK    2  A    between atoms: C3_3  and  C7_7 
ROOT
HETATM    1  C3  UNL     1     -32.275   7.650   3.596  1.00 20.00     0.255 C 
HETATM    2  O8  UNL     1     -31.066   7.474   3.720  1.00 20.00    -0.283 OA
ENDROOT
BRANCH   1   3
HETATM    3  C2  UNL     1     -33.243   6.521   3.580  1.00 20.00     0.062 C 
HETATM    4  C1  UNL     1     -33.944   6.204   4.669  1.00 20.00    -0.076 C 
HETATM    5  C4  UNL     1     -34.979   5.139   4.962  1.00 20.00     0.034 C 
HETATM    6  C5  UNL     1     -34.006   6.782   6.066  1.00 20.00     0.034 C 
HETATM    7  C6  UNL     1     -34.624   5.418   6.439  1.00 20.00     0.009 C 
ENDBRANCH   1   3
BRANCH   1   8
HETATM    8  C7  UNL     1     -32.860   9.025   3.448  1.00 20.00     0.455 C 
HETATM    9  F9  UNL     1     -32.191   9.943   4.190  1.00 20.00    -0.163 F 
HETATM   10  F10 UNL     1     -32.824   9.455   2.162  1.00 20.00    -0.163 F 
HETATM   11  F11 UNL     1     -34.157   9.073   3.841  1.00 20.00    -0.163 F 
ENDBRANCH   1   8
TORSDOF 2
ENDMDL
MODEL 7
REMARK VINA RESULT:      -4.4     12.548     13.451
REMARK  2 active torsions:
REMARK  status: ('A' for Active; 'I' for Inactive)
REMARK    1  A    between atoms: C2_2  and  C3_3 
REMARK    2  A    between atoms: C3_3  and  C7_7 
ROOT
HETATM    1  C3  UNL     1     -34.288  14.890  -5.327  1.00 20.00     0.255 C 
HETATM    2  O8  UNL     1     -33.588  15.000  -6.329  1.00 20.00    -0.283 OA
ENDROOT
BRANCH   1   3
HETATM    3  C2  UNL     1     -33.759  15.135  -3.959  1.00 20.00     0.062 C 
HETATM    4  C1  UNL     1     -33.670  16.373  -3.470  1.00 20.00    -0.076 C 
HETATM    5  C4  UNL     1     -33.188  16.932  -2.149  1.00 20.00     0.034 C 
HETATM    6  C5  UNL     1     -34.022  17.734  -4.027  1.00 20.00     0.034 C 
HETATM    7  C6  UNL     1     -33.072  18.260  -2.929  1.00 20.00     0.009 C 
ENDBRANCH   1   3
BRANCH   1   8
HETATM    8  C7  UNL     1     -35.734  14.496  -5.416  1.00 20.00     0.455 C 
HETATM    9  F9  UNL     1     -36.042  13.497  -4.551  1.00 20.00    -0.163 F 
HETATM   10  F10 UNL     1     -36.561  15.534  -5.130  1.00 20.00    -0.163 F 
HETATM   11  F11 UNL     1     -36.069  14.058  -6.655  1.00 20.00    -0.163 F 
ENDBRANCH   1   8
TORSDOF 2
ENDMDL
MODEL 8
REMARK VINA RESULT:      -4.4     12.501     13.252
REMARK  2 active torsions:
REMARK  status: ('A' for Active; 'I' for Inactive)
REMARK    1  A    between atoms: C2_2  and  C3_3 
REMARK    2  A    between atoms: C3_3  and  C7_7 
ROOT
HETATM    1  C3  UNL     1     -33.669  16.457  -3.748  1.00 20.00     0.255 C 
HETATM    2  O8  UNL     1     -33.966  17.399  -4.477  1.00 20.00    -0.283 OA
ENDROOT
BRANCH   1   3
HETATM    3  C2  UNL     1     -33.630  16.583  -2.266  1.00 20.00     0.062 C 
HETATM    4  C1  UNL     1     -33.115  17.666  -1.683  1.00 20.00    -0.076 C 
HETATM    5  C4  UNL     1     -32.938  18.079  -0.238  1.00 20.00     0.034 C 
HETATM    6  C5  UNL     1     -32.501  18.939  -2.222  1.00 20.00     0.034 C 
HETATM    7  C6  UNL     1     -31.894  19.063  -0.808  1.00 20.00     0.009 C 
ENDBRANCH   1   3
BRANCH   1   8
HETATM    8  C7  UNL     1     -33.321  15.108  -4.306  1.00 20.00     0.455 C 
HETATM    9  F9  UNL     1     -34.065  14.121  -3.747  1.00 20.00    -0.163 F 
HETATM   10  F10 UNL     1     -33.524  15.046  -5.646  1.00 20.00    -0.163 F 
HETATM   11  F11 UNL     1     -32.020  14.786  -4.091  1.00 20.00    -0.163 F 
ENDBRANCH   1   8
TORSDOF 2
ENDMDL
MODEL 9
REMARK VINA RESULT:      -4.4      9.203     10.008
REMARK  2 active torsions:
REMARK  status: ('A' for Active; 'I' for Inactive)
REMARK    1  A    between atoms: C2_2  and  C3_3 
REMARK    2  A    between atoms: C3_3  and  C7_7 
ROOT
HETATM    1  C3  UNL     1     -40.772  12.910   5.198  1.00 20.00     0.255 C 
HETATM    2  O8  UNL     1     -41.186  13.590   4.263  1.00 20.00    -0.283 OA
ENDROOT
BRANCH   1   3
HETATM    3  C2  UNL     1     -41.422  12.924   6.536  1.00 20.00     0.062 C 
HETATM    4  C1  UNL     1     -41.160  13.891   7.416  1.00 20.00    -0.076 C 
HETATM    5  C4  UNL     1     -41.649  14.174   8.820  1.00 20.00     0.034 C 
HETATM    6  C5  UNL     1     -40.273  15.115   7.375  1.00 20.00     0.034 C 
HETATM    7  C6  UNL     1     -40.389  15.062   8.914  1.00 20.00     0.009 C 
ENDBRANCH   1   3
BRANCH   1   8
HETATM    8  C7  UNL     1     -39.576  12.015   5.053  1.00 20.00     0.455 C 
HETATM    9  F9  UNL     1     -39.741  10.838   5.707  1.00 20.00    -0.163 F 
HETATM   10  F10 UNL     1     -39.323  11.714   3.754  1.00 20.00    -0.163 F 
HETATM   11  F11 UNL     1     -38.449  12.585   5.549  1.00 20.00    -0.163 F 
ENDBRANCH   1   8
TORSDOF 2
ENDMDL
