MODEL 1
REMARK VINA RESULT:      -5.3      0.000      0.000
REMARK  1 active torsions:
REMARK  status: ('A' for Active; 'I' for Inactive)
REMARK    1  A    between atoms: C4_4  and  C10_10 
ROOT
HETATM    1  C1  UNL     1     -32.766   8.896   5.199  1.00 20.00    -0.004 C 
HETATM    2  C2  UNL     1     -33.577   7.745   5.502  1.00 20.00     0.003 C 
HETATM    3  C3  UNL     1     -31.970   8.927   4.121  1.00 20.00    -0.026 C 
HETATM    4  C4  UNL     1     -33.702   6.719   4.644  1.00 20.00    -0.072 C 
HETATM    5  C5  UNL     1     -31.880   7.779   3.159  1.00 20.00     0.031 C 
HETATM    6  C6  UNL     1     -32.984   6.715   3.315  1.00 20.00     0.038 C 
ENDROOT
BRANCH   4   7
HETATM    7  C10 UNL     1     -34.572   5.534   4.938  1.00 20.00    -0.028 C 
HETATM    8  C7  UNL     1     -34.695   5.359   6.459  1.00 20.00     0.019 C 
HETATM    9  C8  UNL     1     -33.950   4.267   4.327  1.00 20.00     0.019 C 
HETATM   10  C9  UNL     1     -35.968   5.751   4.334  1.00 20.00     0.019 C 
ENDBRANCH   4   7
TORSDOF 1
ENDMDL
MODEL 2
REMARK VINA RESULT:      -5.3      0.011      1.376
REMARK  1 active torsions:
REMARK  status: ('A' for Active; 'I' for Inactive)
REMARK    1  A    between atoms: C4_4  and  C10_10 
ROOT
HETATM    1  C1  UNL     1     -32.772   8.899   5.190  1.00 20.00    -0.004 C 
HETATM    2  C2  UNL     1     -33.580   7.747   5.500  1.00 20.00     0.003 C 
HETATM    3  C3  UNL     1     -31.979   8.928   4.111  1.00 20.00    -0.026 C 
HETATM    4  C4  UNL     1     -33.704   6.718   4.645  1.00 20.00    -0.072 C 
HETATM    5  C5  UNL     1     -31.888   7.777   3.152  1.00 20.00     0.031 C 
HETATM    6  C6  UNL     1     -32.989   6.711   3.314  1.00 20.00     0.038 C 
ENDROOT
BRANCH   4   7
HETATM    7  C10 UNL     1     -34.571   5.532   4.945  1.00 20.00    -0.028 C 
HETATM    8  C7  UNL     1     -35.962   5.752   4.331  1.00 20.00     0.019 C 
HETATM    9  C8  UNL     1     -34.705   5.357   6.467  1.00 20.00     0.019 C 
HETATM   10  C9  UNL     1     -33.943   4.264   4.346  1.00 20.00     0.019 C 
ENDBRANCH   4   7
TORSDOF 1
ENDMDL
MODEL 3
REMARK VINA RESULT:      -5.3      0.283      2.108
REMARK  1 active torsions:
REMARK  status: ('A' for Active; 'I' for Inactive)
REMARK    1  A    between atoms: C4_4  and  C10_10 
ROOT
HETATM    1  C1  UNL     1     -32.105   7.633   2.860  1.00 20.00    -0.004 C 
HETATM    2  C2  UNL     1     -33.031   6.608   3.270  1.00 20.00     0.003 C 
HETATM    3  C3  UNL     1     -31.889   8.721   3.610  1.00 20.00    -0.026 C 
HETATM    4  C4  UNL     1     -33.597   6.610   4.488  1.00 20.00    -0.072 C 
HETATM    5  C5  UNL     1     -32.581   8.940   4.923  1.00 20.00     0.031 C 
HETATM    6  C6  UNL     1     -33.299   7.701   5.491  1.00 20.00     0.038 C 
ENDROOT
BRANCH   4   7
HETATM    7  C10 UNL     1     -34.534   5.529   4.935  1.00 20.00    -0.028 C 
HETATM    8  C7  UNL     1     -35.923   5.779   4.328  1.00 20.00     0.019 C 
HETATM    9  C8  UNL     1     -34.638   5.531   6.469  1.00 20.00     0.019 C 
HETATM   10  C9  UNL     1     -34.012   4.161   4.467  1.00 20.00     0.019 C 
ENDBRANCH   4   7
TORSDOF 1
ENDMDL
MODEL 4
REMARK VINA RESULT:      -4.8      0.965      3.784
REMARK  1 active torsions:
REMARK  status: ('A' for Active; 'I' for Inactive)
REMARK    1  A    between atoms: C4_4  and  C10_10 
ROOT
HETATM    1  C1  UNL     1     -34.486   6.351   6.646  1.00 20.00    -0.004 C 
HETATM    2  C2  UNL     1     -33.799   7.383   5.912  1.00 20.00     0.003 C 
HETATM    3  C3  UNL     1     -34.905   5.228   6.049  1.00 20.00    -0.026 C 
HETATM    4  C4  UNL     1     -33.402   7.204   4.641  1.00 20.00    -0.072 C 
HETATM    5  C5  UNL     1     -34.678   4.964   4.590  1.00 20.00     0.031 C 
HETATM    6  C6  UNL     1     -33.668   5.908   3.910  1.00 20.00     0.038 C 
ENDROOT
BRANCH   4   7
HETATM    7  C10 UNL     1     -32.656   8.260   3.882  1.00 20.00    -0.028 C 
HETATM    8  C7  UNL     1     -31.637   7.588   2.948  1.00 20.00     0.019 C 
HETATM    9  C8  UNL     1     -31.918   9.183   4.865  1.00 20.00     0.019 C 
HETATM   10  C9  UNL     1     -33.640   9.095   3.048  1.00 20.00     0.019 C 
ENDBRANCH   4   7
TORSDOF 1
ENDMDL
MODEL 5
REMARK VINA RESULT:      -4.8      0.967      3.784
REMARK  1 active torsions:
REMARK  status: ('A' for Active; 'I' for Inactive)
REMARK    1  A    between atoms: C4_4  and  C10_10 
ROOT
HETATM    1  C1  UNL     1     -34.494   6.343   6.649  1.00 20.00    -0.004 C 
HETATM    2  C2  UNL     1     -33.808   7.379   5.918  1.00 20.00     0.003 C 
HETATM    3  C3  UNL     1     -34.905   5.219   6.049  1.00 20.00    -0.026 C 
HETATM    4  C4  UNL     1     -33.405   7.202   4.649  1.00 20.00    -0.072 C 
HETATM    5  C5  UNL     1     -34.671   4.957   4.590  1.00 20.00     0.031 C 
HETATM    6  C6  UNL     1     -33.662   5.906   3.915  1.00 20.00     0.038 C 
ENDROOT
BRANCH   4   7
HETATM    7  C10 UNL     1     -32.660   8.262   3.894  1.00 20.00    -0.028 C 
HETATM    8  C7  UNL     1     -33.654   9.083   3.058  1.00 20.00     0.019 C 
HETATM    9  C8  UNL     1     -31.626   7.608   2.962  1.00 20.00     0.019 C 
HETATM   10  C9  UNL     1     -31.933   9.190   4.880  1.00 20.00     0.019 C 
ENDBRANCH   4   7
TORSDOF 1
ENDMDL
MODEL 6
REMARK VINA RESULT:      -4.7      0.967      4.092
REMARK  1 active torsions:
REMARK  status: ('A' for Active; 'I' for Inactive)
REMARK    1  A    between atoms: C4_4  and  C10_10 
ROOT
HETATM    1  C1  UNL     1     -34.487   4.978   4.476  1.00 20.00    -0.004 C 
HETATM    2  C2  UNL     1     -33.667   5.997   3.872  1.00 20.00     0.003 C 
HETATM    3  C3  UNL     1     -34.895   5.072   5.748  1.00 20.00    -0.026 C 
HETATM    4  C4  UNL     1     -33.408   7.160   4.494  1.00 20.00    -0.072 C 
HETATM    5  C5  UNL     1     -34.540   6.239   6.620  1.00 20.00     0.031 C 
HETATM    6  C6  UNL     1     -33.956   7.453   5.872  1.00 20.00     0.038 C 
ENDROOT
BRANCH   4   7
HETATM    7  C10 UNL     1     -32.584   8.239   3.858  1.00 20.00    -0.028 C 
HETATM    8  C7  UNL     1     -31.426   7.599   3.077  1.00 20.00     0.019 C 
HETATM    9  C8  UNL     1     -32.017   9.168   4.944  1.00 20.00     0.019 C 
HETATM   10  C9  UNL     1     -33.457   9.061   2.897  1.00 20.00     0.019 C 
ENDBRANCH   4   7
TORSDOF 1
ENDMDL
MODEL 7
REMARK VINA RESULT:      -4.7      0.974      4.094
REMARK  1 active torsions:
REMARK  status: ('A' for Active; 'I' for Inactive)
REMARK    1  A    between atoms: C4_4  and  C10_10 
ROOT
HETATM    1  C1  UNL     1     -34.436   4.956   4.456  1.00 20.00    -0.004 C 
HETATM    2  C2  UNL     1     -33.648   5.998   3.850  1.00 20.00     0.003 C 
HETATM    3  C3  UNL     1     -34.815   5.022   5.740  1.00 20.00    -0.026 C 
HETATM    4  C4  UNL     1     -33.393   7.154   4.485  1.00 20.00    -0.072 C 
HETATM    5  C5  UNL     1     -34.457   6.181   6.622  1.00 20.00     0.031 C 
HETATM    6  C6  UNL     1     -33.912   7.416   5.879  1.00 20.00     0.038 C 
ENDROOT
BRANCH   4   7
HETATM    7  C10 UNL     1     -32.603   8.258   3.847  1.00 20.00    -0.028 C 
HETATM    8  C7  UNL     1     -32.035   9.174   4.942  1.00 20.00     0.019 C 
HETATM    9  C8  UNL     1     -33.512   9.076   2.915  1.00 20.00     0.019 C 
HETATM   10  C9  UNL     1     -31.447   7.663   3.028  1.00 20.00     0.019 C 
ENDBRANCH   4   7
TORSDOF 1
ENDMDL
MODEL 8
REMARK VINA RESULT:      -4.1     15.256     16.367
REMARK  1 active torsions:
REMARK  status: ('A' for Active; 'I' for Inactive)
REMARK    1  A    between atoms: C4_4  and  C10_10 
ROOT
HETATM    1  C1  UNL     1     -24.872  16.641  11.979  1.00 20.00    -0.004 C 
HETATM    2  C2  UNL     1     -23.873  16.949  10.987  1.00 20.00     0.003 C 
HETATM    3  C3  UNL     1     -25.806  17.534  12.332  1.00 20.00    -0.026 C 
HETATM    4  C4  UNL     1     -23.925  18.074  10.254  1.00 20.00    -0.072 C 
HETATM    5  C5  UNL     1     -25.883  18.899  11.715  1.00 20.00     0.031 C 
HETATM    6  C6  UNL     1     -25.033  19.085  10.443  1.00 20.00     0.038 C 
ENDROOT
BRANCH   4   7
HETATM    7  C10 UNL     1     -22.909  18.384   9.196  1.00 20.00    -0.028 C 
HETATM    8  C7  UNL     1     -21.802  19.262   9.798  1.00 20.00     0.019 C 
HETATM    9  C8  UNL     1     -23.582  19.133   8.034  1.00 20.00     0.019 C 
HETATM   10  C9  UNL     1     -22.295  17.079   8.666  1.00 20.00     0.019 C 
ENDBRANCH   4   7
TORSDOF 1
ENDMDL
MODEL 9
REMARK VINA RESULT:      -4.1     12.300     13.129
REMARK  1 active torsions:
REMARK  status: ('A' for Active; 'I' for Inactive)
REMARK    1  A    between atoms: C4_4  and  C10_10 
ROOT
HETATM    1  C1  UNL     1     -30.956  18.602   0.576  1.00 20.00    -0.004 C 
HETATM    2  C2  UNL     1     -31.561  18.398  -0.716  1.00 20.00     0.003 C 
HETATM    3  C3  UNL     1     -31.692  18.898   1.655  1.00 20.00    -0.026 C 
HETATM    4  C4  UNL     1     -32.894  18.334  -0.872  1.00 20.00    -0.072 C 
HETATM    5  C5  UNL     1     -33.186  19.024   1.595  1.00 20.00     0.031 C 
HETATM    6  C6  UNL     1     -33.831  18.485   0.304  1.00 20.00     0.038 C 
ENDROOT
BRANCH   4   7
HETATM    7  C10 UNL     1     -33.530  18.088  -2.207  1.00 20.00    -0.028 C 
HETATM    8  C7  UNL     1     -33.458  16.589  -2.535  1.00 20.00     0.019 C 
HETATM    9  C8  UNL     1     -32.788  18.885  -3.292  1.00 20.00     0.019 C 
HETATM   10  C9  UNL     1     -35.001  18.533  -2.173  1.00 20.00     0.019 C 
ENDBRANCH   4   7
TORSDOF 1
ENDMDL
