MODEL 1
REMARK VINA RESULT:      -4.6      0.000      0.000
REMARK  1 active torsions:
REMARK  status: ('A' for Active; 'I' for Inactive)
REMARK    1  A    between atoms: C4_4  and  C8_8 
ROOT
HETATM    1  C5  UNL     1     -34.435   4.807   6.314  1.00 20.00     0.002 C 
HETATM    2  C6  UNL     1     -35.124   6.082   5.809  1.00 20.00     0.011 C 
HETATM    3  C7  UNL     1     -33.558   4.300   5.172  1.00 20.00     0.021 C 
HETATM    4  C8  UNL     1     -34.551   6.373   4.409  1.00 20.00     0.039 C 
HETATM    5  C9  UNL     1     -34.138   4.969   3.934  1.00 20.00     0.090 C 
HETATM    6 CL11 UNL     1     -33.022   4.921   2.558  1.00 20.00    -0.124 Cl
ENDROOT
BRANCH   4   7
HETATM    7  C4  UNL     1     -33.464   7.436   4.390  1.00 20.00    -0.028 A 
HETATM    8  C1  UNL     1     -33.180   8.383   5.403  1.00 20.00     0.034 A 
HETATM    9  C2  UNL     1     -32.120   9.129   4.942  1.00 20.00     0.142 A 
HETATM   10  O10 UNL     1     -31.735   8.701   3.711  1.00 20.00    -0.334 OA
HETATM   11  C3  UNL     1     -32.558   7.671   3.382  1.00 20.00     0.148 A 
ENDBRANCH   4   7
TORSDOF 1
ENDMDL
MODEL 2
REMARK VINA RESULT:      -4.2     12.703     13.598
REMARK  1 active torsions:
REMARK  status: ('A' for Active; 'I' for Inactive)
REMARK    1  A    between atoms: C4_4  and  C8_8 
ROOT
HETATM    1  C5  UNL     1     -32.513  18.189   0.268  1.00 20.00     0.002 C 
HETATM    2  C6  UNL     1     -31.911  18.617  -1.078  1.00 20.00     0.011 C 
HETATM    3  C7  UNL     1     -34.027  18.319   0.133  1.00 20.00     0.021 C 
HETATM    4  C8  UNL     1     -33.094  18.884  -2.029  1.00 20.00     0.039 C 
HETATM    5  C9  UNL     1     -34.216  19.263  -1.046  1.00 20.00     0.090 C 
HETATM    6 CL11 UNL     1     -35.862  19.204  -1.699  1.00 20.00    -0.124 Cl
ENDROOT
BRANCH   4   7
HETATM    7  C4  UNL     1     -33.395  17.740  -2.984  1.00 20.00    -0.028 A 
HETATM    8  C1  UNL     1     -33.244  16.356  -2.730  1.00 20.00     0.034 A 
HETATM    9  C2  UNL     1     -33.638  15.712  -3.881  1.00 20.00     0.142 A 
HETATM   10  O10 UNL     1     -34.021  16.612  -4.824  1.00 20.00    -0.334 OA
HETATM   11  C3  UNL     1     -33.870  17.843  -4.271  1.00 20.00     0.148 A 
ENDBRANCH   4   7
TORSDOF 1
ENDMDL
MODEL 3
REMARK VINA RESULT:      -4.1     12.419     13.824
REMARK  1 active torsions:
REMARK  status: ('A' for Active; 'I' for Inactive)
REMARK    1  A    between atoms: C4_4  and  C8_8 
ROOT
HETATM    1  C5  UNL     1     -36.101  16.801  -7.226  1.00 20.00     0.002 C 
HETATM    2  C6  UNL     1     -34.583  16.743  -7.005  1.00 20.00     0.011 C 
HETATM    3  C7  UNL     1     -36.717  15.736  -6.323  1.00 20.00     0.021 C 
HETATM    4  C8  UNL     1     -34.336  15.716  -5.883  1.00 20.00     0.039 C 
HETATM    5  C9  UNL     1     -35.561  14.794  -6.016  1.00 20.00     0.090 C 
HETATM    6 CL11 UNL     1     -35.894  13.752  -4.623  1.00 20.00    -0.124 Cl
ENDROOT
BRANCH   4   7
HETATM    7  C4  UNL     1     -34.107  16.334  -4.513  1.00 20.00    -0.028 A 
HETATM    8  C1  UNL     1     -33.282  15.830  -3.478  1.00 20.00     0.034 A 
HETATM    9  C2  UNL     1     -33.391  16.722  -2.436  1.00 20.00     0.142 A 
HETATM   10  O10 UNL     1     -34.229  17.740  -2.763  1.00 20.00    -0.334 OA
HETATM   11  C3  UNL     1     -34.660  17.497  -4.029  1.00 20.00     0.148 A 
ENDBRANCH   4   7
TORSDOF 1
ENDMDL
MODEL 4
REMARK VINA RESULT:      -3.9      9.715     10.574
REMARK  1 active torsions:
REMARK  status: ('A' for Active; 'I' for Inactive)
REMARK    1  A    between atoms: C4_4  and  C8_8 
ROOT
HETATM    1  C5  UNL     1     -43.417  13.835   6.027  1.00 20.00     0.002 C 
HETATM    2  C6  UNL     1     -42.793  12.607   6.704  1.00 20.00     0.011 C 
HETATM    3  C7  UNL     1     -42.430  14.984   6.206  1.00 20.00     0.021 C 
HETATM    4  C8  UNL     1     -41.387  13.025   7.174  1.00 20.00     0.039 C 
HETATM    5  C9  UNL     1     -41.552  14.543   7.368  1.00 20.00     0.090 C 
HETATM    6 CL11 UNL     1     -40.047  15.473   7.467  1.00 20.00    -0.124 Cl
ENDROOT
BRANCH   4   7
HETATM    7  C4  UNL     1     -40.264  12.585   6.248  1.00 20.00    -0.028 A 
HETATM    8  C1  UNL     1     -40.319  12.467   4.838  1.00 20.00     0.034 A 
HETATM    9  C2  UNL     1     -39.073  12.038   4.443  1.00 20.00     0.142 A 
HETATM   10  O10 UNL     1     -38.257  11.886   5.518  1.00 20.00    -0.334 OA
HETATM   11  C3  UNL     1     -38.989  12.220   6.613  1.00 20.00     0.148 A 
ENDBRANCH   4   7
TORSDOF 1
ENDMDL
MODEL 5
REMARK VINA RESULT:      -3.9     10.039     10.946
REMARK  1 active torsions:
REMARK  status: ('A' for Active; 'I' for Inactive)
REMARK    1  A    between atoms: C4_4  and  C8_8 
ROOT
HETATM    1  C5  UNL     1     -40.303  15.264   9.140  1.00 20.00     0.002 C 
HETATM    2  C6  UNL     1     -40.411  15.658   7.661  1.00 20.00     0.011 C 
HETATM    3  C7  UNL     1     -41.248  14.085   9.351  1.00 20.00     0.021 C 
HETATM    4  C8  UNL     1     -41.337  14.624   6.991  1.00 20.00     0.039 C 
HETATM    5  C9  UNL     1     -42.209  14.163   8.173  1.00 20.00     0.090 C 
HETATM    6 CL11 UNL     1     -43.098  12.650   7.928  1.00 20.00    -0.124 Cl
ENDROOT
BRANCH   4   7
HETATM    7  C4  UNL     1     -40.604  13.530   6.232  1.00 20.00    -0.028 A 
HETATM    8  C1  UNL     1     -39.555  12.711   6.717  1.00 20.00     0.034 A 
HETATM    9  C2  UNL     1     -39.212  11.877   5.679  1.00 20.00     0.142 A 
HETATM   10  O10 UNL     1     -39.981  12.130   4.588  1.00 20.00    -0.334 OA
HETATM   11  C3  UNL     1     -40.825  13.138   4.932  1.00 20.00     0.148 A 
ENDBRANCH   4   7
TORSDOF 1
ENDMDL
MODEL 6
REMARK VINA RESULT:      -3.9     12.469     13.617
REMARK  1 active torsions:
REMARK  status: ('A' for Active; 'I' for Inactive)
REMARK    1  A    between atoms: C4_4  and  C8_8 
ROOT
HETATM    1  C5  UNL     1     -36.196  16.866  -6.344  1.00 20.00     0.002 C 
HETATM    2  C6  UNL     1     -34.817  17.501  -6.115  1.00 20.00     0.011 C 
HETATM    3  C7  UNL     1     -36.208  15.550  -5.572  1.00 20.00     0.021 C 
HETATM    4  C8  UNL     1     -34.074  16.600  -5.110  1.00 20.00     0.039 C 
HETATM    5  C9  UNL     1     -34.735  15.232  -5.358  1.00 20.00     0.090 C 
HETATM    6 CL11 UNL     1     -34.485  14.018  -4.092  1.00 20.00    -0.124 Cl
ENDROOT
BRANCH   4   7
HETATM    7  C4  UNL     1     -34.101  17.109  -3.678  1.00 20.00    -0.028 A 
HETATM    8  C1  UNL     1     -33.288  16.674  -2.603  1.00 20.00     0.034 A 
HETATM    9  C2  UNL     1     -33.671  17.417  -1.511  1.00 20.00     0.142 A 
HETATM   10  O10 UNL     1     -34.666  18.279  -1.844  1.00 20.00    -0.334 OA
HETATM   11  C3  UNL     1     -34.922  18.086  -3.165  1.00 20.00     0.148 A 
ENDBRANCH   4   7
TORSDOF 1
ENDMDL
MODEL 7
REMARK VINA RESULT:      -3.8     11.961     13.298
REMARK  1 active torsions:
REMARK  status: ('A' for Active; 'I' for Inactive)
REMARK    1  A    between atoms: C4_4  and  C8_8 
ROOT
HETATM    1  C5  UNL     1     -28.445  -4.113  10.652  1.00 20.00     0.002 C 
HETATM    2  C6  UNL     1     -27.879  -3.748  12.031  1.00 20.00     0.011 C 
HETATM    3  C7  UNL     1     -28.420  -2.837   9.815  1.00 20.00     0.021 C 
HETATM    4  C8  UNL     1     -27.418  -2.280  11.949  1.00 20.00     0.039 C 
HETATM    5  C9  UNL     1     -28.332  -1.719  10.844  1.00 20.00     0.090 C 
HETATM    6 CL11 UNL     1     -27.817  -0.183  10.128  1.00 20.00    -0.124 Cl
ENDROOT
BRANCH   4   7
HETATM    7  C4  UNL     1     -25.923  -2.107  11.735  1.00 20.00    -0.028 A 
HETATM    8  C1  UNL     1     -25.064  -2.957  10.998  1.00 20.00     0.034 A 
HETATM    9  C2  UNL     1     -23.809  -2.400  11.087  1.00 20.00     0.142 A 
HETATM   10  O10 UNL     1     -23.842  -1.263  11.830  1.00 20.00    -0.334 OA
HETATM   11  C3  UNL     1     -25.132  -1.092  12.221  1.00 20.00     0.148 A 
ENDBRANCH   4   7
TORSDOF 1
ENDMDL
MODEL 8
REMARK VINA RESULT:      -3.8     12.879     14.096
REMARK  1 active torsions:
REMARK  status: ('A' for Active; 'I' for Inactive)
REMARK    1  A    between atoms: C4_4  and  C8_8 
ROOT
HETATM    1  C5  UNL     1     -34.147  17.853  -1.663  1.00 20.00     0.002 C 
HETATM    2  C6  UNL     1     -33.428  16.644  -2.277  1.00 20.00     0.011 C 
HETATM    3  C7  UNL     1     -34.267  18.900  -2.767  1.00 20.00     0.021 C 
HETATM    4  C8  UNL     1     -33.237  16.953  -3.774  1.00 20.00     0.039 C 
HETATM    5  C9  UNL     1     -33.209  18.492  -3.782  1.00 20.00     0.090 C 
HETATM    6 CL11 UNL     1     -33.460  19.256  -5.360  1.00 20.00    -0.124 Cl
ENDROOT
BRANCH   4   7
HETATM    7  C4  UNL     1     -34.263  16.295  -4.682  1.00 20.00    -0.028 A 
HETATM    8  C1  UNL     1     -35.585  16.735  -4.933  1.00 20.00     0.034 A 
HETATM    9  C2  UNL     1     -36.129  15.827  -5.812  1.00 20.00     0.142 A 
HETATM   10  O10 UNL     1     -35.226  14.859  -6.117  1.00 20.00    -0.334 OA
HETATM   11  C3  UNL     1     -34.094  15.150  -5.426  1.00 20.00     0.148 A 
ENDBRANCH   4   7
TORSDOF 1
ENDMDL
MODEL 9
REMARK VINA RESULT:      -3.8     10.078     10.918
REMARK  1 active torsions:
REMARK  status: ('A' for Active; 'I' for Inactive)
REMARK    1  A    between atoms: C4_4  and  C8_8 
ROOT
HETATM    1  C5  UNL     1     -43.414  14.854   6.351  1.00 20.00     0.002 C 
HETATM    2  C6  UNL     1     -43.307  13.324   6.324  1.00 20.00     0.011 C 
HETATM    3  C7  UNL     1     -42.218  15.364   7.150  1.00 20.00     0.021 C 
HETATM    4  C8  UNL     1     -41.979  12.958   7.014  1.00 20.00     0.039 C 
HETATM    5  C9  UNL     1     -41.769  14.155   7.958  1.00 20.00     0.090 C 
HETATM    6 CL11 UNL     1     -40.129  14.347   8.602  1.00 20.00    -0.124 Cl
ENDROOT
BRANCH   4   7
HETATM    7  C4  UNL     1     -40.841  12.653   6.053  1.00 20.00    -0.028 A 
HETATM    8  C1  UNL     1     -39.653  11.937   6.338  1.00 20.00     0.034 A 
HETATM    9  C2  UNL     1     -38.930  11.917   5.168  1.00 20.00     0.142 A 
HETATM   10  O10 UNL     1     -39.596  12.574   4.183  1.00 20.00    -0.334 OA
HETATM   11  C3  UNL     1     -40.758  13.019   4.729  1.00 20.00     0.148 A 
ENDBRANCH   4   7
TORSDOF 1
ENDMDL
