MODEL 1
REMARK VINA RESULT:      -4.7      0.000      0.000
REMARK  2 active torsions:
REMARK  status: ('A' for Active; 'I' for Inactive)
REMARK    1  A    between atoms: C5_5  and  C6_6 
REMARK    2  A    between atoms: C6_6  and  C7_7 
ROOT
HETATM    1  C1  UNL     1     -33.439   7.364   5.914  1.00 20.00     0.031 C 
HETATM    2  C2  UNL     1     -33.751   5.891   3.907  1.00 20.00     0.031 C 
HETATM    3  C3  UNL     1     -34.468   6.494   6.625  1.00 20.00     0.168 C 
HETATM    4  C4  UNL     1     -34.762   5.103   4.731  1.00 20.00     0.168 C 
HETATM    5  C5  UNL     1     -33.664   7.341   4.398  1.00 20.00    -0.010 C 
HETATM    6  O8  UNL     1     -34.439   5.160   6.119  1.00 20.00    -0.391 OA
ENDROOT
BRANCH   5   7
HETATM    7  C6  UNL     1     -32.565   8.105   3.667  1.00 20.00     0.020 C 
BRANCH   7   8
HETATM    8  C7  UNL     1     -32.094   7.414   2.395  1.00 20.00     0.115 C 
HETATM    9 CL9  UNL     1     -32.212   8.475   0.973  1.00 20.00    -0.130 Cl
ENDBRANCH   7   8
ENDBRANCH   5   7
TORSDOF 2
ENDMDL
MODEL 2
REMARK VINA RESULT:      -4.4      0.595      1.724
REMARK  2 active torsions:
REMARK  status: ('A' for Active; 'I' for Inactive)
REMARK    1  A    between atoms: C5_5  and  C6_6 
REMARK    2  A    between atoms: C6_6  and  C7_7 
ROOT
HETATM    1  C1  UNL     1     -33.763   6.096   3.622  1.00 20.00     0.031 C 
HETATM    2  C2  UNL     1     -33.772   7.687   5.563  1.00 20.00     0.031 C 
HETATM    3  C3  UNL     1     -34.302   5.038   4.578  1.00 20.00     0.168 C 
HETATM    4  C4  UNL     1     -34.311   6.539   6.410  1.00 20.00     0.168 C 
HETATM    5  C5  UNL     1     -32.952   7.151   4.383  1.00 20.00    -0.010 C 
HETATM    6  O8  UNL     1     -35.079   5.639   5.612  1.00 20.00    -0.391 OA
ENDROOT
BRANCH   5   7
HETATM    7  C6  UNL     1     -32.515   8.282   3.458  1.00 20.00     0.020 C 
BRANCH   7   8
HETATM    8  C7  UNL     1     -32.259   7.827   2.028  1.00 20.00     0.115 C 
HETATM    9 CL9  UNL     1     -32.567   9.121   0.848  1.00 20.00    -0.130 Cl
ENDBRANCH   7   8
ENDBRANCH   5   7
TORSDOF 2
ENDMDL
MODEL 3
REMARK VINA RESULT:      -3.9      2.961      4.173
REMARK  2 active torsions:
REMARK  status: ('A' for Active; 'I' for Inactive)
REMARK    1  A    between atoms: C5_5  and  C6_6 
REMARK    2  A    between atoms: C6_6  and  C7_7 
ROOT
HETATM    1  C1  UNL     1     -33.112   6.404   3.355  1.00 20.00     0.031 C 
HETATM    2  C2  UNL     1     -33.616   7.903   5.303  1.00 20.00     0.031 C 
HETATM    3  C3  UNL     1     -32.029   7.401   2.959  1.00 20.00     0.168 C 
HETATM    4  C4  UNL     1     -32.504   8.816   4.798  1.00 20.00     0.168 C 
HETATM    5  C5  UNL     1     -34.225   7.100   4.148  1.00 20.00    -0.010 C 
HETATM    6  O8  UNL     1     -31.507   8.064   4.109  1.00 20.00    -0.391 OA
ENDROOT
BRANCH   5   7
HETATM    7  C6  UNL     1     -35.249   6.092   4.658  1.00 20.00     0.020 C 
BRANCH   7   8
HETATM    8  C7  UNL     1     -34.623   4.801   5.167  1.00 20.00     0.115 C 
HETATM    9 CL9  UNL     1     -33.966   4.978   6.810  1.00 20.00    -0.130 Cl
ENDBRANCH   7   8
ENDBRANCH   5   7
TORSDOF 2
ENDMDL
MODEL 4
REMARK VINA RESULT:      -3.7      2.763      3.794
REMARK  2 active torsions:
REMARK  status: ('A' for Active; 'I' for Inactive)
REMARK    1  A    between atoms: C5_5  and  C6_6 
REMARK    2  A    between atoms: C6_6  and  C7_7 
ROOT
HETATM    1  C1  UNL     1     -33.396   8.512   5.576  1.00 20.00     0.031 C 
HETATM    2  C2  UNL     1     -33.301   6.748   3.793  1.00 20.00     0.031 C 
HETATM    3  C3  UNL     1     -32.287   9.234   4.821  1.00 20.00     0.168 C 
HETATM    4  C4  UNL     1     -32.197   7.570   3.138  1.00 20.00     0.168 C 
HETATM    5  C5  UNL     1     -33.343   7.004   5.305  1.00 20.00    -0.010 C 
HETATM    6  O8  UNL     1     -32.363   8.958   3.423  1.00 20.00    -0.391 OA
ENDROOT
BRANCH   5   7
HETATM    7  C6  UNL     1     -34.522   6.286   5.952  1.00 20.00     0.020 C 
BRANCH   7   8
HETATM    8  C7  UNL     1     -35.156   5.235   5.051  1.00 20.00     0.115 C 
HETATM    9 CL9  UNL     1     -33.985   4.000   4.537  1.00 20.00    -0.130 Cl
ENDBRANCH   7   8
ENDBRANCH   5   7
TORSDOF 2
ENDMDL
MODEL 5
REMARK VINA RESULT:      -3.6     12.267     13.196
REMARK  2 active torsions:
REMARK  status: ('A' for Active; 'I' for Inactive)
REMARK    1  A    between atoms: C5_5  and  C6_6 
REMARK    2  A    between atoms: C6_6  and  C7_7 
ROOT
HETATM    1  C1  UNL     1     -34.519  17.523  -4.162  1.00 20.00     0.031 C 
HETATM    2  C2  UNL     1     -33.601  15.217  -3.790  1.00 20.00     0.031 C 
HETATM    3  C3  UNL     1     -34.721  17.130  -5.621  1.00 20.00     0.168 C 
HETATM    4  C4  UNL     1     -33.855  14.954  -5.270  1.00 20.00     0.168 C 
HETATM    5  C5  UNL     1     -33.378  16.713  -3.536  1.00 20.00    -0.010 C 
HETATM    6  O8  UNL     1     -34.958  15.728  -5.739  1.00 20.00    -0.391 OA
ENDROOT
BRANCH   5   7
HETATM    7  C6  UNL     1     -33.249  17.005  -2.045  1.00 20.00     0.020 C 
BRANCH   7   8
HETATM    8  C7  UNL     1     -32.695  18.391  -1.748  1.00 20.00     0.115 C 
HETATM    9 CL9  UNL     1     -31.394  18.347  -0.536  1.00 20.00    -0.130 Cl
ENDBRANCH   7   8
ENDBRANCH   5   7
TORSDOF 2
ENDMDL
MODEL 6
REMARK VINA RESULT:      -3.6      1.496      1.581
REMARK  2 active torsions:
REMARK  status: ('A' for Active; 'I' for Inactive)
REMARK    1  A    between atoms: C5_5  and  C6_6 
REMARK    2  A    between atoms: C6_6  and  C7_7 
ROOT
HETATM    1  C1  UNL     1     -33.417   7.126   5.778  1.00 20.00     0.031 C 
HETATM    2  C2  UNL     1     -33.853   5.427   3.983  1.00 20.00     0.031 C 
HETATM    3  C3  UNL     1     -34.533   6.465   6.577  1.00 20.00     0.168 C 
HETATM    4  C4  UNL     1     -34.945   4.861   4.884  1.00 20.00     0.168 C 
HETATM    5  C5  UNL     1     -33.629   6.916   4.274  1.00 20.00    -0.010 C 
HETATM    6  O8  UNL     1     -34.630   5.078   6.258  1.00 20.00    -0.391 OA
ENDROOT
BRANCH   5   7
HETATM    7  C6  UNL     1     -32.454   7.463   3.470  1.00 20.00     0.020 C 
BRANCH   7   8
HETATM    8  C7  UNL     1     -32.405   8.984   3.434  1.00 20.00     0.115 C 
HETATM    9 CL9  UNL     1     -31.897   9.675   4.992  1.00 20.00    -0.130 Cl
ENDBRANCH   7   8
ENDBRANCH   5   7
TORSDOF 2
ENDMDL
MODEL 7
REMARK VINA RESULT:      -3.5      9.889     10.446
REMARK  2 active torsions:
REMARK  status: ('A' for Active; 'I' for Inactive)
REMARK    1  A    between atoms: C5_5  and  C6_6 
REMARK    2  A    between atoms: C6_6  and  C7_7 
ROOT
HETATM    1  C1  UNL     1     -40.708  14.009   7.591  1.00 20.00     0.031 C 
HETATM    2  C2  UNL     1     -42.547  12.436   6.927  1.00 20.00     0.031 C 
HETATM    3  C3  UNL     1     -41.503  14.291   8.860  1.00 20.00     0.168 C 
HETATM    4  C4  UNL     1     -43.239  12.807   8.233  1.00 20.00     0.168 C 
HETATM    5  C5  UNL     1     -41.639  13.577   6.452  1.00 20.00    -0.010 C 
HETATM    6  O8  UNL     1     -42.282  13.155   9.232  1.00 20.00    -0.391 OA
ENDROOT
BRANCH   5   7
HETATM    7  C6  UNL     1     -40.845  13.170   5.215  1.00 20.00     0.020 C 
BRANCH   7   8
HETATM    8  C7  UNL     1     -39.899  12.003   5.464  1.00 20.00     0.115 C 
HETATM    9 CL9  UNL     1     -38.931  11.608   4.025  1.00 20.00    -0.130 Cl
ENDBRANCH   7   8
ENDBRANCH   5   7
TORSDOF 2
ENDMDL
MODEL 8
REMARK VINA RESULT:      -3.5     12.575     12.936
REMARK  2 active torsions:
REMARK  status: ('A' for Active; 'I' for Inactive)
REMARK    1  A    between atoms: C5_5  and  C6_6 
REMARK    2  A    between atoms: C6_6  and  C7_7 
ROOT
HETATM    1  C1  UNL     1     -31.369  18.597  -0.554  1.00 20.00     0.031 C 
HETATM    2  C2  UNL     1     -32.851  19.086   1.411  1.00 20.00     0.031 C 
HETATM    3  C3  UNL     1     -32.588  17.979  -1.230  1.00 20.00     0.168 C 
HETATM    4  C4  UNL     1     -33.987  18.441   0.625  1.00 20.00     0.168 C 
HETATM    5  C5  UNL     1     -31.496  18.517   0.971  1.00 20.00    -0.010 C 
HETATM    6  O8  UNL     1     -33.788  18.605  -0.778  1.00 20.00    -0.391 OA
ENDROOT
BRANCH   5   7
HETATM    7  C6  UNL     1     -30.345  19.244   1.659  1.00 20.00     0.020 C 
BRANCH   7   8
HETATM    8  C7  UNL     1     -30.196  18.881   3.130  1.00 20.00     0.115 C 
HETATM    9 CL9  UNL     1     -28.509  18.523   3.563  1.00 20.00    -0.130 Cl
ENDBRANCH   7   8
ENDBRANCH   5   7
TORSDOF 2
ENDMDL
MODEL 9
REMARK VINA RESULT:      -3.4     12.267     13.209
REMARK  2 active torsions:
REMARK  status: ('A' for Active; 'I' for Inactive)
REMARK    1  A    between atoms: C5_5  and  C6_6 
REMARK    2  A    between atoms: C6_6  and  C7_7 
ROOT
HETATM    1  C1  UNL     1     -33.465  16.758  -2.051  1.00 20.00     0.031 C 
HETATM    2  C2  UNL     1     -33.967  17.551  -4.378  1.00 20.00     0.031 C 
HETATM    3  C3  UNL     1     -33.074  18.194  -1.721  1.00 20.00     0.168 C 
HETATM    4  C4  UNL     1     -33.548  18.943  -3.918  1.00 20.00     0.168 C 
HETATM    5  C5  UNL     1     -33.267  16.471  -3.544  1.00 20.00    -0.010 C 
HETATM    6  O8  UNL     1     -33.809  19.115  -2.526  1.00 20.00    -0.391 OA
ENDROOT
BRANCH   5   7
HETATM    7  C6  UNL     1     -33.773  15.080  -3.909  1.00 20.00     0.020 C 
BRANCH   7   8
HETATM    8  C7  UNL     1     -34.123  14.934  -5.384  1.00 20.00     0.115 C 
HETATM    9 CL9  UNL     1     -35.823  14.475  -5.627  1.00 20.00    -0.130 Cl
ENDBRANCH   7   8
ENDBRANCH   5   7
TORSDOF 2
ENDMDL
