MODEL 1
REMARK VINA RESULT:      -4.3      0.000      0.000
REMARK  4 active torsions:
REMARK  status: ('A' for Active; 'I' for Inactive)
REMARK    1  A    between atoms: C5_5  and  C8_8 
REMARK    2  A    between atoms: C7_7  and  N10_10 
REMARK    3  A    between atoms: C8_8  and  N10_10 
REMARK    4  A    between atoms: C9_9  and  N10_10 
ROOT
HETATM    1  C1  UNL     1     -32.846   9.435   0.758  1.00 20.00     0.013 C 
HETATM    2  C2  UNL     1     -32.791   9.243   1.941  1.00 20.00    -0.087 C 
HETATM    3  C7  UNL     1     -32.724   9.013   3.387  1.00 20.00     0.364 C 
ENDROOT
BRANCH   3   4
HETATM    4  N10 UNL     1     -33.070   7.628   3.706  1.00 20.00     0.099 N 
BRANCH   4   5
HETATM    5  C8  UNL     1     -32.993   7.402   5.148  1.00 20.00     0.278 C 
BRANCH   5   6
HETATM    6  C5  UNL     1     -34.316   6.994   5.702  1.00 20.00     0.014 A 
HETATM    7  C3  UNL     1     -35.067   5.840   5.100  1.00 20.00     0.007 A 
HETATM    8  C4  UNL     1     -34.453   5.706   6.465  1.00 20.00     0.007 A 
ENDBRANCH   5   6
ENDBRANCH   4   5
BRANCH   4   9
HETATM    9  C9  UNL     1     -32.189   6.703   2.996  1.00 20.00     0.269 C 
HETATM   10  C6  UNL     1     -32.917   5.464   2.597  1.00 20.00     0.037 C 
ENDBRANCH   4   9
ENDBRANCH   3   4
TORSDOF 4
ENDMDL
MODEL 2
REMARK VINA RESULT:      -3.8      9.398     10.590
REMARK  4 active torsions:
REMARK  status: ('A' for Active; 'I' for Inactive)
REMARK    1  A    between atoms: C5_5  and  C8_8 
REMARK    2  A    between atoms: C7_7  and  N10_10 
REMARK    3  A    between atoms: C8_8  and  N10_10 
REMARK    4  A    between atoms: C9_9  and  N10_10 
ROOT
HETATM    1  C1  UNL     1     -40.204  14.956   9.711  1.00 20.00     0.013 C 
HETATM    2  C2  UNL     1     -40.437  14.914   8.534  1.00 20.00    -0.087 C 
HETATM    3  C7  UNL     1     -40.720  14.867   7.097  1.00 20.00     0.364 C 
ENDROOT
BRANCH   3   4
HETATM    4  N10 UNL     1     -41.201  13.541   6.709  1.00 20.00     0.099 N 
BRANCH   4   5
HETATM    5  C8  UNL     1     -40.741  13.205   5.362  1.00 20.00     0.278 C 
BRANCH   5   6
HETATM    6  C5  UNL     1     -39.929  11.955   5.365  1.00 20.00     0.014 A 
HETATM    7  C3  UNL     1     -39.110  11.580   4.162  1.00 20.00     0.007 A 
HETATM    8  C4  UNL     1     -38.428  12.027   5.425  1.00 20.00     0.007 A 
ENDBRANCH   5   6
ENDBRANCH   4   5
BRANCH   4   9
HETATM    9  C9  UNL     1     -42.660  13.485   6.780  1.00 20.00     0.269 C 
HETATM   10  C6  UNL     1     -43.118  12.240   7.461  1.00 20.00     0.037 C 
ENDBRANCH   4   9
ENDBRANCH   3   4
TORSDOF 4
ENDMDL
MODEL 3
REMARK VINA RESULT:      -3.8     11.503     12.458
REMARK  4 active torsions:
REMARK  status: ('A' for Active; 'I' for Inactive)
REMARK    1  A    between atoms: C5_5  and  C8_8 
REMARK    2  A    between atoms: C7_7  and  N10_10 
REMARK    3  A    between atoms: C8_8  and  N10_10 
REMARK    4  A    between atoms: C9_9  and  N10_10 
ROOT
HETATM    1  C1  UNL     1     -33.358  14.786  -4.506  1.00 20.00     0.013 C 
HETATM    2  C2  UNL     1     -33.369  15.629  -3.652  1.00 20.00    -0.087 C 
HETATM    3  C7  UNL     1     -33.382  16.655  -2.605  1.00 20.00     0.364 C 
ENDROOT
BRANCH   3   4
HETATM    4  N10 UNL     1     -33.111  17.975  -3.173  1.00 20.00     0.099 N 
BRANCH   4   5
HETATM    5  C8  UNL     1     -32.650  18.893  -2.133  1.00 20.00     0.278 C 
BRANCH   5   6
HETATM    6  C5  UNL     1     -32.240  18.155  -0.905  1.00 20.00     0.014 A 
HETATM    7  C3  UNL     1     -31.144  18.691  -0.027  1.00 20.00     0.007 A 
HETATM    8  C4  UNL     1     -32.568  18.705   0.455  1.00 20.00     0.007 A 
ENDBRANCH   5   6
ENDBRANCH   4   5
BRANCH   4   9
HETATM    9  C9  UNL     1     -34.305  18.504  -3.830  1.00 20.00     0.269 C 
HETATM   10  C6  UNL     1     -35.425  18.669  -2.859  1.00 20.00     0.037 C 
ENDBRANCH   4   9
ENDBRANCH   3   4
TORSDOF 4
ENDMDL
MODEL 4
REMARK VINA RESULT:      -3.7      9.654     10.655
REMARK  4 active torsions:
REMARK  status: ('A' for Active; 'I' for Inactive)
REMARK    1  A    between atoms: C5_5  and  C8_8 
REMARK    2  A    between atoms: C7_7  and  N10_10 
REMARK    3  A    between atoms: C8_8  and  N10_10 
REMARK    4  A    between atoms: C9_9  and  N10_10 
ROOT
HETATM    1  C1  UNL     1     -40.429  15.878   7.695  1.00 20.00     0.013 C 
HETATM    2  C2  UNL     1     -40.966  14.806   7.628  1.00 20.00    -0.087 C 
HETATM    3  C7  UNL     1     -41.622  13.499   7.551  1.00 20.00     0.364 C 
ENDROOT
BRANCH   3   4
HETATM    4  N10 UNL     1     -41.994  13.189   6.170  1.00 20.00     0.099 N 
BRANCH   4   5
HETATM    5  C8  UNL     1     -40.824  13.263   5.297  1.00 20.00     0.278 C 
BRANCH   5   6
HETATM    6  C5  UNL     1     -40.027  12.004   5.356  1.00 20.00     0.014 A 
HETATM    7  C3  UNL     1     -39.105  11.636   4.227  1.00 20.00     0.007 A 
HETATM    8  C4  UNL     1     -38.537  12.060   5.553  1.00 20.00     0.007 A 
ENDBRANCH   5   6
ENDBRANCH   4   5
BRANCH   4   9
HETATM    9  C9  UNL     1     -43.038  14.101   5.705  1.00 20.00     0.269 C 
HETATM   10  C6  UNL     1     -42.746  14.595   4.328  1.00 20.00     0.037 C 
ENDBRANCH   4   9
ENDBRANCH   3   4
TORSDOF 4
ENDMDL
MODEL 5
REMARK VINA RESULT:      -3.6      0.846      4.334
REMARK  4 active torsions:
REMARK  status: ('A' for Active; 'I' for Inactive)
REMARK    1  A    between atoms: C5_5  and  C8_8 
REMARK    2  A    between atoms: C7_7  and  N10_10 
REMARK    3  A    between atoms: C8_8  and  N10_10 
REMARK    4  A    between atoms: C9_9  and  N10_10 
ROOT
HETATM    1  C1  UNL     1     -34.701   5.669   6.416  1.00 20.00     0.013 C 
HETATM    2  C2  UNL     1     -34.146   6.561   5.835  1.00 20.00    -0.087 C 
HETATM    3  C7  UNL     1     -33.470   7.653   5.131  1.00 20.00     0.364 C 
ENDROOT
BRANCH   3   4
HETATM    4  N10 UNL     1     -32.691   7.137   4.005  1.00 20.00     0.099 N 
BRANCH   4   5
HETATM    5  C8  UNL     1     -32.126   8.238   3.227  1.00 20.00     0.278 C 
BRANCH   5   6
HETATM    6  C5  UNL     1     -32.880   8.443   1.957  1.00 20.00     0.014 A 
HETATM    7  C3  UNL     1     -32.867   9.783   1.275  1.00 20.00     0.007 A 
HETATM    8  C4  UNL     1     -32.142   8.619   0.659  1.00 20.00     0.007 A 
ENDBRANCH   5   6
ENDBRANCH   4   5
BRANCH   4   9
HETATM    9  C9  UNL     1     -33.522   6.284   3.156  1.00 20.00     0.269 C 
HETATM   10  C6  UNL     1     -32.779   5.065   2.726  1.00 20.00     0.037 C 
ENDBRANCH   4   9
ENDBRANCH   3   4
TORSDOF 4
ENDMDL
MODEL 6
REMARK VINA RESULT:      -3.5     11.381     12.252
REMARK  4 active torsions:
REMARK  status: ('A' for Active; 'I' for Inactive)
REMARK    1  A    between atoms: C5_5  and  C8_8 
REMARK    2  A    between atoms: C7_7  and  N10_10 
REMARK    3  A    between atoms: C8_8  and  N10_10 
REMARK    4  A    between atoms: C9_9  and  N10_10 
ROOT
HETATM    1  C1  UNL     1     -30.877  18.514   2.617  1.00 20.00     0.013 C 
HETATM    2  C2  UNL     1     -30.955  18.520   1.419  1.00 20.00    -0.087 C 
HETATM    3  C7  UNL     1     -31.045  18.526  -0.043  1.00 20.00     0.364 C 
ENDROOT
BRANCH   3   4
HETATM    4  N10 UNL     1     -32.403  18.197  -0.478  1.00 20.00     0.099 N 
BRANCH   4   5
HETATM    5  C8  UNL     1     -32.435  17.972  -1.922  1.00 20.00     0.278 C 
BRANCH   5   6
HETATM    6  C5  UNL     1     -33.509  17.007  -2.294  1.00 20.00     0.014 A 
HETATM    7  C3  UNL     1     -34.249  17.159  -3.594  1.00 20.00     0.007 A 
HETATM    8  C4  UNL     1     -33.287  16.019  -3.406  1.00 20.00     0.007 A 
ENDBRANCH   5   6
ENDBRANCH   4   5
BRANCH   4   9
HETATM    9  C9  UNL     1     -33.332  19.261  -0.105  1.00 20.00     0.269 C 
HETATM   10  C6  UNL     1     -34.411  18.745   0.786  1.00 20.00     0.037 C 
ENDBRANCH   4   9
ENDBRANCH   3   4
TORSDOF 4
ENDMDL
MODEL 7
REMARK VINA RESULT:      -3.5      1.594      2.797
REMARK  4 active torsions:
REMARK  status: ('A' for Active; 'I' for Inactive)
REMARK    1  A    between atoms: C5_5  and  C8_8 
REMARK    2  A    between atoms: C7_7  and  N10_10 
REMARK    3  A    between atoms: C8_8  and  N10_10 
REMARK    4  A    between atoms: C9_9  and  N10_10 
ROOT
HETATM    1  C1  UNL     1     -32.837   4.735   2.133  1.00 20.00     0.013 C 
HETATM    2  C2  UNL     1     -32.708   5.797   2.677  1.00 20.00    -0.087 C 
HETATM    3  C7  UNL     1     -32.548   7.097   3.335  1.00 20.00     0.364 C 
ENDROOT
BRANCH   3   4
HETATM    4  N10 UNL     1     -33.251   7.114   4.618  1.00 20.00     0.099 N 
BRANCH   4   5
HETATM    5  C8  UNL     1     -34.676   6.853   4.422  1.00 20.00     0.278 C 
BRANCH   5   6
HETATM    6  C5  UNL     1     -35.116   5.656   5.195  1.00 20.00     0.014 A 
HETATM    7  C3  UNL     1     -34.103   4.674   5.714  1.00 20.00     0.007 A 
HETATM    8  C4  UNL     1     -34.844   5.565   6.671  1.00 20.00     0.007 A 
ENDBRANCH   5   6
ENDBRANCH   4   5
BRANCH   4   9
HETATM    9  C9  UNL     1     -33.054   8.396   5.292  1.00 20.00     0.269 C 
HETATM   10  C6  UNL     1     -32.066   9.242   4.561  1.00 20.00     0.037 C 
ENDBRANCH   4   9
ENDBRANCH   3   4
TORSDOF 4
ENDMDL
MODEL 8
REMARK VINA RESULT:      -3.5      9.699     10.668
REMARK  4 active torsions:
REMARK  status: ('A' for Active; 'I' for Inactive)
REMARK    1  A    between atoms: C5_5  and  C8_8 
REMARK    2  A    between atoms: C7_7  and  N10_10 
REMARK    3  A    between atoms: C8_8  and  N10_10 
REMARK    4  A    between atoms: C9_9  and  N10_10 
ROOT
HETATM    1  C1  UNL     1     -39.170  11.739   4.283  1.00 20.00     0.013 C 
HETATM    2  C2  UNL     1     -39.797  12.088   5.246  1.00 20.00    -0.087 C 
HETATM    3  C7  UNL     1     -40.559  12.511   6.423  1.00 20.00     0.364 C 
ENDROOT
BRANCH   3   4
HETATM    4  N10 UNL     1     -41.377  13.684   6.114  1.00 20.00     0.099 N 
BRANCH   4   5
HETATM    5  C8  UNL     1     -41.014  14.802   6.983  1.00 20.00     0.278 C 
BRANCH   5   6
HETATM    6  C5  UNL     1     -40.447  14.320   8.275  1.00 20.00     0.014 A 
HETATM    7  C3  UNL     1     -40.082  15.298   9.356  1.00 20.00     0.007 A 
HETATM    8  C4  UNL     1     -41.265  14.387   9.534  1.00 20.00     0.007 A 
ENDBRANCH   5   6
ENDBRANCH   4   5
BRANCH   4   9
HETATM    9  C9  UNL     1     -42.798  13.369   6.253  1.00 20.00     0.269 C 
HETATM   10  C6  UNL     1     -42.998  12.137   7.069  1.00 20.00     0.037 C 
ENDBRANCH   4   9
ENDBRANCH   3   4
TORSDOF 4
ENDMDL
MODEL 9
REMARK VINA RESULT:      -3.4      0.838      3.614
REMARK  4 active torsions:
REMARK  status: ('A' for Active; 'I' for Inactive)
REMARK    1  A    between atoms: C5_5  and  C8_8 
REMARK    2  A    between atoms: C7_7  and  N10_10 
REMARK    3  A    between atoms: C8_8  and  N10_10 
REMARK    4  A    between atoms: C9_9  and  N10_10 
ROOT
HETATM    1  C1  UNL     1     -34.424   6.550   6.492  1.00 20.00     0.013 C 
HETATM    2  C2  UNL     1     -33.749   7.356   5.914  1.00 20.00    -0.087 C 
HETATM    3  C7  UNL     1     -32.922   8.342   5.212  1.00 20.00     0.364 C 
ENDROOT
BRANCH   3   4
HETATM    4  N10 UNL     1     -33.049   8.184   3.763  1.00 20.00     0.099 N 
BRANCH   4   5
HETATM    5  C8  UNL     1     -32.335   6.989   3.316  1.00 20.00     0.278 C 
BRANCH   5   6
HETATM    6  C5  UNL     1     -33.274   5.981   2.746  1.00 20.00     0.014 A 
HETATM    7  C3  UNL     1     -32.769   4.631   2.318  1.00 20.00     0.007 A 
HETATM    8  C4  UNL     1     -33.640   4.755   3.537  1.00 20.00     0.007 A 
ENDBRANCH   5   6
ENDBRANCH   4   5
BRANCH   4   9
HETATM    9  C9  UNL     1     -32.545   9.369   3.073  1.00 20.00     0.269 C 
HETATM   10  C6  UNL     1     -32.858   9.318   1.616  1.00 20.00     0.037 C 
ENDBRANCH   4   9
ENDBRANCH   3   4
TORSDOF 4
ENDMDL
