MODEL 1
REMARK VINA RESULT:      -4.3      0.000      0.000
REMARK  3 active torsions:
REMARK  status: ('A' for Active; 'I' for Inactive)
REMARK    1  A    between atoms: C5_5  and  C6_6 
REMARK    2  A    between atoms: C6_6  and  C7_7 
REMARK    3  A    between atoms: C7_7  and  C8_8 
ROOT
HETATM    1  C1  UNL     1     -33.729   5.918   6.712  1.00 20.00     0.004 C 
HETATM    2  C2  UNL     1     -34.605   4.997   5.875  1.00 20.00     0.026 C 
HETATM    3  C3  UNL     1     -34.027   7.378   6.384  1.00 20.00     0.032 C 
HETATM    4  C4  UNL     1     -34.504   5.348   4.398  1.00 20.00     0.168 C 
HETATM    5  C5  UNL     1     -33.994   7.650   4.878  1.00 20.00     0.121 C 
HETATM    6  O9  UNL     1     -34.818   6.720   4.168  1.00 20.00    -0.386 OA
ENDROOT
BRANCH   5   7
HETATM    7  C6  UNL     1     -32.581   7.697   4.304  1.00 20.00     0.033 C 
BRANCH   7   8
HETATM    8  C7  UNL     1     -32.467   8.726   3.180  1.00 20.00     0.017 C 
BRANCH   8   9
HETATM    9  C8  UNL     1     -32.220   8.046   1.840  1.00 20.00     0.115 C 
HETATM   10 CL10 UNL     1     -32.577   9.162   0.502  1.00 20.00    -0.130 Cl
ENDBRANCH   8   9
ENDBRANCH   7   8
ENDBRANCH   5   7
TORSDOF 3
ENDMDL
MODEL 2
REMARK VINA RESULT:      -3.9      1.210      1.210
REMARK  3 active torsions:
REMARK  status: ('A' for Active; 'I' for Inactive)
REMARK    1  A    between atoms: C5_5  and  C6_6 
REMARK    2  A    between atoms: C6_6  and  C7_7 
REMARK    3  A    between atoms: C7_7  and  C8_8 
ROOT
HETATM    1  C1  UNL     1     -33.837   5.713   6.674  1.00 20.00     0.004 C 
HETATM    2  C2  UNL     1     -34.862   5.075   5.747  1.00 20.00     0.026 C 
HETATM    3  C3  UNL     1     -33.966   7.233   6.642  1.00 20.00     0.032 C 
HETATM    4  C4  UNL     1     -34.791   5.687   4.356  1.00 20.00     0.168 C 
HETATM    5  C5  UNL     1     -33.974   7.782   5.212  1.00 20.00     0.121 C 
HETATM    6  O9  UNL     1     -34.942   7.104   4.405  1.00 20.00    -0.386 OA
ENDROOT
BRANCH   5   7
HETATM    7  C6  UNL     1     -32.596   7.777   4.556  1.00 20.00     0.033 C 
BRANCH   7   8
HETATM    8  C7  UNL     1     -32.580   8.623   3.283  1.00 20.00     0.017 C 
BRANCH   8   9
HETATM    9  C8  UNL     1     -32.254   7.769   2.065  1.00 20.00     0.115 C 
HETATM   10 CL10 UNL     1     -32.398   6.041   2.462  1.00 20.00    -0.130 Cl
ENDBRANCH   8   9
ENDBRANCH   7   8
ENDBRANCH   5   7
TORSDOF 3
ENDMDL
MODEL 3
REMARK VINA RESULT:      -3.9      1.076      1.806
REMARK  3 active torsions:
REMARK  status: ('A' for Active; 'I' for Inactive)
REMARK    1  A    between atoms: C5_5  and  C6_6 
REMARK    2  A    between atoms: C6_6  and  C7_7 
REMARK    3  A    between atoms: C7_7  and  C8_8 
ROOT
HETATM    1  C1  UNL     1     -35.116   5.553   4.658  1.00 20.00     0.004 C 
HETATM    2  C2  UNL     1     -34.942   5.626   6.169  1.00 20.00     0.026 C 
HETATM    3  C3  UNL     1     -33.776   5.758   3.958  1.00 20.00     0.032 C 
HETATM    4  C4  UNL     1     -34.207   6.896   6.569  1.00 20.00     0.168 C 
HETATM    5  C5  UNL     1     -33.045   7.005   4.464  1.00 20.00     0.121 C 
HETATM    6  O9  UNL     1     -32.956   7.007   5.893  1.00 20.00    -0.386 OA
ENDROOT
BRANCH   5   7
HETATM    7  C6  UNL     1     -33.641   8.309   3.940  1.00 20.00     0.033 C 
BRANCH   7   8
HETATM    8  C7  UNL     1     -32.630   9.088   3.099  1.00 20.00     0.017 C 
BRANCH   8   9
HETATM    9  C8  UNL     1     -32.301   8.342   1.812  1.00 20.00     0.115 C 
HETATM   10 CL10 UNL     1     -32.678   9.351   0.397  1.00 20.00    -0.130 Cl
ENDBRANCH   8   9
ENDBRANCH   7   8
ENDBRANCH   5   7
TORSDOF 3
ENDMDL
MODEL 4
REMARK VINA RESULT:      -3.7      2.287      4.294
REMARK  3 active torsions:
REMARK  status: ('A' for Active; 'I' for Inactive)
REMARK    1  A    between atoms: C5_5  and  C6_6 
REMARK    2  A    between atoms: C6_6  and  C7_7 
REMARK    3  A    between atoms: C7_7  and  C8_8 
ROOT
HETATM    1  C1  UNL     1     -32.906   9.259   2.278  1.00 20.00     0.004 C 
HETATM    2  C2  UNL     1     -32.219   8.060   1.638  1.00 20.00     0.026 C 
HETATM    3  C3  UNL     1     -32.419   9.447   3.711  1.00 20.00     0.032 C 
HETATM    4  C4  UNL     1     -32.351   6.826   2.518  1.00 20.00     0.168 C 
HETATM    5  C5  UNL     1     -32.495   8.150   4.522  1.00 20.00     0.121 C 
HETATM    6  O9  UNL     1     -31.855   7.072   3.832  1.00 20.00    -0.386 OA
ENDROOT
BRANCH   5   7
HETATM    7  C6  UNL     1     -33.917   7.782   4.939  1.00 20.00     0.033 C 
BRANCH   7   8
HETATM    8  C7  UNL     1     -33.943   7.120   6.316  1.00 20.00     0.017 C 
BRANCH   8   9
HETATM    9  C8  UNL     1     -34.533   5.718   6.237  1.00 20.00     0.115 C 
HETATM   10 CL10 UNL     1     -34.986   5.330   4.561  1.00 20.00    -0.130 Cl
ENDBRANCH   8   9
ENDBRANCH   7   8
ENDBRANCH   5   7
TORSDOF 3
ENDMDL
MODEL 5
REMARK VINA RESULT:      -3.7     11.780     12.349
REMARK  3 active torsions:
REMARK  status: ('A' for Active; 'I' for Inactive)
REMARK    1  A    between atoms: C5_5  and  C6_6 
REMARK    2  A    between atoms: C6_6  and  C7_7 
REMARK    3  A    between atoms: C7_7  and  C8_8 
ROOT
HETATM    1  C1  UNL     1     -31.427  18.499  -0.145  1.00 20.00     0.004 C 
HETATM    2  C2  UNL     1     -32.326  18.913   1.011  1.00 20.00     0.026 C 
HETATM    3  C3  UNL     1     -32.052  18.904  -1.476  1.00 20.00     0.032 C 
HETATM    4  C4  UNL     1     -33.747  18.411   0.800  1.00 20.00     0.168 C 
HETATM    5  C5  UNL     1     -33.508  18.445  -1.594  1.00 20.00     0.121 C 
HETATM    6  O9  UNL     1     -34.271  18.848  -0.452  1.00 20.00    -0.386 OA
ENDROOT
BRANCH   5   7
HETATM    7  C6  UNL     1     -33.649  16.948  -1.860  1.00 20.00     0.033 C 
BRANCH   7   8
HETATM    8  C7  UNL     1     -32.977  16.549  -3.174  1.00 20.00     0.017 C 
BRANCH   8   9
HETATM    9  C8  UNL     1     -34.009  16.090  -4.196  1.00 20.00     0.115 C 
HETATM   10 CL10 UNL     1     -34.174  14.319  -4.159  1.00 20.00    -0.130 Cl
ENDBRANCH   8   9
ENDBRANCH   7   8
ENDBRANCH   5   7
TORSDOF 3
ENDMDL
MODEL 6
REMARK VINA RESULT:      -3.6      1.394      2.184
REMARK  3 active torsions:
REMARK  status: ('A' for Active; 'I' for Inactive)
REMARK    1  A    between atoms: C5_5  and  C6_6 
REMARK    2  A    between atoms: C6_6  and  C7_7 
REMARK    3  A    between atoms: C7_7  and  C8_8 
ROOT
HETATM    1  C1  UNL     1     -33.925   7.519   5.600  1.00 20.00     0.004 C 
HETATM    2  C2  UNL     1     -34.306   6.681   6.813  1.00 20.00     0.026 C 
HETATM    3  C3  UNL     1     -34.696   7.053   4.369  1.00 20.00     0.032 C 
HETATM    4  C4  UNL     1     -34.175   5.196   6.508  1.00 20.00     0.168 C 
HETATM    5  C5  UNL     1     -34.597   5.539   4.164  1.00 20.00     0.121 C 
HETATM    6  O9  UNL     1     -34.940   4.833   5.361  1.00 20.00    -0.386 OA
ENDROOT
BRANCH   5   7
HETATM    7  C6  UNL     1     -33.243   5.091   3.619  1.00 20.00     0.033 C 
BRANCH   7   8
HETATM    8  C7  UNL     1     -32.903   5.804   2.311  1.00 20.00     0.017 C 
BRANCH   8   9
HETATM    9  C8  UNL     1     -32.033   7.028   2.567  1.00 20.00     0.115 C 
HETATM   10 CL10 UNL     1     -32.097   8.136   1.177  1.00 20.00    -0.130 Cl
ENDBRANCH   8   9
ENDBRANCH   7   8
ENDBRANCH   5   7
TORSDOF 3
ENDMDL
MODEL 7
REMARK VINA RESULT:      -3.5     12.108     13.078
REMARK  3 active torsions:
REMARK  status: ('A' for Active; 'I' for Inactive)
REMARK    1  A    between atoms: C5_5  and  C6_6 
REMARK    2  A    between atoms: C6_6  and  C7_7 
REMARK    3  A    between atoms: C7_7  and  C8_8 
ROOT
HETATM    1  C1  UNL     1     -33.311  16.483  -2.946  1.00 20.00     0.004 C 
HETATM    2  C2  UNL     1     -34.090  17.169  -4.060  1.00 20.00     0.026 C 
HETATM    3  C3  UNL     1     -33.675  17.087  -1.593  1.00 20.00     0.032 C 
HETATM    4  C4  UNL     1     -33.935  18.680  -3.978  1.00 20.00     0.168 C 
HETATM    5  C5  UNL     1     -33.583  18.615  -1.598  1.00 20.00     0.121 C 
HETATM    6  O9  UNL     1     -34.315  19.173  -2.695  1.00 20.00    -0.386 OA
ENDROOT
BRANCH   5   7
HETATM    7  C6  UNL     1     -32.147  19.133  -1.565  1.00 20.00     0.033 C 
BRANCH   7   8
HETATM    8  C7  UNL     1     -31.361  18.525  -0.404  1.00 20.00     0.017 C 
BRANCH   8   9
HETATM    9  C8  UNL     1     -31.883  19.032   0.934  1.00 20.00     0.115 C 
HETATM   10 CL10 UNL     1     -30.941  18.335   2.272  1.00 20.00    -0.130 Cl
ENDBRANCH   8   9
ENDBRANCH   7   8
ENDBRANCH   5   7
TORSDOF 3
ENDMDL
MODEL 8
REMARK VINA RESULT:      -3.5      9.694     10.624
REMARK  3 active torsions:
REMARK  status: ('A' for Active; 'I' for Inactive)
REMARK    1  A    between atoms: C5_5  and  C6_6 
REMARK    2  A    between atoms: C6_6  and  C7_7 
REMARK    3  A    between atoms: C7_7  and  C8_8 
ROOT
HETATM    1  C1  UNL     1     -41.233  16.320   7.453  1.00 20.00     0.004 C 
HETATM    2  C2  UNL     1     -40.653  15.863   8.784  1.00 20.00     0.026 C 
HETATM    3  C3  UNL     1     -42.330  15.365   6.995  1.00 20.00     0.032 C 
HETATM    4  C4  UNL     1     -40.233  14.402   8.719  1.00 20.00     0.168 C 
HETATM    5  C5  UNL     1     -41.876  13.903   7.032  1.00 20.00     0.121 C 
HETATM    6  O9  UNL     1     -41.315  13.569   8.307  1.00 20.00    -0.386 OA
ENDROOT
BRANCH   5   7
HETATM    7  C6  UNL     1     -40.930  13.535   5.892  1.00 20.00     0.033 C 
BRANCH   7   8
HETATM    8  C7  UNL     1     -40.467  12.082   5.995  1.00 20.00     0.017 C 
BRANCH   8   9
HETATM    9  C8  UNL     1     -39.009  11.943   5.577  1.00 20.00     0.115 C 
HETATM   10 CL10 UNL     1     -38.891  11.660   3.825  1.00 20.00    -0.130 Cl
ENDBRANCH   8   9
ENDBRANCH   7   8
ENDBRANCH   5   7
TORSDOF 3
ENDMDL
MODEL 9
REMARK VINA RESULT:      -3.5     11.609     12.553
REMARK  3 active torsions:
REMARK  status: ('A' for Active; 'I' for Inactive)
REMARK    1  A    between atoms: C5_5  and  C6_6 
REMARK    2  A    between atoms: C6_6  and  C7_7 
REMARK    3  A    between atoms: C7_7  and  C8_8 
ROOT
HETATM    1  C1  UNL     1     -35.419  16.345  -4.887  1.00 20.00     0.004 C 
HETATM    2  C2  UNL     1     -35.016  14.919  -5.239  1.00 20.00     0.026 C 
HETATM    3  C3  UNL     1     -34.180  17.211  -4.679  1.00 20.00     0.032 C 
HETATM    4  C4  UNL     1     -34.022  14.371  -4.226  1.00 20.00     0.168 C 
HETATM    5  C5  UNL     1     -33.179  16.567  -3.716  1.00 20.00     0.121 C 
HETATM    6  O9  UNL     1     -32.883  15.221  -4.104  1.00 20.00    -0.386 OA
ENDROOT
BRANCH   5   7
HETATM    7  C6  UNL     1     -33.612  16.645  -2.254  1.00 20.00     0.033 C 
BRANCH   7   8
HETATM    8  C7  UNL     1     -33.610  18.087  -1.747  1.00 20.00     0.017 C 
BRANCH   8   9
HETATM    9  C8  UNL     1     -33.007  18.174  -0.352  1.00 20.00     0.115 C 
HETATM   10 CL10 UNL     1     -31.250  18.433  -0.451  1.00 20.00    -0.130 Cl
ENDBRANCH   8   9
ENDBRANCH   7   8
ENDBRANCH   5   7
TORSDOF 3
ENDMDL
