MODEL 1
REMARK VINA RESULT:      -4.4      0.000      0.000
REMARK  1 active torsions:
REMARK  status: ('A' for Active; 'I' for Inactive)
REMARK    1  A    between atoms: C4_4  and  C8_8 
ROOT
HETATM    1  C5  UNL     1     -31.973   9.083   4.882  1.00 20.00     0.002 C 
HETATM    2  C6  UNL     1     -33.506   9.033   4.880  1.00 20.00     0.011 C 
HETATM    3  C7  UNL     1     -31.495   7.932   4.000  1.00 20.00     0.021 C 
HETATM    4  C8  UNL     1     -33.911   7.776   4.085  1.00 20.00     0.039 C 
HETATM    5  C9  UNL     1     -32.707   7.593   3.143  1.00 20.00     0.090 C 
HETATM    6 CL11 UNL     1     -32.566   6.002   2.378  1.00 20.00    -0.124 Cl
ENDROOT
BRANCH   4   7
HETATM    7  C4  UNL     1     -34.274   6.580   4.951  1.00 20.00    -0.028 A 
HETATM    8  C1  UNL     1     -34.099   6.457   6.350  1.00 20.00     0.034 A 
HETATM    9  C2  UNL     1     -34.570   5.210   6.686  1.00 20.00     0.142 A 
HETATM   10  O10 UNL     1     -35.024   4.558   5.584  1.00 20.00    -0.334 OA
HETATM   11  C3  UNL     1     -34.840   5.399   4.532  1.00 20.00     0.148 A 
ENDBRANCH   4   7
TORSDOF 1
ENDMDL
MODEL 2
REMARK VINA RESULT:      -4.0      2.736      4.381
REMARK  1 active torsions:
REMARK  status: ('A' for Active; 'I' for Inactive)
REMARK    1  A    between atoms: C4_4  and  C8_8 
ROOT
HETATM    1  C5  UNL     1     -33.888   8.041   5.388  1.00 20.00     0.002 C 
HETATM    2  C6  UNL     1     -32.513   8.539   4.926  1.00 20.00     0.011 C 
HETATM    3  C7  UNL     1     -34.243   6.848   4.504  1.00 20.00     0.021 C 
HETATM    4  C8  UNL     1     -32.125   7.700   3.693  1.00 20.00     0.039 C 
HETATM    5  C9  UNL     1     -32.904   6.395   3.938  1.00 20.00     0.090 C 
HETATM    6 CL11 UNL     1     -33.093   5.338   2.530  1.00 20.00    -0.124 Cl
ENDROOT
BRANCH   4   7
HETATM    7  C4  UNL     1     -32.376   8.393   2.363  1.00 20.00    -0.028 A 
HETATM    8  C1  UNL     1     -32.010   7.928   1.077  1.00 20.00     0.034 A 
HETATM    9  C2  UNL     1     -32.442   8.883   0.188  1.00 20.00     0.142 A 
HETATM   10  O10 UNL     1     -33.051   9.906   0.844  1.00 20.00    -0.334 OA
HETATM   11  C3  UNL     1     -33.005   9.600   2.167  1.00 20.00     0.148 A 
ENDBRANCH   4   7
TORSDOF 1
ENDMDL
MODEL 3
REMARK VINA RESULT:      -3.9      9.534     10.556
REMARK  1 active torsions:
REMARK  status: ('A' for Active; 'I' for Inactive)
REMARK    1  A    between atoms: C4_4  and  C8_8 
ROOT
HETATM    1  C5  UNL     1     -41.790  15.879   7.135  1.00 20.00     0.002 C 
HETATM    2  C6  UNL     1     -40.475  15.186   7.517  1.00 20.00     0.011 C 
HETATM    3  C7  UNL     1     -42.836  14.778   6.977  1.00 20.00     0.021 C 
HETATM    4  C8  UNL     1     -40.739  13.669   7.467  1.00 20.00     0.039 C 
HETATM    5  C9  UNL     1     -42.252  13.599   7.742  1.00 20.00     0.090 C 
HETATM    6 CL11 UNL     1     -43.038  12.068   7.322  1.00 20.00    -0.124 Cl
ENDROOT
BRANCH   4   7
HETATM    7  C4  UNL     1     -40.255  12.994   6.193  1.00 20.00    -0.028 A 
HETATM    8  C1  UNL     1     -39.253  12.001   6.083  1.00 20.00     0.034 A 
HETATM    9  C2  UNL     1     -39.162  11.697   4.745  1.00 20.00     0.142 A 
HETATM   10  O10 UNL     1     -40.045  12.439   4.026  1.00 20.00    -0.334 OA
HETATM   11  C3  UNL     1     -40.706  13.225   4.915  1.00 20.00     0.148 A 
ENDBRANCH   4   7
TORSDOF 1
ENDMDL
MODEL 4
REMARK VINA RESULT:      -3.5     12.699     13.799
REMARK  1 active torsions:
REMARK  status: ('A' for Active; 'I' for Inactive)
REMARK    1  A    between atoms: C4_4  and  C8_8 
ROOT
HETATM    1  C5  UNL     1     -33.049  18.155  -2.268  1.00 20.00     0.002 C 
HETATM    2  C6  UNL     1     -33.239  18.587  -3.727  1.00 20.00     0.011 C 
HETATM    3  C7  UNL     1     -33.405  16.672  -2.198  1.00 20.00     0.021 C 
HETATM    4  C8  UNL     1     -33.818  17.373  -4.480  1.00 20.00     0.039 C 
HETATM    5  C9  UNL     1     -33.292  16.196  -3.639  1.00 20.00     0.090 C 
HETATM    6 CL11 UNL     1     -34.103  14.643  -3.900  1.00 20.00    -0.124 Cl
ENDROOT
BRANCH   4   7
HETATM    7  C4  UNL     1     -35.324  17.429  -4.688  1.00 20.00    -0.028 A 
HETATM    8  C1  UNL     1     -36.250  18.245  -3.995  1.00 20.00     0.034 A 
HETATM    9  C2  UNL     1     -37.485  17.953  -4.523  1.00 20.00     0.142 A 
HETATM   10  O10 UNL     1     -37.379  17.010  -5.496  1.00 20.00    -0.334 OA
HETATM   11  C3  UNL     1     -36.060  16.697  -5.590  1.00 20.00     0.148 A 
ENDBRANCH   4   7
TORSDOF 1
ENDMDL
MODEL 5
REMARK VINA RESULT:      -3.5     12.709     13.831
REMARK  1 active torsions:
REMARK  status: ('A' for Active; 'I' for Inactive)
REMARK    1  A    between atoms: C4_4  and  C8_8 
ROOT
HETATM    1  C5  UNL     1     -33.091  18.166  -2.212  1.00 20.00     0.002 C 
HETATM    2  C6  UNL     1     -33.262  18.611  -3.670  1.00 20.00     0.011 C 
HETATM    3  C7  UNL     1     -33.421  16.676  -2.166  1.00 20.00     0.021 C 
HETATM    4  C8  UNL     1     -33.805  17.396  -4.447  1.00 20.00     0.039 C 
HETATM    5  C9  UNL     1     -33.273  16.219  -3.610  1.00 20.00     0.090 C 
HETATM    6 CL11 UNL     1     -34.051  14.655  -3.904  1.00 20.00    -0.124 Cl
ENDROOT
BRANCH   4   7
HETATM    7  C4  UNL     1     -35.307  17.428  -4.682  1.00 20.00    -0.028 A 
HETATM    8  C1  UNL     1     -36.038  16.667  -5.626  1.00 20.00     0.034 A 
HETATM    9  C2  UNL     1     -37.355  17.032  -5.473  1.00 20.00     0.142 A 
HETATM   10  O10 UNL     1     -37.481  17.967  -4.495  1.00 20.00    -0.334 OA
HETATM   11  C3  UNL     1     -36.230  18.203  -4.020  1.00 20.00     0.148 A 
ENDBRANCH   4   7
TORSDOF 1
ENDMDL
MODEL 6
REMARK VINA RESULT:      -3.5     12.851     14.046
REMARK  1 active torsions:
REMARK  status: ('A' for Active; 'I' for Inactive)
REMARK    1  A    between atoms: C4_4  and  C8_8 
ROOT
HETATM    1  C5  UNL     1     -35.670  14.467  -5.811  1.00 20.00     0.002 C 
HETATM    2  C6  UNL     1     -34.296  15.101  -6.064  1.00 20.00     0.011 C 
HETATM    3  C7  UNL     1     -36.623  15.608  -5.461  1.00 20.00     0.021 C 
HETATM    4  C8  UNL     1     -34.432  16.603  -5.745  1.00 20.00     0.039 C 
HETATM    5  C9  UNL     1     -35.929  16.849  -6.004  1.00 20.00     0.090 C 
HETATM    6 CL11 UNL     1     -36.590  18.343  -5.320  1.00 20.00    -0.124 Cl
ENDROOT
BRANCH   4   7
HETATM    7  C4  UNL     1     -33.914  16.997  -4.371  1.00 20.00    -0.028 A 
HETATM    8  C1  UNL     1     -33.763  16.155  -3.243  1.00 20.00     0.034 A 
HETATM    9  C2  UNL     1     -33.265  16.950  -2.237  1.00 20.00     0.142 A 
HETATM   10  O10 UNL     1     -33.099  18.226  -2.675  1.00 20.00    -0.334 OA
HETATM   11  C3  UNL     1     -33.497  18.246  -3.973  1.00 20.00     0.148 A 
ENDBRANCH   4   7
TORSDOF 1
ENDMDL
MODEL 7
REMARK VINA RESULT:      -3.4      2.473      4.150
REMARK  1 active torsions:
REMARK  status: ('A' for Active; 'I' for Inactive)
REMARK    1  A    between atoms: C4_4  and  C8_8 
ROOT
HETATM    1  C5  UNL     1     -33.804   3.986   4.601  1.00 20.00     0.002 C 
HETATM    2  C6  UNL     1     -34.319   5.054   3.628  1.00 20.00     0.011 C 
HETATM    3  C7  UNL     1     -33.842   4.606   5.995  1.00 20.00     0.021 C 
HETATM    4  C8  UNL     1     -34.547   6.336   4.453  1.00 20.00     0.039 C 
HETATM    5  C9  UNL     1     -34.817   5.767   5.857  1.00 20.00     0.090 C 
HETATM    6 CL11 UNL     1     -34.679   6.923   7.193  1.00 20.00    -0.124 Cl
ENDROOT
BRANCH   4   7
HETATM    7  C4  UNL     1     -33.423   7.355   4.344  1.00 20.00    -0.028 A 
HETATM    8  C1  UNL     1     -33.262   8.531   5.116  1.00 20.00     0.034 A 
HETATM    9  C2  UNL     1     -32.110   9.129   4.664  1.00 20.00     0.142 A 
HETATM   10  O10 UNL     1     -31.552   8.396   3.665  1.00 20.00    -0.334 OA
HETATM   11  C3  UNL     1     -32.357   7.319   3.476  1.00 20.00     0.148 A 
ENDBRANCH   4   7
TORSDOF 1
ENDMDL
MODEL 8
REMARK VINA RESULT:      -3.3     10.249     11.244
REMARK  1 active torsions:
REMARK  status: ('A' for Active; 'I' for Inactive)
REMARK    1  A    between atoms: C4_4  and  C8_8 
ROOT
HETATM    1  C5  UNL     1     -42.644  14.064   4.891  1.00 20.00     0.002 C 
HETATM    2  C6  UNL     1     -43.128  13.836   6.328  1.00 20.00     0.011 C 
HETATM    3  C7  UNL     1     -41.208  13.549   4.824  1.00 20.00     0.021 C 
HETATM    4  C8  UNL     1     -41.925  13.293   7.124  1.00 20.00     0.039 C 
HETATM    5  C9  UNL     1     -41.094  12.615   6.020  1.00 20.00     0.090 C 
HETATM    6 CL11 UNL     1     -39.409  12.260   6.437  1.00 20.00    -0.124 Cl
ENDROOT
BRANCH   4   7
HETATM    7  C4  UNL     1     -41.206  14.341   7.959  1.00 20.00    -0.028 A 
HETATM    8  C1  UNL     1     -40.588  14.149   9.218  1.00 20.00     0.034 A 
HETATM    9  C2  UNL     1     -40.073  15.371   9.581  1.00 20.00     0.142 A 
HETATM   10  O10 UNL     1     -40.335  16.302   8.626  1.00 20.00    -0.334 OA
HETATM   11  C3  UNL     1     -41.025  15.667   7.643  1.00 20.00     0.148 A 
ENDBRANCH   4   7
TORSDOF 1
ENDMDL
MODEL 9
REMARK VINA RESULT:      -3.3     12.232     13.619
REMARK  1 active torsions:
REMARK  status: ('A' for Active; 'I' for Inactive)
REMARK    1  A    between atoms: C4_4  and  C8_8 
ROOT
HETATM    1  C5  UNL     1     -29.614  -2.716  11.304  1.00 20.00     0.002 C 
HETATM    2  C6  UNL     1     -28.854  -3.014  10.005  1.00 20.00     0.011 C 
HETATM    3  C7  UNL     1     -28.799  -1.668  12.058  1.00 20.00     0.021 C 
HETATM    4  C8  UNL     1     -27.536  -2.218  10.065  1.00 20.00     0.039 C 
HETATM    5  C9  UNL     1     -27.915  -1.045  10.987  1.00 20.00     0.090 C 
HETATM    6 CL11 UNL     1     -26.556  -0.142  11.678  1.00 20.00    -0.124 Cl
ENDROOT
BRANCH   4   7
HETATM    7  C4  UNL     1     -26.329  -3.041  10.486  1.00 20.00    -0.028 A 
HETATM    8  C1  UNL     1     -26.297  -4.071  11.457  1.00 20.00     0.034 A 
HETATM    9  C2  UNL     1     -24.998  -4.520  11.494  1.00 20.00     0.142 A 
HETATM   10  O10 UNL     1     -24.230  -3.833  10.609  1.00 20.00    -0.334 OA
HETATM   11  C3  UNL     1     -25.047  -2.935  10.000  1.00 20.00     0.148 A 
ENDBRANCH   4   7
TORSDOF 1
ENDMDL
