MODEL 1
REMARK VINA RESULT:      -4.4      0.000      0.000
REMARK  1 active torsions:
REMARK  status: ('A' for Active; 'I' for Inactive)
REMARK    1  A    between atoms: C4_4  and  C9_9 
ROOT
HETATM    1  C5  UNL     1     -33.614   5.145   3.599  1.00 20.00     0.135 C 
HETATM    2  C6  UNL     1     -33.859   4.054   4.610  1.00 20.00     0.079 C 
HETATM    3  C7  UNL     1     -34.437   4.831   5.784  1.00 20.00     0.008 C 
HETATM    4  C8  UNL     1     -35.197   5.988   5.147  1.00 20.00     0.017 C 
HETATM    5  C9  UNL     1     -34.352   6.423   3.942  1.00 20.00     0.090 C 
HETATM    6  O10 UNL     1     -32.907   5.004   2.607  1.00 20.00    -0.297 OA
ENDROOT
BRANCH   5   7
HETATM    7  C4  UNL     1     -33.447   7.599   4.229  1.00 20.00    -0.023 A 
HETATM    8  C1  UNL     1     -33.209   8.204   5.485  1.00 20.00     0.034 A 
HETATM    9  C2  UNL     1     -32.322   9.229   5.254  1.00 20.00     0.142 A 
HETATM   10  O11 UNL     1     -31.999   9.292   3.935  1.00 20.00    -0.334 OA
HETATM   11  C3  UNL     1     -32.689   8.297   3.318  1.00 20.00     0.149 A 
ENDBRANCH   5   7
TORSDOF 1
ENDMDL
MODEL 2
REMARK VINA RESULT:      -4.3     12.381     13.090
REMARK  1 active torsions:
REMARK  status: ('A' for Active; 'I' for Inactive)
REMARK    1  A    between atoms: C4_4  and  C9_9 
ROOT
HETATM    1  C5  UNL     1     -34.725  18.483  -1.831  1.00 20.00     0.135 C 
HETATM    2  C6  UNL     1     -34.693  18.388  -3.334  1.00 20.00     0.079 C 
HETATM    3  C7  UNL     1     -33.412  17.602  -3.577  1.00 20.00     0.008 C 
HETATM    4  C8  UNL     1     -33.290  16.677  -2.372  1.00 20.00     0.017 C 
HETATM    5  C9  UNL     1     -33.783  17.497  -1.171  1.00 20.00     0.090 C 
HETATM    6  O10 UNL     1     -35.445  19.262  -1.216  1.00 20.00    -0.297 OA
ENDROOT
BRANCH   5   7
HETATM    7  C4  UNL     1     -32.669  18.143  -0.381  1.00 20.00    -0.023 A 
HETATM    8  C1  UNL     1     -32.711  18.551   0.973  1.00 20.00     0.034 A 
HETATM    9  C2  UNL     1     -31.472  19.081   1.251  1.00 20.00     0.142 A 
HETATM   10  O11 UNL     1     -30.672  19.026   0.153  1.00 20.00    -0.334 OA
HETATM   11  C3  UNL     1     -31.408  18.453  -0.835  1.00 20.00     0.149 A 
ENDBRANCH   5   7
TORSDOF 1
ENDMDL
MODEL 3
REMARK VINA RESULT:      -4.1      1.600      2.253
REMARK  1 active torsions:
REMARK  status: ('A' for Active; 'I' for Inactive)
REMARK    1  A    between atoms: C4_4  and  C9_9 
ROOT
HETATM    1  C5  UNL     1     -35.132   6.020   5.015  1.00 20.00     0.135 C 
HETATM    2  C6  UNL     1     -34.872   5.038   6.129  1.00 20.00     0.079 C 
HETATM    3  C7  UNL     1     -33.546   5.534   6.688  1.00 20.00     0.008 C 
HETATM    4  C8  UNL     1     -33.579   7.044   6.483  1.00 20.00     0.017 C 
HETATM    5  C9  UNL     1     -34.270   7.261   5.130  1.00 20.00     0.090 C 
HETATM    6  O10 UNL     1     -35.958   5.837   4.129  1.00 20.00    -0.297 OA
ENDROOT
BRANCH   5   7
HETATM    7  C4  UNL     1     -33.307   7.450   3.981  1.00 20.00    -0.023 A 
HETATM    8  C1  UNL     1     -32.711   8.662   3.559  1.00 20.00     0.034 A 
HETATM    9  C2  UNL     1     -31.915   8.342   2.484  1.00 20.00     0.142 A 
HETATM   10  O11 UNL     1     -31.983   7.011   2.218  1.00 20.00    -0.334 OA
HETATM   11  C3  UNL     1     -32.832   6.475   3.134  1.00 20.00     0.149 A 
ENDBRANCH   5   7
TORSDOF 1
ENDMDL
MODEL 4
REMARK VINA RESULT:      -4.0     12.018     12.943
REMARK  1 active torsions:
REMARK  status: ('A' for Active; 'I' for Inactive)
REMARK    1  A    between atoms: C4_4  and  C9_9 
ROOT
HETATM    1  C5  UNL     1     -34.517  14.817  -4.773  1.00 20.00     0.135 C 
HETATM    2  C6  UNL     1     -35.806  14.518  -5.495  1.00 20.00     0.079 C 
HETATM    3  C7  UNL     1     -36.401  15.907  -5.673  1.00 20.00     0.008 C 
HETATM    4  C8  UNL     1     -35.197  16.829  -5.823  1.00 20.00     0.017 C 
HETATM    5  C9  UNL     1     -34.135  16.281  -4.859  1.00 20.00     0.090 C 
HETATM    6  O10 UNL     1     -33.850  13.966  -4.196  1.00 20.00    -0.297 OA
ENDROOT
BRANCH   5   7
HETATM    7  C4  UNL     1     -34.105  16.989  -3.525  1.00 20.00    -0.023 A 
HETATM    8  C1  UNL     1     -33.343  16.631  -2.388  1.00 20.00     0.034 A 
HETATM    9  C2  UNL     1     -33.640  17.563  -1.420  1.00 20.00     0.142 A 
HETATM   10  O11 UNL     1     -34.537  18.470  -1.890  1.00 20.00    -0.334 OA
HETATM   11  C3  UNL     1     -34.815  18.113  -3.172  1.00 20.00     0.149 A 
ENDBRANCH   5   7
TORSDOF 1
ENDMDL
MODEL 5
REMARK VINA RESULT:      -4.0     15.468     16.762
REMARK  1 active torsions:
REMARK  status: ('A' for Active; 'I' for Inactive)
REMARK    1  A    between atoms: C4_4  and  C9_9 
ROOT
HETATM    1  C5  UNL     1     -22.972  18.478  11.820  1.00 20.00     0.135 C 
HETATM    2  C6  UNL     1     -24.283  19.016  12.332  1.00 20.00     0.079 C 
HETATM    3  C7  UNL     1     -25.268  18.498  11.293  1.00 20.00     0.008 C 
HETATM    4  C8  UNL     1     -24.682  17.169  10.832  1.00 20.00     0.017 C 
HETATM    5  C9  UNL     1     -23.162  17.379  10.794  1.00 20.00     0.090 C 
HETATM    6  O10 UNL     1     -21.879  18.877  12.205  1.00 20.00    -0.297 OA
ENDROOT
BRANCH   5   7
HETATM    7  C4  UNL     1     -22.632  17.720   9.421  1.00 20.00    -0.023 A 
HETATM    8  C1  UNL     1     -21.584  17.071   8.727  1.00 20.00     0.034 A 
HETATM    9  C2  UNL     1     -21.459  17.727   7.524  1.00 20.00     0.142 A 
HETATM   10  O11 UNL     1     -22.363  18.738   7.435  1.00 20.00    -0.334 OA
HETATM   11  C3  UNL     1     -23.073  18.727   8.594  1.00 20.00     0.149 A 
ENDBRANCH   5   7
TORSDOF 1
ENDMDL
MODEL 6
REMARK VINA RESULT:      -4.0     12.378     13.693
REMARK  1 active torsions:
REMARK  status: ('A' for Active; 'I' for Inactive)
REMARK    1  A    between atoms: C4_4  and  C9_9 
ROOT
HETATM    1  C5  UNL     1     -35.895  14.967  -6.206  1.00 20.00     0.135 C 
HETATM    2  C6  UNL     1     -36.068  15.423  -7.632  1.00 20.00     0.079 C 
HETATM    3  C7  UNL     1     -34.736  16.102  -7.914  1.00 20.00     0.008 C 
HETATM    4  C8  UNL     1     -33.722  15.329  -7.079  1.00 20.00     0.017 C 
HETATM    5  C9  UNL     1     -34.444  14.985  -5.769  1.00 20.00     0.090 C 
HETATM    6  O10 UNL     1     -36.824  14.609  -5.491  1.00 20.00    -0.297 OA
ENDROOT
BRANCH   5   7
HETATM    7  C4  UNL     1     -34.152  15.951  -4.644  1.00 20.00    -0.023 A 
HETATM    8  C1  UNL     1     -33.284  15.743  -3.547  1.00 20.00     0.034 A 
HETATM    9  C2  UNL     1     -33.341  16.891  -2.792  1.00 20.00     0.142 A 
HETATM   10  O11 UNL     1     -34.190  17.791  -3.355  1.00 20.00    -0.334 OA
HETATM   11  C3  UNL     1     -34.679  17.211  -4.482  1.00 20.00     0.149 A 
ENDBRANCH   5   7
TORSDOF 1
ENDMDL
MODEL 7
REMARK VINA RESULT:      -3.8      1.995      3.485
REMARK  1 active torsions:
REMARK  status: ('A' for Active; 'I' for Inactive)
REMARK    1  A    between atoms: C4_4  and  C9_9 
ROOT
HETATM    1  C5  UNL     1     -32.666   8.023   4.675  1.00 20.00     0.135 C 
HETATM    2  C6  UNL     1     -33.757   7.197   5.305  1.00 20.00     0.079 C 
HETATM    3  C7  UNL     1     -34.170   6.286   4.158  1.00 20.00     0.008 C 
HETATM    4  C8  UNL     1     -32.892   6.068   3.357  1.00 20.00     0.017 C 
HETATM    5  C9  UNL     1     -32.152   7.412   3.387  1.00 20.00     0.090 C 
HETATM    6  O10 UNL     1     -32.237   9.064   5.161  1.00 20.00    -0.297 OA
ENDROOT
BRANCH   5   7
HETATM    7  C4  UNL     1     -32.391   8.263   2.162  1.00 20.00    -0.023 A 
HETATM    8  C1  UNL     1     -32.061   7.943   0.824  1.00 20.00     0.034 A 
HETATM    9  C2  UNL     1     -32.467   9.015   0.064  1.00 20.00     0.142 A 
HETATM   10  O11 UNL     1     -33.025   9.973   0.849  1.00 20.00    -0.334 OA
HETATM   11  C3  UNL     1     -32.975   9.508   2.125  1.00 20.00     0.149 A 
ENDBRANCH   5   7
TORSDOF 1
ENDMDL
MODEL 8
REMARK VINA RESULT:      -3.8      9.927     11.016
REMARK  1 active torsions:
REMARK  status: ('A' for Active; 'I' for Inactive)
REMARK    1  A    between atoms: C4_4  and  C9_9 
ROOT
HETATM    1  C5  UNL     1     -41.932  13.731   8.423  1.00 20.00     0.135 C 
HETATM    2  C6  UNL     1     -41.263  14.382   9.606  1.00 20.00     0.079 C 
HETATM    3  C7  UNL     1     -40.155  15.187   8.942  1.00 20.00     0.008 C 
HETATM    4  C8  UNL     1     -40.727  15.592   7.588  1.00 20.00     0.017 C 
HETATM    5  C9  UNL     1     -41.550  14.388   7.112  1.00 20.00     0.090 C 
HETATM    6  O10 UNL     1     -42.707  12.786   8.518  1.00 20.00    -0.297 OA
ENDROOT
BRANCH   5   7
HETATM    7  C4  UNL     1     -40.803  13.480   6.163  1.00 20.00    -0.023 A 
HETATM    8  C1  UNL     1     -39.763  12.579   6.488  1.00 20.00     0.034 A 
HETATM    9  C2  UNL     1     -39.396  11.976   5.307  1.00 20.00     0.142 A 
HETATM   10  O11 UNL     1     -40.145  12.451   4.276  1.00 20.00    -0.334 OA
HETATM   11  C3  UNL     1     -40.999  13.366   4.806  1.00 20.00     0.149 A 
ENDBRANCH   5   7
TORSDOF 1
ENDMDL
MODEL 9
REMARK VINA RESULT:      -3.8      9.177     10.342
REMARK  1 active torsions:
REMARK  status: ('A' for Active; 'I' for Inactive)
REMARK    1  A    between atoms: C4_4  and  C9_9 
ROOT
HETATM    1  C5  UNL     1     -40.946  14.047   7.695  1.00 20.00     0.135 C 
HETATM    2  C6  UNL     1     -41.671  15.330   7.379  1.00 20.00     0.079 C 
HETATM    3  C7  UNL     1     -42.121  15.096   5.944  1.00 20.00     0.008 C 
HETATM    4  C8  UNL     1     -42.366  13.594   5.854  1.00 20.00     0.017 C 
HETATM    5  C9  UNL     1     -41.266  12.945   6.706  1.00 20.00     0.090 C 
HETATM    6  O10 UNL     1     -40.194  13.913   8.654  1.00 20.00    -0.297 OA
ENDROOT
BRANCH   5   7
HETATM    7  C4  UNL     1     -40.077  12.473   5.903  1.00 20.00    -0.023 A 
HETATM    8  C1  UNL     1     -40.030  12.235   4.509  1.00 20.00     0.034 A 
HETATM    9  C2  UNL     1     -38.747  11.822   4.235  1.00 20.00     0.142 A 
HETATM   10  O11 UNL     1     -38.003  11.790   5.372  1.00 20.00    -0.334 OA
HETATM   11  C3  UNL     1     -38.819  12.188   6.382  1.00 20.00     0.149 A 
ENDBRANCH   5   7
TORSDOF 1
ENDMDL
