MODEL 1
REMARK VINA RESULT:      -4.6      0.000      0.000
REMARK  1 active torsions:
REMARK  status: ('A' for Active; 'I' for Inactive)
REMARK    1  A    between atoms: C4_4  and  C9_9 
ROOT
HETATM    1  C5  UNL     1     -31.630  18.748   0.033  1.00 20.00     0.135 C 
HETATM    2  C6  UNL     1     -31.855  18.692   1.523  1.00 20.00     0.079 C 
HETATM    3  C7  UNL     1     -33.262  19.263   1.653  1.00 20.00     0.008 C 
HETATM    4  C8  UNL     1     -33.966  18.839   0.371  1.00 20.00     0.017 C 
HETATM    5  C9  UNL     1     -32.910  19.046  -0.723  1.00 20.00     0.090 C 
HETATM    6  O10 UNL     1     -30.538  18.571  -0.492  1.00 20.00    -0.297 OA
ENDROOT
BRANCH   5   7
HETATM    7  C4  UNL     1     -33.121  18.197  -1.948  1.00 20.00    -0.023 A 
HETATM    8  C1  UNL     1     -33.443  16.818  -1.985  1.00 20.00     0.034 A 
HETATM    9  C2  UNL     1     -33.536  16.483  -3.315  1.00 20.00     0.142 A 
HETATM   10  O11 UNL     1     -33.291  17.566  -4.099  1.00 20.00    -0.334 OA
HETATM   11  C3  UNL     1     -33.040  18.604  -3.259  1.00 20.00     0.149 A 
ENDBRANCH   5   7
TORSDOF 1
ENDMDL
MODEL 2
REMARK VINA RESULT:      -4.2     11.218     11.882
REMARK  1 active torsions:
REMARK  status: ('A' for Active; 'I' for Inactive)
REMARK    1  A    between atoms: C4_4  and  C9_9 
ROOT
HETATM    1  C5  UNL     1     -33.657   6.147   4.201  1.00 20.00     0.135 C 
HETATM    2  C6  UNL     1     -34.590   6.077   5.383  1.00 20.00     0.079 C 
HETATM    3  C7  UNL     1     -34.038   7.172   6.288  1.00 20.00     0.008 C 
HETATM    4  C8  UNL     1     -33.481   8.215   5.328  1.00 20.00     0.017 C 
HETATM    5  C9  UNL     1     -32.787   7.388   4.237  1.00 20.00     0.090 C 
HETATM    6  O10 UNL     1     -33.617   5.297   3.320  1.00 20.00    -0.297 OA
ENDROOT
BRANCH   5   7
HETATM    7  C4  UNL     1     -32.661   8.100   2.917  1.00 20.00    -0.023 A 
HETATM    8  C1  UNL     1     -33.069   9.422   2.618  1.00 20.00     0.034 A 
HETATM    9  C2  UNL     1     -32.753   9.630   1.296  1.00 20.00     0.142 A 
HETATM   10  O11 UNL     1     -32.178   8.521   0.762  1.00 20.00    -0.334 OA
HETATM   11  C3  UNL     1     -32.125   7.595   1.755  1.00 20.00     0.149 A 
ENDBRANCH   5   7
TORSDOF 1
ENDMDL
MODEL 3
REMARK VINA RESULT:      -4.0      2.374      4.956
REMARK  1 active torsions:
REMARK  status: ('A' for Active; 'I' for Inactive)
REMARK    1  A    between atoms: C4_4  and  C9_9 
ROOT
HETATM    1  C5  UNL     1     -33.646  18.139   0.222  1.00 20.00     0.135 C 
HETATM    2  C6  UNL     1     -33.672  17.397  -1.090  1.00 20.00     0.079 C 
HETATM    3  C7  UNL     1     -32.558  18.089  -1.867  1.00 20.00     0.008 C 
HETATM    4  C8  UNL     1     -31.549  18.500  -0.803  1.00 20.00     0.017 C 
HETATM    5  C9  UNL     1     -32.415  19.013   0.356  1.00 20.00     0.090 C 
HETATM    6  O10 UNL     1     -34.522  18.037   1.072  1.00 20.00    -0.297 OA
ENDROOT
BRANCH   5   7
HETATM    7  C4  UNL     1     -31.743  18.941   1.701  1.00 20.00    -0.023 A 
HETATM    8  C1  UNL     1     -30.416  18.527   1.970  1.00 20.00     0.034 A 
HETATM    9  C2  UNL     1     -30.253  18.628   3.332  1.00 20.00     0.142 A 
HETATM   10  O11 UNL     1     -31.395  19.074   3.917  1.00 20.00    -0.334 OA
HETATM   11  C3  UNL     1     -32.296  19.263   2.918  1.00 20.00     0.149 A 
ENDBRANCH   5   7
TORSDOF 1
ENDMDL
MODEL 4
REMARK VINA RESULT:      -4.0      1.902      2.878
REMARK  1 active torsions:
REMARK  status: ('A' for Active; 'I' for Inactive)
REMARK    1  A    between atoms: C4_4  and  C9_9 
ROOT
HETATM    1  C5  UNL     1     -32.905  18.704  -2.872  1.00 20.00     0.135 C 
HETATM    2  C6  UNL     1     -32.204  18.966  -1.563  1.00 20.00     0.079 C 
HETATM    3  C7  UNL     1     -33.126  18.274  -0.566  1.00 20.00     0.008 C 
HETATM    4  C8  UNL     1     -33.710  17.099  -1.338  1.00 20.00     0.017 C 
HETATM    5  C9  UNL     1     -34.008  17.675  -2.729  1.00 20.00     0.090 C 
HETATM    6  O10 UNL     1     -32.608  19.263  -3.921  1.00 20.00    -0.297 OA
ENDROOT
BRANCH   5   7
HETATM    7  C4  UNL     1     -34.044  16.643  -3.824  1.00 20.00    -0.023 A 
HETATM    8  C1  UNL     1     -33.359  15.404  -3.852  1.00 20.00     0.034 A 
HETATM    9  C2  UNL     1     -33.695  14.808  -5.045  1.00 20.00     0.142 A 
HETATM   10  O11 UNL     1     -34.541  15.601  -5.753  1.00 20.00    -0.334 OA
HETATM   11  C3  UNL     1     -34.748  16.715  -5.003  1.00 20.00     0.149 A 
ENDBRANCH   5   7
TORSDOF 1
ENDMDL
MODEL 5
REMARK VINA RESULT:      -4.0     11.727     12.896
REMARK  1 active torsions:
REMARK  status: ('A' for Active; 'I' for Inactive)
REMARK    1  A    between atoms: C4_4  and  C9_9 
ROOT
HETATM    1  C5  UNL     1     -40.424  13.040   4.730  1.00 20.00     0.135 C 
HETATM    2  C6  UNL     1     -39.428  12.079   4.133  1.00 20.00     0.079 C 
HETATM    3  C7  UNL     1     -38.404  11.947   5.253  1.00 20.00     0.008 C 
HETATM    4  C8  UNL     1     -39.215  12.110   6.532  1.00 20.00     0.017 C 
HETATM    5  C9  UNL     1     -40.193  13.248   6.214  1.00 20.00     0.090 C 
HETATM    6  O10 UNL     1     -41.312  13.582   4.082  1.00 20.00    -0.297 OA
ENDROOT
BRANCH   5   7
HETATM    7  C4  UNL     1     -41.446  13.231   7.048  1.00 20.00    -0.023 A 
HETATM    8  C1  UNL     1     -42.471  12.254   7.026  1.00 20.00     0.034 A 
HETATM    9  C2  UNL     1     -43.404  12.659   7.952  1.00 20.00     0.142 A 
HETATM   10  O11 UNL     1     -43.019  13.821   8.541  1.00 20.00    -0.334 OA
HETATM   11  C3  UNL     1     -41.827  14.162   7.985  1.00 20.00     0.149 A 
ENDBRANCH   5   7
TORSDOF 1
ENDMDL
MODEL 6
REMARK VINA RESULT:      -3.9      1.314      4.495
REMARK  1 active torsions:
REMARK  status: ('A' for Active; 'I' for Inactive)
REMARK    1  A    between atoms: C4_4  and  C9_9 
ROOT
HETATM    1  C5  UNL     1     -33.613  18.047  -3.934  1.00 20.00     0.135 C 
HETATM    2  C6  UNL     1     -34.508  17.229  -4.829  1.00 20.00     0.079 C 
HETATM    3  C7  UNL     1     -34.069  15.807  -4.502  1.00 20.00     0.008 C 
HETATM    4  C8  UNL     1     -33.655  15.863  -3.037  1.00 20.00     0.017 C 
HETATM    5  C9  UNL     1     -32.892  17.189  -2.914  1.00 20.00     0.090 C 
HETATM    6  O10 UNL     1     -33.492  19.263  -4.028  1.00 20.00    -0.297 OA
ENDROOT
BRANCH   5   7
HETATM    7  C4  UNL     1     -32.875  17.758  -1.521  1.00 20.00    -0.023 A 
HETATM    8  C1  UNL     1     -33.934  17.748  -0.582  1.00 20.00     0.034 A 
HETATM    9  C2  UNL     1     -33.455  18.379   0.543  1.00 20.00     0.142 A 
HETATM   10  O11 UNL     1     -32.170  18.778   0.355  1.00 20.00    -0.334 OA
HETATM   11  C3  UNL     1     -31.824  18.396  -0.903  1.00 20.00     0.149 A 
ENDBRANCH   5   7
TORSDOF 1
ENDMDL
MODEL 7
REMARK VINA RESULT:      -3.9     11.326     12.550
REMARK  1 active torsions:
REMARK  status: ('A' for Active; 'I' for Inactive)
REMARK    1  A    between atoms: C4_4  and  C9_9 
ROOT
HETATM    1  C5  UNL     1     -39.088  12.090   6.425  1.00 20.00     0.135 C 
HETATM    2  C6  UNL     1     -38.260  11.932   5.176  1.00 20.00     0.079 C 
HETATM    3  C7  UNL     1     -39.327  11.913   4.088  1.00 20.00     0.008 C 
HETATM    4  C8  UNL     1     -40.433  12.813   4.623  1.00 20.00     0.017 C 
HETATM    5  C9  UNL     1     -40.528  12.446   6.110  1.00 20.00     0.090 C 
HETATM    6  O10 UNL     1     -38.639  11.947   7.556  1.00 20.00    -0.297 OA
ENDROOT
BRANCH   5   7
HETATM    7  C4  UNL     1     -41.103  13.536   6.974  1.00 20.00    -0.023 A 
HETATM    8  C1  UNL     1     -40.557  14.823   7.200  1.00 20.00     0.034 A 
HETATM    9  C2  UNL     1     -41.427  15.463   8.052  1.00 20.00     0.142 A 
HETATM   10  O11 UNL     1     -42.471  14.652   8.365  1.00 20.00    -0.334 OA
HETATM   11  C3  UNL     1     -42.267  13.482   7.705  1.00 20.00     0.149 A 
ENDBRANCH   5   7
TORSDOF 1
ENDMDL
MODEL 8
REMARK VINA RESULT:      -3.9     12.012     12.927
REMARK  1 active torsions:
REMARK  status: ('A' for Active; 'I' for Inactive)
REMARK    1  A    between atoms: C4_4  and  C9_9 
ROOT
HETATM    1  C5  UNL     1     -32.651   8.540   3.888  1.00 20.00     0.135 C 
HETATM    2  C6  UNL     1     -32.560   9.181   2.527  1.00 20.00     0.079 C 
HETATM    3  C7  UNL     1     -32.112   8.013   1.656  1.00 20.00     0.008 C 
HETATM    4  C8  UNL     1     -32.742   6.788   2.307  1.00 20.00     0.017 C 
HETATM    5  C9  UNL     1     -32.561   7.029   3.812  1.00 20.00     0.090 C 
HETATM    6  O10 UNL     1     -32.784   9.176   4.927  1.00 20.00    -0.297 OA
ENDROOT
BRANCH   5   7
HETATM    7  C4  UNL     1     -33.559   6.301   4.672  1.00 20.00    -0.023 A 
HETATM    8  C1  UNL     1     -33.888   6.582   6.020  1.00 20.00     0.034 A 
HETATM    9  C2  UNL     1     -34.842   5.659   6.381  1.00 20.00     0.142 A 
HETATM   10  O11 UNL     1     -35.119   4.828   5.343  1.00 20.00    -0.334 OA
HETATM   11  C3  UNL     1     -34.335   5.225   4.307  1.00 20.00     0.149 A 
ENDBRANCH   5   7
TORSDOF 1
ENDMDL
MODEL 9
REMARK VINA RESULT:      -3.9      1.699      4.993
REMARK  1 active torsions:
REMARK  status: ('A' for Active; 'I' for Inactive)
REMARK    1  A    between atoms: C4_4  and  C9_9 
ROOT
HETATM    1  C5  UNL     1     -34.682  17.159  -4.642  1.00 20.00     0.135 C 
HETATM    2  C6  UNL     1     -35.236  15.882  -5.221  1.00 20.00     0.079 C 
HETATM    3  C7  UNL     1     -34.049  14.935  -5.095  1.00 20.00     0.008 C 
HETATM    4  C8  UNL     1     -33.318  15.404  -3.844  1.00 20.00     0.017 C 
HETATM    5  C9  UNL     1     -33.359  16.936  -3.938  1.00 20.00     0.090 C 
HETATM    6  O10 UNL     1     -35.245  18.243  -4.736  1.00 20.00    -0.297 OA
ENDROOT
BRANCH   5   7
HETATM    7  C4  UNL     1     -33.234  17.634  -2.610  1.00 20.00    -0.023 A 
HETATM    8  C1  UNL     1     -33.694  17.168  -1.355  1.00 20.00     0.034 A 
HETATM    9  C2  UNL     1     -33.357  18.138  -0.440  1.00 20.00     0.142 A 
HETATM   10  O11 UNL     1     -32.721  19.171  -1.052  1.00 20.00    -0.334 OA
HETATM   11  C3  UNL     1     -32.650  18.856  -2.372  1.00 20.00     0.149 A 
ENDBRANCH   5   7
TORSDOF 1
ENDMDL
