MODEL 1
REMARK VINA RESULT:      -2.9      0.000      0.000
REMARK  3 active torsions:
REMARK  status: ('A' for Active; 'I' for Inactive)
REMARK    1  A    between atoms: C3_3  and  C4_4 
REMARK    2  A    between atoms: C3_3  and  N5_5 
REMARK    3  A    between atoms: C4_4  and  S7_7 
ROOT
HETATM    1  C1  UNL     1     -33.457   7.779   5.645  1.00 20.00     0.157 C 
HETATM    2  N5  UNL     1     -34.200   7.318   6.428  1.00 20.00    -0.275 NA
HETATM    3  S6  UNL     1     -32.450   8.432   4.598  1.00 20.00    -0.055 SA
ENDROOT
BRANCH   2   4
HETATM    4  C3  UNL     1     -34.489   5.893   6.238  1.00 20.00     0.160 C 
BRANCH   4   5
HETATM    5  C4  UNL     1     -34.873   5.664   4.784  1.00 20.00     0.095 C 
BRANCH   5   6
HETATM    6  S7  UNL     1     -33.853   4.355   4.050  1.00 20.00    -0.172 SA
HETATM    7  C2  UNL     1     -33.063   5.334   2.750  1.00 20.00     0.089 C 
ENDBRANCH   5   6
ENDBRANCH   4   5
ENDBRANCH   2   4
TORSDOF 3
ENDMDL
MODEL 2
REMARK VINA RESULT:      -2.9      2.154      3.415
REMARK  3 active torsions:
REMARK  status: ('A' for Active; 'I' for Inactive)
REMARK    1  A    between atoms: C3_3  and  C4_4 
REMARK    2  A    between atoms: C3_3  and  N5_5 
REMARK    3  A    between atoms: C4_4  and  S7_7 
ROOT
HETATM    1  C1  UNL     1     -32.470   6.723   2.973  1.00 20.00     0.157 C 
HETATM    2  N5  UNL     1     -32.115   7.814   3.224  1.00 20.00    -0.275 NA
HETATM    3  S6  UNL     1     -32.940   5.246   2.606  1.00 20.00    -0.055 SA
ENDROOT
BRANCH   2   4
HETATM    4  C3  UNL     1     -32.428   8.267   4.582  1.00 20.00     0.160 C 
BRANCH   4   5
HETATM    5  C4  UNL     1     -33.870   7.900   4.897  1.00 20.00     0.095 C 
BRANCH   5   6
HETATM    6  S7  UNL     1     -33.965   6.932   6.429  1.00 20.00    -0.172 SA
HETATM    7  C2  UNL     1     -34.822   5.482   5.773  1.00 20.00     0.089 C 
ENDBRANCH   5   6
ENDBRANCH   4   5
ENDBRANCH   2   4
TORSDOF 3
ENDMDL
MODEL 3
REMARK VINA RESULT:      -2.8      2.174      3.020
REMARK  3 active torsions:
REMARK  status: ('A' for Active; 'I' for Inactive)
REMARK    1  A    between atoms: C3_3  and  C4_4 
REMARK    2  A    between atoms: C3_3  and  N5_5 
REMARK    3  A    between atoms: C4_4  and  S7_7 
ROOT
HETATM    1  C1  UNL     1     -32.722   6.329   2.981  1.00 20.00     0.157 C 
HETATM    2  N5  UNL     1     -33.157   5.265   2.739  1.00 20.00    -0.275 NA
HETATM    3  S6  UNL     1     -32.124   7.774   3.279  1.00 20.00    -0.055 SA
ENDROOT
BRANCH   2   4
HETATM    4  C3  UNL     1     -33.751   4.569   3.883  1.00 20.00     0.160 C 
BRANCH   4   5
HETATM    5  C4  UNL     1     -34.818   5.462   4.497  1.00 20.00     0.095 C 
BRANCH   5   6
HETATM    6  S7  UNL     1     -34.631   5.538   6.301  1.00 20.00    -0.172 SA
HETATM    7  C2  UNL     1     -33.968   7.215   6.426  1.00 20.00     0.089 C 
ENDBRANCH   5   6
ENDBRANCH   4   5
ENDBRANCH   2   4
TORSDOF 3
ENDMDL
MODEL 4
REMARK VINA RESULT:      -2.8     13.172     13.514
REMARK  3 active torsions:
REMARK  status: ('A' for Active; 'I' for Inactive)
REMARK    1  A    between atoms: C3_3  and  C4_4 
REMARK    2  A    between atoms: C3_3  and  N5_5 
REMARK    3  A    between atoms: C4_4  and  S7_7 
ROOT
HETATM    1  C1  UNL     1     -30.956  18.641   0.554  1.00 20.00     0.157 C 
HETATM    2  N5  UNL     1     -30.932  18.707  -0.618  1.00 20.00    -0.275 NA
HETATM    3  S6  UNL     1     -30.960  18.545   2.143  1.00 20.00    -0.055 SA
ENDROOT
BRANCH   2   4
HETATM    4  C3  UNL     1     -32.193  19.122  -1.238  1.00 20.00     0.160 C 
BRANCH   4   5
HETATM    5  C4  UNL     1     -33.247  18.063  -0.955  1.00 20.00     0.095 C 
BRANCH   5   6
HETATM    6  S7  UNL     1     -33.364  16.890  -2.335  1.00 20.00    -0.172 SA
HETATM    7  C2  UNL     1     -33.331  18.080  -3.696  1.00 20.00     0.089 C 
ENDBRANCH   5   6
ENDBRANCH   4   5
ENDBRANCH   2   4
TORSDOF 3
ENDMDL
MODEL 5
REMARK VINA RESULT:      -2.8      1.775      3.159
REMARK  3 active torsions:
REMARK  status: ('A' for Active; 'I' for Inactive)
REMARK    1  A    between atoms: C3_3  and  C4_4 
REMARK    2  A    between atoms: C3_3  and  N5_5 
REMARK    3  A    between atoms: C4_4  and  S7_7 
ROOT
HETATM    1  C1  UNL     1     -33.879   4.886   3.990  1.00 20.00     0.157 C 
HETATM    2  N5  UNL     1     -34.503   4.658   4.958  1.00 20.00    -0.275 NA
HETATM    3  S6  UNL     1     -33.031   5.166   2.672  1.00 20.00    -0.055 SA
ENDROOT
BRANCH   2   4
HETATM    4  C3  UNL     1     -34.933   5.842   5.707  1.00 20.00     0.160 C 
BRANCH   4   5
HETATM    5  C4  UNL     1     -33.702   6.655   6.081  1.00 20.00     0.095 C 
BRANCH   5   6
HETATM    6  S7  UNL     1     -33.790   8.318   5.360  1.00 20.00    -0.172 SA
HETATM    7  C2  UNL     1     -32.208   8.310   4.486  1.00 20.00     0.089 C 
ENDBRANCH   5   6
ENDBRANCH   4   5
ENDBRANCH   2   4
TORSDOF 3
ENDMDL
MODEL 6
REMARK VINA RESULT:      -2.8      1.977      2.397
REMARK  3 active torsions:
REMARK  status: ('A' for Active; 'I' for Inactive)
REMARK    1  A    between atoms: C3_3  and  C4_4 
REMARK    2  A    between atoms: C3_3  and  N5_5 
REMARK    3  A    between atoms: C4_4  and  S7_7 
ROOT
HETATM    1  C1  UNL     1     -32.448   8.056   3.851  1.00 20.00     0.157 C 
HETATM    2  N5  UNL     1     -32.690   8.635   4.843  1.00 20.00    -0.275 NA
HETATM    3  S6  UNL     1     -32.097   7.289   2.500  1.00 20.00    -0.055 SA
ENDROOT
BRANCH   2   4
HETATM    4  C3  UNL     1     -33.840   8.120   5.592  1.00 20.00     0.160 C 
BRANCH   4   5
HETATM    5  C4  UNL     1     -33.428   6.837   6.297  1.00 20.00     0.095 C 
BRANCH   5   6
HETATM    6  S7  UNL     1     -34.747   5.595   6.192  1.00 20.00    -0.172 SA
HETATM    7  C2  UNL     1     -34.416   5.000   4.517  1.00 20.00     0.089 C 
ENDBRANCH   5   6
ENDBRANCH   4   5
ENDBRANCH   2   4
TORSDOF 3
ENDMDL
MODEL 7
REMARK VINA RESULT:      -2.7      1.208      2.976
REMARK  3 active torsions:
REMARK  status: ('A' for Active; 'I' for Inactive)
REMARK    1  A    between atoms: C3_3  and  C4_4 
REMARK    2  A    between atoms: C3_3  and  N5_5 
REMARK    3  A    between atoms: C4_4  and  S7_7 
ROOT
HETATM    1  C1  UNL     1     -34.421   5.338   5.412  1.00 20.00     0.157 C 
HETATM    2  N5  UNL     1     -34.703   6.000   6.340  1.00 20.00    -0.275 NA
HETATM    3  S6  UNL     1     -34.062   4.421   4.161  1.00 20.00    -0.055 SA
ENDROOT
BRANCH   2   4
HETATM    4  C3  UNL     1     -33.929   7.237   6.472  1.00 20.00     0.160 C 
BRANCH   4   5
HETATM    5  C4  UNL     1     -33.994   7.995   5.154  1.00 20.00     0.095 C 
BRANCH   5   6
HETATM    6  S7  UNL     1     -32.336   8.522   4.635  1.00 20.00    -0.172 SA
HETATM    7  C2  UNL     1     -32.195   7.515   3.140  1.00 20.00     0.089 C 
ENDBRANCH   5   6
ENDBRANCH   4   5
ENDBRANCH   2   4
TORSDOF 3
ENDMDL
MODEL 8
REMARK VINA RESULT:      -2.6      1.620      2.845
REMARK  3 active torsions:
REMARK  status: ('A' for Active; 'I' for Inactive)
REMARK    1  A    between atoms: C3_3  and  C4_4 
REMARK    2  A    between atoms: C3_3  and  N5_5 
REMARK    3  A    between atoms: C4_4  and  S7_7 
ROOT
HETATM    1  C1  UNL     1     -34.118   6.727   6.083  1.00 20.00     0.157 C 
HETATM    2  N5  UNL     1     -33.746   7.840   6.030  1.00 20.00    -0.275 NA
HETATM    3  S6  UNL     1     -34.622   5.220   6.185  1.00 20.00    -0.055 SA
ENDROOT
BRANCH   2   4
HETATM    4  C3  UNL     1     -33.566   8.364   4.673  1.00 20.00     0.160 C 
BRANCH   4   5
HETATM    5  C4  UNL     1     -32.178   7.979   4.183  1.00 20.00     0.095 C 
BRANCH   5   6
HETATM    6  S7  UNL     1     -32.248   7.373   2.473  1.00 20.00    -0.172 SA
HETATM    7  C2  UNL     1     -32.857   5.704   2.810  1.00 20.00     0.089 C 
ENDBRANCH   5   6
ENDBRANCH   4   5
ENDBRANCH   2   4
TORSDOF 3
ENDMDL
MODEL 9
REMARK VINA RESULT:      -2.6     12.850     13.051
REMARK  3 active torsions:
REMARK  status: ('A' for Active; 'I' for Inactive)
REMARK    1  A    between atoms: C3_3  and  C4_4 
REMARK    2  A    between atoms: C3_3  and  N5_5 
REMARK    3  A    between atoms: C4_4  and  S7_7 
ROOT
HETATM    1  C1  UNL     1     -32.924  17.475  -1.680  1.00 20.00     0.157 C 
HETATM    2  N5  UNL     1     -33.538  16.620  -2.200  1.00 20.00    -0.275 NA
HETATM    3  S6  UNL     1     -32.104  18.626  -0.947  1.00 20.00    -0.055 SA
ENDROOT
BRANCH   2   4
HETATM    4  C3  UNL     1     -33.324  16.501  -3.645  1.00 20.00     0.160 C 
BRANCH   4   5
HETATM    5  C4  UNL     1     -33.641  15.075  -4.069  1.00 20.00     0.095 C 
BRANCH   5   6
HETATM    6  S7  UNL     1     -34.279  15.037  -5.767  1.00 20.00    -0.172 SA
HETATM    7  C2  UNL     1     -35.940  14.418  -5.411  1.00 20.00     0.089 C 
ENDBRANCH   5   6
ENDBRANCH   4   5
ENDBRANCH   2   4
TORSDOF 3
ENDMDL
