MODEL 1
REMARK VINA RESULT:      -3.8      0.000      0.000
REMARK  4 active torsions:
REMARK  status: ('A' for Active; 'I' for Inactive)
REMARK    1  A    between atoms: C4_4  and  C6_6 
REMARK    2  A    between atoms: C6_6  and  C8_8 
REMARK    3  A    between atoms: C7_7  and  C8_8 
REMARK    4  A    between atoms: C8_8  and  N9_9 
ROOT
HETATM    1  C1  UNL     1     -40.943  14.400   7.853  1.00 20.00     0.158 C 
HETATM    2  N9  UNL     1     -41.229  13.263   7.815  1.00 20.00    -0.270 NA
HETATM    3  S10 UNL     1     -40.545  15.939   7.938  1.00 20.00    -0.055 SA
ENDROOT
BRANCH   2   4
HETATM    4  C8  UNL     1     -41.820  12.821   6.544  1.00 20.00     0.109 C 
BRANCH   4   5
HETATM    5  C6  UNL     1     -40.788  13.018   5.429  1.00 20.00     0.032 C 
BRANCH   5   6
HETATM    6  C4  UNL     1     -39.857  11.822   5.274  1.00 20.00    -0.013 A 
HETATM    7  C2  UNL     1     -38.991  11.689   4.052  1.00 20.00     0.005 A 
HETATM    8  C3  UNL     1     -38.369  12.003   5.383  1.00 20.00     0.005 A 
ENDBRANCH   5   6
ENDBRANCH   4   5
BRANCH   4   9
HETATM    9  C7  UNL     1     -43.082  13.651   6.276  1.00 20.00     0.023 C 
HETATM   10  C5  UNL     1     -43.065  14.308   4.929  1.00 20.00     0.007 C 
ENDBRANCH   4   9
ENDBRANCH   2   4
TORSDOF 4
ENDMDL
MODEL 2
REMARK VINA RESULT:      -3.6      9.721     10.629
REMARK  4 active torsions:
REMARK  status: ('A' for Active; 'I' for Inactive)
REMARK    1  A    between atoms: C4_4  and  C6_6 
REMARK    2  A    between atoms: C6_6  and  C8_8 
REMARK    3  A    between atoms: C7_7  and  C8_8 
REMARK    4  A    between atoms: C8_8  and  N9_9 
ROOT
HETATM    1  C1  UNL     1     -32.757   9.102   2.213  1.00 20.00     0.158 C 
HETATM    2  N9  UNL     1     -32.756   8.897   3.368  1.00 20.00    -0.270 NA
HETATM    3  S10 UNL     1     -32.747   9.414   0.651  1.00 20.00    -0.055 SA
ENDROOT
BRANCH   2   4
HETATM    4  C8  UNL     1     -33.174   7.540   3.750  1.00 20.00     0.109 C 
BRANCH   4   5
HETATM    5  C6  UNL     1     -33.080   7.410   5.274  1.00 20.00     0.032 C 
BRANCH   5   6
HETATM    6  C4  UNL     1     -34.353   6.846   5.892  1.00 20.00    -0.013 A 
HETATM    7  C2  UNL     1     -35.090   5.723   5.218  1.00 20.00     0.005 A 
HETATM    8  C3  UNL     1     -34.352   5.473   6.503  1.00 20.00     0.005 A 
ENDBRANCH   5   6
ENDBRANCH   4   5
BRANCH   4   9
HETATM    9  C7  UNL     1     -32.252   6.530   3.055  1.00 20.00     0.023 C 
HETATM   10  C5  UNL     1     -32.976   5.290   2.623  1.00 20.00     0.007 C 
ENDBRANCH   4   9
ENDBRANCH   2   4
TORSDOF 4
ENDMDL
MODEL 3
REMARK VINA RESULT:      -3.6     10.047     10.688
REMARK  4 active torsions:
REMARK  status: ('A' for Active; 'I' for Inactive)
REMARK    1  A    between atoms: C4_4  and  C6_6 
REMARK    2  A    between atoms: C6_6  and  C8_8 
REMARK    3  A    between atoms: C7_7  and  C8_8 
REMARK    4  A    between atoms: C8_8  and  N9_9 
ROOT
HETATM    1  C1  UNL     1     -32.306   7.904   1.672  1.00 20.00     0.158 C 
HETATM    2  N9  UNL     1     -32.013   7.016   2.381  1.00 20.00    -0.270 NA
HETATM    3  S10 UNL     1     -32.682   9.095   0.684  1.00 20.00    -0.055 SA
ENDROOT
BRANCH   2   4
HETATM    4  C8  UNL     1     -32.602   7.087   3.726  1.00 20.00     0.109 C 
BRANCH   4   5
HETATM    5  C6  UNL     1     -33.797   6.129   3.788  1.00 20.00     0.032 C 
BRANCH   5   6
HETATM    6  C4  UNL     1     -34.652   6.340   5.031  1.00 20.00    -0.013 A 
HETATM    7  C2  UNL     1     -34.844   5.222   6.018  1.00 20.00     0.005 A 
HETATM    8  C3  UNL     1     -34.009   6.415   6.388  1.00 20.00     0.005 A 
ENDBRANCH   5   6
ENDBRANCH   4   5
BRANCH   4   9
HETATM    9  C7  UNL     1     -33.043   8.531   3.993  1.00 20.00     0.023 C 
HETATM   10  C5  UNL     1     -32.183   9.219   5.010  1.00 20.00     0.007 C 
ENDBRANCH   4   9
ENDBRANCH   2   4
TORSDOF 4
ENDMDL
MODEL 4
REMARK VINA RESULT:      -3.6     11.000     12.167
REMARK  4 active torsions:
REMARK  status: ('A' for Active; 'I' for Inactive)
REMARK    1  A    between atoms: C4_4  and  C6_6 
REMARK    2  A    between atoms: C6_6  and  C8_8 
REMARK    3  A    between atoms: C7_7  and  C8_8 
REMARK    4  A    between atoms: C8_8  and  N9_9 
ROOT
HETATM    1  C1  UNL     1     -30.721  18.596   0.701  1.00 20.00     0.158 C 
HETATM    2  N9  UNL     1     -31.011  18.520  -0.433  1.00 20.00    -0.270 NA
HETATM    3  S10 UNL     1     -30.293  18.706   2.231  1.00 20.00    -0.055 SA
ENDROOT
BRANCH   2   4
HETATM    4  C8  UNL     1     -32.421  18.188  -0.684  1.00 20.00     0.109 C 
BRANCH   4   5
HETATM    5  C6  UNL     1     -32.649  18.135  -2.199  1.00 20.00     0.032 C 
BRANCH   5   6
HETATM    6  C4  UNL     1     -33.669  17.077  -2.600  1.00 20.00    -0.013 A 
HETATM    7  C2  UNL     1     -34.106  16.951  -4.033  1.00 20.00     0.005 A 
HETATM    8  C3  UNL     1     -33.243  15.887  -3.414  1.00 20.00     0.005 A 
ENDBRANCH   5   6
ENDBRANCH   4   5
BRANCH   4   9
HETATM    9  C7  UNL     1     -33.301  19.263  -0.034  1.00 20.00     0.023 C 
HETATM   10  C5  UNL     1     -34.417  18.681   0.780  1.00 20.00     0.007 C 
ENDBRANCH   4   9
ENDBRANCH   2   4
TORSDOF 4
ENDMDL
MODEL 5
REMARK VINA RESULT:      -3.5     11.513     12.208
REMARK  4 active torsions:
REMARK  status: ('A' for Active; 'I' for Inactive)
REMARK    1  A    between atoms: C4_4  and  C6_6 
REMARK    2  A    between atoms: C6_6  and  C8_8 
REMARK    3  A    between atoms: C7_7  and  C8_8 
REMARK    4  A    between atoms: C8_8  and  N9_9 
ROOT
HETATM    1  C1  UNL     1     -31.376  18.603  -0.177  1.00 20.00     0.158 C 
HETATM    2  N9  UNL     1     -31.777  18.527  -1.276  1.00 20.00    -0.270 NA
HETATM    3  S10 UNL     1     -30.804  18.728   1.304  1.00 20.00    -0.055 SA
ENDROOT
BRANCH   2   4
HETATM    4  C8  UNL     1     -32.964  17.675  -1.438  1.00 20.00     0.109 C 
BRANCH   4   5
HETATM    5  C6  UNL     1     -33.164  17.393  -2.931  1.00 20.00     0.032 C 
BRANCH   5   6
HETATM    6  C4  UNL     1     -33.569  15.950  -3.204  1.00 20.00    -0.013 A 
HETATM    7  C2  UNL     1     -34.210  15.577  -4.512  1.00 20.00     0.005 A 
HETATM    8  C3  UNL     1     -32.808  15.129  -4.207  1.00 20.00     0.005 A 
ENDBRANCH   5   6
ENDBRANCH   4   5
BRANCH   4   9
HETATM    9  C7  UNL     1     -34.176  18.408  -0.851  1.00 20.00     0.023 C 
HETATM   10  C5  UNL     1     -35.078  18.971  -1.908  1.00 20.00     0.007 C 
ENDBRANCH   4   9
ENDBRANCH   2   4
TORSDOF 4
ENDMDL
MODEL 6
REMARK VINA RESULT:      -3.5     11.942     12.491
REMARK  4 active torsions:
REMARK  status: ('A' for Active; 'I' for Inactive)
REMARK    1  A    between atoms: C4_4  and  C6_6 
REMARK    2  A    between atoms: C6_6  and  C8_8 
REMARK    3  A    between atoms: C7_7  and  C8_8 
REMARK    4  A    between atoms: C8_8  and  N9_9 
ROOT
HETATM    1  C1  UNL     1     -34.578  19.080  -2.570  1.00 20.00     0.158 C 
HETATM    2  N9  UNL     1     -33.442  18.969  -2.839  1.00 20.00    -0.270 NA
HETATM    3  S10 UNL     1     -36.123  19.258  -2.227  1.00 20.00    -0.055 SA
ENDROOT
BRANCH   2   4
HETATM    4  C8  UNL     1     -32.751  17.872  -2.146  1.00 20.00     0.109 C 
BRANCH   4   5
HETATM    5  C6  UNL     1     -33.548  16.580  -2.360  1.00 20.00     0.032 C 
BRANCH   5   6
HETATM    6  C4  UNL     1     -33.187  15.879  -3.663  1.00 20.00    -0.013 A 
HETATM    7  C2  UNL     1     -33.891  14.612  -4.062  1.00 20.00     0.005 A 
HETATM    8  C3  UNL     1     -34.151  15.885  -4.817  1.00 20.00     0.005 A 
ENDBRANCH   5   6
ENDBRANCH   4   5
BRANCH   4   9
HETATM    9  C7  UNL     1     -32.657  18.217  -0.655  1.00 20.00     0.023 C 
HETATM   10  C5  UNL     1     -31.256  18.538  -0.225  1.00 20.00     0.007 C 
ENDBRANCH   4   9
ENDBRANCH   2   4
TORSDOF 4
ENDMDL
MODEL 7
REMARK VINA RESULT:      -3.5     11.915     12.707
REMARK  4 active torsions:
REMARK  status: ('A' for Active; 'I' for Inactive)
REMARK    1  A    between atoms: C4_4  and  C6_6 
REMARK    2  A    between atoms: C6_6  and  C8_8 
REMARK    3  A    between atoms: C7_7  and  C8_8 
REMARK    4  A    between atoms: C8_8  and  N9_9 
ROOT
HETATM    1  C1  UNL     1     -33.401  15.837  -3.434  1.00 20.00     0.158 C 
HETATM    2  N9  UNL     1     -33.168  16.665  -2.636  1.00 20.00    -0.270 NA
HETATM    3  S10 UNL     1     -33.711  14.688  -4.493  1.00 20.00    -0.055 SA
ENDROOT
BRANCH   2   4
HETATM    4  C8  UNL     1     -33.244  18.043  -3.141  1.00 20.00     0.109 C 
BRANCH   4   5
HETATM    5  C6  UNL     1     -32.634  18.982  -2.096  1.00 20.00     0.032 C 
BRANCH   5   6
HETATM    6  C4  UNL     1     -32.072  18.234  -0.894  1.00 20.00    -0.013 A 
HETATM    7  C2  UNL     1     -31.173  18.937   0.085  1.00 20.00     0.005 A 
HETATM    8  C3  UNL     1     -32.566  18.546   0.490  1.00 20.00     0.005 A 
ENDBRANCH   5   6
ENDBRANCH   4   5
BRANCH   4   9
HETATM    9  C7  UNL     1     -34.716  18.389  -3.397  1.00 20.00     0.023 C 
HETATM   10  C5  UNL     1     -35.396  18.951  -2.185  1.00 20.00     0.007 C 
ENDBRANCH   4   9
ENDBRANCH   2   4
TORSDOF 4
ENDMDL
MODEL 8
REMARK VINA RESULT:      -3.5      1.768      2.369
REMARK  4 active torsions:
REMARK  status: ('A' for Active; 'I' for Inactive)
REMARK    1  A    between atoms: C4_4  and  C6_6 
REMARK    2  A    between atoms: C6_6  and  C8_8 
REMARK    3  A    between atoms: C7_7  and  C8_8 
REMARK    4  A    between atoms: C8_8  and  N9_9 
ROOT
HETATM    1  C1  UNL     1     -42.504  13.539   8.833  1.00 20.00     0.158 C 
HETATM    2  N9  UNL     1     -41.831  13.193   7.936  1.00 20.00    -0.270 NA
HETATM    3  S10 UNL     1     -43.417  13.975  10.063  1.00 20.00    -0.055 SA
ENDROOT
BRANCH   2   4
HETATM    4  C8  UNL     1     -41.472  14.261   6.991  1.00 20.00     0.109 C 
BRANCH   4   5
HETATM    5  C6  UNL     1     -41.017  13.619   5.677  1.00 20.00     0.032 C 
BRANCH   5   6
HETATM    6  C4  UNL     1     -40.424  12.230   5.878  1.00 20.00    -0.013 A 
HETATM    7  C2  UNL     1     -39.550  11.618   4.819  1.00 20.00     0.005 A 
HETATM    8  C3  UNL     1     -38.949  12.066   6.121  1.00 20.00     0.005 A 
ENDBRANCH   5   6
ENDBRANCH   4   5
BRANCH   4   9
HETATM    9  C7  UNL     1     -40.348  15.102   7.609  1.00 20.00     0.023 C 
HETATM   10  C5  UNL     1     -40.666  16.568   7.624  1.00 20.00     0.007 C 
ENDBRANCH   4   9
ENDBRANCH   2   4
TORSDOF 4
ENDMDL
MODEL 9
REMARK VINA RESULT:      -3.3      2.068      3.944
REMARK  4 active torsions:
REMARK  status: ('A' for Active; 'I' for Inactive)
REMARK    1  A    between atoms: C4_4  and  C6_6 
REMARK    2  A    between atoms: C6_6  and  C8_8 
REMARK    3  A    between atoms: C7_7  and  C8_8 
REMARK    4  A    between atoms: C8_8  and  N9_9 
ROOT
HETATM    1  C1  UNL     1     -42.100  14.202   4.403  1.00 20.00     0.158 C 
HETATM    2  N9  UNL     1     -41.116  13.641   4.708  1.00 20.00    -0.270 NA
HETATM    3  S10 UNL     1     -43.417  14.982   3.964  1.00 20.00    -0.055 SA
ENDROOT
BRANCH   2   4
HETATM    4  C8  UNL     1     -41.275  12.675   5.804  1.00 20.00     0.109 C 
BRANCH   4   5
HETATM    5  C6  UNL     1     -41.596  13.443   7.091  1.00 20.00     0.032 C 
BRANCH   5   6
HETATM    6  C4  UNL     1     -40.384  14.174   7.653  1.00 20.00    -0.013 A 
HETATM    7  C2  UNL     1     -40.415  15.667   7.831  1.00 20.00     0.005 A 
HETATM    8  C3  UNL     1     -40.432  14.766   9.034  1.00 20.00     0.005 A 
ENDBRANCH   5   6
ENDBRANCH   4   5
BRANCH   4   9
HETATM    9  C7  UNL     1     -39.971  11.881   5.950  1.00 20.00     0.023 C 
HETATM   10  C5  UNL     1     -39.221  11.761   4.657  1.00 20.00     0.007 C 
ENDBRANCH   4   9
ENDBRANCH   2   4
TORSDOF 4
ENDMDL
