MODEL 1
REMARK VINA RESULT:      -3.9      0.000      0.000
REMARK  4 active torsions:
REMARK  status: ('A' for Active; 'I' for Inactive)
REMARK    1  A    between atoms: C4_4  and  C6_6 
REMARK    2  A    between atoms: C6_6  and  C8_8 
REMARK    3  A    between atoms: C7_7  and  C8_8 
REMARK    4  A    between atoms: C8_8  and  N9_9 
ROOT
HETATM    1  C1  UNL     1     -40.706  14.206   8.445  1.00 20.00     0.158 C 
HETATM    2  N9  UNL     1     -41.001  13.356   7.693  1.00 20.00    -0.270 NA
HETATM    3  S10 UNL     1     -40.291  15.336   9.489  1.00 20.00    -0.055 SA
ENDROOT
BRANCH   2   4
HETATM    4  C8  UNL     1     -41.703  13.820   6.488  1.00 20.00     0.109 C 
BRANCH   4   5
HETATM    5  C6  UNL     1     -40.943  13.321   5.254  1.00 20.00     0.032 C 
BRANCH   5   6
HETATM    6  C4  UNL     1     -40.098  12.088   5.549  1.00 20.00    -0.013 A 
HETATM    7  C2  UNL     1     -39.350  11.402   4.440  1.00 20.00     0.005 A 
HETATM    8  C3  UNL     1     -38.597  12.168   5.492  1.00 20.00     0.005 A 
ENDBRANCH   5   6
ENDBRANCH   4   5
BRANCH   4   9
HETATM    9  C7  UNL     1     -43.133  13.267   6.512  1.00 20.00     0.023 C 
HETATM   10  C5  UNL     1     -43.229  11.948   7.221  1.00 20.00     0.007 C 
ENDBRANCH   4   9
ENDBRANCH   2   4
TORSDOF 4
ENDMDL
MODEL 2
REMARK VINA RESULT:      -3.8     11.323     12.491
REMARK  4 active torsions:
REMARK  status: ('A' for Active; 'I' for Inactive)
REMARK    1  A    between atoms: C4_4  and  C6_6 
REMARK    2  A    between atoms: C6_6  and  C8_8 
REMARK    3  A    between atoms: C7_7  and  C8_8 
REMARK    4  A    between atoms: C8_8  and  N9_9 
ROOT
HETATM    1  C1  UNL     1     -30.766  18.718   0.789  1.00 20.00     0.158 C 
HETATM    2  N9  UNL     1     -31.006  18.597  -0.353  1.00 20.00    -0.270 NA
HETATM    3  S10 UNL     1     -30.407  18.873   2.333  1.00 20.00    -0.055 SA
ENDROOT
BRANCH   2   4
HETATM    4  C8  UNL     1     -32.385  18.937  -0.730  1.00 20.00     0.109 C 
BRANCH   4   5
HETATM    5  C6  UNL     1     -32.598  18.562  -2.201  1.00 20.00     0.032 C 
BRANCH   5   6
HETATM    6  C4  UNL     1     -33.528  17.368  -2.370  1.00 20.00    -0.013 A 
HETATM    7  C2  UNL     1     -34.279  17.171  -3.658  1.00 20.00     0.005 A 
HETATM    8  C3  UNL     1     -33.154  16.242  -3.296  1.00 20.00     0.005 A 
ENDBRANCH   5   6
ENDBRANCH   4   5
BRANCH   4   9
HETATM    9  C7  UNL     1     -33.345  18.160   0.178  1.00 20.00     0.023 C 
HETATM   10  C5  UNL     1     -34.404  19.036   0.781  1.00 20.00     0.007 C 
ENDBRANCH   4   9
ENDBRANCH   2   4
TORSDOF 4
ENDMDL
MODEL 3
REMARK VINA RESULT:      -3.6      9.691     10.777
REMARK  4 active torsions:
REMARK  status: ('A' for Active; 'I' for Inactive)
REMARK    1  A    between atoms: C4_4  and  C6_6 
REMARK    2  A    between atoms: C6_6  and  C8_8 
REMARK    3  A    between atoms: C7_7  and  C8_8 
REMARK    4  A    between atoms: C8_8  and  N9_9 
ROOT
HETATM    1  C1  UNL     1     -32.651   9.118   2.269  1.00 20.00     0.158 C 
HETATM    2  N9  UNL     1     -32.554   8.965   3.428  1.00 20.00    -0.270 NA
HETATM    3  S10 UNL     1     -32.781   9.362   0.700  1.00 20.00    -0.055 SA
ENDROOT
BRANCH   2   4
HETATM    4  C8  UNL     1     -32.516   7.561   3.859  1.00 20.00     0.109 C 
BRANCH   4   5
HETATM    5  C6  UNL     1     -33.868   7.203   4.486  1.00 20.00     0.032 C 
BRANCH   5   6
HETATM    6  C4  UNL     1     -33.721   6.439   5.795  1.00 20.00    -0.013 A 
HETATM    7  C2  UNL     1     -34.857   6.399   6.779  1.00 20.00     0.005 A 
HETATM    8  C3  UNL     1     -34.482   5.160   6.015  1.00 20.00     0.005 A 
ENDBRANCH   5   6
ENDBRANCH   4   5
BRANCH   4   9
HETATM    9  C7  UNL     1     -32.228   6.681   2.637  1.00 20.00     0.023 C 
HETATM   10  C5  UNL     1     -32.981   5.384   2.671  1.00 20.00     0.007 C 
ENDBRANCH   4   9
ENDBRANCH   2   4
TORSDOF 4
ENDMDL
MODEL 4
REMARK VINA RESULT:      -3.6      1.661      2.303
REMARK  4 active torsions:
REMARK  status: ('A' for Active; 'I' for Inactive)
REMARK    1  A    between atoms: C4_4  and  C6_6 
REMARK    2  A    between atoms: C6_6  and  C8_8 
REMARK    3  A    between atoms: C7_7  and  C8_8 
REMARK    4  A    between atoms: C8_8  and  N9_9 
ROOT
HETATM    1  C1  UNL     1     -42.876  13.040   8.681  1.00 20.00     0.158 C 
HETATM    2  N9  UNL     1     -42.497  12.770   7.604  1.00 20.00    -0.270 NA
HETATM    3  S10 UNL     1     -43.417  13.383  10.139  1.00 20.00    -0.055 SA
ENDROOT
BRANCH   2   4
HETATM    4  C8  UNL     1     -41.285  13.487   7.183  1.00 20.00     0.109 C 
BRANCH   4   5
HETATM    5  C6  UNL     1     -40.946  13.075   5.746  1.00 20.00     0.032 C 
BRANCH   5   6
HETATM    6  C4  UNL     1     -39.978  11.901   5.688  1.00 20.00    -0.013 A 
HETATM    7  C2  UNL     1     -39.291  11.549   4.398  1.00 20.00     0.005 A 
HETATM    8  C3  UNL     1     -38.502  12.144   5.531  1.00 20.00     0.005 A 
ENDBRANCH   5   6
ENDBRANCH   4   5
BRANCH   4   9
HETATM    9  C7  UNL     1     -41.553  14.994   7.272  1.00 20.00     0.023 C 
HETATM   10  C5  UNL     1     -40.361  15.764   7.761  1.00 20.00     0.007 C 
ENDBRANCH   4   9
ENDBRANCH   2   4
TORSDOF 4
ENDMDL
MODEL 5
REMARK VINA RESULT:      -3.6     10.126     10.898
REMARK  4 active torsions:
REMARK  status: ('A' for Active; 'I' for Inactive)
REMARK    1  A    between atoms: C4_4  and  C6_6 
REMARK    2  A    between atoms: C6_6  and  C8_8 
REMARK    3  A    between atoms: C7_7  and  C8_8 
REMARK    4  A    between atoms: C8_8  and  N9_9 
ROOT
HETATM    1  C1  UNL     1     -32.396   8.124   1.333  1.00 20.00     0.158 C 
HETATM    2  N9  UNL     1     -32.214   7.268   2.114  1.00 20.00    -0.270 NA
HETATM    3  S10 UNL     1     -32.622   9.267   0.247  1.00 20.00    -0.055 SA
ENDROOT
BRANCH   2   4
HETATM    4  C8  UNL     1     -32.864   7.478   3.415  1.00 20.00     0.109 C 
BRANCH   4   5
HETATM    5  C6  UNL     1     -33.338   6.122   3.951  1.00 20.00     0.032 C 
BRANCH   5   6
HETATM    6  C4  UNL     1     -34.527   6.251   4.894  1.00 20.00    -0.013 A 
HETATM    7  C2  UNL     1     -34.871   5.129   5.835  1.00 20.00     0.005 A 
HETATM    8  C3  UNL     1     -34.305   6.415   6.373  1.00 20.00     0.005 A 
ENDBRANCH   5   6
ENDBRANCH   4   5
BRANCH   4   9
HETATM    9  C7  UNL     1     -31.851   8.121   4.370  1.00 20.00     0.023 C 
HETATM   10  C5  UNL     1     -32.435   9.265   5.144  1.00 20.00     0.007 C 
ENDBRANCH   4   9
ENDBRANCH   2   4
TORSDOF 4
ENDMDL
MODEL 6
REMARK VINA RESULT:      -3.6     12.207     13.391
REMARK  4 active torsions:
REMARK  status: ('A' for Active; 'I' for Inactive)
REMARK    1  A    between atoms: C4_4  and  C6_6 
REMARK    2  A    between atoms: C6_6  and  C8_8 
REMARK    3  A    between atoms: C7_7  and  C8_8 
REMARK    4  A    between atoms: C8_8  and  N9_9 
ROOT
HETATM    1  C1  UNL     1     -35.567  17.577  -5.478  1.00 20.00     0.158 C 
HETATM    2  N9  UNL     1     -35.094  16.644  -4.948  1.00 20.00    -0.270 NA
HETATM    3  S10 UNL     1     -36.236  18.823  -6.211  1.00 20.00    -0.055 SA
ENDROOT
BRANCH   2   4
HETATM    4  C8  UNL     1     -33.891  16.933  -4.156  1.00 20.00     0.109 C 
BRANCH   4   5
HETATM    5  C6  UNL     1     -34.308  17.689  -2.889  1.00 20.00     0.032 C 
BRANCH   5   6
HETATM    6  C4  UNL     1     -33.533  17.238  -1.658  1.00 20.00    -0.013 A 
HETATM    7  C2  UNL     1     -32.439  18.102  -1.094  1.00 20.00     0.005 A 
HETATM    8  C3  UNL     1     -33.730  17.937  -0.341  1.00 20.00     0.005 A 
ENDBRANCH   5   6
ENDBRANCH   4   5
BRANCH   4   9
HETATM    9  C7  UNL     1     -33.207  15.607  -3.802  1.00 20.00     0.023 C 
HETATM   10  C5  UNL     1     -34.022  14.414  -4.203  1.00 20.00     0.007 C 
ENDBRANCH   4   9
ENDBRANCH   2   4
TORSDOF 4
ENDMDL
MODEL 7
REMARK VINA RESULT:      -3.5     12.357     13.066
REMARK  4 active torsions:
REMARK  status: ('A' for Active; 'I' for Inactive)
REMARK    1  A    between atoms: C4_4  and  C6_6 
REMARK    2  A    between atoms: C6_6  and  C8_8 
REMARK    3  A    between atoms: C7_7  and  C8_8 
REMARK    4  A    between atoms: C8_8  and  N9_9 
ROOT
HETATM    1  C1  UNL     1     -35.673  18.504  -3.394  1.00 20.00     0.158 C 
HETATM    2  N9  UNL     1     -34.930  18.546  -2.487  1.00 20.00    -0.270 NA
HETATM    3  S10 UNL     1     -36.708  18.460  -4.605  1.00 20.00    -0.055 SA
ENDROOT
BRANCH   2   4
HETATM    4  C8  UNL     1     -33.557  18.126  -2.799  1.00 20.00     0.109 C 
BRANCH   4   5
HETATM    5  C6  UNL     1     -32.585  18.971  -1.968  1.00 20.00     0.032 C 
BRANCH   5   6
HETATM    6  C4  UNL     1     -32.038  18.215  -0.764  1.00 20.00    -0.013 A 
HETATM    7  C2  UNL     1     -31.018  18.859   0.134  1.00 20.00     0.005 A 
HETATM    8  C3  UNL     1     -32.419  18.633   0.629  1.00 20.00     0.005 A 
ENDBRANCH   5   6
ENDBRANCH   4   5
BRANCH   4   9
HETATM    9  C7  UNL     1     -33.414  16.637  -2.465  1.00 20.00     0.023 C 
HETATM   10  C5  UNL     1     -33.234  15.786  -3.687  1.00 20.00     0.007 C 
ENDBRANCH   4   9
ENDBRANCH   2   4
TORSDOF 4
ENDMDL
MODEL 8
REMARK VINA RESULT:      -3.5     12.145     12.678
REMARK  4 active torsions:
REMARK  status: ('A' for Active; 'I' for Inactive)
REMARK    1  A    between atoms: C4_4  and  C6_6 
REMARK    2  A    between atoms: C6_6  and  C8_8 
REMARK    3  A    between atoms: C7_7  and  C8_8 
REMARK    4  A    between atoms: C8_8  and  N9_9 
ROOT
HETATM    1  C1  UNL     1     -31.863  18.786  -0.871  1.00 20.00     0.158 C 
HETATM    2  N9  UNL     1     -32.143  18.941  -2.000  1.00 20.00    -0.270 NA
HETATM    3  S10 UNL     1     -31.451  18.594   0.656  1.00 20.00    -0.055 SA
ENDROOT
BRANCH   2   4
HETATM    4  C8  UNL     1     -33.422  18.339  -2.402  1.00 20.00     0.109 C 
BRANCH   4   5
HETATM    5  C6  UNL     1     -33.273  16.813  -2.378  1.00 20.00     0.032 C 
BRANCH   5   6
HETATM    6  C4  UNL     1     -33.548  16.179  -3.735  1.00 20.00    -0.013 A 
HETATM    7  C2  UNL     1     -32.694  15.042  -4.226  1.00 20.00     0.005 A 
HETATM    8  C3  UNL     1     -34.120  14.790  -3.820  1.00 20.00     0.005 A 
ENDBRANCH   5   6
ENDBRANCH   4   5
BRANCH   4   9
HETATM    9  C7  UNL     1     -34.509  18.799  -1.424  1.00 20.00     0.023 C 
HETATM   10  C5  UNL     1     -35.803  19.123  -2.111  1.00 20.00     0.007 C 
ENDBRANCH   4   9
ENDBRANCH   2   4
TORSDOF 4
ENDMDL
MODEL 9
REMARK VINA RESULT:      -3.5      1.940      2.567
REMARK  4 active torsions:
REMARK  status: ('A' for Active; 'I' for Inactive)
REMARK    1  A    between atoms: C4_4  and  C6_6 
REMARK    2  A    between atoms: C6_6  and  C8_8 
REMARK    3  A    between atoms: C7_7  and  C8_8 
REMARK    4  A    between atoms: C8_8  and  N9_9 
ROOT
HETATM    1  C1  UNL     1     -42.736  15.211   6.549  1.00 20.00     0.158 C 
HETATM    2  N9  UNL     1     -42.677  14.206   7.151  1.00 20.00    -0.270 NA
HETATM    3  S10 UNL     1     -42.852  16.578   5.740  1.00 20.00    -0.055 SA
ENDROOT
BRANCH   2   4
HETATM    4  C8  UNL     1     -41.342  13.593   7.190  1.00 20.00     0.109 C 
BRANCH   4   5
HETATM    5  C6  UNL     1     -40.905  13.279   5.754  1.00 20.00     0.032 C 
BRANCH   5   6
HETATM    6  C4  UNL     1     -40.046  12.025   5.667  1.00 20.00    -0.013 A 
HETATM    7  C2  UNL     1     -39.344  11.676   4.383  1.00 20.00     0.005 A 
HETATM    8  C3  UNL     1     -38.548  12.138   5.572  1.00 20.00     0.005 A 
ENDBRANCH   5   6
ENDBRANCH   4   5
BRANCH   4   9
HETATM    9  C7  UNL     1     -40.371  14.576   7.856  1.00 20.00     0.023 C 
HETATM   10  C5  UNL     1     -40.410  14.498   9.353  1.00 20.00     0.007 C 
ENDBRANCH   4   9
ENDBRANCH   2   4
TORSDOF 4
ENDMDL
