MODEL 1
REMARK VINA RESULT:      -3.9      0.000      0.000
REMARK  3 active torsions:
REMARK  status: ('A' for Active; 'I' for Inactive)
REMARK    1  A    between atoms: C4_4  and  C6_6 
REMARK    2  A    between atoms: C6_6  and  C7_7 
REMARK    3  A    between atoms: C7_7  and  N8_8 
ROOT
HETATM    1  C1  UNL     1     -32.612   6.478   3.011  1.00 20.00     0.158 C 
HETATM    2  N8  UNL     1     -32.290   7.562   3.326  1.00 20.00    -0.271 NA
HETATM    3  S9  UNL     1     -33.036   5.013   2.552  1.00 20.00    -0.055 SA
ENDROOT
BRANCH   2   4
HETATM    4  C7  UNL     1     -32.577   7.905   4.724  1.00 20.00     0.106 C 
HETATM    5  C5  UNL     1     -32.120   9.339   4.961  1.00 20.00     0.034 C 
BRANCH   4   6
HETATM    6  C6  UNL     1     -34.078   7.752   4.983  1.00 20.00     0.031 C 
BRANCH   6   7
HETATM    7  C4  UNL     1     -34.375   6.884   6.198  1.00 20.00    -0.013 A 
HETATM    8  C2  UNL     1     -34.885   5.480   6.020  1.00 20.00     0.005 A 
HETATM    9  C3  UNL     1     -33.490   5.714   6.528  1.00 20.00     0.005 A 
ENDBRANCH   6   7
ENDBRANCH   4   6
ENDBRANCH   2   4
TORSDOF 3
ENDMDL
MODEL 2
REMARK VINA RESULT:      -3.7      9.689     10.550
REMARK  3 active torsions:
REMARK  status: ('A' for Active; 'I' for Inactive)
REMARK    1  A    between atoms: C4_4  and  C6_6 
REMARK    2  A    between atoms: C6_6  and  C7_7 
REMARK    3  A    between atoms: C7_7  and  N8_8 
ROOT
HETATM    1  C1  UNL     1     -41.046  14.339   7.892  1.00 20.00     0.158 C 
HETATM    2  N8  UNL     1     -41.396  13.219   7.905  1.00 20.00    -0.271 NA
HETATM    3  S9  UNL     1     -40.564  15.856   7.908  1.00 20.00    -0.055 SA
ENDROOT
BRANCH   2   4
HETATM    4  C7  UNL     1     -41.884  12.713   6.615  1.00 20.00     0.106 C 
HETATM    5  C5  UNL     1     -43.186  13.433   6.288  1.00 20.00     0.034 C 
BRANCH   4   6
HETATM    6  C6  UNL     1     -40.824  12.971   5.541  1.00 20.00     0.031 C 
BRANCH   6   7
HETATM    7  C4  UNL     1     -39.859  11.803   5.382  1.00 20.00    -0.013 A 
HETATM    8  C2  UNL     1     -39.012  11.683   4.145  1.00 20.00     0.005 A 
HETATM    9  C3  UNL     1     -38.375  12.031   5.460  1.00 20.00     0.005 A 
ENDBRANCH   6   7
ENDBRANCH   4   6
ENDBRANCH   2   4
TORSDOF 3
ENDMDL
MODEL 3
REMARK VINA RESULT:      -3.6      1.623      3.117
REMARK  3 active torsions:
REMARK  status: ('A' for Active; 'I' for Inactive)
REMARK    1  A    between atoms: C4_4  and  C6_6 
REMARK    2  A    between atoms: C6_6  and  C7_7 
REMARK    3  A    between atoms: C7_7  and  N8_8 
ROOT
HETATM    1  C1  UNL     1     -34.019   4.860   3.772  1.00 20.00     0.158 C 
HETATM    2  N8  UNL     1     -34.786   4.768   4.655  1.00 20.00    -0.271 NA
HETATM    3  S9  UNL     1     -32.987   4.953   2.563  1.00 20.00    -0.055 SA
ENDROOT
BRANCH   2   4
HETATM    4  C7  UNL     1     -34.818   5.922   5.563  1.00 20.00     0.106 C 
HETATM    5  C5  UNL     1     -33.868   5.638   6.720  1.00 20.00     0.034 C 
BRANCH   4   6
HETATM    6  C6  UNL     1     -34.397   7.178   4.796  1.00 20.00     0.031 C 
BRANCH   6   7
HETATM    7  C4  UNL     1     -33.025   7.687   5.220  1.00 20.00    -0.013 A 
HETATM    8  C2  UNL     1     -32.030   8.134   4.185  1.00 20.00     0.005 A 
HETATM    9  C3  UNL     1     -32.684   9.145   5.084  1.00 20.00     0.005 A 
ENDBRANCH   6   7
ENDBRANCH   4   6
ENDBRANCH   2   4
TORSDOF 3
ENDMDL
MODEL 4
REMARK VINA RESULT:      -3.5     12.522     13.006
REMARK  3 active torsions:
REMARK  status: ('A' for Active; 'I' for Inactive)
REMARK    1  A    between atoms: C4_4  and  C6_6 
REMARK    2  A    between atoms: C6_6  and  C7_7 
REMARK    3  A    between atoms: C7_7  and  N8_8 
ROOT
HETATM    1  C1  UNL     1     -29.888  19.126   2.117  1.00 20.00     0.158 C 
HETATM    2  N8  UNL     1     -30.322  19.245   1.033  1.00 20.00    -0.271 NA
HETATM    3  S9  UNL     1     -29.274  18.984   3.580  1.00 20.00    -0.055 SA
ENDROOT
BRANCH   2   4
HETATM    4  C7  UNL     1     -31.554  18.489   0.779  1.00 20.00     0.106 C 
HETATM    5  C5  UNL     1     -32.700  19.203   1.485  1.00 20.00     0.034 C 
BRANCH   4   6
HETATM    6  C6  UNL     1     -31.796  18.413  -0.731  1.00 20.00     0.031 C 
BRANCH   6   7
HETATM    7  C4  UNL     1     -33.198  17.928  -1.073  1.00 20.00    -0.013 A 
HETATM    8  C2  UNL     1     -33.794  18.224  -2.422  1.00 20.00     0.005 A 
HETATM    9  C3  UNL     1     -33.394  16.819  -2.070  1.00 20.00     0.005 A 
ENDBRANCH   6   7
ENDBRANCH   4   6
ENDBRANCH   2   4
TORSDOF 3
ENDMDL
MODEL 5
REMARK VINA RESULT:      -3.4      1.642      1.792
REMARK  3 active torsions:
REMARK  status: ('A' for Active; 'I' for Inactive)
REMARK    1  A    between atoms: C4_4  and  C6_6 
REMARK    2  A    between atoms: C6_6  and  C7_7 
REMARK    3  A    between atoms: C7_7  and  N8_8 
ROOT
HETATM    1  C1  UNL     1     -32.291   7.760   2.204  1.00 20.00     0.158 C 
HETATM    2  N8  UNL     1     -32.318   7.164   3.214  1.00 20.00    -0.271 NA
HETATM    3  S9  UNL     1     -32.253   8.541   0.817  1.00 20.00    -0.055 SA
ENDROOT
BRANCH   2   4
HETATM    4  C7  UNL     1     -32.354   8.000   4.421  1.00 20.00     0.106 C 
HETATM    5  C5  UNL     1     -32.470   9.454   3.983  1.00 20.00     0.034 C 
BRANCH   4   6
HETATM    6  C6  UNL     1     -33.547   7.585   5.286  1.00 20.00     0.031 C 
BRANCH   6   7
HETATM    7  C4  UNL     1     -33.926   6.123   5.094  1.00 20.00    -0.013 A 
HETATM    8  C2  UNL     1     -34.794   5.426   6.106  1.00 20.00     0.005 A 
HETATM    9  C3  UNL     1     -35.339   5.746   4.743  1.00 20.00     0.005 A 
ENDBRANCH   6   7
ENDBRANCH   4   6
ENDBRANCH   2   4
TORSDOF 3
ENDMDL
MODEL 6
REMARK VINA RESULT:      -3.4     10.057     10.904
REMARK  3 active torsions:
REMARK  status: ('A' for Active; 'I' for Inactive)
REMARK    1  A    between atoms: C4_4  and  C6_6 
REMARK    2  A    between atoms: C6_6  and  C7_7 
REMARK    3  A    between atoms: C7_7  and  N8_8 
ROOT
HETATM    1  C1  UNL     1     -41.661  15.526   7.190  1.00 20.00     0.158 C 
HETATM    2  N8  UNL     1     -42.335  14.622   6.865  1.00 20.00    -0.271 NA
HETATM    3  S9  UNL     1     -40.772  16.773   7.628  1.00 20.00    -0.055 SA
ENDROOT
BRANCH   2   4
HETATM    4  C7  UNL     1     -41.647  13.327   6.822  1.00 20.00     0.106 C 
HETATM    5  C5  UNL     1     -42.694  12.231   6.975  1.00 20.00     0.034 C 
BRANCH   4   6
HETATM    6  C6  UNL     1     -40.899  13.197   5.492  1.00 20.00     0.031 C 
BRANCH   6   7
HETATM    7  C4  UNL     1     -40.021  11.954   5.436  1.00 20.00    -0.013 A 
HETATM    8  C2  UNL     1     -39.153  11.694   4.236  1.00 20.00     0.005 A 
HETATM    9  C3  UNL     1     -38.526  12.078   5.546  1.00 20.00     0.005 A 
ENDBRANCH   6   7
ENDBRANCH   4   6
ENDBRANCH   2   4
TORSDOF 3
ENDMDL
MODEL 7
REMARK VINA RESULT:      -3.4     12.672     13.076
REMARK  3 active torsions:
REMARK  status: ('A' for Active; 'I' for Inactive)
REMARK    1  A    between atoms: C4_4  and  C6_6 
REMARK    2  A    between atoms: C6_6  and  C7_7 
REMARK    3  A    between atoms: C7_7  and  N8_8 
ROOT
HETATM    1  C1  UNL     1     -30.707  18.922   0.789  1.00 20.00     0.158 C 
HETATM    2  N8  UNL     1     -31.046  18.895  -0.334  1.00 20.00    -0.271 NA
HETATM    3  S9  UNL     1     -30.220  18.976   2.305  1.00 20.00    -0.055 SA
ENDROOT
BRANCH   2   4
HETATM    4  C7  UNL     1     -32.322  18.210  -0.574  1.00 20.00     0.106 C 
HETATM    5  C5  UNL     1     -33.412  18.971   0.170  1.00 20.00     0.034 C 
BRANCH   4   6
HETATM    6  C6  UNL     1     -32.599  18.175  -2.079  1.00 20.00     0.031 C 
BRANCH   6   7
HETATM    7  C4  UNL     1     -33.597  17.091  -2.463  1.00 20.00    -0.013 A 
HETATM    8  C2  UNL     1     -34.187  17.059  -3.846  1.00 20.00     0.005 A 
HETATM    9  C3  UNL     1     -33.203  16.004  -3.425  1.00 20.00     0.005 A 
ENDBRANCH   6   7
ENDBRANCH   4   6
ENDBRANCH   2   4
TORSDOF 3
ENDMDL
MODEL 8
REMARK VINA RESULT:      -3.4      1.975      2.563
REMARK  3 active torsions:
REMARK  status: ('A' for Active; 'I' for Inactive)
REMARK    1  A    between atoms: C4_4  and  C6_6 
REMARK    2  A    between atoms: C6_6  and  C7_7 
REMARK    3  A    between atoms: C7_7  and  N8_8 
ROOT
HETATM    1  C1  UNL     1     -32.325   8.192   1.560  1.00 20.00     0.158 C 
HETATM    2  N8  UNL     1     -32.029   7.550   2.497  1.00 20.00    -0.271 NA
HETATM    3  S9  UNL     1     -32.694   9.075   0.287  1.00 20.00    -0.055 SA
ENDROOT
BRANCH   2   4
HETATM    4  C7  UNL     1     -33.119   6.739   3.054  1.00 20.00     0.106 C 
HETATM    5  C5  UNL     1     -32.836   5.279   2.726  1.00 20.00     0.034 C 
BRANCH   4   6
HETATM    6  C6  UNL     1     -33.190   6.962   4.567  1.00 20.00     0.031 C 
BRANCH   6   7
HETATM    7  C4  UNL     1     -34.481   6.428   5.175  1.00 20.00    -0.013 A 
HETATM    8  C2  UNL     1     -34.479   5.132   5.937  1.00 20.00     0.005 A 
HETATM    9  C3  UNL     1     -34.673   6.431   6.666  1.00 20.00     0.005 A 
ENDBRANCH   6   7
ENDBRANCH   4   6
ENDBRANCH   2   4
TORSDOF 3
ENDMDL
MODEL 9
REMARK VINA RESULT:      -3.4      9.675     10.528
REMARK  3 active torsions:
REMARK  status: ('A' for Active; 'I' for Inactive)
REMARK    1  A    between atoms: C4_4  and  C6_6 
REMARK    2  A    between atoms: C6_6  and  C7_7 
REMARK    3  A    between atoms: C7_7  and  N8_8 
ROOT
HETATM    1  C1  UNL     1     -40.455  14.645   8.373  1.00 20.00     0.158 C 
HETATM    2  N8  UNL     1     -40.465  14.452   7.215  1.00 20.00    -0.271 NA
HETATM    3  S9  UNL     1     -40.413  14.926   9.940  1.00 20.00    -0.055 SA
ENDROOT
BRANCH   2   4
HETATM    4  C7  UNL     1     -41.523  13.545   6.754  1.00 20.00     0.106 C 
HETATM    5  C5  UNL     1     -42.355  14.282   5.712  1.00 20.00     0.034 C 
BRANCH   4   6
HETATM    6  C6  UNL     1     -40.884  12.286   6.162  1.00 20.00     0.031 C 
BRANCH   6   7
HETATM    7  C4  UNL     1     -39.747  12.606   5.201  1.00 20.00    -0.013 A 
HETATM    8  C2  UNL     1     -38.382  12.013   5.419  1.00 20.00     0.005 A 
HETATM    9  C3  UNL     1     -39.227  11.551   4.265  1.00 20.00     0.005 A 
ENDBRANCH   6   7
ENDBRANCH   4   6
ENDBRANCH   2   4
TORSDOF 3
ENDMDL
