MODEL 1
REMARK VINA RESULT:      -4.1      0.000      0.000
REMARK  1 active torsions:
REMARK  status: ('A' for Active; 'I' for Inactive)
REMARK    1  A    between atoms: C10_10  and  N11_11 
ROOT
HETATM    1  C1  UNL     1     -36.259  19.263  -2.165  1.00 20.00     0.015 C 
HETATM    2  C2  UNL     1     -35.262  18.662  -2.460  1.00 20.00    -0.076 C 
HETATM    3  C8  UNL     1     -33.006  18.894  -3.410  1.00 20.00     0.063 C 
HETATM    4  C9  UNL     1     -33.456  17.239  -1.580  1.00 20.00     0.063 C 
HETATM    5  C10 UNL     1     -34.035  17.923  -2.822  1.00 20.00     0.214 C 
ENDROOT
BRANCH   5   6
HETATM    6  N11 UNL     1     -34.369  16.905  -3.819  1.00 20.00     0.110 N 
HETATM    7  C6  UNL     1     -33.297  15.901  -3.902  1.00 20.00     0.282 C 
HETATM    8  C4  UNL     1     -33.661  14.777  -4.867  1.00 20.00     0.108 C 
HETATM    9  C3  UNL     1     -34.068  15.342  -6.206  1.00 20.00     0.130 C 
HETATM   10  C5  UNL     1     -35.034  16.500  -6.168  1.00 20.00     0.108 C 
HETATM   11  O12 UNL     1     -33.723  14.817  -7.264  1.00 20.00    -0.298 OA
HETATM   12  C7  UNL     1     -34.595  17.529  -5.132  1.00 20.00     0.282 C 
ENDBRANCH   5   6
TORSDOF 1
ENDMDL
MODEL 2
REMARK VINA RESULT:      -4.0     12.634     14.087
REMARK  1 active torsions:
REMARK  status: ('A' for Active; 'I' for Inactive)
REMARK    1  A    between atoms: C10_10  and  N11_11 
ROOT
HETATM    1  C1  UNL     1     -39.194  11.916   5.282  1.00 20.00     0.015 C 
HETATM    2  C2  UNL     1     -40.127  12.604   5.596  1.00 20.00    -0.076 C 
HETATM    3  C8  UNL     1     -41.939  14.019   4.726  1.00 20.00     0.063 C 
HETATM    4  C9  UNL     1     -42.286  12.618   6.777  1.00 20.00     0.063 C 
HETATM    5  C10 UNL     1     -41.274  13.450   5.984  1.00 20.00     0.214 C 
ENDROOT
BRANCH   5   6
HETATM    6  N11 UNL     1     -40.794  14.549   6.822  1.00 20.00     0.110 N 
HETATM    7  C6  UNL     1     -40.735  14.128   8.231  1.00 20.00     0.282 C 
HETATM    8  C4  UNL     1     -40.149  15.226   9.115  1.00 20.00     0.108 C 
HETATM    9  C3  UNL     1     -40.886  16.526   8.900  1.00 20.00     0.130 C 
HETATM   10  C5  UNL     1     -41.135  16.915   7.464  1.00 20.00     0.108 C 
HETATM   11  O12 UNL     1     -41.165  17.275   9.835  1.00 20.00    -0.298 OA
HETATM   12  C7  UNL     1     -41.665  15.725   6.671  1.00 20.00     0.282 C 
ENDBRANCH   5   6
TORSDOF 1
ENDMDL
MODEL 3
REMARK VINA RESULT:      -4.0     24.679     26.056
REMARK  1 active torsions:
REMARK  status: ('A' for Active; 'I' for Inactive)
REMARK    1  A    between atoms: C10_10  and  N11_11 
ROOT
HETATM    1  C1  UNL     1     -23.449  -3.197   8.327  1.00 20.00     0.015 C 
HETATM    2  C2  UNL     1     -24.096  -3.162   9.338  1.00 20.00    -0.076 C 
HETATM    3  C8  UNL     1     -24.850  -4.488  11.266  1.00 20.00     0.063 C 
HETATM    4  C9  UNL     1     -24.327  -2.048  11.521  1.00 20.00     0.063 C 
HETATM    5  C10 UNL     1     -24.892  -3.117  10.582  1.00 20.00     0.214 C 
ENDROOT
BRANCH   5   6
HETATM    6  N11 UNL     1     -26.277  -2.781  10.249  1.00 20.00     0.110 N 
HETATM    7  C6  UNL     1     -26.658  -1.507  10.881  1.00 20.00     0.282 C 
HETATM    8  C4  UNL     1     -28.067  -1.086  10.476  1.00 20.00     0.108 C 
HETATM    9  C3  UNL     1     -29.047  -2.206  10.729  1.00 20.00     0.130 C 
HETATM   10  C5  UNL     1     -28.621  -3.575  10.259  1.00 20.00     0.108 C 
HETATM   11  O12 UNL     1     -30.169  -1.995  11.186  1.00 20.00    -0.298 OA
HETATM   12  C7  UNL     1     -27.182  -3.859  10.676  1.00 20.00     0.282 C 
ENDBRANCH   5   6
TORSDOF 1
ENDMDL
MODEL 4
REMARK VINA RESULT:      -3.9      0.877      1.730
REMARK  1 active torsions:
REMARK  status: ('A' for Active; 'I' for Inactive)
REMARK    1  A    between atoms: C10_10  and  N11_11 
ROOT
HETATM    1  C1  UNL     1     -33.669  17.760   0.052  1.00 20.00     0.015 C 
HETATM    2  C2  UNL     1     -33.915  18.052  -1.087  1.00 20.00    -0.076 C 
HETATM    3  C8  UNL     1     -35.491  19.263  -2.535  1.00 20.00     0.063 C 
HETATM    4  C9  UNL     1     -33.045  19.194  -3.086  1.00 20.00     0.063 C 
HETATM    5  C10 UNL     1     -34.218  18.411  -2.488  1.00 20.00     0.214 C 
ENDROOT
BRANCH   5   6
HETATM    6  N11 UNL     1     -34.421  17.186  -3.260  1.00 20.00     0.110 N 
HETATM    7  C6  UNL     1     -33.142  16.483  -3.450  1.00 20.00     0.282 C 
HETATM    8  C4  UNL     1     -33.339  15.154  -4.173  1.00 20.00     0.108 C 
HETATM    9  C3  UNL     1     -34.113  15.359  -5.452  1.00 20.00     0.130 C 
HETATM   10  C5  UNL     1     -35.343  16.228  -5.348  1.00 20.00     0.108 C 
HETATM   11  O12 UNL     1     -33.824  14.763  -6.488  1.00 20.00    -0.298 OA
HETATM   12  C7  UNL     1     -35.036  17.497  -4.560  1.00 20.00     0.282 C 
ENDBRANCH   5   6
TORSDOF 1
ENDMDL
MODEL 5
REMARK VINA RESULT:      -3.9      4.025      5.742
REMARK  1 active torsions:
REMARK  status: ('A' for Active; 'I' for Inactive)
REMARK    1  A    between atoms: C10_10  and  N11_11 
ROOT
HETATM    1  C1  UNL     1     -36.261  18.955  -2.487  1.00 20.00     0.015 C 
HETATM    2  C2  UNL     1     -35.100  18.669  -2.369  1.00 20.00    -0.076 C 
HETATM    3  C8  UNL     1     -33.521  16.794  -2.173  1.00 20.00     0.063 C 
HETATM    4  C9  UNL     1     -32.878  18.882  -3.405  1.00 20.00     0.063 C 
HETATM    5  C10 UNL     1     -33.672  18.319  -2.223  1.00 20.00     0.214 C 
ENDROOT
BRANCH   5   6
HETATM    6  N11 UNL     1     -33.163  18.901  -0.981  1.00 20.00     0.110 N 
HETATM    7  C6  UNL     1     -31.736  18.580  -0.815  1.00 20.00     0.282 C 
HETATM    8  C4  UNL     1     -31.156  19.253   0.426  1.00 20.00     0.108 C 
HETATM    9  C3  UNL     1     -31.994  18.934   1.640  1.00 20.00     0.130 C 
HETATM   10  C5  UNL     1     -33.487  19.072   1.467  1.00 20.00     0.108 C 
HETATM   11  O12 UNL     1     -31.487  18.688   2.732  1.00 20.00    -0.298 OA
HETATM   12  C7  UNL     1     -33.939  18.411   0.169  1.00 20.00     0.282 C 
ENDBRANCH   5   6
TORSDOF 1
ENDMDL
MODEL 6
REMARK VINA RESULT:      -3.9      3.616      5.517
REMARK  1 active torsions:
REMARK  status: ('A' for Active; 'I' for Inactive)
REMARK    1  A    between atoms: C10_10  and  N11_11 
ROOT
HETATM    1  C1  UNL     1     -33.444  15.854  -3.039  1.00 20.00     0.015 C 
HETATM    2  C2  UNL     1     -33.631  17.030  -2.877  1.00 20.00    -0.076 C 
HETATM    3  C8  UNL     1     -33.182  19.263  -3.804  1.00 20.00     0.063 C 
HETATM    4  C9  UNL     1     -35.365  18.765  -2.672  1.00 20.00     0.063 C 
HETATM    5  C10 UNL     1     -33.861  18.475  -2.677  1.00 20.00     0.214 C 
ENDROOT
BRANCH   5   6
HETATM    6  N11 UNL     1     -33.290  18.875  -1.390  1.00 20.00     0.110 N 
HETATM    7  C6  UNL     1     -31.861  18.528  -1.336  1.00 20.00     0.282 C 
HETATM    8  C4  UNL     1     -31.220  19.017  -0.041  1.00 20.00     0.108 C 
HETATM    9  C3  UNL     1     -32.007  18.536   1.154  1.00 20.00     0.130 C 
HETATM   10  C5  UNL     1     -33.504  18.705   1.070  1.00 20.00     0.108 C 
HETATM   11  O12 UNL     1     -31.454  18.138   2.177  1.00 20.00    -0.298 OA
HETATM   12  C7  UNL     1     -34.020  18.233  -0.286  1.00 20.00     0.282 C 
ENDBRANCH   5   6
TORSDOF 1
ENDMDL
MODEL 7
REMARK VINA RESULT:      -3.8      2.421      4.378
REMARK  1 active torsions:
REMARK  status: ('A' for Active; 'I' for Inactive)
REMARK    1  A    between atoms: C10_10  and  N11_11 
ROOT
HETATM    1  C1  UNL     1     -37.450  15.885  -5.437  1.00 20.00     0.015 C 
HETATM    2  C2  UNL     1     -36.276  16.137  -5.457  1.00 20.00    -0.076 C 
HETATM    3  C8  UNL     1     -34.029  15.144  -5.580  1.00 20.00     0.063 C 
HETATM    4  C9  UNL     1     -34.515  17.344  -6.683  1.00 20.00     0.063 C 
HETATM    5  C10 UNL     1     -34.831  16.447  -5.483  1.00 20.00     0.214 C 
ENDROOT
BRANCH   5   6
HETATM    6  N11 UNL     1     -34.473  17.150  -4.250  1.00 20.00     0.110 N 
HETATM    7  C6  UNL     1     -33.895  18.466  -4.563  1.00 20.00     0.282 C 
HETATM    8  C4  UNL     1     -33.597  19.259  -3.294  1.00 20.00     0.108 C 
HETATM    9  C3  UNL     1     -32.760  18.439  -2.343  1.00 20.00     0.130 C 
HETATM   10  C5  UNL     1     -33.209  17.015  -2.126  1.00 20.00     0.108 C 
HETATM   11  O12 UNL     1     -31.837  18.934  -1.699  1.00 20.00    -0.298 OA
HETATM   12  C7  UNL     1     -33.528  16.346  -3.459  1.00 20.00     0.282 C 
ENDBRANCH   5   6
TORSDOF 1
ENDMDL
MODEL 8
REMARK VINA RESULT:      -3.8      1.379      2.138
REMARK  1 active torsions:
REMARK  status: ('A' for Active; 'I' for Inactive)
REMARK    1  A    between atoms: C10_10  and  N11_11 
ROOT
HETATM    1  C1  UNL     1     -33.285  17.397  -1.481  1.00 20.00     0.015 C 
HETATM    2  C2  UNL     1     -33.887  17.719  -2.469  1.00 20.00    -0.076 C 
HETATM    3  C8  UNL     1     -35.731  19.110  -3.313  1.00 20.00     0.063 C 
HETATM    4  C9  UNL     1     -33.666  18.754  -4.691  1.00 20.00     0.063 C 
HETATM    5  C10 UNL     1     -34.627  18.114  -3.685  1.00 20.00     0.214 C 
ENDROOT
BRANCH   5   6
HETATM    6  N11 UNL     1     -35.227  16.922  -4.286  1.00 20.00     0.110 N 
HETATM    7  C6  UNL     1     -34.178  16.023  -4.793  1.00 20.00     0.282 C 
HETATM    8  C4  UNL     1     -34.773  14.729  -5.341  1.00 20.00     0.108 C 
HETATM    9  C3  UNL     1     -35.853  15.031  -6.352  1.00 20.00     0.130 C 
HETATM   10  C5  UNL     1     -36.855  16.086  -5.952  1.00 20.00     0.108 C 
HETATM   11  O12 UNL     1     -35.974  14.378  -7.387  1.00 20.00    -0.298 OA
HETATM   12  C7  UNL     1     -36.146  17.304  -5.369  1.00 20.00     0.282 C 
ENDBRANCH   5   6
TORSDOF 1
ENDMDL
MODEL 9
REMARK VINA RESULT:      -3.8      2.045      3.306
REMARK  1 active torsions:
REMARK  status: ('A' for Active; 'I' for Inactive)
REMARK    1  A    between atoms: C10_10  and  N11_11 
ROOT
HETATM    1  C1  UNL     1     -33.804  19.208  -7.619  1.00 20.00     0.015 C 
HETATM    2  C2  UNL     1     -34.090  18.737  -6.552  1.00 20.00    -0.076 C 
HETATM    3  C8  UNL     1     -33.386  18.557  -4.202  1.00 20.00     0.063 C 
HETATM    4  C9  UNL     1     -35.820  18.662  -4.802  1.00 20.00     0.063 C 
HETATM    5  C10 UNL     1     -34.442  18.157  -5.240  1.00 20.00     0.214 C 
ENDROOT
BRANCH   5   6
HETATM    6  N11 UNL     1     -34.480  16.699  -5.358  1.00 20.00     0.110 N 
HETATM    7  C6  UNL     1     -35.844  16.249  -5.678  1.00 20.00     0.282 C 
HETATM    8  C4  UNL     1     -35.894  14.740  -5.899  1.00 20.00     0.108 C 
HETATM    9  C3  UNL     1     -35.276  14.014  -4.728  1.00 20.00     0.130 C 
HETATM   10  C5  UNL     1     -33.953  14.553  -4.241  1.00 20.00     0.108 C 
HETATM   11  O12 UNL     1     -35.763  12.980  -4.275  1.00 20.00    -0.298 OA
HETATM   12  C7  UNL     1     -34.010  16.072  -4.113  1.00 20.00     0.282 C 
ENDBRANCH   5   6
TORSDOF 1
ENDMDL
