MODEL 1
REMARK VINA RESULT:      -4.5      0.000      0.000
REMARK  3 active torsions:
REMARK  status: ('A' for Active; 'I' for Inactive)
REMARK    1  A    between atoms: C2_2  and  C6_6 
REMARK    2  A    between atoms: C2_2  and  C7_7 
REMARK    3  A    between atoms: C7_7  and  C8_8 
ROOT
HETATM    1  C1  UNL     1     -32.488   8.801   1.143  1.00 20.00     0.066 C 
HETATM    2  C6  UNL     1     -32.073   7.638   1.934  1.00 20.00     0.202 C 
HETATM    3  N9  UNL     1     -32.816   9.719   0.513  1.00 20.00    -0.197 NA
ENDROOT
BRANCH   2   4
HETATM    4  C2  UNL     1     -32.456   7.766   3.397  1.00 20.00     0.143 C 
HETATM    5  O10 UNL     1     -32.378   8.830   4.011  1.00 20.00    -0.297 OA
BRANCH   4   6
HETATM    6  C7  UNL     1     -32.982   6.495   4.068  1.00 20.00     0.055 C 
HETATM    7  C3  UNL     1     -33.142   5.437   2.977  1.00 20.00     0.018 C 
BRANCH   6   8
HETATM    8  C8  UNL     1     -34.288   6.780   4.852  1.00 20.00    -0.012 C 
HETATM    9  C4  UNL     1     -34.012   6.883   6.359  1.00 20.00     0.010 C 
HETATM   10  C5  UNL     1     -35.353   5.704   4.615  1.00 20.00     0.010 C 
ENDBRANCH   6   8
ENDBRANCH   4   6
ENDBRANCH   2   4
TORSDOF 3
ENDMDL
MODEL 2
REMARK VINA RESULT:      -4.4      1.068      2.031
REMARK  3 active torsions:
REMARK  status: ('A' for Active; 'I' for Inactive)
REMARK    1  A    between atoms: C2_2  and  C6_6 
REMARK    2  A    between atoms: C2_2  and  C7_7 
REMARK    3  A    between atoms: C7_7  and  C8_8 
ROOT
HETATM    1  C1  UNL     1     -32.271   7.811   1.901  1.00 20.00     0.066 C 
HETATM    2  C6  UNL     1     -32.386   7.019   3.129  1.00 20.00     0.202 C 
HETATM    3  N9  UNL     1     -32.178   8.435   0.926  1.00 20.00    -0.197 NA
ENDROOT
BRANCH   2   4
HETATM    4  C2  UNL     1     -32.768   7.864   4.330  1.00 20.00     0.143 C 
HETATM    5  O10 UNL     1     -32.128   8.860   4.669  1.00 20.00    -0.297 OA
BRANCH   4   6
HETATM    6  C7  UNL     1     -34.023   7.428   5.089  1.00 20.00     0.055 C 
HETATM    7  C3  UNL     1     -33.736   7.601   6.581  1.00 20.00     0.018 C 
BRANCH   6   8
HETATM    8  C8  UNL     1     -34.435   5.986   4.700  1.00 20.00    -0.012 C 
HETATM    9  C4  UNL     1     -35.846   5.963   4.096  1.00 20.00     0.010 C 
HETATM   10  C5  UNL     1     -34.391   5.027   5.895  1.00 20.00     0.010 C 
ENDBRANCH   6   8
ENDBRANCH   4   6
ENDBRANCH   2   4
TORSDOF 3
ENDMDL
MODEL 3
REMARK VINA RESULT:      -4.3     11.318     12.189
REMARK  3 active torsions:
REMARK  status: ('A' for Active; 'I' for Inactive)
REMARK    1  A    between atoms: C2_2  and  C6_6 
REMARK    2  A    between atoms: C2_2  and  C7_7 
REMARK    3  A    between atoms: C7_7  and  C8_8 
ROOT
HETATM    1  C1  UNL     1     -30.399  18.591   2.406  1.00 20.00     0.066 C 
HETATM    2  C6  UNL     1     -31.696  18.614   1.724  1.00 20.00     0.202 C 
HETATM    3  N9  UNL     1     -29.374  18.573   2.950  1.00 20.00    -0.197 NA
ENDROOT
BRANCH   2   4
HETATM    4  C2  UNL     1     -31.556  18.663   0.213  1.00 20.00     0.143 C 
HETATM    5  O10 UNL     1     -30.461  18.680  -0.350  1.00 20.00    -0.297 OA
BRANCH   4   6
HETATM    6  C7  UNL     1     -32.861  18.656  -0.585  1.00 20.00     0.055 C 
HETATM    7  C3  UNL     1     -33.917  17.960   0.274  1.00 20.00     0.018 C 
BRANCH   6   8
HETATM    8  C8  UNL     1     -32.661  17.999  -1.974  1.00 20.00    -0.012 C 
HETATM    9  C4  UNL     1     -32.980  18.991  -3.101  1.00 20.00     0.010 C 
HETATM   10  C5  UNL     1     -33.528  16.748  -2.155  1.00 20.00     0.010 C 
ENDBRANCH   6   8
ENDBRANCH   4   6
ENDBRANCH   2   4
TORSDOF 3
ENDMDL
MODEL 4
REMARK VINA RESULT:      -4.2      1.391      2.036
REMARK  3 active torsions:
REMARK  status: ('A' for Active; 'I' for Inactive)
REMARK    1  A    between atoms: C2_2  and  C6_6 
REMARK    2  A    between atoms: C2_2  and  C7_7 
REMARK    3  A    between atoms: C7_7  and  C8_8 
ROOT
HETATM    1  C1  UNL     1     -32.238   8.435   1.260  1.00 20.00     0.066 C 
HETATM    2  C6  UNL     1     -31.778   7.921   2.554  1.00 20.00     0.202 C 
HETATM    3  N9  UNL     1     -32.599   8.844   0.235  1.00 20.00    -0.197 NA
ENDROOT
BRANCH   2   4
HETATM    4  C2  UNL     1     -32.713   6.873   3.127  1.00 20.00     0.143 C 
HETATM    5  O10 UNL     1     -32.724   5.707   2.730  1.00 20.00    -0.297 OA
BRANCH   4   6
HETATM    6  C7  UNL     1     -33.632   7.337   4.259  1.00 20.00     0.055 C 
HETATM    7  C3  UNL     1     -32.859   8.371   5.078  1.00 20.00     0.018 C 
BRANCH   6   8
HETATM    8  C8  UNL     1     -34.135   6.134   5.096  1.00 20.00    -0.012 C 
HETATM    9  C4  UNL     1     -35.501   5.647   4.591  1.00 20.00     0.010 C 
HETATM   10  C5  UNL     1     -34.249   6.471   6.587  1.00 20.00     0.010 C 
ENDBRANCH   6   8
ENDBRANCH   4   6
ENDBRANCH   2   4
TORSDOF 3
ENDMDL
MODEL 5
REMARK VINA RESULT:      -3.7      9.761     10.609
REMARK  3 active torsions:
REMARK  status: ('A' for Active; 'I' for Inactive)
REMARK    1  A    between atoms: C2_2  and  C6_6 
REMARK    2  A    between atoms: C2_2  and  C7_7 
REMARK    3  A    between atoms: C7_7  and  C8_8 
ROOT
HETATM    1  C1  UNL     1     -39.393  11.837   4.563  1.00 20.00     0.066 C 
HETATM    2  C6  UNL     1     -39.655  11.806   6.005  1.00 20.00     0.202 C 
HETATM    3  N9  UNL     1     -39.182  11.859   3.422  1.00 20.00    -0.197 NA
ENDROOT
BRANCH   2   4
HETATM    4  C2  UNL     1     -40.923  12.552   6.381  1.00 20.00     0.143 C 
HETATM    5  O10 UNL     1     -41.942  11.975   6.759  1.00 20.00    -0.297 OA
BRANCH   4   6
HETATM    6  C7  UNL     1     -40.856  14.078   6.293  1.00 20.00     0.055 C 
HETATM    7  C3  UNL     1     -40.531  14.600   7.693  1.00 20.00     0.018 C 
BRANCH   6   8
HETATM    8  C8  UNL     1     -42.166  14.659   5.704  1.00 20.00    -0.012 C 
HETATM    9  C4  UNL     1     -42.216  14.465   4.181  1.00 20.00     0.010 C 
HETATM   10  C5  UNL     1     -42.334  16.149   6.020  1.00 20.00     0.010 C 
ENDBRANCH   6   8
ENDBRANCH   4   6
ENDBRANCH   2   4
TORSDOF 3
ENDMDL
MODEL 6
REMARK VINA RESULT:      -3.7     15.706     16.732
REMARK  3 active torsions:
REMARK  status: ('A' for Active; 'I' for Inactive)
REMARK    1  A    between atoms: C2_2  and  C6_6 
REMARK    2  A    between atoms: C2_2  and  C7_7 
REMARK    3  A    between atoms: C7_7  and  C8_8 
ROOT
HETATM    1  C1  UNL     1     -26.490  19.091  12.131  1.00 20.00     0.066 C 
HETATM    2  C6  UNL     1     -25.039  19.020  12.332  1.00 20.00     0.202 C 
HETATM    3  N9  UNL     1     -27.638  19.150  11.974  1.00 20.00    -0.197 NA
ENDROOT
BRANCH   2   4
HETATM    4  C2  UNL     1     -24.421  17.803  11.669  1.00 20.00     0.143 C 
HETATM    5  O10 UNL     1     -25.031  16.742  11.531  1.00 20.00    -0.297 OA
BRANCH   4   6
HETATM    6  C7  UNL     1     -22.993  17.974  11.146  1.00 20.00     0.055 C 
HETATM    7  C3  UNL     1     -22.120  18.389  12.331  1.00 20.00     0.018 C 
BRANCH   6   8
HETATM    8  C8  UNL     1     -22.949  18.975   9.964  1.00 20.00    -0.012 C 
HETATM    9  C4  UNL     1     -23.992  18.609   8.898  1.00 20.00     0.010 C 
HETATM   10  C5  UNL     1     -21.567  19.037   9.306  1.00 20.00     0.010 C 
ENDBRANCH   6   8
ENDBRANCH   4   6
ENDBRANCH   2   4
TORSDOF 3
ENDMDL
MODEL 7
REMARK VINA RESULT:      -3.7     11.340     12.468
REMARK  3 active torsions:
REMARK  status: ('A' for Active; 'I' for Inactive)
REMARK    1  A    between atoms: C2_2  and  C6_6 
REMARK    2  A    between atoms: C2_2  and  C7_7 
REMARK    3  A    between atoms: C7_7  and  C8_8 
ROOT
HETATM    1  C1  UNL     1     -32.017  18.340  -0.614  1.00 20.00     0.066 C 
HETATM    2  C6  UNL     1     -33.392  17.832  -0.636  1.00 20.00     0.202 C 
HETATM    3  N9  UNL     1     -30.928  18.741  -0.592  1.00 20.00    -0.197 NA
ENDROOT
BRANCH   2   4
HETATM    4  C2  UNL     1     -34.083  18.087  -1.963  1.00 20.00     0.143 C 
HETATM    5  O10 UNL     1     -35.186  18.627  -2.041  1.00 20.00    -0.297 OA
BRANCH   4   6
HETATM    6  C7  UNL     1     -33.313  17.662  -3.215  1.00 20.00     0.055 C 
HETATM    7  C3  UNL     1     -33.165  18.900  -4.101  1.00 20.00     0.018 C 
BRANCH   6   8
HETATM    8  C8  UNL     1     -34.013  16.475  -3.922  1.00 20.00    -0.012 C 
HETATM    9  C4  UNL     1     -33.064  15.274  -4.046  1.00 20.00     0.010 C 
HETATM   10  C5  UNL     1     -34.524  16.849  -5.318  1.00 20.00     0.010 C 
ENDBRANCH   6   8
ENDBRANCH   4   6
ENDBRANCH   2   4
TORSDOF 3
ENDMDL
MODEL 8
REMARK VINA RESULT:      -3.7      1.746      2.768
REMARK  3 active torsions:
REMARK  status: ('A' for Active; 'I' for Inactive)
REMARK    1  A    between atoms: C2_2  and  C6_6 
REMARK    2  A    between atoms: C2_2  and  C7_7 
REMARK    3  A    between atoms: C7_7  and  C8_8 
ROOT
HETATM    1  C1  UNL     1     -32.624   8.716   3.543  1.00 20.00     0.066 C 
HETATM    2  C6  UNL     1     -32.582   8.355   4.963  1.00 20.00     0.202 C 
HETATM    3  N9  UNL     1     -32.653   9.003   2.419  1.00 20.00    -0.197 NA
ENDROOT
BRANCH   2   4
HETATM    4  C2  UNL     1     -33.667   7.363   5.342  1.00 20.00     0.143 C 
HETATM    5  O10 UNL     1     -34.118   7.280   6.484  1.00 20.00    -0.297 OA
BRANCH   4   6
HETATM    6  C7  UNL     1     -34.199   6.484   4.209  1.00 20.00     0.055 C 
HETATM    7  C3  UNL     1     -35.608   6.037   4.601  1.00 20.00     0.018 C 
BRANCH   6   8
HETATM    8  C8  UNL     1     -33.235   5.306   3.919  1.00 20.00    -0.012 C 
HETATM    9  C4  UNL     1     -32.911   5.218   2.420  1.00 20.00     0.010 C 
HETATM   10  C5  UNL     1     -33.804   3.961   4.383  1.00 20.00     0.010 C 
ENDBRANCH   6   8
ENDBRANCH   4   6
ENDBRANCH   2   4
TORSDOF 3
ENDMDL
MODEL 9
REMARK VINA RESULT:      -3.6      2.797      4.324
REMARK  3 active torsions:
REMARK  status: ('A' for Active; 'I' for Inactive)
REMARK    1  A    between atoms: C2_2  and  C6_6 
REMARK    2  A    between atoms: C2_2  and  C7_7 
REMARK    3  A    between atoms: C7_7  and  C8_8 
ROOT
HETATM    1  C1  UNL     1     -34.422   4.981   4.603  1.00 20.00     0.066 C 
HETATM    2  C6  UNL     1     -34.914   6.356   4.731  1.00 20.00     0.202 C 
HETATM    3  N9  UNL     1     -34.036   3.891   4.499  1.00 20.00    -0.197 NA
ENDROOT
BRANCH   2   4
HETATM    4  C2  UNL     1     -33.975   7.235   5.537  1.00 20.00     0.143 C 
HETATM    5  O10 UNL     1     -34.166   7.492   6.726  1.00 20.00    -0.297 OA
BRANCH   4   6
HETATM    6  C7  UNL     1     -32.747   7.765   4.795  1.00 20.00     0.055 C 
HETATM    7  C3  UNL     1     -32.422   9.141   5.376  1.00 20.00     0.018 C 
BRANCH   6   8
HETATM    8  C8  UNL     1     -32.985   7.779   3.264  1.00 20.00    -0.012 C 
HETATM    9  C4  UNL     1     -32.086   6.754   2.559  1.00 20.00     0.010 C 
HETATM   10  C5  UNL     1     -32.737   9.162   2.650  1.00 20.00     0.010 C 
ENDBRANCH   6   8
ENDBRANCH   4   6
ENDBRANCH   2   4
TORSDOF 3
ENDMDL
