MODEL 1
REMARK VINA RESULT:      -4.0      0.000      0.000
REMARK  3 active torsions:
REMARK  status: ('A' for Active; 'I' for Inactive)
REMARK    1  A    between atoms: C7_7  and  C8_8 
REMARK    2  A    between atoms: C8_8  and  N11_11 
REMARK    3  A    between atoms: C9_9  and  N11_11 
ROOT
HETATM    1  C1  UNL     1     -33.661  17.376  -1.179  1.00 20.00     0.015 C 
HETATM    2  C2  UNL     1     -33.751  17.506  -2.369  1.00 20.00    -0.076 C 
HETATM    3  C5  UNL     1     -35.340  17.769  -4.227  1.00 20.00     0.063 C 
HETATM    4  C6  UNL     1     -33.115  18.928  -4.275  1.00 20.00     0.063 C 
HETATM    5  C9  UNL     1     -33.862  17.665  -3.833  1.00 20.00     0.213 C 
ENDROOT
BRANCH   5   6
HETATM    6  N11 UNL     1     -33.270  16.510  -4.480  1.00 20.00     0.122 N 
HETATM    7  H25 UNL     1     -32.642  16.819  -5.223  1.00 20.00     0.319 HD
BRANCH   6   8
HETATM    8  C8  UNL     1     -34.295  15.645  -5.055  1.00 20.00     0.327 C 
HETATM    9  C3  UNL     1     -34.006  15.373  -6.470  1.00 20.00     0.095 C 
HETATM   10  N10 UNL     1     -33.780  15.160  -7.589  1.00 20.00    -0.195 NA
BRANCH   8  11
HETATM   11  C7  UNL     1     -34.466  14.361  -4.236  1.00 20.00     0.046 C 
HETATM   12  C4  UNL     1     -35.746  13.584  -4.529  1.00 20.00     0.008 C 
ENDBRANCH   8  11
ENDBRANCH   6   8
ENDBRANCH   5   6
TORSDOF 3
ENDMDL
MODEL 2
REMARK VINA RESULT:      -3.7      1.487      4.270
REMARK  3 active torsions:
REMARK  status: ('A' for Active; 'I' for Inactive)
REMARK    1  A    between atoms: C7_7  and  C8_8 
REMARK    2  A    between atoms: C8_8  and  N11_11 
REMARK    3  A    between atoms: C9_9  and  N11_11 
ROOT
HETATM    1  C1  UNL     1     -34.019  15.532  -7.488  1.00 20.00     0.015 C 
HETATM    2  C2  UNL     1     -34.228  15.296  -6.329  1.00 20.00    -0.076 C 
HETATM    3  C5  UNL     1     -35.650  14.014  -4.786  1.00 20.00     0.063 C 
HETATM    4  C6  UNL     1     -33.228  14.410  -4.262  1.00 20.00     0.063 C 
HETATM    5  C9  UNL     1     -34.485  15.004  -4.905  1.00 20.00     0.213 C 
ENDROOT
BRANCH   5   6
HETATM    6  N11 UNL     1     -34.830  16.238  -4.225  1.00 20.00     0.122 N 
HETATM    7  H25 UNL     1     -35.291  16.872  -4.880  1.00 20.00     0.319 HD
BRANCH   6   8
HETATM    8  C8  UNL     1     -33.643  16.894  -3.688  1.00 20.00     0.327 C 
HETATM    9  C3  UNL     1     -33.464  18.218  -4.300  1.00 20.00     0.095 C 
HETATM   10  N10 UNL     1     -33.319  19.263  -4.786  1.00 20.00    -0.195 NA
BRANCH   8  11
HETATM   11  C7  UNL     1     -33.685  16.959  -2.157  1.00 20.00     0.046 C 
HETATM   12  C4  UNL     1     -32.566  17.780  -1.524  1.00 20.00     0.008 C 
ENDBRANCH   8  11
ENDBRANCH   6   8
ENDBRANCH   5   6
TORSDOF 3
ENDMDL
MODEL 3
REMARK VINA RESULT:      -3.7      1.170      1.429
REMARK  3 active torsions:
REMARK  status: ('A' for Active; 'I' for Inactive)
REMARK    1  A    between atoms: C7_7  and  C8_8 
REMARK    2  A    between atoms: C8_8  and  N11_11 
REMARK    3  A    between atoms: C9_9  and  N11_11 
ROOT
HETATM    1  C1  UNL     1     -33.396  17.300  -1.892  1.00 20.00     0.015 C 
HETATM    2  C2  UNL     1     -33.806  17.504  -3.001  1.00 20.00    -0.076 C 
HETATM    3  C5  UNL     1     -35.837  17.916  -4.326  1.00 20.00     0.063 C 
HETATM    4  C6  UNL     1     -33.669  19.023  -4.933  1.00 20.00     0.063 C 
HETATM    5  C9  UNL     1     -34.313  17.754  -4.366  1.00 20.00     0.213 C 
ENDROOT
BRANCH   5   6
HETATM    6  N11 UNL     1     -33.969  16.627  -5.211  1.00 20.00     0.122 N 
HETATM    7  H25 UNL     1     -34.079  16.889  -6.192  1.00 20.00     0.319 HD
BRANCH   6   8
HETATM    8  C8  UNL     1     -34.822  15.477  -4.930  1.00 20.00     0.327 C 
HETATM    9  C3  UNL     1     -35.432  14.972  -6.168  1.00 20.00     0.095 C 
HETATM   10  N10 UNL     1     -35.918  14.574  -7.144  1.00 20.00    -0.195 NA
BRANCH   8  11
HETATM   11  C7  UNL     1     -34.058  14.388  -4.168  1.00 20.00     0.046 C 
HETATM   12  C4  UNL     1     -32.543  14.432  -4.343  1.00 20.00     0.008 C 
ENDBRANCH   8  11
ENDBRANCH   6   8
ENDBRANCH   5   6
TORSDOF 3
ENDMDL
MODEL 4
REMARK VINA RESULT:      -3.7     12.120     14.060
REMARK  3 active torsions:
REMARK  status: ('A' for Active; 'I' for Inactive)
REMARK    1  A    between atoms: C7_7  and  C8_8 
REMARK    2  A    between atoms: C8_8  and  N11_11 
REMARK    3  A    between atoms: C9_9  and  N11_11 
ROOT
HETATM    1  C1  UNL     1     -39.322  11.507   4.641  1.00 20.00     0.015 C 
HETATM    2  C2  UNL     1     -40.035  12.279   5.221  1.00 20.00    -0.076 C 
HETATM    3  C5  UNL     1     -41.642  14.116   4.915  1.00 20.00     0.063 C 
HETATM    4  C6  UNL     1     -41.932  12.461   6.779  1.00 20.00     0.063 C 
HETATM    5  C9  UNL     1     -40.913  13.230   5.932  1.00 20.00     0.213 C 
ENDROOT
BRANCH   5   6
HETATM    6  N11 UNL     1     -40.102  14.061   6.802  1.00 20.00     0.122 N 
HETATM    7  H25 UNL     1     -39.467  13.472   7.343  1.00 20.00     0.319 HD
BRANCH   6   8
HETATM    8  C8  UNL     1     -40.933  14.832   7.720  1.00 20.00     0.327 C 
HETATM    9  C3  UNL     1     -40.784  14.332   9.094  1.00 20.00     0.095 C 
HETATM   10  N10 UNL     1     -40.671  13.935  10.179  1.00 20.00    -0.195 NA
BRANCH   8  11
HETATM   11  C7  UNL     1     -40.642  16.333   7.610  1.00 20.00     0.046 C 
HETATM   12  C4  UNL     1     -41.776  17.159   7.010  1.00 20.00     0.008 C 
ENDBRANCH   8  11
ENDBRANCH   6   8
ENDBRANCH   5   6
TORSDOF 3
ENDMDL
MODEL 5
REMARK VINA RESULT:      -3.7     11.660     13.198
REMARK  3 active torsions:
REMARK  status: ('A' for Active; 'I' for Inactive)
REMARK    1  A    between atoms: C7_7  and  C8_8 
REMARK    2  A    between atoms: C8_8  and  N11_11 
REMARK    3  A    between atoms: C9_9  and  N11_11 
ROOT
HETATM    1  C1  UNL     1     -40.859  17.388   7.392  1.00 20.00     0.015 C 
HETATM    2  C2  UNL     1     -40.832  16.208   7.609  1.00 20.00    -0.076 C 
HETATM    3  C5  UNL     1     -40.135  14.501   9.236  1.00 20.00     0.063 C 
HETATM    4  C6  UNL     1     -42.224  14.197   7.881  1.00 20.00     0.063 C 
HETATM    5  C9  UNL     1     -40.798  14.756   7.878  1.00 20.00     0.213 C 
ENDROOT
BRANCH   5   6
HETATM    6  N11 UNL     1     -40.032  14.101   6.835  1.00 20.00     0.122 N 
HETATM    7  H25 UNL     1     -39.694  14.798   6.170  1.00 20.00     0.319 HD
BRANCH   6   8
HETATM    8  C8  UNL     1     -40.843  13.120   6.122  1.00 20.00     0.327 C 
HETATM    9  C3  UNL     1     -41.349  13.685   4.864  1.00 20.00     0.095 C 
HETATM   10  N10 UNL     1     -41.753  14.132   3.872  1.00 20.00    -0.195 NA
BRANCH   8  11
HETATM   11  C7  UNL     1     -40.074  11.810   5.907  1.00 20.00     0.046 C 
HETATM   12  C4  UNL     1     -38.935  11.900   4.896  1.00 20.00     0.008 C 
ENDBRANCH   8  11
ENDBRANCH   6   8
ENDBRANCH   5   6
TORSDOF 3
ENDMDL
MODEL 6
REMARK VINA RESULT:      -3.5      1.732      3.854
REMARK  3 active torsions:
REMARK  status: ('A' for Active; 'I' for Inactive)
REMARK    1  A    between atoms: C7_7  and  C8_8 
REMARK    2  A    between atoms: C8_8  and  N11_11 
REMARK    3  A    between atoms: C9_9  and  N11_11 
ROOT
HETATM    1  C1  UNL     1     -34.478  16.350  -7.505  1.00 20.00     0.015 C 
HETATM    2  C2  UNL     1     -34.704  17.014  -6.531  1.00 20.00    -0.076 C 
HETATM    3  C5  UNL     1     -33.897  18.906  -5.182  1.00 20.00     0.063 C 
HETATM    4  C6  UNL     1     -36.356  18.494  -5.463  1.00 20.00     0.063 C 
HETATM    5  C9  UNL     1     -34.981  17.832  -5.332  1.00 20.00     0.213 C 
ENDROOT
BRANCH   5   6
HETATM    6  N11 UNL     1     -34.975  16.973  -4.163  1.00 20.00     0.122 N 
HETATM    7  H25 UNL     1     -35.580  17.371  -3.444  1.00 20.00     0.319 HD
BRANCH   6   8
HETATM    8  C8  UNL     1     -33.628  16.829  -3.622  1.00 20.00     0.327 C 
HETATM    9  C3  UNL     1     -33.611  17.144  -2.187  1.00 20.00     0.095 C 
HETATM   10  N10 UNL     1     -33.596  17.396  -1.054  1.00 20.00    -0.195 NA
BRANCH   8  11
HETATM   11  C7  UNL     1     -33.051  15.440  -3.922  1.00 20.00     0.046 C 
HETATM   12  C4  UNL     1     -34.097  14.346  -4.122  1.00 20.00     0.008 C 
ENDBRANCH   8  11
ENDBRANCH   6   8
ENDBRANCH   5   6
TORSDOF 3
ENDMDL
MODEL 7
REMARK VINA RESULT:      -3.4      1.664      2.582
REMARK  3 active torsions:
REMARK  status: ('A' for Active; 'I' for Inactive)
REMARK    1  A    between atoms: C7_7  and  C8_8 
REMARK    2  A    between atoms: C8_8  and  N11_11 
REMARK    3  A    between atoms: C9_9  and  N11_11 
ROOT
HETATM    1  C1  UNL     1     -33.651  17.380  -1.205  1.00 20.00     0.015 C 
HETATM    2  C2  UNL     1     -33.724  17.081  -2.365  1.00 20.00    -0.076 C 
HETATM    3  C5  UNL     1     -33.365  17.897  -4.657  1.00 20.00     0.063 C 
HETATM    4  C6  UNL     1     -32.925  15.498  -4.072  1.00 20.00     0.063 C 
HETATM    5  C9  UNL     1     -33.814  16.713  -3.793  1.00 20.00     0.213 C 
ENDROOT
BRANCH   5   6
HETATM    6  N11 UNL     1     -35.190  16.380  -4.109  1.00 20.00     0.122 N 
HETATM    7  H25 UNL     1     -35.348  15.385  -3.942  1.00 20.00     0.319 HD
BRANCH   6   8
HETATM    8  C8  UNL     1     -35.499  16.681  -5.503  1.00 20.00     0.327 C 
HETATM    9  C3  UNL     1     -35.728  15.443  -6.260  1.00 20.00     0.095 C 
HETATM   10  N10 UNL     1     -35.905  14.465  -6.860  1.00 20.00    -0.195 NA
BRANCH   8  11
HETATM   11  C7  UNL     1     -36.673  17.661  -5.616  1.00 20.00     0.046 C 
HETATM   12  C4  UNL     1     -37.171  18.213  -4.283  1.00 20.00     0.008 C 
ENDBRANCH   8  11
ENDBRANCH   6   8
ENDBRANCH   5   6
TORSDOF 3
ENDMDL
MODEL 8
REMARK VINA RESULT:      -3.4      1.737      3.703
REMARK  3 active torsions:
REMARK  status: ('A' for Active; 'I' for Inactive)
REMARK    1  A    between atoms: C7_7  and  C8_8 
REMARK    2  A    between atoms: C8_8  and  N11_11 
REMARK    3  A    between atoms: C9_9  and  N11_11 
ROOT
HETATM    1  C1  UNL     1     -35.700  15.540  -7.295  1.00 20.00     0.015 C 
HETATM    2  C2  UNL     1     -35.393  16.465  -6.594  1.00 20.00    -0.076 C 
HETATM    3  C5  UNL     1     -34.895  18.873  -6.585  1.00 20.00     0.063 C 
HETATM    4  C6  UNL     1     -36.073  17.805  -4.645  1.00 20.00     0.063 C 
HETATM    5  C9  UNL     1     -35.014  17.604  -5.734  1.00 20.00     0.213 C 
ENDROOT
BRANCH   5   6
HETATM    6  N11 UNL     1     -33.736  17.320  -5.109  1.00 20.00     0.122 N 
HETATM    7  H25 UNL     1     -33.162  16.763  -5.744  1.00 20.00     0.319 HD
BRANCH   6   8
HETATM    8  C8  UNL     1     -33.911  16.586  -3.861  1.00 20.00     0.327 C 
HETATM    9  C3  UNL     1     -33.679  15.150  -4.070  1.00 20.00     0.095 C 
HETATM   10  N10 UNL     1     -33.499  14.015  -4.235  1.00 20.00    -0.195 NA
BRANCH   8  11
HETATM   11  C7  UNL     1     -33.032  17.164  -2.745  1.00 20.00     0.046 C 
HETATM   12  C4  UNL     1     -33.732  17.315  -1.398  1.00 20.00     0.008 C 
ENDBRANCH   8  11
ENDBRANCH   6   8
ENDBRANCH   5   6
TORSDOF 3
ENDMDL
MODEL 9
REMARK VINA RESULT:      -3.4      2.226      3.624
REMARK  3 active torsions:
REMARK  status: ('A' for Active; 'I' for Inactive)
REMARK    1  A    between atoms: C7_7  and  C8_8 
REMARK    2  A    between atoms: C8_8  and  N11_11 
REMARK    3  A    between atoms: C9_9  and  N11_11 
ROOT
HETATM    1  C1  UNL     1     -37.370  16.603  -6.641  1.00 20.00     0.015 C 
HETATM    2  C2  UNL     1     -36.185  16.790  -6.586  1.00 20.00    -0.076 C 
HETATM    3  C5  UNL     1     -34.200  17.367  -7.918  1.00 20.00     0.063 C 
HETATM    4  C6  UNL     1     -34.428  18.168  -5.551  1.00 20.00     0.063 C 
HETATM    5  C9  UNL     1     -34.728  17.021  -6.521  1.00 20.00     0.213 C 
ENDROOT
BRANCH   5   6
HETATM    6  N11 UNL     1     -34.080  15.813  -6.046  1.00 20.00     0.122 N 
HETATM    7  H25 UNL     1     -34.361  15.023  -6.627  1.00 20.00     0.319 HD
BRANCH   6   8
HETATM    8  C8  UNL     1     -34.439  15.533  -4.660  1.00 20.00     0.327 C 
HETATM    9  C3  UNL     1     -35.138  14.244  -4.558  1.00 20.00     0.095 C 
HETATM   10  N10 UNL     1     -35.694  13.228  -4.478  1.00 20.00    -0.195 NA
BRANCH   8  11
HETATM   11  C7  UNL     1     -33.215  15.607  -3.740  1.00 20.00     0.046 C 
HETATM   12  C4  UNL     1     -33.379  16.529  -2.535  1.00 20.00     0.008 C 
ENDBRANCH   8  11
ENDBRANCH   6   8
ENDBRANCH   5   6
TORSDOF 3
ENDMDL
