MODEL 1
REMARK VINA RESULT:      -3.7      0.000      0.000
REMARK  3 active torsions:
REMARK  status: ('A' for Active; 'I' for Inactive)
REMARK    1  A    between atoms: C1_1  and  C7_7 
REMARK       I    between atoms: C1_1  and  N9_9 
REMARK    2  A    between atoms: C7_7  and  C8_8 
REMARK    3  A    between atoms: N9_9  and  O11_11 
ROOT
HETATM    1  C1  UNL     1     -41.124  13.649   7.302  1.00 20.00     0.247 C 
HETATM    2  C5  UNL     1     -40.431  14.571   9.510  1.00 20.00     0.189 C 
HETATM    3  N9  UNL     1     -40.590  14.657   8.070  1.00 20.00    -0.231 N 
HETATM    4  O10 UNL     1     -41.971  12.860   7.734  1.00 20.00    -0.271 OA
ENDROOT
BRANCH   1   5
HETATM    5  C7  UNL     1     -40.603  13.521   5.861  1.00 20.00     0.079 C 
HETATM    6  C2  UNL     1     -41.732  13.802   4.864  1.00 20.00     0.020 C 
BRANCH   5   7
HETATM    7  C8  UNL     1     -39.909  12.147   5.656  1.00 20.00    -0.010 C 
HETATM    8  C3  UNL     1     -38.739  11.963   6.628  1.00 20.00     0.010 C 
HETATM    9  C4  UNL     1     -39.431  11.909   4.220  1.00 20.00     0.010 C 
ENDBRANCH   5   7
ENDBRANCH   1   5
BRANCH   3  10
HETATM   10  O11 UNL     1     -40.140  15.881   7.543  1.00 20.00    -0.281 OA
HETATM   11  C6  UNL     1     -41.207  16.825   7.579  1.00 20.00     0.238 C 
ENDBRANCH   3  10
TORSDOF 3
ENDMDL
MODEL 2
REMARK VINA RESULT:      -3.3     11.465     12.603
REMARK  3 active torsions:
REMARK  status: ('A' for Active; 'I' for Inactive)
REMARK    1  A    between atoms: C1_1  and  C7_7 
REMARK       I    between atoms: C1_1  and  N9_9 
REMARK    2  A    between atoms: C7_7  and  C8_8 
REMARK    3  A    between atoms: N9_9  and  O11_11 
ROOT
HETATM    1  C1  UNL     1     -33.871  18.297  -2.109  1.00 20.00     0.247 C 
HETATM    2  C5  UNL     1     -33.397  18.280   0.337  1.00 20.00     0.189 C 
HETATM    3  N9  UNL     1     -33.012  18.475  -1.049  1.00 20.00    -0.231 N 
HETATM    4  O10 UNL     1     -35.088  18.487  -2.019  1.00 20.00    -0.271 OA
ENDROOT
BRANCH   1   5
HETATM    5  C7  UNL     1     -33.251  17.822  -3.433  1.00 20.00     0.079 C 
HETATM    6  C2  UNL     1     -33.205  18.978  -4.439  1.00 20.00     0.020 C 
BRANCH   5   7
HETATM    7  C8  UNL     1     -33.991  16.562  -3.957  1.00 20.00    -0.010 C 
HETATM    8  C3  UNL     1     -33.049  15.356  -4.038  1.00 20.00     0.010 C 
HETATM    9  C4  UNL     1     -34.680  16.771  -5.309  1.00 20.00     0.010 C 
ENDBRANCH   5   7
ENDBRANCH   1   5
BRANCH   3  10
HETATM   10  O11 UNL     1     -31.669  18.867  -1.193  1.00 20.00    -0.281 OA
HETATM   11  C6  UNL     1     -31.004  18.719   0.059  1.00 20.00     0.238 C 
ENDBRANCH   3  10
TORSDOF 3
ENDMDL
MODEL 3
REMARK VINA RESULT:      -3.2     11.489     12.905
REMARK  3 active torsions:
REMARK  status: ('A' for Active; 'I' for Inactive)
REMARK    1  A    between atoms: C1_1  and  C7_7 
REMARK       I    between atoms: C1_1  and  N9_9 
REMARK    2  A    between atoms: C7_7  and  C8_8 
REMARK    3  A    between atoms: N9_9  and  O11_11 
ROOT
HETATM    1  C1  UNL     1     -34.061  17.296  -3.962  1.00 20.00     0.247 C 
HETATM    2  C5  UNL     1     -34.711  19.001  -2.266  1.00 20.00     0.189 C 
HETATM    3  N9  UNL     1     -34.150  17.721  -2.657  1.00 20.00    -0.231 N 
HETATM    4  O10 UNL     1     -33.928  18.077  -4.910  1.00 20.00    -0.271 OA
ENDROOT
BRANCH   1   5
HETATM    5  C7  UNL     1     -34.159  15.781  -4.209  1.00 20.00     0.079 C 
HETATM    6  C2  UNL     1     -32.761  15.152  -4.189  1.00 20.00     0.020 C 
BRANCH   5   7
HETATM    7  C8  UNL     1     -34.960  15.493  -5.506  1.00 20.00    -0.010 C 
HETATM    8  C3  UNL     1     -35.971  14.361  -5.297  1.00 20.00     0.010 C 
HETATM    9  C4  UNL     1     -34.076  15.179  -6.717  1.00 20.00     0.010 C 
ENDBRANCH   5   7
ENDBRANCH   1   5
BRANCH   3  10
HETATM   10  O11 UNL     1     -33.706  16.962  -1.560  1.00 20.00    -0.281 OA
HETATM   11  C6  UNL     1     -33.724  17.777  -0.391  1.00 20.00     0.238 C 
ENDBRANCH   3  10
TORSDOF 3
ENDMDL
MODEL 4
REMARK VINA RESULT:      -3.2     12.845     14.022
REMARK  3 active torsions:
REMARK  status: ('A' for Active; 'I' for Inactive)
REMARK    1  A    between atoms: C1_1  and  C7_7 
REMARK       I    between atoms: C1_1  and  N9_9 
REMARK    2  A    between atoms: C7_7  and  C8_8 
REMARK    3  A    between atoms: N9_9  and  O11_11 
ROOT
HETATM    1  C1  UNL     1     -35.104  16.883  -6.043  1.00 20.00     0.247 C 
HETATM    2  C5  UNL     1     -35.913  15.385  -7.862  1.00 20.00     0.189 C 
HETATM    3  N9  UNL     1     -36.062  16.058  -6.585  1.00 20.00    -0.231 N 
HETATM    4  O10 UNL     1     -34.327  17.547  -6.736  1.00 20.00    -0.271 OA
ENDROOT
BRANCH   1   5
HETATM    5  C7  UNL     1     -35.017  16.934  -4.508  1.00 20.00     0.079 C 
HETATM    6  C2  UNL     1     -35.220  18.370  -4.015  1.00 20.00     0.020 C 
BRANCH   5   7
HETATM    7  C8  UNL     1     -33.697  16.281  -4.018  1.00 20.00    -0.010 C 
HETATM    8  C3  UNL     1     -33.725  14.760  -4.204  1.00 20.00     0.010 C 
HETATM    9  C4  UNL     1     -33.347  16.618  -2.565  1.00 20.00     0.010 C 
ENDBRANCH   5   7
ENDBRANCH   1   5
BRANCH   3  10
HETATM   10  O11 UNL     1     -37.290  15.777  -5.960  1.00 20.00    -0.281 OA
HETATM   11  C6  UNL     1     -38.214  16.821  -6.258  1.00 20.00     0.238 C 
ENDBRANCH   3  10
TORSDOF 3
ENDMDL
MODEL 5
REMARK VINA RESULT:      -3.1     20.732     22.541
REMARK  3 active torsions:
REMARK  status: ('A' for Active; 'I' for Inactive)
REMARK    1  A    between atoms: C1_1  and  C7_7 
REMARK       I    between atoms: C1_1  and  N9_9 
REMARK    2  A    between atoms: C7_7  and  C8_8 
REMARK    3  A    between atoms: N9_9  and  O11_11 
ROOT
HETATM    1  C1  UNL     1     -25.973  -2.135  10.815  1.00 20.00     0.247 C 
HETATM    2  C5  UNL     1     -27.697  -0.405  10.319  1.00 20.00     0.189 C 
HETATM    3  N9  UNL     1     -27.189  -1.765  10.289  1.00 20.00    -0.231 N 
HETATM    4  O10 UNL     1     -25.460  -1.556  11.778  1.00 20.00    -0.271 OA
ENDROOT
BRANCH   1   5
HETATM    5  C7  UNL     1     -25.247  -3.306  10.132  1.00 20.00     0.079 C 
HETATM    6  C2  UNL     1     -25.356  -4.569  10.993  1.00 20.00     0.020 C 
BRANCH   5   7
HETATM    7  C8  UNL     1     -23.789  -2.908   9.779  1.00 20.00    -0.010 C 
HETATM    8  C3  UNL     1     -23.470  -3.205   8.310  1.00 20.00     0.010 C 
HETATM    9  C4  UNL     1     -22.738  -3.566  10.680  1.00 20.00     0.010 C 
ENDBRANCH   5   7
ENDBRANCH   1   5
BRANCH   3  10
HETATM   10  O11 UNL     1     -28.073  -2.664   9.666  1.00 20.00    -0.281 OA
HETATM   11  C6  UNL     1     -29.017  -3.131  10.626  1.00 20.00     0.238 C 
ENDBRANCH   3  10
TORSDOF 3
ENDMDL
MODEL 6
REMARK VINA RESULT:      -3.1     11.955     13.389
REMARK  3 active torsions:
REMARK  status: ('A' for Active; 'I' for Inactive)
REMARK    1  A    between atoms: C1_1  and  C7_7 
REMARK       I    between atoms: C1_1  and  N9_9 
REMARK    2  A    between atoms: C7_7  and  C8_8 
REMARK    3  A    between atoms: N9_9  and  O11_11 
ROOT
HETATM    1  C1  UNL     1     -33.556  16.562  -3.761  1.00 20.00     0.247 C 
HETATM    2  C5  UNL     1     -35.060  15.068  -5.070  1.00 20.00     0.189 C 
HETATM    3  N9  UNL     1     -34.573  16.375  -4.668  1.00 20.00    -0.231 N 
HETATM    4  O10 UNL     1     -32.638  15.750  -3.613  1.00 20.00    -0.271 OA
ENDROOT
BRANCH   1   5
HETATM    5  C7  UNL     1     -33.617  17.836  -2.902  1.00 20.00     0.079 C 
HETATM    6  C2  UNL     1     -32.906  18.990  -3.618  1.00 20.00     0.020 C 
BRANCH   5   7
HETATM    7  C8  UNL     1     -33.076  17.554  -1.474  1.00 20.00    -0.010 C 
HETATM    8  C3  UNL     1     -34.141  17.835  -0.409  1.00 20.00     0.010 C 
HETATM    9  C4  UNL     1     -31.794  18.322  -1.139  1.00 20.00     0.010 C 
ENDBRANCH   5   7
ENDBRANCH   1   5
BRANCH   3  10
HETATM   10  O11 UNL     1     -35.251  17.430  -5.305  1.00 20.00    -0.281 OA
HETATM   11  C6  UNL     1     -34.682  17.638  -6.595  1.00 20.00     0.238 C 
ENDBRANCH   3  10
TORSDOF 3
ENDMDL
MODEL 7
REMARK VINA RESULT:      -3.1     10.094     11.157
REMARK  3 active torsions:
REMARK  status: ('A' for Active; 'I' for Inactive)
REMARK    1  A    between atoms: C1_1  and  C7_7 
REMARK       I    between atoms: C1_1  and  N9_9 
REMARK    2  A    between atoms: C7_7  and  C8_8 
REMARK    3  A    between atoms: N9_9  and  O11_11 
ROOT
HETATM    1  C1  UNL     1     -32.798   5.983   3.039  1.00 20.00     0.247 C 
HETATM    2  C5  UNL     1     -32.300   8.114   1.848  1.00 20.00     0.189 C 
HETATM    3  N9  UNL     1     -32.268   7.252   3.016  1.00 20.00    -0.231 N 
HETATM    4  O10 UNL     1     -32.852   5.265   2.036  1.00 20.00    -0.271 OA
ENDROOT
BRANCH   1   5
HETATM    5  C7  UNL     1     -33.354   5.487   4.384  1.00 20.00     0.079 C 
HETATM    6  C2  UNL     1     -33.771   4.016   4.272  1.00 20.00     0.020 C 
BRANCH   5   7
HETATM    7  C8  UNL     1     -34.485   6.425   4.884  1.00 20.00    -0.010 C 
HETATM    8  C3  UNL     1     -34.515   6.496   6.414  1.00 20.00     0.010 C 
HETATM    9  C4  UNL     1     -35.873   6.050   4.356  1.00 20.00     0.010 C 
ENDBRANCH   5   7
ENDBRANCH   1   5
BRANCH   3  10
HETATM   10  O11 UNL     1     -31.638   7.853   4.120  1.00 20.00    -0.281 OA
HETATM   11  C6  UNL     1     -32.339   9.045   4.465  1.00 20.00     0.238 C 
ENDBRANCH   3  10
TORSDOF 3
ENDMDL
MODEL 8
REMARK VINA RESULT:      -3.0      1.306      2.084
REMARK  3 active torsions:
REMARK  status: ('A' for Active; 'I' for Inactive)
REMARK    1  A    between atoms: C1_1  and  C7_7 
REMARK       I    between atoms: C1_1  and  N9_9 
REMARK    2  A    between atoms: C7_7  and  C8_8 
REMARK    3  A    between atoms: N9_9  and  O11_11 
ROOT
HETATM    1  C1  UNL     1     -41.897  13.939   8.407  1.00 20.00     0.247 C 
HETATM    2  C5  UNL     1     -40.348  15.603   9.426  1.00 20.00     0.189 C 
HETATM    3  N9  UNL     1     -41.369  15.207   8.473  1.00 20.00    -0.231 N 
HETATM    4  O10 UNL     1     -41.991  13.204   9.395  1.00 20.00    -0.271 OA
ENDROOT
BRANCH   1   5
HETATM    5  C7  UNL     1     -42.356  13.448   7.024  1.00 20.00     0.079 C 
HETATM    6  C2  UNL     1     -43.066  12.095   7.152  1.00 20.00     0.020 C 
BRANCH   5   7
HETATM    7  C8  UNL     1     -41.165  13.441   6.028  1.00 20.00    -0.010 C 
HETATM    8  C3  UNL     1     -41.604  13.895   4.632  1.00 20.00     0.010 C 
HETATM    9  C4  UNL     1     -40.453  12.088   5.931  1.00 20.00     0.010 C 
ENDBRANCH   5   7
ENDBRANCH   1   5
BRANCH   3  10
HETATM   10  O11 UNL     1     -41.761  16.258   7.625  1.00 20.00    -0.281 OA
HETATM   11  C6  UNL     1     -40.728  17.239   7.589  1.00 20.00     0.238 C 
ENDBRANCH   3  10
TORSDOF 3
ENDMDL
MODEL 9
REMARK VINA RESULT:      -3.0     12.820     14.382
REMARK  3 active torsions:
REMARK  status: ('A' for Active; 'I' for Inactive)
REMARK    1  A    between atoms: C1_1  and  C7_7 
REMARK       I    between atoms: C1_1  and  N9_9 
REMARK    2  A    between atoms: C7_7  and  C8_8 
REMARK    3  A    between atoms: N9_9  and  O11_11 
ROOT
HETATM    1  C1  UNL     1     -35.044  15.379  -5.618  1.00 20.00     0.247 C 
HETATM    2  C5  UNL     1     -36.560  16.308  -7.364  1.00 20.00     0.189 C 
HETATM    3  N9  UNL     1     -35.246  16.024  -6.817  1.00 20.00    -0.231 N 
HETATM    4  O10 UNL     1     -35.833  14.542  -5.171  1.00 20.00    -0.271 OA
ENDROOT
BRANCH   1   5
HETATM    5  C7  UNL     1     -33.783  15.763  -4.827  1.00 20.00     0.079 C 
HETATM    6  C2  UNL     1     -33.128  14.509  -4.237  1.00 20.00     0.020 C 
BRANCH   5   7
HETATM    7  C8  UNL     1     -34.115  16.853  -3.773  1.00 20.00    -0.010 C 
HETATM    8  C3  UNL     1     -33.738  18.250  -4.278  1.00 20.00     0.010 C 
HETATM    9  C4  UNL     1     -33.467  16.606  -2.407  1.00 20.00     0.010 C 
ENDBRANCH   5   7
ENDBRANCH   1   5
BRANCH   3  10
HETATM   10  O11 UNL     1     -34.202  16.477  -7.642  1.00 20.00    -0.281 OA
HETATM   11  C6  UNL     1     -34.392  17.862  -7.917  1.00 20.00     0.238 C 
ENDBRANCH   3  10
TORSDOF 3
ENDMDL
