MODEL 1
REMARK VINA RESULT:      -3.6      0.000      0.000
REMARK  2 active torsions:
REMARK  status: ('A' for Active; 'I' for Inactive)
REMARK    1  A    between atoms: C7_7  and  N9_9 
REMARK    2  A    between atoms: C8_8  and  N9_9 
ROOT
HETATM    1  C1  UNL     1     -39.354  11.546   4.624  1.00 20.00     0.015 C 
HETATM    2  C2  UNL     1     -40.071  12.328   5.187  1.00 20.00    -0.076 C 
HETATM    3  C5  UNL     1     -41.711  14.127   4.843  1.00 20.00     0.063 C 
HETATM    4  C6  UNL     1     -41.949  12.533   6.765  1.00 20.00     0.063 C 
HETATM    5  C8  UNL     1     -40.954  13.289   5.879  1.00 20.00     0.212 C 
ENDROOT
BRANCH   5   6
HETATM    6  N9  UNL     1     -40.145  14.161   6.708  1.00 20.00     0.108 N 
HETATM    7  H24 UNL     1     -39.744  14.905   6.132  1.00 20.00     0.318 HD
BRANCH   6   8
HETATM    8  C7  UNL     1     -40.940  14.766   7.771  1.00 20.00     0.214 C 
HETATM    9  C3  UNL     1     -41.061  16.261   7.516  1.00 20.00     0.042 C 
HETATM   10  C4  UNL     1     -40.276  14.476   9.109  1.00 20.00     0.042 C 
ENDBRANCH   6   8
ENDBRANCH   5   6
TORSDOF 2
ENDMDL
MODEL 2
REMARK VINA RESULT:      -3.6      9.578     10.246
REMARK  2 active torsions:
REMARK  status: ('A' for Active; 'I' for Inactive)
REMARK    1  A    between atoms: C7_7  and  N9_9 
REMARK    2  A    between atoms: C8_8  and  N9_9 
ROOT
HETATM    1  C1  UNL     1     -33.024   9.804   1.585  1.00 20.00     0.015 C 
HETATM    2  C2  UNL     1     -32.910   9.047   2.510  1.00 20.00    -0.076 C 
HETATM    3  C5  UNL     1     -32.179   6.789   3.153  1.00 20.00     0.063 C 
HETATM    4  C6  UNL     1     -31.849   8.728   4.709  1.00 20.00     0.063 C 
HETATM    5  C8  UNL     1     -32.767   8.114   3.647  1.00 20.00     0.212 C 
ENDROOT
BRANCH   5   6
HETATM    6  N9  UNL     1     -34.074   7.876   4.228  1.00 20.00     0.108 N 
HETATM    7  H24 UNL     1     -34.775   7.827   3.485  1.00 20.00     0.318 HD
BRANCH   6   8
HETATM    8  C7  UNL     1     -34.097   6.626   4.981  1.00 20.00     0.214 C 
HETATM    9  C3  UNL     1     -35.286   5.792   4.528  1.00 20.00     0.042 C 
HETATM   10  C4  UNL     1     -34.170   6.948   6.467  1.00 20.00     0.042 C 
ENDBRANCH   6   8
ENDBRANCH   5   6
TORSDOF 2
ENDMDL
MODEL 3
REMARK VINA RESULT:      -3.5      9.561     10.369
REMARK  2 active torsions:
REMARK  status: ('A' for Active; 'I' for Inactive)
REMARK    1  A    between atoms: C7_7  and  N9_9 
REMARK    2  A    between atoms: C8_8  and  N9_9 
ROOT
HETATM    1  C1  UNL     1     -32.838   4.985   2.767  1.00 20.00     0.015 C 
HETATM    2  C2  UNL     1     -33.485   5.578   3.586  1.00 20.00    -0.076 C 
HETATM    3  C5  UNL     1     -35.764   5.952   4.431  1.00 20.00     0.063 C 
HETATM    4  C6  UNL     1     -33.808   5.925   6.002  1.00 20.00     0.063 C 
HETATM    5  C8  UNL     1     -34.282   6.305   4.595  1.00 20.00     0.212 C 
ENDROOT
BRANCH   5   6
HETATM    6  N9  UNL     1     -34.101   7.731   4.401  1.00 20.00     0.108 N 
HETATM    7  H24 UNL     1     -34.392   8.231   5.243  1.00 20.00     0.318 HD
BRANCH   6   8
HETATM    8  C7  UNL     1     -32.705   8.052   4.121  1.00 20.00     0.214 C 
HETATM    9  C3  UNL     1     -32.187   9.001   5.192  1.00 20.00     0.042 C 
HETATM   10  C4  UNL     1     -32.611   8.667   2.732  1.00 20.00     0.042 C 
ENDBRANCH   6   8
ENDBRANCH   5   6
TORSDOF 2
ENDMDL
MODEL 4
REMARK VINA RESULT:      -3.5     11.809     13.425
REMARK  2 active torsions:
REMARK  status: ('A' for Active; 'I' for Inactive)
REMARK    1  A    between atoms: C7_7  and  N9_9 
REMARK    2  A    between atoms: C8_8  and  N9_9 
ROOT
HETATM    1  C1  UNL     1     -33.650  17.367  -1.225  1.00 20.00     0.015 C 
HETATM    2  C2  UNL     1     -33.752  17.529  -2.410  1.00 20.00    -0.076 C 
HETATM    3  C5  UNL     1     -35.363  17.835  -4.243  1.00 20.00     0.063 C 
HETATM    4  C6  UNL     1     -33.146  19.009  -4.282  1.00 20.00     0.063 C 
HETATM    5  C8  UNL     1     -33.881  17.730  -3.868  1.00 20.00     0.212 C 
ENDROOT
BRANCH   5   6
HETATM    6  N9  UNL     1     -33.289  16.597  -4.554  1.00 20.00     0.108 N 
HETATM    7  H24 UNL     1     -32.627  16.129  -3.932  1.00 20.00     0.318 HD
BRANCH   6   8
HETATM    8  C7  UNL     1     -34.308  15.638  -4.965  1.00 20.00     0.214 C 
HETATM    9  C3  UNL     1     -34.168  14.372  -4.133  1.00 20.00     0.042 C 
HETATM   10  C4  UNL     1     -34.146  15.354  -6.452  1.00 20.00     0.042 C 
ENDBRANCH   6   8
ENDBRANCH   5   6
TORSDOF 2
ENDMDL
MODEL 5
REMARK VINA RESULT:      -3.5     11.916     13.301
REMARK  2 active torsions:
REMARK  status: ('A' for Active; 'I' for Inactive)
REMARK    1  A    between atoms: C7_7  and  N9_9 
REMARK    2  A    between atoms: C8_8  and  N9_9 
ROOT
HETATM    1  C1  UNL     1     -34.168  15.631  -7.440  1.00 20.00     0.015 C 
HETATM    2  C2  UNL     1     -34.216  15.373  -6.268  1.00 20.00    -0.076 C 
HETATM    3  C5  UNL     1     -35.334  13.973  -4.584  1.00 20.00     0.063 C 
HETATM    4  C6  UNL     1     -32.906  14.559  -4.349  1.00 20.00     0.063 C 
HETATM    5  C8  UNL     1     -34.275  15.054  -4.827  1.00 20.00     0.212 C 
ENDROOT
BRANCH   5   6
HETATM    6  N9  UNL     1     -34.631  16.252  -4.093  1.00 20.00     0.108 N 
HETATM    7  H24 UNL     1     -35.246  16.007  -3.314  1.00 20.00     0.318 HD
BRANCH   6   8
HETATM    8  C7  UNL     1     -33.446  16.919  -3.565  1.00 20.00     0.214 C 
HETATM    9  C3  UNL     1     -33.510  16.922  -2.045  1.00 20.00     0.042 C 
HETATM   10  C4  UNL     1     -33.384  18.332  -4.128  1.00 20.00     0.042 C 
ENDBRANCH   6   8
ENDBRANCH   5   6
TORSDOF 2
ENDMDL
MODEL 6
REMARK VINA RESULT:      -3.4      0.405      1.989
REMARK  2 active torsions:
REMARK  status: ('A' for Active; 'I' for Inactive)
REMARK    1  A    between atoms: C7_7  and  N9_9 
REMARK    2  A    between atoms: C8_8  and  N9_9 
ROOT
HETATM    1  C1  UNL     1     -42.211  14.579   4.068  1.00 20.00     0.015 C 
HETATM    2  C2  UNL     1     -41.647  13.947   4.918  1.00 20.00    -0.076 C 
HETATM    3  C5  UNL     1     -41.987  12.504   6.880  1.00 20.00     0.063 C 
HETATM    4  C6  UNL     1     -40.072  12.096   5.312  1.00 20.00     0.063 C 
HETATM    5  C8  UNL     1     -40.953  13.167   5.964  1.00 20.00     0.212 C 
ENDROOT
BRANCH   5   6
HETATM    6  N9  UNL     1     -40.120  14.061   6.744  1.00 20.00     0.108 N 
HETATM    7  H24 UNL     1     -39.689  14.752   6.127  1.00 20.00     0.318 HD
BRANCH   6   8
HETATM    8  C7  UNL     1     -40.900  14.758   7.760  1.00 20.00     0.214 C 
HETATM    9  C3  UNL     1     -40.940  16.242   7.429  1.00 20.00     0.042 C 
HETATM   10  C4  UNL     1     -40.274  14.503   9.123  1.00 20.00     0.042 C 
ENDBRANCH   6   8
ENDBRANCH   5   6
TORSDOF 2
ENDMDL
MODEL 7
REMARK VINA RESULT:      -3.3      9.322     11.047
REMARK  2 active torsions:
REMARK  status: ('A' for Active; 'I' for Inactive)
REMARK    1  A    between atoms: C7_7  and  N9_9 
REMARK    2  A    between atoms: C8_8  and  N9_9 
ROOT
HETATM    1  C1  UNL     1     -33.646   8.665   5.619  1.00 20.00     0.015 C 
HETATM    2  C2  UNL     1     -33.941   7.523   5.395  1.00 20.00    -0.076 C 
HETATM    3  C5  UNL     1     -34.525   5.376   6.443  1.00 20.00     0.063 C 
HETATM    4  C6  UNL     1     -35.585   6.070   4.278  1.00 20.00     0.063 C 
HETATM    5  C8  UNL     1     -34.306   6.118   5.120  1.00 20.00     0.212 C 
ENDROOT
BRANCH   5   6
HETATM    6  N9  UNL     1     -33.228   5.486   4.385  1.00 20.00     0.108 N 
HETATM    7  H24 UNL     1     -33.324   4.470   4.442  1.00 20.00     0.318 HD
BRANCH   6   8
HETATM    8  C7  UNL     1     -33.242   5.882   2.981  1.00 20.00     0.214 C 
HETATM    9  C3  UNL     1     -32.948   4.666   2.115  1.00 20.00     0.042 C 
HETATM   10  C4  UNL     1     -32.214   6.985   2.771  1.00 20.00     0.042 C 
ENDBRANCH   6   8
ENDBRANCH   5   6
TORSDOF 2
ENDMDL
MODEL 8
REMARK VINA RESULT:      -3.3     12.063     13.867
REMARK  2 active torsions:
REMARK  status: ('A' for Active; 'I' for Inactive)
REMARK    1  A    between atoms: C7_7  and  N9_9 
REMARK    2  A    between atoms: C8_8  and  N9_9 
ROOT
HETATM    1  C1  UNL     1     -33.498  16.863  -1.986  1.00 20.00     0.015 C 
HETATM    2  C2  UNL     1     -33.493  16.208  -2.992  1.00 20.00    -0.076 C 
HETATM    3  C5  UNL     1     -32.136  14.690  -4.370  1.00 20.00     0.063 C 
HETATM    4  C6  UNL     1     -34.615  14.365  -4.178  1.00 20.00     0.063 C 
HETATM    5  C8  UNL     1     -33.486  15.399  -4.229  1.00 20.00     0.212 C 
ENDROOT
BRANCH   5   6
HETATM    6  N9  UNL     1     -33.693  16.275  -5.366  1.00 20.00     0.108 N 
HETATM    7  H24 UNL     1     -32.798  16.456  -5.825  1.00 20.00     0.318 HD
BRANCH   6   8
HETATM    8  C7  UNL     1     -34.607  15.677  -6.333  1.00 20.00     0.214 C 
HETATM    9  C3  UNL     1     -33.863  15.432  -7.638  1.00 20.00     0.042 C 
HETATM   10  C4  UNL     1     -35.795  16.608  -6.529  1.00 20.00     0.042 C 
ENDBRANCH   6   8
ENDBRANCH   5   6
TORSDOF 2
ENDMDL
MODEL 9
REMARK VINA RESULT:      -3.2      0.548      2.193
REMARK  2 active torsions:
REMARK  status: ('A' for Active; 'I' for Inactive)
REMARK    1  A    between atoms: C7_7  and  N9_9 
REMARK    2  A    between atoms: C8_8  and  N9_9 
ROOT
HETATM    1  C1  UNL     1     -43.018  12.222   7.404  1.00 20.00     0.015 C 
HETATM    2  C2  UNL     1     -42.056  12.579   6.780  1.00 20.00    -0.076 C 
HETATM    3  C5  UNL     1     -40.027  11.796   5.633  1.00 20.00     0.063 C 
HETATM    4  C6  UNL     1     -41.321  13.752   4.744  1.00 20.00     0.063 C 
HETATM    5  C8  UNL     1     -40.873  13.016   6.011  1.00 20.00     0.212 C 
ENDROOT
BRANCH   5   6
HETATM    6  N9  UNL     1     -40.084  13.915   6.831  1.00 20.00     0.108 N 
HETATM    7  H24 UNL     1     -39.598  14.586   6.233  1.00 20.00     0.318 HD
BRANCH   6   8
HETATM    8  C7  UNL     1     -40.926  14.646   7.772  1.00 20.00     0.214 C 
HETATM    9  C3  UNL     1     -40.986  16.109   7.356  1.00 20.00     0.042 C 
HETATM   10  C4  UNL     1     -40.354  14.484   9.173  1.00 20.00     0.042 C 
ENDBRANCH   6   8
ENDBRANCH   5   6
TORSDOF 2
ENDMDL
