MODEL 1
REMARK VINA RESULT:      -4.1      0.000      0.000
REMARK  3 active torsions:
REMARK  status: ('A' for Active; 'I' for Inactive)
REMARK    1  A    between atoms: C4_4  and  C8_8 
REMARK    2  A    between atoms: C8_8  and  N10_10 
REMARK    3  A    between atoms: C9_9  and  N10_10 
ROOT
HETATM    1  C1  UNL     1     -34.975  18.157  -5.784  1.00 20.00     0.015 C 
HETATM    2  C2  UNL     1     -34.724  17.019  -6.076  1.00 20.00    -0.076 C 
HETATM    3  C6  UNL     1     -35.640  14.738  -6.159  1.00 20.00     0.063 C 
HETATM    4  C7  UNL     1     -34.040  15.536  -7.918  1.00 20.00     0.063 C 
HETATM    5  C9  UNL     1     -34.417  15.619  -6.435  1.00 20.00     0.212 C 
ENDROOT
BRANCH   5   6
HETATM    6  N10 UNL     1     -33.300  15.161  -5.632  1.00 20.00     0.115 N 
HETATM    7  H23 UNL     1     -32.852  14.365  -6.091  1.00 20.00     0.319 HD
BRANCH   6   8
HETATM    8  C8  UNL     1     -33.738  14.753  -4.302  1.00 20.00     0.365 C 
BRANCH   8   9
HETATM    9  C4  UNL     1     -33.491  15.814  -3.320  1.00 20.00    -0.077 C 
HETATM   10  C3  UNL     1     -33.293  16.681  -2.514  1.00 20.00    -0.109 C 
HETATM   11  C5  UNL     1     -33.052  17.736  -1.531  1.00 20.00     0.112 C 
ENDBRANCH   8   9
ENDBRANCH   6   8
ENDBRANCH   5   6
TORSDOF 3
ENDMDL
MODEL 2
REMARK VINA RESULT:      -4.1      1.219      1.476
REMARK  3 active torsions:
REMARK  status: ('A' for Active; 'I' for Inactive)
REMARK    1  A    between atoms: C4_4  and  C8_8 
REMARK    2  A    between atoms: C8_8  and  N10_10 
REMARK    3  A    between atoms: C9_9  and  N10_10 
ROOT
HETATM    1  C1  UNL     1     -35.967  17.746  -5.205  1.00 20.00     0.015 C 
HETATM    2  C2  UNL     1     -35.514  16.634  -5.176  1.00 20.00    -0.076 C 
HETATM    3  C6  UNL     1     -36.086  14.249  -5.351  1.00 20.00     0.063 C 
HETATM    4  C7  UNL     1     -33.902  15.106  -6.240  1.00 20.00     0.063 C 
HETATM    5  C9  UNL     1     -34.959  15.265  -5.141  1.00 20.00     0.212 C 
ENDROOT
BRANCH   5   6
HETATM    6  N10 UNL     1     -34.341  15.041  -3.849  1.00 20.00     0.115 N 
HETATM    7  H23 UNL     1     -35.033  15.177  -3.110  1.00 20.00     0.319 HD
BRANCH   6   8
HETATM    8  C8  UNL     1     -33.228  15.958  -3.629  1.00 20.00     0.365 C 
BRANCH   8   9
HETATM    9  C4  UNL     1     -33.405  16.707  -2.381  1.00 20.00    -0.077 C 
HETATM   10  C3  UNL     1     -33.555  17.319  -1.359  1.00 20.00    -0.109 C 
HETATM   11  C5  UNL     1     -33.737  18.064  -0.114  1.00 20.00     0.112 C 
ENDBRANCH   8   9
ENDBRANCH   6   8
ENDBRANCH   5   6
TORSDOF 3
ENDMDL
MODEL 3
REMARK VINA RESULT:      -3.9      3.272      5.503
REMARK  3 active torsions:
REMARK  status: ('A' for Active; 'I' for Inactive)
REMARK    1  A    between atoms: C4_4  and  C8_8 
REMARK    2  A    between atoms: C8_8  and  N10_10 
REMARK    3  A    between atoms: C9_9  and  N10_10 
ROOT
HETATM    1  C1  UNL     1     -33.365  15.891  -3.355  1.00 20.00     0.015 C 
HETATM    2  C2  UNL     1     -33.394  16.914  -2.726  1.00 20.00    -0.076 C 
HETATM    3  C6  UNL     1     -32.656  19.259  -2.708  1.00 20.00     0.063 C 
HETATM    4  C7  UNL     1     -34.882  18.614  -1.748  1.00 20.00     0.063 C 
HETATM    5  C9  UNL     1     -33.428  18.172  -1.953  1.00 20.00     0.212 C 
ENDROOT
BRANCH   5   6
HETATM    6  N10 UNL     1     -32.810  17.949  -0.661  1.00 20.00     0.115 N 
HETATM    7  H23 UNL     1     -33.355  18.419   0.065  1.00 20.00     0.319 HD
BRANCH   6   8
HETATM    8  C8  UNL     1     -31.445  18.461  -0.633  1.00 20.00     0.365 C 
BRANCH   8   9
HETATM    9  C4  UNL     1     -30.953  18.569   0.744  1.00 20.00    -0.077 C 
HETATM   10  C3  UNL     1     -30.554  18.654   1.873  1.00 20.00    -0.109 C 
HETATM   11  C5  UNL     1     -30.068  18.756   3.248  1.00 20.00     0.112 C 
ENDBRANCH   8   9
ENDBRANCH   6   8
ENDBRANCH   5   6
TORSDOF 3
ENDMDL
MODEL 4
REMARK VINA RESULT:      -3.8     12.671     14.163
REMARK  3 active torsions:
REMARK  status: ('A' for Active; 'I' for Inactive)
REMARK    1  A    between atoms: C4_4  and  C8_8 
REMARK    2  A    between atoms: C8_8  and  N10_10 
REMARK    3  A    between atoms: C9_9  and  N10_10 
ROOT
HETATM    1  C1  UNL     1     -39.309  11.564   4.467  1.00 20.00     0.015 C 
HETATM    2  C2  UNL     1     -39.996  12.302   5.120  1.00 20.00    -0.076 C 
HETATM    3  C6  UNL     1     -41.587  14.173   4.991  1.00 20.00     0.063 C 
HETATM    4  C7  UNL     1     -41.848  12.394   6.740  1.00 20.00     0.063 C 
HETATM    5  C9  UNL     1     -40.841  13.211   5.922  1.00 20.00     0.212 C 
ENDROOT
BRANCH   5   6
HETATM    6  N10 UNL     1     -39.996  13.968   6.824  1.00 20.00     0.115 N 
HETATM    7  H23 UNL     1     -39.649  13.354   7.564  1.00 20.00     0.319 HD
BRANCH   6   8
HETATM    8  C8  UNL     1     -40.729  15.073   7.431  1.00 20.00     0.365 C 
BRANCH   8   9
HETATM    9  C4  UNL     1     -40.463  15.151   8.871  1.00 20.00    -0.077 C 
HETATM   10  C3  UNL     1     -40.249  15.215  10.051  1.00 20.00    -0.109 C 
HETATM   11  C5  UNL     1     -39.991  15.292  11.488  1.00 20.00     0.112 C 
ENDBRANCH   8   9
ENDBRANCH   6   8
ENDBRANCH   5   6
TORSDOF 3
ENDMDL
MODEL 5
REMARK VINA RESULT:      -3.6      1.127      2.080
REMARK  3 active torsions:
REMARK  status: ('A' for Active; 'I' for Inactive)
REMARK    1  A    between atoms: C4_4  and  C8_8 
REMARK    2  A    between atoms: C8_8  and  N10_10 
REMARK    3  A    between atoms: C9_9  and  N10_10 
ROOT
HETATM    1  C1  UNL     1     -36.115  13.928  -4.905  1.00 20.00     0.015 C 
HETATM    2  C2  UNL     1     -35.508  14.795  -5.472  1.00 20.00    -0.076 C 
HETATM    3  C6  UNL     1     -33.750  15.229  -7.136  1.00 20.00     0.063 C 
HETATM    4  C7  UNL     1     -35.734  16.753  -6.948  1.00 20.00     0.063 C 
HETATM    5  C9  UNL     1     -34.760  15.860  -6.171  1.00 20.00     0.212 C 
ENDROOT
BRANCH   5   6
HETATM    6  N10 UNL     1     -34.055  16.663  -5.191  1.00 20.00     0.115 N 
HETATM    7  H23 UNL     1     -33.313  17.192  -5.652  1.00 20.00     0.319 HD
BRANCH   6   8
HETATM    8  C8  UNL     1     -33.465  15.828  -4.151  1.00 20.00     0.365 C 
BRANCH   8   9
HETATM    9  C4  UNL     1     -33.506  16.503  -2.850  1.00 20.00    -0.077 C 
HETATM   10  C3  UNL     1     -33.545  17.057  -1.786  1.00 20.00    -0.109 C 
HETATM   11  C5  UNL     1     -33.594  17.732  -0.490  1.00 20.00     0.112 C 
ENDBRANCH   8   9
ENDBRANCH   6   8
ENDBRANCH   5   6
TORSDOF 3
ENDMDL
MODEL 6
REMARK VINA RESULT:      -3.6     12.637     14.592
REMARK  3 active torsions:
REMARK  status: ('A' for Active; 'I' for Inactive)
REMARK    1  A    between atoms: C4_4  and  C8_8 
REMARK    2  A    between atoms: C8_8  and  N10_10 
REMARK    3  A    between atoms: C9_9  and  N10_10 
ROOT
HETATM    1  C1  UNL     1     -40.758  17.421   7.473  1.00 20.00     0.015 C 
HETATM    2  C2  UNL     1     -40.771  16.364   8.043  1.00 20.00    -0.076 C 
HETATM    3  C6  UNL     1     -40.076  15.204  10.097  1.00 20.00     0.063 C 
HETATM    4  C7  UNL     1     -42.233  14.609   8.962  1.00 20.00     0.063 C 
HETATM    5  C9  UNL     1     -40.785  15.065   8.746  1.00 20.00     0.212 C 
ENDROOT
BRANCH   5   6
HETATM    6  N10 UNL     1     -40.092  14.083   7.936  1.00 20.00     0.115 N 
HETATM    7  H23 UNL     1     -39.352  14.541   7.400  1.00 20.00     0.319 HD
BRANCH   6   8
HETATM    8  C8  UNL     1     -41.006  13.423   7.009  1.00 20.00     0.365 C 
BRANCH   8   9
HETATM    9  C4  UNL     1     -40.269  12.769   5.923  1.00 20.00    -0.077 C 
HETATM   10  C3  UNL     1     -39.666  12.229   5.036  1.00 20.00    -0.109 C 
HETATM   11  C5  UNL     1     -38.933  11.571   3.956  1.00 20.00     0.112 C 
ENDBRANCH   8   9
ENDBRANCH   6   8
ENDBRANCH   5   6
TORSDOF 3
ENDMDL
MODEL 7
REMARK VINA RESULT:      -3.6     11.472     13.108
REMARK  3 active torsions:
REMARK  status: ('A' for Active; 'I' for Inactive)
REMARK    1  A    between atoms: C4_4  and  C8_8 
REMARK    2  A    between atoms: C8_8  and  N10_10 
REMARK    3  A    between atoms: C9_9  and  N10_10 
ROOT
HETATM    1  C1  UNL     1     -32.899   5.014   2.815  1.00 20.00     0.015 C 
HETATM    2  C2  UNL     1     -33.567   5.516   3.678  1.00 20.00    -0.076 C 
HETATM    3  C6  UNL     1     -35.874   6.005   4.376  1.00 20.00     0.063 C 
HETATM    4  C7  UNL     1     -34.118   5.440   6.076  1.00 20.00     0.063 C 
HETATM    5  C9  UNL     1     -34.390   6.135   4.737  1.00 20.00     0.212 C 
ENDROOT
BRANCH   5   6
HETATM    6  N10 UNL     1     -34.041   7.537   4.848  1.00 20.00     0.115 N 
HETATM    7  H23 UNL     1     -34.692   8.097   4.293  1.00 20.00     0.319 HD
BRANCH   6   8
HETATM    8  C8  UNL     1     -32.684   7.783   4.372  1.00 20.00     0.365 C 
BRANCH   8   9
HETATM    9  C4  UNL     1     -32.698   8.460   3.073  1.00 20.00    -0.077 C 
HETATM   10  C3  UNL     1     -32.713   9.011   2.006  1.00 20.00    -0.109 C 
HETATM   11  C5  UNL     1     -32.732   9.684   0.708  1.00 20.00     0.112 C 
ENDBRANCH   8   9
ENDBRANCH   6   8
ENDBRANCH   5   6
TORSDOF 3
ENDMDL
MODEL 8
REMARK VINA RESULT:      -3.6     12.294     13.707
REMARK  3 active torsions:
REMARK  status: ('A' for Active; 'I' for Inactive)
REMARK    1  A    between atoms: C4_4  and  C8_8 
REMARK    2  A    between atoms: C8_8  and  N10_10 
REMARK    3  A    between atoms: C9_9  and  N10_10 
ROOT
HETATM    1  C1  UNL     1     -39.299  11.404   4.604  1.00 20.00     0.015 C 
HETATM    2  C2  UNL     1     -39.994  12.197   5.178  1.00 20.00    -0.076 C 
HETATM    3  C6  UNL     1     -41.594  14.038   4.859  1.00 20.00     0.063 C 
HETATM    4  C7  UNL     1     -41.858  12.434   6.770  1.00 20.00     0.063 C 
HETATM    5  C9  UNL     1     -40.850  13.174   5.883  1.00 20.00     0.212 C 
ENDROOT
BRANCH   5   6
HETATM    6  N10 UNL     1     -40.015  14.019   6.713  1.00 20.00     0.115 N 
HETATM    7  H23 UNL     1     -39.217  13.481   7.057  1.00 20.00     0.319 HD
BRANCH   6   8
HETATM    8  C8  UNL     1     -40.760  14.540   7.855  1.00 20.00     0.365 C 
BRANCH   8   9
HETATM    9  C4  UNL     1     -40.759  16.005   7.857  1.00 20.00    -0.077 C 
HETATM   10  C3  UNL     1     -40.763  17.206   7.857  1.00 20.00    -0.109 C 
HETATM   11  C5  UNL     1     -40.769  18.668   7.858  1.00 20.00     0.112 C 
ENDBRANCH   8   9
ENDBRANCH   6   8
ENDBRANCH   5   6
TORSDOF 3
ENDMDL
MODEL 9
REMARK VINA RESULT:      -3.6      2.010      4.902
REMARK  3 active torsions:
REMARK  status: ('A' for Active; 'I' for Inactive)
REMARK    1  A    between atoms: C4_4  and  C8_8 
REMARK    2  A    between atoms: C8_8  and  N10_10 
REMARK    3  A    between atoms: C9_9  and  N10_10 
ROOT
HETATM    1  C1  UNL     1     -35.986  19.116  -2.383  1.00 20.00     0.015 C 
HETATM    2  C2  UNL     1     -34.986  18.572  -1.999  1.00 20.00    -0.076 C 
HETATM    3  C6  UNL     1     -32.529  18.631  -2.090  1.00 20.00     0.063 C 
HETATM    4  C7  UNL     1     -33.712  17.917   0.003  1.00 20.00     0.063 C 
HETATM    5  C9  UNL     1     -33.755  17.903  -1.529  1.00 20.00     0.212 C 
ENDROOT
BRANCH   5   6
HETATM    6  N10 UNL     1     -33.757  16.530  -1.994  1.00 20.00     0.115 N 
HETATM    7  H23 UNL     1     -33.247  15.944  -1.330  1.00 20.00     0.319 HD
BRANCH   6   8
HETATM    8  C8  UNL     1     -33.128  16.416  -3.305  1.00 20.00     0.365 C 
BRANCH   8   9
HETATM    9  C4  UNL     1     -34.034  15.782  -4.267  1.00 20.00    -0.077 C 
HETATM   10  C3  UNL     1     -34.773  15.263  -5.059  1.00 20.00    -0.109 C 
HETATM   11  C5  UNL     1     -35.672  14.632  -6.024  1.00 20.00     0.112 C 
ENDBRANCH   8   9
ENDBRANCH   6   8
ENDBRANCH   5   6
TORSDOF 3
ENDMDL
