MODEL 1
REMARK VINA RESULT:      -4.3      0.000      0.000
REMARK  3 active torsions:
REMARK  status: ('A' for Active; 'I' for Inactive)
REMARK    1  A    between atoms: C2_2  and  C3_3 
REMARK    2  A    between atoms: C3_3  and  C11_11 
REMARK    3  A    between atoms: C11_11  and  C12_12 
ROOT
HETATM    1  C3  UNL     1     -32.872  18.553  -2.246  1.00 20.00     0.159 C 
HETATM    2  O13 UNL     1     -32.283  19.263  -3.056  1.00 20.00    -0.292 OA
ENDROOT
BRANCH   1   3
HETATM    3  C2  UNL     1     -32.534  18.647  -0.824  1.00 20.00    -0.016 C 
HETATM    4  C1  UNL     1     -31.236  18.604  -0.487  1.00 20.00    -0.016 C 
HETATM    5  C4  UNL     1     -30.770  18.681   0.939  1.00 20.00     0.028 C 
HETATM    6  C6  UNL     1     -31.898  18.499   1.958  1.00 20.00     0.004 C 
HETATM    7  C7  UNL     1     -33.152  19.263   1.542  1.00 20.00     0.005 C 
HETATM    8  C5  UNL     1     -33.649  18.809   0.166  1.00 20.00     0.042 C 
ENDBRANCH   1   3
BRANCH   1   9
HETATM    9  C11 UNL     1     -33.971  17.565  -2.638  1.00 20.00     0.059 C 
HETATM   10  C8  UNL     1     -33.351  16.234  -3.072  1.00 20.00     0.018 C 
BRANCH   9  11
HETATM   11  C12 UNL     1     -34.925  18.200  -3.680  1.00 20.00    -0.012 C 
HETATM   12  C9  UNL     1     -35.361  17.230  -4.783  1.00 20.00     0.010 C 
HETATM   13  C10 UNL     1     -36.160  18.809  -3.010  1.00 20.00     0.010 C 
ENDBRANCH   9  11
ENDBRANCH   1   9
TORSDOF 3
ENDMDL
MODEL 2
REMARK VINA RESULT:      -4.2      1.410      2.037
REMARK  3 active torsions:
REMARK  status: ('A' for Active; 'I' for Inactive)
REMARK    1  A    between atoms: C2_2  and  C3_3 
REMARK    2  A    between atoms: C3_3  and  C11_11 
REMARK    3  A    between atoms: C11_11  and  C12_12 
ROOT
HETATM    1  C3  UNL     1     -34.138  18.294  -2.217  1.00 20.00     0.159 C 
HETATM    2  O13 UNL     1     -35.346  18.507  -2.163  1.00 20.00    -0.292 OA
ENDROOT
BRANCH   1   3
HETATM    3  C2  UNL     1     -33.323  18.446  -1.009  1.00 20.00    -0.016 C 
HETATM    4  C1  UNL     1     -31.990  18.449  -1.152  1.00 20.00    -0.016 C 
HETATM    5  C4  UNL     1     -31.053  18.589   0.014  1.00 20.00     0.028 C 
HETATM    6  C6  UNL     1     -31.742  18.412   1.371  1.00 20.00     0.004 C 
HETATM    7  C7  UNL     1     -33.090  19.127   1.408  1.00 20.00     0.005 C 
HETATM    8  C5  UNL     1     -34.022  18.613   0.307  1.00 20.00     0.042 C 
ENDBRANCH   1   3
BRANCH   1   9
HETATM    9  C11 UNL     1     -33.418  17.857  -3.492  1.00 20.00     0.059 C 
HETATM   10  C8  UNL     1     -33.378  19.012  -4.496  1.00 20.00     0.018 C 
BRANCH   9  11
HETATM   11  C12 UNL     1     -34.038  16.548  -4.044  1.00 20.00    -0.012 C 
HETATM   12  C9  UNL     1     -34.542  16.668  -5.485  1.00 20.00     0.010 C 
HETATM   13  C10 UNL     1     -33.058  15.377  -3.936  1.00 20.00     0.010 C 
ENDBRANCH   9  11
ENDBRANCH   1   9
TORSDOF 3
ENDMDL
MODEL 3
REMARK VINA RESULT:      -4.1     11.445     12.617
REMARK  3 active torsions:
REMARK  status: ('A' for Active; 'I' for Inactive)
REMARK    1  A    between atoms: C2_2  and  C3_3 
REMARK    2  A    between atoms: C3_3  and  C11_11 
REMARK    3  A    between atoms: C11_11  and  C12_12 
ROOT
HETATM    1  C3  UNL     1     -41.418  13.409   7.099  1.00 20.00     0.159 C 
HETATM    2  O13 UNL     1     -42.181  12.508   7.435  1.00 20.00    -0.292 OA
ENDROOT
BRANCH   1   3
HETATM    3  C2  UNL     1     -41.179  14.530   8.010  1.00 20.00    -0.016 C 
HETATM    4  C1  UNL     1     -40.505  14.282   9.143  1.00 20.00    -0.016 C 
HETATM    5  C4  UNL     1     -40.210  15.349  10.158  1.00 20.00     0.028 C 
HETATM    6  C6  UNL     1     -41.004  16.638   9.931  1.00 20.00     0.004 C 
HETATM    7  C7  UNL     1     -41.053  17.010   8.452  1.00 20.00     0.005 C 
HETATM    8  C5  UNL     1     -41.679  15.889   7.617  1.00 20.00     0.042 C 
ENDBRANCH   1   3
BRANCH   1   9
HETATM    9  C11 UNL     1     -40.675  13.426   5.763  1.00 20.00     0.059 C 
HETATM   10  C8  UNL     1     -41.643  13.769   4.627  1.00 20.00     0.018 C 
BRANCH   9  11
HETATM   11  C12 UNL     1     -39.890  12.106   5.561  1.00 20.00    -0.012 C 
HETATM   12  C9  UNL     1     -39.342  11.929   4.142  1.00 20.00     0.010 C 
HETATM   13  C10 UNL     1     -38.751  11.972   6.575  1.00 20.00     0.010 C 
ENDBRANCH   9  11
ENDBRANCH   1   9
TORSDOF 3
ENDMDL
MODEL 4
REMARK VINA RESULT:      -3.9      2.452      4.074
REMARK  3 active torsions:
REMARK  status: ('A' for Active; 'I' for Inactive)
REMARK    1  A    between atoms: C2_2  and  C3_3 
REMARK    2  A    between atoms: C3_3  and  C11_11 
REMARK    3  A    between atoms: C11_11  and  C12_12 
ROOT
HETATM    1  C3  UNL     1     -34.036  15.698  -4.537  1.00 20.00     0.159 C 
HETATM    2  O13 UNL     1     -33.036  14.991  -4.626  1.00 20.00    -0.292 OA
ENDROOT
BRANCH   1   3
HETATM    3  C2  UNL     1     -34.085  16.755  -3.526  1.00 20.00    -0.016 C 
HETATM    4  C1  UNL     1     -33.370  16.580  -2.404  1.00 20.00    -0.016 C 
HETATM    5  C4  UNL     1     -33.351  17.590  -1.293  1.00 20.00     0.028 C 
HETATM    6  C6  UNL     1     -34.442  18.657  -1.423  1.00 20.00     0.004 C 
HETATM    7  C7  UNL     1     -34.581  19.138  -2.865  1.00 20.00     0.005 C 
HETATM    8  C5  UNL     1     -34.907  17.977  -3.808  1.00 20.00     0.042 C 
ENDBRANCH   1   3
BRANCH   1   9
HETATM    9  C11 UNL     1     -35.254  15.547  -5.448  1.00 20.00     0.059 C 
HETATM   10  C8  UNL     1     -36.003  14.254  -5.115  1.00 20.00     0.018 C 
BRANCH   9  11
HETATM   11  C12 UNL     1     -34.841  15.684  -6.935  1.00 20.00    -0.012 C 
HETATM   12  C9  UNL     1     -35.937  15.261  -7.918  1.00 20.00     0.010 C 
HETATM   13  C10 UNL     1     -34.379  17.108  -7.258  1.00 20.00     0.010 C 
ENDBRANCH   9  11
ENDBRANCH   1   9
TORSDOF 3
ENDMDL
MODEL 5
REMARK VINA RESULT:      -3.9      2.537      4.356
REMARK  3 active torsions:
REMARK  status: ('A' for Active; 'I' for Inactive)
REMARK    1  A    between atoms: C2_2  and  C3_3 
REMARK    2  A    between atoms: C3_3  and  C11_11 
REMARK    3  A    between atoms: C11_11  and  C12_12 
ROOT
HETATM    1  C3  UNL     1     -34.599  17.019  -5.678  1.00 20.00     0.159 C 
HETATM    2  O13 UNL     1     -34.884  17.932  -6.449  1.00 20.00    -0.292 OA
ENDROOT
BRANCH   1   3
HETATM    3  C2  UNL     1     -34.396  17.311  -4.258  1.00 20.00    -0.016 C 
HETATM    4  C1  UNL     1     -35.183  18.238  -3.692  1.00 20.00    -0.016 C 
HETATM    5  C4  UNL     1     -35.060  18.628  -2.247  1.00 20.00     0.028 C 
HETATM    6  C6  UNL     1     -33.780  18.111  -1.585  1.00 20.00     0.004 C 
HETATM    7  C7  UNL     1     -33.484  16.671  -1.995  1.00 20.00     0.005 C 
HETATM    8  C5  UNL     1     -33.342  16.545  -3.515  1.00 20.00     0.042 C 
ENDBRANCH   1   3
BRANCH   1   9
HETATM    9  C11 UNL     1     -34.454  15.563  -6.119  1.00 20.00     0.059 C 
HETATM   10  C8  UNL     1     -33.938  15.497  -7.558  1.00 20.00     0.018 C 
BRANCH   9  11
HETATM   11  C12 UNL     1     -35.773  14.787  -5.873  1.00 20.00    -0.012 C 
HETATM   12  C9  UNL     1     -35.710  13.835  -4.675  1.00 20.00     0.010 C 
HETATM   13  C10 UNL     1     -36.961  15.740  -5.714  1.00 20.00     0.010 C 
ENDBRANCH   9  11
ENDBRANCH   1   9
TORSDOF 3
ENDMDL
MODEL 6
REMARK VINA RESULT:      -3.8     11.138     12.715
REMARK  3 active torsions:
REMARK  status: ('A' for Active; 'I' for Inactive)
REMARK    1  A    between atoms: C2_2  and  C3_3 
REMARK    2  A    between atoms: C3_3  and  C11_11 
REMARK    3  A    between atoms: C11_11  and  C12_12 
ROOT
HETATM    1  C3  UNL     1     -40.880  13.828   7.815  1.00 20.00     0.159 C 
HETATM    2  O13 UNL     1     -41.761  13.242   8.437  1.00 20.00    -0.292 OA
ENDROOT
BRANCH   1   3
HETATM    3  C2  UNL     1     -40.262  13.181   6.656  1.00 20.00    -0.016 C 
HETATM    4  C1  UNL     1     -40.804  13.411   5.450  1.00 20.00    -0.016 C 
HETATM    5  C4  UNL     1     -40.264  12.795   4.192  1.00 20.00     0.028 C 
HETATM    6  C6  UNL     1     -39.264  11.664   4.450  1.00 20.00     0.004 C 
HETATM    7  C7  UNL     1     -38.300  12.019   5.578  1.00 20.00     0.005 C 
HETATM    8  C5  UNL     1     -39.053  12.322   6.877  1.00 20.00     0.042 C 
ENDBRANCH   1   3
BRANCH   1   9
HETATM    9  C11 UNL     1     -40.386  15.228   8.178  1.00 20.00     0.059 C 
HETATM   10  C8  UNL     1     -40.148  15.329   9.686  1.00 20.00     0.018 C 
BRANCH   9  11
HETATM   11  C12 UNL     1     -41.342  16.306   7.605  1.00 20.00    -0.012 C 
HETATM   12  C9  UNL     1     -42.574  16.559   8.480  1.00 20.00     0.010 C 
HETATM   13  C10 UNL     1     -40.609  17.625   7.351  1.00 20.00     0.010 C 
ENDBRANCH   9  11
ENDBRANCH   1   9
TORSDOF 3
ENDMDL
MODEL 7
REMARK VINA RESULT:      -3.8      1.636      5.205
REMARK  3 active torsions:
REMARK  status: ('A' for Active; 'I' for Inactive)
REMARK    1  A    between atoms: C2_2  and  C3_3 
REMARK    2  A    between atoms: C3_3  and  C11_11 
REMARK    3  A    between atoms: C11_11  and  C12_12 
ROOT
HETATM    1  C3  UNL     1     -34.766  18.182  -2.799  1.00 20.00     0.159 C 
HETATM    2  O13 UNL     1     -35.945  18.473  -2.616  1.00 20.00    -0.292 OA
ENDROOT
BRANCH   1   3
HETATM    3  C2  UNL     1     -34.426  17.086  -3.709  1.00 20.00    -0.016 C 
HETATM    4  C1  UNL     1     -34.796  17.202  -4.993  1.00 20.00    -0.016 C 
HETATM    5  C4  UNL     1     -34.511  16.139  -6.014  1.00 20.00     0.028 C 
HETATM    6  C6  UNL     1     -34.055  14.812  -5.400  1.00 20.00     0.004 C 
HETATM    7  C7  UNL     1     -33.061  15.038  -4.263  1.00 20.00     0.005 C 
HETATM    8  C5  UNL     1     -33.667  15.913  -3.161  1.00 20.00     0.042 C 
ENDBRANCH   1   3
BRANCH   1   9
HETATM    9  C11 UNL     1     -33.606  18.919  -2.131  1.00 20.00     0.059 C 
HETATM   10  C8  UNL     1     -32.530  19.257  -3.166  1.00 20.00     0.018 C 
BRANCH   9  11
HETATM   11  C12 UNL     1     -33.091  18.123  -0.905  1.00 20.00    -0.012 C 
HETATM   12  C9  UNL     1     -31.668  18.502  -0.482  1.00 20.00     0.010 C 
HETATM   13  C10 UNL     1     -34.038  18.261   0.289  1.00 20.00     0.010 C 
ENDBRANCH   9  11
ENDBRANCH   1   9
TORSDOF 3
ENDMDL
MODEL 8
REMARK VINA RESULT:      -3.5     24.449     25.971
REMARK  3 active torsions:
REMARK  status: ('A' for Active; 'I' for Inactive)
REMARK    1  A    between atoms: C2_2  and  C3_3 
REMARK    2  A    between atoms: C3_3  and  C11_11 
REMARK    3  A    between atoms: C11_11  and  C12_12 
ROOT
HETATM    1  C3  UNL     1     -24.498  -2.221  11.275  1.00 20.00     0.159 C 
HETATM    2  O13 UNL     1     -23.954  -1.322  11.912  1.00 20.00    -0.292 OA
ENDROOT
BRANCH   1   3
HETATM    3  C2  UNL     1     -23.712  -3.007  10.322  1.00 20.00    -0.016 C 
HETATM    4  C1  UNL     1     -23.764  -2.655   9.029  1.00 20.00    -0.016 C 
HETATM    5  C4  UNL     1     -23.010  -3.392   7.960  1.00 20.00     0.028 C 
HETATM    6  C6  UNL     1     -22.447  -4.736   8.431  1.00 20.00     0.004 C 
HETATM    7  C7  UNL     1     -21.843  -4.628   9.829  1.00 20.00     0.005 C 
HETATM    8  C5  UNL     1     -22.880  -4.140  10.845  1.00 20.00     0.042 C 
ENDBRANCH   1   3
BRANCH   1   9
HETATM    9  C11 UNL     1     -25.974  -2.585  11.430  1.00 20.00     0.059 C 
HETATM   10  C8  UNL     1     -26.177  -4.081  11.176  1.00 20.00     0.018 C 
BRANCH   9  11
HETATM   11  C12 UNL     1     -26.856  -1.659  10.556  1.00 20.00    -0.012 C 
HETATM   12  C9  UNL     1     -28.060  -2.371   9.930  1.00 20.00     0.010 C 
HETATM   13  C10 UNL     1     -27.331  -0.434  11.341  1.00 20.00     0.010 C 
ENDBRANCH   9  11
ENDBRANCH   1   9
TORSDOF 3
ENDMDL
MODEL 9
REMARK VINA RESULT:      -3.4      3.610      7.036
REMARK  3 active torsions:
REMARK  status: ('A' for Active; 'I' for Inactive)
REMARK    1  A    between atoms: C2_2  and  C3_3 
REMARK    2  A    between atoms: C3_3  and  C11_11 
REMARK    3  A    between atoms: C11_11  and  C12_12 
ROOT
HETATM    1  C3  UNL     1     -35.464  15.048  -5.218  1.00 20.00     0.159 C 
HETATM    2  O13 UNL     1     -35.811  13.923  -4.871  1.00 20.00    -0.292 OA
ENDROOT
BRANCH   1   3
HETATM    3  C2  UNL     1     -36.392  15.888  -5.978  1.00 20.00    -0.016 C 
HETATM    4  C1  UNL     1     -37.570  16.187  -5.411  1.00 20.00    -0.016 C 
HETATM    5  C4  UNL     1     -38.606  17.031  -6.098  1.00 20.00     0.028 C 
HETATM    6  C6  UNL     1     -38.324  17.243  -7.588  1.00 20.00     0.004 C 
HETATM    7  C7  UNL     1     -36.846  17.526  -7.841  1.00 20.00     0.005 C 
HETATM    8  C5  UNL     1     -35.966  16.382  -7.328  1.00 20.00     0.042 C 
ENDBRANCH   1   3
BRANCH   1   9
HETATM    9  C11 UNL     1     -34.096  15.645  -4.886  1.00 20.00     0.059 C 
HETATM   10  C8  UNL     1     -33.142  14.544  -4.416  1.00 20.00     0.018 C 
BRANCH   9  11
HETATM   11  C12 UNL     1     -34.245  16.830  -3.898  1.00 20.00    -0.012 C 
HETATM   12  C9  UNL     1     -33.415  16.672  -2.621  1.00 20.00     0.010 C 
HETATM   13  C10 UNL     1     -33.910  18.163  -4.571  1.00 20.00     0.010 C 
ENDBRANCH   9  11
ENDBRANCH   1   9
TORSDOF 3
ENDMDL
