MODEL 1
REMARK VINA RESULT:      -4.2      0.000      0.000
REMARK  2 active torsions:
REMARK  status: ('A' for Active; 'I' for Inactive)
REMARK    1  A    between atoms: C4_4  and  C5_5 
REMARK    2  A    between atoms: C5_5  and  N6_6 
ROOT
HETATM    1  C1  UNL     1     -33.079   5.096   2.800  1.00 20.00     0.012 C 
HETATM    2  C2  UNL     1     -33.907   5.219   3.661  1.00 20.00    -0.116 C 
HETATM    3  C4  UNL     1     -34.925   5.369   4.712  1.00 20.00     0.115 C 
ENDROOT
BRANCH   3   4
HETATM    4  C5  UNL     1     -34.298   5.559   6.086  1.00 20.00     0.162 C 
BRANCH   4   5
HETATM    5  N6  UNL     1     -34.239   6.988   6.411  1.00 20.00    -0.275 NA
HETATM    6  C3  UNL     1     -33.528   7.620   5.723  1.00 20.00     0.157 C 
HETATM    7  S7  UNL     1     -32.570   8.504   4.807  1.00 20.00    -0.055 SA
ENDBRANCH   4   5
ENDBRANCH   3   4
TORSDOF 2
ENDMDL
MODEL 2
REMARK VINA RESULT:      -4.1      2.442      3.504
REMARK  2 active torsions:
REMARK  status: ('A' for Active; 'I' for Inactive)
REMARK    1  A    between atoms: C4_4  and  C5_5 
REMARK    2  A    between atoms: C5_5  and  N6_6 
ROOT
HETATM    1  C1  UNL     1     -34.394   6.014   6.446  1.00 20.00     0.012 C 
HETATM    2  C2  UNL     1     -34.075   7.046   5.923  1.00 20.00    -0.116 C 
HETATM    3  C4  UNL     1     -33.690   8.314   5.282  1.00 20.00     0.115 C 
ENDROOT
BRANCH   3   4
HETATM    4  C5  UNL     1     -32.277   8.258   4.718  1.00 20.00     0.162 C 
BRANCH   4   5
HETATM    5  N6  UNL     1     -32.326   7.925   3.291  1.00 20.00    -0.275 NA
HETATM    6  C3  UNL     1     -32.578   6.803   3.055  1.00 20.00     0.157 C 
HETATM    7  S7  UNL     1     -32.918   5.286   2.705  1.00 20.00    -0.055 SA
ENDBRANCH   4   5
ENDBRANCH   3   4
TORSDOF 2
ENDMDL
MODEL 3
REMARK VINA RESULT:      -4.1      2.002      3.088
REMARK  2 active torsions:
REMARK  status: ('A' for Active; 'I' for Inactive)
REMARK    1  A    between atoms: C4_4  and  C5_5 
REMARK    2  A    between atoms: C5_5  and  N6_6 
ROOT
HETATM    1  C1  UNL     1     -32.905   8.468   4.972  1.00 20.00     0.012 C 
HETATM    2  C2  UNL     1     -33.459   7.588   5.572  1.00 20.00    -0.116 C 
HETATM    3  C4  UNL     1     -34.134   6.511   6.313  1.00 20.00     0.115 C 
ENDROOT
BRANCH   3   4
HETATM    4  C5  UNL     1     -35.130   5.760   5.441  1.00 20.00     0.162 C 
BRANCH   4   5
HETATM    5  N6  UNL     1     -34.471   4.609   4.815  1.00 20.00    -0.275 NA
HETATM    6  C3  UNL     1     -33.826   4.866   3.868  1.00 20.00     0.157 C 
HETATM    7  S7  UNL     1     -32.945   5.183   2.579  1.00 20.00    -0.055 SA
ENDBRANCH   4   5
ENDBRANCH   3   4
TORSDOF 2
ENDMDL
MODEL 4
REMARK VINA RESULT:      -4.0      1.892      2.542
REMARK  2 active torsions:
REMARK  status: ('A' for Active; 'I' for Inactive)
REMARK    1  A    between atoms: C4_4  and  C5_5 
REMARK    2  A    between atoms: C5_5  and  N6_6 
ROOT
HETATM    1  C1  UNL     1     -34.792   5.006   4.886  1.00 20.00     0.012 C 
HETATM    2  C2  UNL     1     -34.423   5.933   5.553  1.00 20.00    -0.116 C 
HETATM    3  C4  UNL     1     -33.971   7.067   6.374  1.00 20.00     0.115 C 
ENDROOT
BRANCH   3   4
HETATM    4  C5  UNL     1     -33.843   8.345   5.557  1.00 20.00     0.162 C 
BRANCH   4   5
HETATM    5  N6  UNL     1     -32.493   8.439   4.992  1.00 20.00    -0.275 NA
HETATM    6  C3  UNL     1     -32.361   7.925   3.945  1.00 20.00     0.157 C 
HETATM    7  S7  UNL     1     -32.151   7.237   2.523  1.00 20.00    -0.055 SA
ENDBRANCH   4   5
ENDBRANCH   3   4
TORSDOF 2
ENDMDL
MODEL 5
REMARK VINA RESULT:      -3.9      2.076      2.672
REMARK  2 active torsions:
REMARK  status: ('A' for Active; 'I' for Inactive)
REMARK    1  A    between atoms: C4_4  and  C5_5 
REMARK    2  A    between atoms: C5_5  and  N6_6 
ROOT
HETATM    1  C1  UNL     1     -32.918   5.227   2.622  1.00 20.00     0.012 C 
HETATM    2  C2  UNL     1     -32.612   6.373   2.806  1.00 20.00    -0.116 C 
HETATM    3  C4  UNL     1     -32.236   7.778   3.024  1.00 20.00     0.115 C 
ENDROOT
BRANCH   3   4
HETATM    4  C5  UNL     1     -32.248   8.146   4.502  1.00 20.00     0.162 C 
BRANCH   4   5
HETATM    5  N6  UNL     1     -33.630   8.186   4.991  1.00 20.00    -0.275 NA
HETATM    6  C3  UNL     1     -33.979   7.220   5.559  1.00 20.00     0.157 C 
HETATM    7  S7  UNL     1     -34.482   5.921   6.333  1.00 20.00    -0.055 SA
ENDBRANCH   4   5
ENDBRANCH   3   4
TORSDOF 2
ENDMDL
MODEL 6
REMARK VINA RESULT:      -3.9     12.871     13.209
REMARK  2 active torsions:
REMARK  status: ('A' for Active; 'I' for Inactive)
REMARK    1  A    between atoms: C4_4  and  C5_5 
REMARK    2  A    between atoms: C5_5  and  N6_6 
ROOT
HETATM    1  C1  UNL     1     -33.367  16.228  -3.034  1.00 20.00     0.012 C 
HETATM    2  C2  UNL     1     -33.312  16.961  -2.085  1.00 20.00    -0.116 C 
HETATM    3  C4  UNL     1     -33.249  17.856  -0.919  1.00 20.00     0.115 C 
ENDROOT
BRANCH   3   4
HETATM    4  C5  UNL     1     -32.297  19.022  -1.149  1.00 20.00     0.162 C 
BRANCH   4   5
HETATM    5  N6  UNL     1     -30.967  18.685  -0.632  1.00 20.00    -0.275 NA
HETATM    6  C3  UNL     1     -30.891  18.637   0.539  1.00 20.00     0.157 C 
HETATM    7  S7  UNL     1     -30.758  18.565   2.125  1.00 20.00    -0.055 SA
ENDBRANCH   4   5
ENDBRANCH   3   4
TORSDOF 2
ENDMDL
MODEL 7
REMARK VINA RESULT:      -3.9      1.863      2.735
REMARK  2 active torsions:
REMARK  status: ('A' for Active; 'I' for Inactive)
REMARK    1  A    between atoms: C4_4  and  C5_5 
REMARK    2  A    between atoms: C5_5  and  N6_6 
ROOT
HETATM    1  C1  UNL     1     -34.575   5.400   6.620  1.00 20.00     0.012 C 
HETATM    2  C2  UNL     1     -34.579   5.563   5.430  1.00 20.00    -0.116 C 
HETATM    3  C4  UNL     1     -34.590   5.765   3.973  1.00 20.00     0.115 C 
ENDROOT
BRANCH   3   4
HETATM    4  C5  UNL     1     -33.283   5.322   3.329  1.00 20.00     0.162 C 
BRANCH   4   5
HETATM    5  N6  UNL     1     -32.576   6.488   2.791  1.00 20.00    -0.275 NA
HETATM    6  C3  UNL     1     -32.477   7.391   3.535  1.00 20.00     0.157 C 
HETATM    7  S7  UNL     1     -32.328   8.632   4.523  1.00 20.00    -0.055 SA
ENDBRANCH   4   5
ENDBRANCH   3   4
TORSDOF 2
ENDMDL
MODEL 8
REMARK VINA RESULT:      -3.8      2.192      2.933
REMARK  2 active torsions:
REMARK  status: ('A' for Active; 'I' for Inactive)
REMARK    1  A    between atoms: C4_4  and  C5_5 
REMARK    2  A    between atoms: C5_5  and  N6_6 
ROOT
HETATM    1  C1  UNL     1     -32.178   7.260   2.505  1.00 20.00     0.012 C 
HETATM    2  C2  UNL     1     -32.267   7.827   3.560  1.00 20.00    -0.116 C 
HETATM    3  C4  UNL     1     -32.369   8.524   4.851  1.00 20.00     0.115 C 
ENDROOT
BRANCH   3   4
HETATM    4  C5  UNL     1     -33.782   8.468   5.416  1.00 20.00     0.162 C 
BRANCH   4   5
HETATM    5  N6  UNL     1     -33.930   7.281   6.264  1.00 20.00    -0.275 NA
HETATM    6  C3  UNL     1     -34.252   6.306   5.694  1.00 20.00     0.157 C 
HETATM    7  S7  UNL     1     -34.688   4.967   4.948  1.00 20.00    -0.055 SA
ENDBRANCH   4   5
ENDBRANCH   3   4
TORSDOF 2
ENDMDL
MODEL 9
REMARK VINA RESULT:      -3.8      2.648      3.558
REMARK  2 active torsions:
REMARK  status: ('A' for Active; 'I' for Inactive)
REMARK    1  A    between atoms: C4_4  and  C5_5 
REMARK    2  A    between atoms: C5_5  and  N6_6 
ROOT
HETATM    1  C1  UNL     1     -34.312   5.987   6.347  1.00 20.00     0.012 C 
HETATM    2  C2  UNL     1     -33.990   7.024   5.834  1.00 20.00    -0.116 C 
HETATM    3  C4  UNL     1     -33.600   8.296   5.208  1.00 20.00     0.115 C 
ENDROOT
BRANCH   3   4
HETATM    4  C5  UNL     1     -32.243   8.201   4.524  1.00 20.00     0.162 C 
BRANCH   4   5
HETATM    5  N6  UNL     1     -32.336   7.314   3.360  1.00 20.00    -0.275 NA
HETATM    6  C3  UNL     1     -32.316   7.861   2.322  1.00 20.00     0.157 C 
HETATM    7  S7  UNL     1     -32.291   8.575   0.898  1.00 20.00    -0.055 SA
ENDBRANCH   4   5
ENDBRANCH   3   4
TORSDOF 2
ENDMDL
