MODEL 1
REMARK VINA RESULT:      -3.4      0.000      0.000
REMARK  1 active torsions:
REMARK  status: ('A' for Active; 'I' for Inactive)
REMARK    1  A    between atoms: C7_7  and  N9_9 
ROOT
HETATM    1  C1  UNL     1     -32.508   8.787   2.254  1.00 20.00     0.089 C 
HETATM    2  C7  UNL     1     -32.039   7.738   3.156  1.00 20.00     0.396 C 
HETATM    3  N8  UNL     1     -32.878   9.621   1.537  1.00 20.00    -0.195 NA
ENDROOT
BRANCH   2   4
HETATM    4  N9  UNL     1     -33.158   7.156   3.907  1.00 20.00     0.107 N 
HETATM    5  C2  UNL     1     -33.095   7.642   5.300  1.00 20.00     0.284 C 
HETATM    6  C3  UNL     1     -34.331   7.289   6.120  1.00 20.00     0.104 C 
HETATM    7  S10 UNL     1     -34.510   5.499   6.290  1.00 20.00    -0.165 SA
HETATM    8  C4  UNL     1     -34.425   5.091   4.527  1.00 20.00     0.109 C 
HETATM    9  C5  UNL     1     -33.172   5.674   3.845  1.00 20.00     0.229 C 
HETATM   10  C6  UNL     1     -33.155   5.146   2.399  1.00 20.00     0.043 C 
ENDBRANCH   2   4
TORSDOF 1
ENDMDL
MODEL 2
REMARK VINA RESULT:      -3.4     12.029     13.081
REMARK  1 active torsions:
REMARK  status: ('A' for Active; 'I' for Inactive)
REMARK    1  A    between atoms: C7_7  and  N9_9 
ROOT
HETATM    1  C1  UNL     1     -35.392  15.311  -6.434  1.00 20.00     0.089 C 
HETATM    2  C7  UNL     1     -34.562  16.455  -6.061  1.00 20.00     0.396 C 
HETATM    3  N8  UNL     1     -36.049  14.403  -6.733  1.00 20.00    -0.195 NA
ENDROOT
BRANCH   2   4
HETATM    4  N9  UNL     1     -34.671  16.732  -4.624  1.00 20.00     0.107 N 
HETATM    5  C2  UNL     1     -35.119  18.128  -4.445  1.00 20.00     0.284 C 
HETATM    6  C3  UNL     1     -35.486  18.464  -3.004  1.00 20.00     0.104 C 
HETATM    7  S10 UNL     1     -34.050  18.324  -1.916  1.00 20.00    -0.165 SA
HETATM    8  C4  UNL     1     -33.576  16.637  -2.377  1.00 20.00     0.109 C 
HETATM    9  C5  UNL     1     -33.404  16.468  -3.899  1.00 20.00     0.229 C 
HETATM   10  C6  UNL     1     -32.876  15.041  -4.139  1.00 20.00     0.043 C 
ENDBRANCH   2   4
TORSDOF 1
ENDMDL
MODEL 3
REMARK VINA RESULT:      -3.3     12.243     13.224
REMARK  1 active torsions:
REMARK  status: ('A' for Active; 'I' for Inactive)
REMARK    1  A    between atoms: C7_7  and  N9_9 
ROOT
HETATM    1  C1  UNL     1     -32.453  18.103  -1.573  1.00 20.00     0.089 C 
HETATM    2  C7  UNL     1     -33.318  17.031  -2.061  1.00 20.00     0.396 C 
HETATM    3  N8  UNL     1     -31.766  18.953  -1.182  1.00 20.00    -0.195 NA
ENDROOT
BRANCH   2   4
HETATM    4  N9  UNL     1     -33.784  17.315  -3.423  1.00 20.00     0.107 N 
HETATM    5  C2  UNL     1     -34.916  18.261  -3.346  1.00 20.00     0.284 C 
HETATM    6  C3  UNL     1     -35.341  18.807  -4.705  1.00 20.00     0.104 C 
HETATM    7  S10 UNL     1     -35.947  17.486  -5.779  1.00 20.00    -0.165 SA
HETATM    8  C4  UNL     1     -34.510  16.393  -5.632  1.00 20.00     0.109 C 
HETATM    9  C5  UNL     1     -34.150  16.084  -4.165  1.00 20.00     0.229 C 
HETATM   10  C6  UNL     1     -33.009  15.050  -4.187  1.00 20.00     0.043 C 
ENDBRANCH   2   4
TORSDOF 1
ENDMDL
MODEL 4
REMARK VINA RESULT:      -3.2     11.790     13.086
REMARK  1 active torsions:
REMARK  status: ('A' for Active; 'I' for Inactive)
REMARK    1  A    between atoms: C7_7  and  N9_9 
ROOT
HETATM    1  C1  UNL     1     -33.494  17.864  -1.295  1.00 20.00     0.089 C 
HETATM    2  C7  UNL     1     -33.130  17.960  -2.707  1.00 20.00     0.396 C 
HETATM    3  N8  UNL     1     -33.781  17.790  -0.173  1.00 20.00    -0.195 NA
ENDROOT
BRANCH   2   4
HETATM    4  N9  UNL     1     -33.921  17.025  -3.515  1.00 20.00     0.107 N 
HETATM    5  C2  UNL     1     -33.145  15.781  -3.692  1.00 20.00     0.284 C 
HETATM    6  C3  UNL     1     -33.951  14.651  -4.322  1.00 20.00     0.104 C 
HETATM    7  S10 UNL     1     -34.478  15.079  -5.996  1.00 20.00    -0.165 SA
HETATM    8  C4  UNL     1     -35.266  16.659  -5.591  1.00 20.00     0.109 C 
HETATM    9  C5  UNL     1     -34.328  17.606  -4.817  1.00 20.00     0.229 C 
HETATM   10  C6  UNL     1     -35.069  18.947  -4.657  1.00 20.00     0.043 C 
ENDBRANCH   2   4
TORSDOF 1
ENDMDL
MODEL 5
REMARK VINA RESULT:      -3.2     11.951     13.296
REMARK  1 active torsions:
REMARK  status: ('A' for Active; 'I' for Inactive)
REMARK    1  A    between atoms: C7_7  and  N9_9 
ROOT
HETATM    1  C1  UNL     1     -36.531  16.202  -5.960  1.00 20.00     0.089 C 
HETATM    2  C7  UNL     1     -35.118  16.562  -5.863  1.00 20.00     0.396 C 
HETATM    3  N8  UNL     1     -37.653  15.916  -6.040  1.00 20.00    -0.195 NA
ENDROOT
BRANCH   2   4
HETATM    4  N9  UNL     1     -34.780  16.987  -4.499  1.00 20.00     0.107 N 
HETATM    5  C2  UNL     1     -34.582  18.450  -4.496  1.00 20.00     0.284 C 
HETATM    6  C3  UNL     1     -34.449  19.040  -3.097  1.00 20.00     0.104 C 
HETATM    7  S10 UNL     1     -32.983  18.400  -2.256  1.00 20.00    -0.165 SA
HETATM    8  C4  UNL     1     -33.339  16.638  -2.485  1.00 20.00     0.109 C 
HETATM    9  C5  UNL     1     -33.596  16.275  -3.961  1.00 20.00     0.229 C 
HETATM   10  C6  UNL     1     -33.749  14.744  -4.030  1.00 20.00     0.043 C 
ENDBRANCH   2   4
TORSDOF 1
ENDMDL
MODEL 6
REMARK VINA RESULT:      -3.2     11.759     12.994
REMARK  1 active torsions:
REMARK  status: ('A' for Active; 'I' for Inactive)
REMARK    1  A    between atoms: C7_7  and  N9_9 
ROOT
HETATM    1  C1  UNL     1     -35.351  14.105  -5.026  1.00 20.00     0.089 C 
HETATM    2  C7  UNL     1     -34.426  15.003  -5.714  1.00 20.00     0.396 C 
HETATM    3  N8  UNL     1     -36.085  13.389  -4.482  1.00 20.00    -0.195 NA
ENDROOT
BRANCH   2   4
HETATM    4  N9  UNL     1     -34.128  16.179  -4.888  1.00 20.00     0.107 N 
HETATM    5  C2  UNL     1     -33.695  15.720  -3.553  1.00 20.00     0.284 C 
HETATM    6  C3  UNL     1     -33.143  16.841  -2.678  1.00 20.00     0.104 C 
HETATM    7  S10 UNL     1     -34.412  18.078  -2.325  1.00 20.00    -0.165 SA
HETATM    8  C4  UNL     1     -34.901  18.401  -4.039  1.00 20.00     0.109 C 
HETATM    9  C5  UNL     1     -35.277  17.114  -4.799  1.00 20.00     0.229 C 
HETATM   10  C6  UNL     1     -35.796  17.541  -6.184  1.00 20.00     0.043 C 
ENDBRANCH   2   4
TORSDOF 1
ENDMDL
MODEL 7
REMARK VINA RESULT:      -3.1     10.079     11.172
REMARK  1 active torsions:
REMARK  status: ('A' for Active; 'I' for Inactive)
REMARK    1  A    between atoms: C7_7  and  N9_9 
ROOT
HETATM    1  C1  UNL     1     -39.278  12.294   5.586  1.00 20.00     0.089 C 
HETATM    2  C7  UNL     1     -40.639  12.597   6.025  1.00 20.00     0.396 C 
HETATM    3  N8  UNL     1     -38.199  12.050   5.237  1.00 20.00    -0.195 NA
ENDROOT
BRANCH   2   4
HETATM    4  N9  UNL     1     -40.755  14.002   6.434  1.00 20.00     0.107 N 
HETATM    5  C2  UNL     1     -40.513  14.091   7.888  1.00 20.00     0.284 C 
HETATM    6  C3  UNL     1     -40.383  15.524   8.392  1.00 20.00     0.104 C 
HETATM    7  S10 UNL     1     -41.919  16.443   8.147  1.00 20.00    -0.165 SA
HETATM    8  C4  UNL     1     -42.112  16.101   6.379  1.00 20.00     0.109 C 
HETATM    9  C5  UNL     1     -42.062  14.594   6.060  1.00 20.00     0.229 C 
HETATM   10  C6  UNL     1     -42.369  14.438   4.559  1.00 20.00     0.043 C 
ENDBRANCH   2   4
TORSDOF 1
ENDMDL
MODEL 8
REMARK VINA RESULT:      -2.9     12.152     13.740
REMARK  1 active torsions:
REMARK  status: ('A' for Active; 'I' for Inactive)
REMARK    1  A    between atoms: C7_7  and  N9_9 
ROOT
HETATM    1  C1  UNL     1     -36.879  16.129  -6.010  1.00 20.00     0.089 C 
HETATM    2  C7  UNL     1     -35.607  16.440  -6.657  1.00 20.00     0.396 C 
HETATM    3  N8  UNL     1     -37.892  15.882  -5.500  1.00 20.00    -0.195 NA
ENDROOT
BRANCH   2   4
HETATM    4  N9  UNL     1     -34.544  16.619  -5.661  1.00 20.00     0.107 N 
HETATM    5  C2  UNL     1     -34.429  15.379  -4.867  1.00 20.00     0.284 C 
HETATM    6  C3  UNL     1     -33.210  15.359  -3.951  1.00 20.00     0.104 C 
HETATM    7  S10 UNL     1     -33.307  16.667  -2.707  1.00 20.00    -0.165 SA
HETATM    8  C4  UNL     1     -33.582  18.047  -3.847  1.00 20.00     0.109 C 
HETATM    9  C5  UNL     1     -34.772  17.802  -4.796  1.00 20.00     0.229 C 
HETATM   10  C6  UNL     1     -34.976  19.094  -5.610  1.00 20.00     0.043 C 
ENDBRANCH   2   4
TORSDOF 1
ENDMDL
MODEL 9
REMARK VINA RESULT:      -2.9     12.284     13.505
REMARK  1 active torsions:
REMARK  status: ('A' for Active; 'I' for Inactive)
REMARK    1  A    between atoms: C7_7  and  N9_9 
ROOT
HETATM    1  C1  UNL     1     -35.970  19.018  -3.074  1.00 20.00     0.089 C 
HETATM    2  C7  UNL     1     -34.622  19.210  -3.606  1.00 20.00     0.396 C 
HETATM    3  N8  UNL     1     -37.040  18.869  -2.651  1.00 20.00    -0.195 NA
ENDROOT
BRANCH   2   4
HETATM    4  N9  UNL     1     -34.113  17.968  -4.199  1.00 20.00     0.107 N 
HETATM    5  C2  UNL     1     -35.040  17.539  -5.264  1.00 20.00     0.284 C 
HETATM    6  C3  UNL     1     -34.503  16.386  -6.105  1.00 20.00     0.104 C 
HETATM    7  S10 UNL     1     -34.272  14.900  -5.103  1.00 20.00    -0.165 SA
HETATM    8  C4  UNL     1     -33.251  15.653  -3.809  1.00 20.00     0.109 C 
HETATM    9  C5  UNL     1     -33.909  16.901  -3.189  1.00 20.00     0.229 C 
HETATM   10  C6  UNL     1     -33.009  17.356  -2.025  1.00 20.00     0.043 C 
ENDBRANCH   2   4
TORSDOF 1
ENDMDL
