MODEL 1
REMARK VINA RESULT:      -4.4      0.000      0.000
REMARK  2 active torsions:
REMARK  status: ('A' for Active; 'I' for Inactive)
REMARK    1  A    between atoms: C6_6  and  C8_8 
REMARK    2  A    between atoms: C7_7  and  O11_11 
ROOT
HETATM    1  C3  UNL     1     -42.231  13.881   8.601  1.00 20.00     0.058 C 
HETATM    2  C4  UNL     1     -40.134  13.755   7.250  1.00 20.00     0.069 C 
HETATM    3  C5  UNL     1     -42.896  13.004   7.553  1.00 20.00     0.171 C 
HETATM    4  C7  UNL     1     -41.093  14.686   7.986  1.00 20.00     0.123 C 
HETATM    5  C8  UNL     1     -40.857  12.822   6.257  1.00 20.00     0.063 C 
HETATM    6  C9  UNL     1     -41.353  13.584   5.018  1.00 20.00     0.046 C 
HETATM    7  O10 UNL     1     -41.950  12.154   6.907  1.00 20.00    -0.380 OA
ENDROOT
BRANCH   5   8
HETATM    8  C6  UNL     1     -39.895  11.738   5.805  1.00 20.00     0.020 A 
HETATM    9  C1  UNL     1     -39.359  11.739   4.400  1.00 20.00     0.008 A 
HETATM   10  C2  UNL     1     -38.450  12.066   5.551  1.00 20.00     0.008 A 
ENDBRANCH   5   8
BRANCH   4  11
HETATM   11  O11 UNL     1     -40.378  15.372   9.008  1.00 20.00    -0.395 OA
HETATM   12  H27 UNL     1     -40.618  16.309   8.933  1.00 20.00     0.210 HD
ENDBRANCH   4  11
TORSDOF 2
ENDMDL
MODEL 2
REMARK VINA RESULT:      -4.1      1.698      2.170
REMARK  2 active torsions:
REMARK  status: ('A' for Active; 'I' for Inactive)
REMARK    1  A    between atoms: C6_6  and  C8_8 
REMARK    2  A    between atoms: C7_7  and  O11_11 
ROOT
HETATM    1  C3  UNL     1     -41.425  15.661   7.414  1.00 20.00     0.058 C 
HETATM    2  C4  UNL     1     -41.564  14.015   5.540  1.00 20.00     0.069 C 
HETATM    3  C5  UNL     1     -41.212  14.488   8.357  1.00 20.00     0.171 C 
HETATM    4  C7  UNL     1     -42.222  15.229   6.189  1.00 20.00     0.123 C 
HETATM    5  C8  UNL     1     -41.286  12.880   6.546  1.00 20.00     0.063 C 
HETATM    6  C9  UNL     1     -42.582  12.172   6.977  1.00 20.00     0.046 C 
HETATM    7  O10 UNL     1     -40.588  13.390   7.693  1.00 20.00    -0.380 OA
ENDROOT
BRANCH   5   8
HETATM    8  C6  UNL     1     -40.368  11.858   5.901  1.00 20.00     0.020 A 
HETATM    9  C1  UNL     1     -39.700  12.162   4.589  1.00 20.00     0.008 A 
HETATM   10  C2  UNL     1     -38.885  12.099   5.850  1.00 20.00     0.008 A 
ENDBRANCH   5   8
BRANCH   4  11
HETATM   11  O11 UNL     1     -42.270  16.290   5.243  1.00 20.00    -0.395 OA
HETATM   12  H27 UNL     1     -43.142  16.248   4.821  1.00 20.00     0.210 HD
ENDBRANCH   4  11
TORSDOF 2
ENDMDL
MODEL 3
REMARK VINA RESULT:      -4.0     12.928     14.009
REMARK  2 active torsions:
REMARK  status: ('A' for Active; 'I' for Inactive)
REMARK    1  A    between atoms: C6_6  and  C8_8 
REMARK    2  A    between atoms: C7_7  and  O11_11 
ROOT
HETATM    1  C3  UNL     1     -33.512  15.828  -3.593  1.00 20.00     0.058 C 
HETATM    2  C4  UNL     1     -34.769  14.951  -5.566  1.00 20.00     0.069 C 
HETATM    3  C5  UNL     1     -34.063  17.205  -3.921  1.00 20.00     0.171 C 
HETATM    4  C7  UNL     1     -33.422  14.971  -4.850  1.00 20.00     0.123 C 
HETATM    5  C8  UNL     1     -35.335  16.365  -5.804  1.00 20.00     0.063 C 
HETATM    6  C9  UNL     1     -34.559  17.112  -6.903  1.00 20.00     0.046 C 
HETATM    7  O10 UNL     1     -35.324  17.120  -4.582  1.00 20.00    -0.380 OA
ENDROOT
BRANCH   5   8
HETATM    8  C6  UNL     1     -36.788  16.253  -6.230  1.00 20.00     0.020 A 
HETATM    9  C1  UNL     1     -37.883  16.282  -5.200  1.00 20.00     0.008 A 
HETATM   10  C2  UNL     1     -37.698  17.446  -6.133  1.00 20.00     0.008 A 
ENDBRANCH   5   8
BRANCH   4  11
HETATM   11  O11 UNL     1     -33.063  13.638  -4.502  1.00 20.00    -0.395 OA
HETATM   12  H27 UNL     1     -33.451  13.464  -3.630  1.00 20.00     0.210 HD
ENDBRANCH   4  11
TORSDOF 2
ENDMDL
MODEL 4
REMARK VINA RESULT:      -4.0     11.385     12.733
REMARK  2 active torsions:
REMARK  status: ('A' for Active; 'I' for Inactive)
REMARK    1  A    between atoms: C6_6  and  C8_8 
REMARK    2  A    between atoms: C7_7  and  O11_11 
ROOT
HETATM    1  C3  UNL     1     -32.326  18.807   0.516  1.00 20.00     0.058 C 
HETATM    2  C4  UNL     1     -34.326  18.518  -0.952  1.00 20.00     0.069 C 
HETATM    3  C5  UNL     1     -31.459  18.505  -0.695  1.00 20.00     0.171 C 
HETATM    4  C7  UNL     1     -33.689  18.141   0.382  1.00 20.00     0.123 C 
HETATM    5  C8  UNL     1     -33.384  18.277  -2.149  1.00 20.00     0.063 C 
HETATM    6  C9  UNL     1     -33.216  16.778  -2.448  1.00 20.00     0.046 C 
HETATM    7  O10 UNL     1     -32.106  18.886  -1.908  1.00 20.00    -0.380 OA
ENDROOT
BRANCH   5   8
HETATM    8  C6  UNL     1     -33.960  18.954  -3.379  1.00 20.00     0.020 A 
HETATM    9  C1  UNL     1     -33.078  19.263  -4.557  1.00 20.00     0.008 A 
HETATM   10  C2  UNL     1     -34.120  18.185  -4.661  1.00 20.00     0.008 A 
ENDBRANCH   5   8
BRANCH   4  11
HETATM   11  O11 UNL     1     -34.543  18.567   1.438  1.00 20.00    -0.395 OA
HETATM   12  H27 UNL     1     -34.544  19.537   1.421  1.00 20.00     0.210 HD
ENDBRANCH   4  11
TORSDOF 2
ENDMDL
MODEL 5
REMARK VINA RESULT:      -3.9      1.504      2.072
REMARK  2 active torsions:
REMARK  status: ('A' for Active; 'I' for Inactive)
REMARK    1  A    between atoms: C6_6  and  C8_8 
REMARK    2  A    between atoms: C7_7  and  O11_11 
ROOT
HETATM    1  C3  UNL     1     -40.738  15.622   8.580  1.00 20.00     0.058 C 
HETATM    2  C4  UNL     1     -41.375  14.889   6.278  1.00 20.00     0.069 C 
HETATM    3  C5  UNL     1     -40.504  14.160   8.922  1.00 20.00     0.171 C 
HETATM    4  C7  UNL     1     -41.773  15.755   7.470  1.00 20.00     0.123 C 
HETATM    5  C8  UNL     1     -41.062  13.434   6.679  1.00 20.00     0.063 C 
HETATM    6  C9  UNL     1     -42.339  12.658   7.046  1.00 20.00     0.046 C 
HETATM    7  O10 UNL     1     -40.128  13.407   7.770  1.00 20.00    -0.380 OA
ENDROOT
BRANCH   5   8
HETATM    8  C6  UNL     1     -40.387  12.732   5.515  1.00 20.00     0.020 A 
HETATM    9  C1  UNL     1     -38.923  12.394   5.581  1.00 20.00     0.008 A 
HETATM   10  C2  UNL     1     -39.951  11.299   5.647  1.00 20.00     0.008 A 
ENDBRANCH   5   8
BRANCH   4  11
HETATM   11  O11 UNL     1     -41.859  17.112   7.048  1.00 20.00    -0.395 OA
HETATM   12  H27 UNL     1     -41.094  17.273   6.473  1.00 20.00     0.210 HD
ENDBRANCH   4  11
TORSDOF 2
ENDMDL
MODEL 6
REMARK VINA RESULT:      -3.8     12.711     13.888
REMARK  2 active torsions:
REMARK  status: ('A' for Active; 'I' for Inactive)
REMARK    1  A    between atoms: C6_6  and  C8_8 
REMARK    2  A    between atoms: C7_7  and  O11_11 
ROOT
HETATM    1  C3  UNL     1     -34.082  14.588  -3.872  1.00 20.00     0.058 C 
HETATM    2  C4  UNL     1     -36.028  15.143  -5.336  1.00 20.00     0.069 C 
HETATM    3  C5  UNL     1     -33.455  15.905  -4.297  1.00 20.00     0.171 C 
HETATM    4  C7  UNL     1     -35.020  14.064  -4.954  1.00 20.00     0.123 C 
HETATM    5  C8  UNL     1     -35.358  16.489  -5.678  1.00 20.00     0.063 C 
HETATM    6  C9  UNL     1     -34.631  16.436  -7.032  1.00 20.00     0.046 C 
HETATM    7  O10 UNL     1     -34.448  16.872  -4.635  1.00 20.00    -0.380 OA
ENDROOT
BRANCH   5   8
HETATM    8  C6  UNL     1     -36.421  17.571  -5.742  1.00 20.00     0.020 A 
HETATM    9  C1  UNL     1     -37.063  18.077  -4.480  1.00 20.00     0.008 A 
HETATM   10  C2  UNL     1     -36.118  18.958  -5.248  1.00 20.00     0.008 A 
ENDBRANCH   5   8
BRANCH   4  11
HETATM   11  O11 UNL     1     -35.722  12.923  -4.475  1.00 20.00    -0.395 OA
HETATM   12  H27 UNL     1     -36.522  13.253  -4.036  1.00 20.00     0.210 HD
ENDBRANCH   4  11
TORSDOF 2
ENDMDL
MODEL 7
REMARK VINA RESULT:      -3.7     12.899     14.348
REMARK  2 active torsions:
REMARK  status: ('A' for Active; 'I' for Inactive)
REMARK    1  A    between atoms: C6_6  and  C8_8 
REMARK    2  A    between atoms: C7_7  and  O11_11 
ROOT
HETATM    1  C3  UNL     1     -35.276  16.220  -7.537  1.00 20.00     0.058 C 
HETATM    2  C4  UNL     1     -34.970  15.761  -5.101  1.00 20.00     0.069 C 
HETATM    3  C5  UNL     1     -35.084  17.695  -7.228  1.00 20.00     0.171 C 
HETATM    4  C7  UNL     1     -35.837  15.485  -6.325  1.00 20.00     0.123 C 
HETATM    5  C8  UNL     1     -34.728  17.266  -4.871  1.00 20.00     0.063 C 
HETATM    6  C9  UNL     1     -35.993  17.974  -4.357  1.00 20.00     0.046 C 
HETATM    7  O10 UNL     1     -34.261  17.886  -6.079  1.00 20.00    -0.380 OA
ENDROOT
BRANCH   5   8
HETATM    8  C6  UNL     1     -33.625  17.440  -3.842  1.00 20.00     0.020 A 
HETATM    9  C1  UNL     1     -33.965  17.571  -2.383  1.00 20.00     0.008 A 
HETATM   10  C2  UNL     1     -33.296  16.324  -2.890  1.00 20.00     0.008 A 
ENDBRANCH   5   8
BRANCH   4  11
HETATM   11  O11 UNL     1     -35.854  14.084  -6.574  1.00 20.00    -0.395 OA
HETATM   12  H27 UNL     1     -36.626  13.911  -7.135  1.00 20.00     0.210 HD
ENDBRANCH   4  11
TORSDOF 2
ENDMDL
MODEL 8
REMARK VINA RESULT:      -3.6     13.327     14.441
REMARK  2 active torsions:
REMARK  status: ('A' for Active; 'I' for Inactive)
REMARK    1  A    between atoms: C6_6  and  C8_8 
REMARK    2  A    between atoms: C7_7  and  O11_11 
ROOT
HETATM    1  C3  UNL     1     -33.922  15.122  -6.673  1.00 20.00     0.058 C 
HETATM    2  C4  UNL     1     -33.983  16.187  -4.415  1.00 20.00     0.069 C 
HETATM    3  C5  UNL     1     -34.664  16.335  -7.207  1.00 20.00     0.171 C 
HETATM    4  C7  UNL     1     -34.238  14.903  -5.199  1.00 20.00     0.123 C 
HETATM    5  C8  UNL     1     -34.684  17.412  -5.037  1.00 20.00     0.063 C 
HETATM    6  C9  UNL     1     -36.206  17.369  -4.820  1.00 20.00     0.046 C 
HETATM    7  O10 UNL     1     -34.380  17.502  -6.438  1.00 20.00    -0.380 OA
ENDROOT
BRANCH   5   8
HETATM    8  C6  UNL     1     -34.140  18.675  -4.395  1.00 20.00     0.020 A 
HETATM    9  C1  UNL     1     -34.475  19.003  -2.966  1.00 20.00     0.008 A 
HETATM   10  C2  UNL     1     -33.078  18.586  -3.333  1.00 20.00     0.008 A 
ENDBRANCH   5   8
BRANCH   4  11
HETATM   11  O11 UNL     1     -33.413  13.870  -4.674  1.00 20.00    -0.395 OA
HETATM   12  H27 UNL     1     -34.005  13.226  -4.255  1.00 20.00     0.210 HD
ENDBRANCH   4  11
TORSDOF 2
ENDMDL
MODEL 9
REMARK VINA RESULT:      -3.6     11.628     12.640
REMARK  2 active torsions:
REMARK  status: ('A' for Active; 'I' for Inactive)
REMARK    1  A    between atoms: C6_6  and  C8_8 
REMARK    2  A    between atoms: C7_7  and  O11_11 
ROOT
HETATM    1  C3  UNL     1     -32.961  19.140   0.173  1.00 20.00     0.058 C 
HETATM    2  C4  UNL     1     -32.286  17.847  -1.855  1.00 20.00     0.069 C 
HETATM    3  C5  UNL     1     -34.349  19.262  -0.433  1.00 20.00     0.171 C 
HETATM    4  C7  UNL     1     -31.909  18.992  -0.919  1.00 20.00     0.123 C 
HETATM    5  C8  UNL     1     -33.731  17.961  -2.381  1.00 20.00     0.063 C 
HETATM    6  C9  UNL     1     -33.873  19.092  -3.414  1.00 20.00     0.046 C 
HETATM    7  O10 UNL     1     -34.644  18.161  -1.291  1.00 20.00    -0.380 OA
ENDROOT
BRANCH   5   8
HETATM    8  C6  UNL     1     -34.124  16.652  -3.040  1.00 20.00     0.020 A 
HETATM    9  C1  UNL     1     -34.079  16.514  -4.537  1.00 20.00     0.008 A 
HETATM   10  C2  UNL     1     -33.078  15.785  -3.685  1.00 20.00     0.008 A 
ENDBRANCH   5   8
BRANCH   4  11
HETATM   11  O11 UNL     1     -30.641  18.713  -0.335  1.00 20.00    -0.395 OA
HETATM   12  H27 UNL     1     -30.781  18.001   0.308  1.00 20.00     0.210 HD
ENDBRANCH   4  11
TORSDOF 2
ENDMDL
