MODEL 1
REMARK VINA RESULT:      -3.5      0.000      0.000
REMARK  1 active torsions:
REMARK  status: ('A' for Active; 'I' for Inactive)
REMARK    1  A    between atoms: C4_4  and  S9_9 
ROOT
HETATM    1  C1  UNL     1     -32.758   7.074   3.039  1.00 20.00     0.041 C 
HETATM    2  C2  UNL     1     -33.809   7.207   5.311  1.00 20.00     0.052 C 
HETATM    3  C3  UNL     1     -33.105   5.589   2.958  1.00 20.00     0.170 C 
HETATM    4  C4  UNL     1     -32.552   7.500   4.486  1.00 20.00     0.049 C 
HETATM    5  C5  UNL     1     -34.455   5.846   4.950  1.00 20.00     0.054 C 
HETATM    6  C6  UNL     1     -35.775   6.028   4.184  1.00 20.00     0.045 C 
HETATM    7  C7  UNL     1     -34.752   5.059   6.234  1.00 20.00     0.045 C 
HETATM    8  O8  UNL     1     -33.544   5.036   4.197  1.00 20.00    -0.381 OA
ENDROOT
BRANCH   4   9
HETATM    9  S9  UNL     1     -32.123   9.269   4.584  1.00 20.00    -0.177 SA
HETATM   10  H23 UNL     1     -31.287   9.147   5.622  1.00 20.00     0.102 HD
ENDBRANCH   4   9
TORSDOF 1
ENDMDL
MODEL 2
REMARK VINA RESULT:      -3.5     15.746     16.490
REMARK  1 active torsions:
REMARK  status: ('A' for Active; 'I' for Inactive)
REMARK    1  A    between atoms: C4_4  and  S9_9 
ROOT
HETATM    1  C1  UNL     1     -23.543  19.262   8.908  1.00 20.00     0.041 C 
HETATM    2  C2  UNL     1     -22.708  17.282  10.197  1.00 20.00     0.052 C 
HETATM    3  C3  UNL     1     -24.857  19.222   9.684  1.00 20.00     0.170 C 
HETATM    4  C4  UNL     1     -22.938  17.869   8.801  1.00 20.00     0.049 C 
HETATM    5  C5  UNL     1     -23.871  17.590  11.173  1.00 20.00     0.054 C 
HETATM    6  C6  UNL     1     -23.463  18.621  12.237  1.00 20.00     0.045 C 
HETATM    7  C7  UNL     1     -24.295  16.302  11.893  1.00 20.00     0.045 C 
HETATM    8  O8  UNL     1     -25.029  18.037  10.457  1.00 20.00    -0.381 OA
ENDROOT
BRANCH   4   9
HETATM    9  S9  UNL     1     -21.377  17.912   7.862  1.00 20.00    -0.177 SA
HETATM   10  H23 UNL     1     -20.614  17.428   8.849  1.00 20.00     0.102 HD
ENDBRANCH   4   9
TORSDOF 1
ENDMDL
MODEL 3
REMARK VINA RESULT:      -3.4     16.033     17.129
REMARK  1 active torsions:
REMARK  status: ('A' for Active; 'I' for Inactive)
REMARK    1  A    between atoms: C4_4  and  S9_9 
ROOT
HETATM    1  C1  UNL     1     -23.265  18.385  12.301  1.00 20.00     0.041 C 
HETATM    2  C2  UNL     1     -23.660  17.101  10.185  1.00 20.00     0.052 C 
HETATM    3  C3  UNL     1     -21.888  18.809  11.794  1.00 20.00     0.170 C 
HETATM    4  C4  UNL     1     -23.662  17.037  11.716  1.00 20.00     0.049 C 
HETATM    5  C5  UNL     1     -22.465  17.910   9.623  1.00 20.00     0.054 C 
HETATM    6  C6  UNL     1     -22.914  19.261   9.043  1.00 20.00     0.045 C 
HETATM    7  C7  UNL     1     -21.783  17.112   8.503  1.00 20.00     0.045 C 
HETATM    8  O8  UNL     1     -21.464  18.102  10.631  1.00 20.00    -0.381 OA
ENDROOT
BRANCH   4   9
HETATM    9  S9  UNL     1     -25.298  16.522  12.331  1.00 20.00    -0.177 SA
HETATM   10  H23 UNL     1     -24.988  16.615  13.630  1.00 20.00     0.102 HD
ENDBRANCH   4   9
TORSDOF 1
ENDMDL
MODEL 4
REMARK VINA RESULT:      -3.2     12.494     13.674
REMARK  1 active torsions:
REMARK  status: ('A' for Active; 'I' for Inactive)
REMARK    1  A    between atoms: C4_4  and  S9_9 
ROOT
HETATM    1  C1  UNL     1     -33.224  15.748  -3.768  1.00 20.00     0.041 C 
HETATM    2  C2  UNL     1     -34.579  17.135  -5.355  1.00 20.00     0.052 C 
HETATM    3  C3  UNL     1     -33.977  14.494  -4.210  1.00 20.00     0.170 C 
HETATM    4  C4  UNL     1     -34.105  16.981  -3.906  1.00 20.00     0.049 C 
HETATM    5  C5  UNL     1     -34.968  15.783  -6.002  1.00 20.00     0.054 C 
HETATM    6  C6  UNL     1     -33.942  15.341  -7.057  1.00 20.00     0.045 C 
HETATM    7  C7  UNL     1     -36.334  15.914  -6.690  1.00 20.00     0.045 C 
HETATM    8  O8  UNL     1     -35.130  14.770  -5.002  1.00 20.00    -0.381 OA
ENDROOT
BRANCH   4   9
HETATM    9  S9  UNL     1     -33.214  18.477  -3.364  1.00 20.00    -0.177 SA
HETATM   10  H23 UNL     1     -33.914  19.330  -4.121  1.00 20.00     0.102 HD
ENDBRANCH   4   9
TORSDOF 1
ENDMDL
MODEL 5
REMARK VINA RESULT:      -3.2     12.630     13.451
REMARK  1 active torsions:
REMARK  status: ('A' for Active; 'I' for Inactive)
REMARK    1  A    between atoms: C4_4  and  S9_9 
ROOT
HETATM    1  C1  UNL     1     -33.327  18.514   1.082  1.00 20.00     0.041 C 
HETATM    2  C2  UNL     1     -31.666  18.511  -0.795  1.00 20.00     0.052 C 
HETATM    3  C3  UNL     1     -34.443  18.873   0.102  1.00 20.00     0.170 C 
HETATM    4  C4  UNL     1     -31.991  19.059   0.598  1.00 20.00     0.049 C 
HETATM    5  C5  UNL     1     -32.906  18.463  -1.721  1.00 20.00     0.054 C 
HETATM    6  C6  UNL     1     -33.380  17.022  -1.964  1.00 20.00     0.045 C 
HETATM    7  C7  UNL     1     -32.559  19.087  -3.081  1.00 20.00     0.045 C 
HETATM    8  O8  UNL     1     -33.970  19.260  -1.186  1.00 20.00    -0.381 OA
ENDROOT
BRANCH   4   9
HETATM    9  S9  UNL     1     -30.660  18.645   1.773  1.00 20.00    -0.177 SA
HETATM   10  H23 UNL     1     -29.755  19.480   1.249  1.00 20.00     0.102 HD
ENDBRANCH   4   9
TORSDOF 1
ENDMDL
MODEL 6
REMARK VINA RESULT:      -3.1     15.881     16.671
REMARK  1 active torsions:
REMARK  status: ('A' for Active; 'I' for Inactive)
REMARK    1  A    between atoms: C4_4  and  S9_9 
ROOT
HETATM    1  C1  UNL     1     -22.555  18.229   8.778  1.00 20.00     0.041 C 
HETATM    2  C2  UNL     1     -24.782  18.720   9.817  1.00 20.00     0.052 C 
HETATM    3  C3  UNL     1     -21.915  18.165  10.164  1.00 20.00     0.170 C 
HETATM    4  C4  UNL     1     -23.749  19.172   8.780  1.00 20.00     0.049 C 
HETATM    5  C5  UNL     1     -24.131  18.233  11.135  1.00 20.00     0.054 C 
HETATM    6  C6  UNL     1     -24.244  16.708  11.296  1.00 20.00     0.045 C 
HETATM    7  C7  UNL     1     -24.830  18.893  12.332  1.00 20.00     0.045 C 
HETATM    8  O8  UNL     1     -22.760  18.646  11.206  1.00 20.00    -0.381 OA
ENDROOT
BRANCH   4   9
HETATM    9  S9  UNL     1     -24.505  19.263   7.124  1.00 20.00    -0.177 SA
HETATM   10  H23 UNL     1     -24.338  20.582   6.973  1.00 20.00     0.102 HD
ENDBRANCH   4   9
TORSDOF 1
ENDMDL
MODEL 7
REMARK VINA RESULT:      -3.1     12.617     13.519
REMARK  1 active torsions:
REMARK  status: ('A' for Active; 'I' for Inactive)
REMARK    1  A    between atoms: C4_4  and  S9_9 
ROOT
HETATM    1  C1  UNL     1     -34.273  17.467  -4.540  1.00 20.00     0.041 C 
HETATM    2  C2  UNL     1     -33.290  16.616  -2.398  1.00 20.00     0.052 C 
HETATM    3  C3  UNL     1     -34.922  18.628  -3.789  1.00 20.00     0.170 C 
HETATM    4  C4  UNL     1     -34.123  16.255  -3.632  1.00 20.00     0.049 C 
HETATM    5  C5  UNL     1     -33.635  18.016  -1.833  1.00 20.00     0.054 C 
HETATM    6  C6  UNL     1     -32.512  19.030  -2.100  1.00 20.00     0.045 C 
HETATM    7  C7  UNL     1     -33.844  17.923  -0.315  1.00 20.00     0.045 C 
HETATM    8  O8  UNL     1     -34.877  18.487  -2.371  1.00 20.00    -0.381 OA
ENDROOT
BRANCH   4   9
HETATM    9  S9  UNL     1     -33.363  14.863  -4.531  1.00 20.00    -0.177 SA
HETATM   10  H23 UNL     1     -34.122  14.983  -5.627  1.00 20.00     0.102 HD
ENDBRANCH   4   9
TORSDOF 1
ENDMDL
MODEL 8
REMARK VINA RESULT:      -3.0     10.877     11.650
REMARK  1 active torsions:
REMARK  status: ('A' for Active; 'I' for Inactive)
REMARK    1  A    between atoms: C4_4  and  S9_9 
ROOT
HETATM    1  C1  UNL     1     -40.559  15.564   7.544  1.00 20.00     0.041 C 
HETATM    2  C2  UNL     1     -42.442  14.430   6.340  1.00 20.00     0.052 C 
HETATM    3  C3  UNL     1     -40.367  14.329   8.422  1.00 20.00     0.170 C 
HETATM    4  C4  UNL     1     -42.009  15.688   7.099  1.00 20.00     0.049 C 
HETATM    5  C5  UNL     1     -41.898  13.130   6.981  1.00 20.00     0.054 C 
HETATM    6  C6  UNL     1     -40.791  12.493   6.125  1.00 20.00     0.045 C 
HETATM    7  C7  UNL     1     -43.036  12.110   7.126  1.00 20.00     0.045 C 
HETATM    8  O8  UNL     1     -41.425  13.379   8.310  1.00 20.00    -0.381 OA
ENDROOT
BRANCH   4   9
HETATM    9  S9  UNL     1     -42.244  17.171   6.065  1.00 20.00    -0.177 SA
HETATM   10  H23 UNL     1     -42.088  16.542   4.893  1.00 20.00     0.102 HD
ENDBRANCH   4   9
TORSDOF 1
ENDMDL
MODEL 9
REMARK VINA RESULT:      -2.9     13.275     14.292
REMARK  1 active torsions:
REMARK  status: ('A' for Active; 'I' for Inactive)
REMARK    1  A    between atoms: C4_4  and  S9_9 
ROOT
HETATM    1  C1  UNL     1     -34.969  17.011  -7.483  1.00 20.00     0.041 C 
HETATM    2  C2  UNL     1     -34.877  16.670  -5.002  1.00 20.00     0.052 C 
HETATM    3  C3  UNL     1     -34.340  15.636  -7.702  1.00 20.00     0.170 C 
HETATM    4  C4  UNL     1     -34.514  17.607  -6.158  1.00 20.00     0.049 C 
HETATM    5  C5  UNL     1     -34.641  15.179  -5.345  1.00 20.00     0.054 C 
HETATM    6  C6  UNL     1     -35.966  14.421  -5.532  1.00 20.00     0.045 C 
HETATM    7  C7  UNL     1     -33.862  14.504  -4.207  1.00 20.00     0.045 C 
HETATM    8  O8  UNL     1     -33.819  15.051  -6.511  1.00 20.00    -0.381 OA
ENDROOT
BRANCH   4   9
HETATM    9  S9  UNL     1     -35.251  19.254  -5.902  1.00 20.00    -0.177 SA
HETATM   10  H23 UNL     1     -36.420  18.970  -6.490  1.00 20.00     0.102 HD
ENDBRANCH   4   9
TORSDOF 1
ENDMDL
