MODEL 1
REMARK VINA RESULT:      -3.5      0.000      0.000
REMARK  2 active torsions:
REMARK  status: ('A' for Active; 'I' for Inactive)
REMARK    1  A    between atoms: C5_5  and  C8_8 
REMARK    2  A    between atoms: C5_5  and  C9_9 
ROOT
HETATM    1  C1  UNL     1     -41.127  14.773   9.308  1.00 20.00     0.046 C 
HETATM    2  C2  UNL     1     -40.250  14.381   6.984  1.00 20.00     0.058 C 
HETATM    3  C3  UNL     1     -42.295  13.867   8.946  1.00 20.00     0.170 C 
HETATM    4  C4  UNL     1     -40.504  15.423   8.077  1.00 20.00     0.087 C 
HETATM    5  C5  UNL     1     -41.398  13.370   6.758  1.00 20.00     0.061 C 
HETATM    6  O10 UNL     1     -41.898  12.871   8.008  1.00 20.00    -0.380 OA
HETATM    7 CL11 UNL     1     -41.522  16.767   7.483  1.00 20.00    -0.125 Cl
ENDROOT
BRANCH   5   8
HETATM    8  C8  UNL     1     -42.545  13.928   5.904  1.00 20.00     0.033 C 
HETATM    9  C6  UNL     1     -42.074  14.309   4.543  1.00 20.00     0.008 C 
ENDBRANCH   5   8
BRANCH   5  10
HETATM   10  C9  UNL     1     -40.831  12.144   6.021  1.00 20.00     0.033 C 
HETATM   11  C7  UNL     1     -39.341  12.156   6.012  1.00 20.00     0.008 C 
ENDBRANCH   5  10
TORSDOF 2
ENDMDL
MODEL 2
REMARK VINA RESULT:      -3.5      1.300      1.808
REMARK  2 active torsions:
REMARK  status: ('A' for Active; 'I' for Inactive)
REMARK    1  A    between atoms: C5_5  and  C8_8 
REMARK    2  A    between atoms: C5_5  and  C9_9 
ROOT
HETATM    1  C1  UNL     1     -40.286  15.910   8.418  1.00 20.00     0.046 C 
HETATM    2  C2  UNL     1     -41.486  14.872   6.466  1.00 20.00     0.058 C 
HETATM    3  C3  UNL     1     -40.431  14.573   9.129  1.00 20.00     0.170 C 
HETATM    4  C4  UNL     1     -41.363  16.113   7.356  1.00 20.00     0.087 C 
HETATM    5  C5  UNL     1     -41.461  13.520   7.214  1.00 20.00     0.061 C 
HETATM    6  O10 UNL     1     -40.416  13.495   8.198  1.00 20.00    -0.380 OA
HETATM    7 CL11 UNL     1     -42.926  16.541   8.109  1.00 20.00    -0.125 Cl
ENDROOT
BRANCH   5   8
HETATM    8  C8  UNL     1     -42.808  13.148   7.850  1.00 20.00     0.033 C 
HETATM    9  C6  UNL     1     -43.313  11.845   7.331  1.00 20.00     0.008 C 
ENDBRANCH   5   8
BRANCH   5  10
HETATM   10  C9  UNL     1     -41.107  12.412   6.207  1.00 20.00     0.033 C 
HETATM   11  C7  UNL     1     -39.632  12.266   6.055  1.00 20.00     0.008 C 
ENDBRANCH   5  10
TORSDOF 2
ENDMDL
MODEL 3
REMARK VINA RESULT:      -3.3     12.060     13.023
REMARK  2 active torsions:
REMARK  status: ('A' for Active; 'I' for Inactive)
REMARK    1  A    between atoms: C5_5  and  C8_8 
REMARK    2  A    between atoms: C5_5  and  C9_9 
ROOT
HETATM    1  C1  UNL     1     -34.411  18.482  -0.368  1.00 20.00     0.046 C 
HETATM    2  C2  UNL     1     -33.222  17.021  -2.033  1.00 20.00     0.058 C 
HETATM    3  C3  UNL     1     -34.963  19.263  -1.552  1.00 20.00     0.170 C 
HETATM    4  C4  UNL     1     -33.101  17.778  -0.708  1.00 20.00     0.087 C 
HETATM    5  C5  UNL     1     -33.940  17.787  -3.168  1.00 20.00     0.061 C 
HETATM    6  O10 UNL     1     -35.135  18.418  -2.685  1.00 20.00    -0.380 OA
HETATM    7 CL11 UNL     1     -31.743  18.939  -0.734  1.00 20.00    -0.125 Cl
ENDROOT
BRANCH   5   8
HETATM    8  C8  UNL     1     -33.042  18.809  -3.880  1.00 20.00     0.033 C 
HETATM    9  C6  UNL     1     -33.646  19.261  -5.165  1.00 20.00     0.008 C 
ENDBRANCH   5   8
BRANCH   5  10
HETATM   10  C9  UNL     1     -34.407  16.771  -4.224  1.00 20.00     0.033 C 
HETATM   11  C7  UNL     1     -33.678  15.478  -4.095  1.00 20.00     0.008 C 
ENDBRANCH   5  10
TORSDOF 2
ENDMDL
MODEL 4
REMARK VINA RESULT:      -3.1     17.550     18.542
REMARK  2 active torsions:
REMARK  status: ('A' for Active; 'I' for Inactive)
REMARK    1  A    between atoms: C5_5  and  C8_8 
REMARK    2  A    between atoms: C5_5  and  C9_9 
ROOT
HETATM    1  C1  UNL     1     -25.455  17.018  12.231  1.00 20.00     0.046 C 
HETATM    2  C2  UNL     1     -23.871  18.947  11.930  1.00 20.00     0.058 C 
HETATM    3  C3  UNL     1     -24.785  16.370  11.029  1.00 20.00     0.170 C 
HETATM    4  C4  UNL     1     -25.319  18.537  12.213  1.00 20.00     0.087 C 
HETATM    5  C5  UNL     1     -23.166  18.150  10.809  1.00 20.00     0.061 C 
HETATM    6  O10 UNL     1     -23.413  16.743  10.946  1.00 20.00    -0.380 OA
HETATM    7 CL11 UNL     1     -26.451  19.263  11.035  1.00 20.00    -0.125 Cl
ENDROOT
BRANCH   5   8
HETATM    8  C8  UNL     1     -23.534  18.626   9.396  1.00 20.00     0.033 C 
HETATM    9  C6  UNL     1     -22.470  18.280   8.412  1.00 20.00     0.008 C 
ENDBRANCH   5   8
BRANCH   5  10
HETATM   10  C9  UNL     1     -21.646  18.321  10.970  1.00 20.00     0.033 C 
HETATM   11  C7  UNL     1     -21.295  18.820  12.329  1.00 20.00     0.008 C 
ENDBRANCH   5  10
TORSDOF 2
ENDMDL
MODEL 5
REMARK VINA RESULT:      -3.1      1.615      3.580
REMARK  2 active torsions:
REMARK  status: ('A' for Active; 'I' for Inactive)
REMARK    1  A    between atoms: C5_5  and  C8_8 
REMARK    2  A    between atoms: C5_5  and  C9_9 
ROOT
HETATM    1  C1  UNL     1     -41.806  12.532   6.473  1.00 20.00     0.046 C 
HETATM    2  C2  UNL     1     -42.261  14.199   8.300  1.00 20.00     0.058 C 
HETATM    3  C3  UNL     1     -40.350  12.969   6.532  1.00 20.00     0.170 C 
HETATM    4  C4  UNL     1     -42.752  13.622   6.969  1.00 20.00     0.087 C 
HETATM    5  C5  UNL     1     -40.743  14.476   8.379  1.00 20.00     0.061 C 
HETATM    6  O10 UNL     1     -39.991  13.374   7.849  1.00 20.00    -0.380 OA
HETATM    7 CL11 UNL     1     -42.956  14.897   5.733  1.00 20.00    -0.125 Cl
ENDROOT
BRANCH   5   8
HETATM    8  C8  UNL     1     -40.324  15.789   7.701  1.00 20.00     0.033 C 
HETATM    9  C6  UNL     1     -41.079  16.949   8.252  1.00 20.00     0.008 C 
ENDBRANCH   5   8
BRANCH   5  10
HETATM   10  C9  UNL     1     -40.341  14.575   9.861  1.00 20.00     0.033 C 
HETATM   11  C7  UNL     1     -41.437  14.103  10.754  1.00 20.00     0.008 C 
ENDBRANCH   5  10
TORSDOF 2
ENDMDL
MODEL 6
REMARK VINA RESULT:      -3.1     12.912     14.283
REMARK  2 active torsions:
REMARK  status: ('A' for Active; 'I' for Inactive)
REMARK    1  A    between atoms: C5_5  and  C8_8 
REMARK    2  A    between atoms: C5_5  and  C9_9 
ROOT
HETATM    1  C1  UNL     1     -33.931  14.747  -4.232  1.00 20.00     0.046 C 
HETATM    2  C2  UNL     1     -35.720  16.186  -5.257  1.00 20.00     0.058 C 
HETATM    3  C3  UNL     1     -33.280  16.030  -3.737  1.00 20.00     0.170 C 
HETATM    4  C4  UNL     1     -34.796  14.983  -5.467  1.00 20.00     0.087 C 
HETATM    5  C5  UNL     1     -35.061  17.418  -4.596  1.00 20.00     0.061 C 
HETATM    6  O10 UNL     1     -34.258  17.030  -3.471  1.00 20.00    -0.380 OA
HETATM    7 CL11 UNL     1     -33.782  15.179  -6.926  1.00 20.00    -0.125 Cl
ENDROOT
BRANCH   5   8
HETATM    8  C8  UNL     1     -34.240  18.270  -5.574  1.00 20.00     0.033 C 
HETATM    9  C6  UNL     1     -35.040  18.640  -6.776  1.00 20.00     0.008 C 
ENDBRANCH   5   8
BRANCH   5  10
HETATM   10  C9  UNL     1     -36.170  18.316  -4.022  1.00 20.00     0.033 C 
HETATM   11  C7  UNL     1     -35.804  18.839  -2.675  1.00 20.00     0.008 C 
ENDBRANCH   5  10
TORSDOF 2
ENDMDL
MODEL 7
REMARK VINA RESULT:      -2.9     13.352     14.457
REMARK  2 active torsions:
REMARK  status: ('A' for Active; 'I' for Inactive)
REMARK    1  A    between atoms: C5_5  and  C8_8 
REMARK    2  A    between atoms: C5_5  and  C9_9 
ROOT
HETATM    1  C1  UNL     1     -34.173  15.407  -6.801  1.00 20.00     0.046 C 
HETATM    2  C2  UNL     1     -34.014  15.764  -4.317  1.00 20.00     0.058 C 
HETATM    3  C3  UNL     1     -34.623  16.856  -6.910  1.00 20.00     0.170 C 
HETATM    4  C4  UNL     1     -34.475  14.816  -5.428  1.00 20.00     0.087 C 
HETATM    5  C5  UNL     1     -34.345  17.257  -4.544  1.00 20.00     0.061 C 
HETATM    6  O10 UNL     1     -34.033  17.653  -5.888  1.00 20.00    -0.380 OA
HETATM    7 CL11 UNL     1     -36.211  14.417  -5.275  1.00 20.00    -0.125 Cl
ENDROOT
BRANCH   5   8
HETATM    8  C8  UNL     1     -35.796  17.621  -4.198  1.00 20.00     0.033 C 
HETATM    9  C6  UNL     1     -36.007  19.096  -4.230  1.00 20.00     0.008 C 
ENDBRANCH   5   8
BRANCH   5  10
HETATM   10  C9  UNL     1     -33.430  18.102  -3.641  1.00 20.00     0.033 C 
HETATM   11  C7  UNL     1     -33.185  17.431  -2.334  1.00 20.00     0.008 C 
ENDBRANCH   5  10
TORSDOF 2
ENDMDL
MODEL 8
REMARK VINA RESULT:      -2.9     13.386     14.650
REMARK  2 active torsions:
REMARK  status: ('A' for Active; 'I' for Inactive)
REMARK    1  A    between atoms: C5_5  and  C8_8 
REMARK    2  A    between atoms: C5_5  and  C9_9 
ROOT
HETATM    1  C1  UNL     1     -35.797  16.895  -7.714  1.00 20.00     0.046 C 
HETATM    2  C2  UNL     1     -36.187  16.107  -5.359  1.00 20.00     0.058 C 
HETATM    3  C3  UNL     1     -34.311  16.676  -7.468  1.00 20.00     0.170 C 
HETATM    4  C4  UNL     1     -36.561  17.148  -6.419  1.00 20.00     0.087 C 
HETATM    5  C5  UNL     1     -34.679  15.787  -5.252  1.00 20.00     0.061 C 
HETATM    6  O10 UNL     1     -34.098  15.606  -6.552  1.00 20.00    -0.380 OA
HETATM    7 CL11 UNL     1     -36.286  18.813  -5.831  1.00 20.00    -0.125 Cl
ENDROOT
BRANCH   5   8
HETATM    8  C8  UNL     1     -33.887  16.829  -4.449  1.00 20.00     0.033 C 
HETATM    9  C6  UNL     1     -33.447  16.283  -3.135  1.00 20.00     0.008 C 
ENDBRANCH   5   8
BRANCH   5  10
HETATM   10  C9  UNL     1     -34.516  14.435  -4.536  1.00 20.00     0.033 C 
HETATM   11  C7  UNL     1     -35.764  13.625  -4.613  1.00 20.00     0.008 C 
ENDBRANCH   5  10
TORSDOF 2
ENDMDL
MODEL 9
REMARK VINA RESULT:      -2.9     13.283     14.229
REMARK  2 active torsions:
REMARK  status: ('A' for Active; 'I' for Inactive)
REMARK    1  A    between atoms: C5_5  and  C8_8 
REMARK    2  A    between atoms: C5_5  and  C9_9 
ROOT
HETATM    1  C1  UNL     1     -33.274  16.384  -3.672  1.00 20.00     0.046 C 
HETATM    2  C2  UNL     1     -34.509  17.262  -5.679  1.00 20.00     0.058 C 
HETATM    3  C3  UNL     1     -34.042  15.083  -3.856  1.00 20.00     0.170 C 
HETATM    4  C4  UNL     1     -34.020  17.577  -4.262  1.00 20.00     0.087 C 
HETATM    5  C5  UNL     1     -35.135  15.861  -5.865  1.00 20.00     0.061 C 
HETATM    6  O10 UNL     1     -34.336  14.853  -5.230  1.00 20.00    -0.380 OA
HETATM    7 CL11 UNL     1     -35.365  18.077  -3.197  1.00 20.00    -0.125 Cl
ENDROOT
BRANCH   5   8
HETATM    8  C8  UNL     1     -36.591  15.774  -5.386  1.00 20.00     0.033 C 
HETATM    9  C6  UNL     1     -37.431  16.840  -6.002  1.00 20.00     0.008 C 
ENDBRANCH   5   8
BRANCH   5  10
HETATM   10  C9  UNL     1     -35.123  15.516  -7.364  1.00 20.00     0.033 C 
HETATM   11  C7  UNL     1     -33.740  15.547  -7.918  1.00 20.00     0.008 C 
ENDBRANCH   5  10
TORSDOF 2
ENDMDL
