MODEL 1
REMARK VINA RESULT:      -4.2      0.000      0.000
REMARK  2 active torsions:
REMARK  status: ('A' for Active; 'I' for Inactive)
REMARK    1  A    between atoms: C5_5  and  C8_8 
REMARK    2  A    between atoms: C8_8  and  C9_9 
ROOT
HETATM    1  C1  UNL     1     -32.315  19.014   0.790  1.00 20.00     0.046 C 
HETATM    2  C2  UNL     1     -34.185  18.855  -0.868  1.00 20.00     0.052 C 
HETATM    3  C3  UNL     1     -31.388  18.468  -0.286  1.00 20.00     0.169 C 
HETATM    4  C4  UNL     1     -33.739  18.523   0.555  1.00 20.00     0.086 C 
HETATM    5  C5  UNL     1     -33.166  18.384  -1.911  1.00 20.00     0.123 C 
HETATM    6  O10 UNL     1     -31.839  18.820  -1.593  1.00 20.00    -0.386 OA
HETATM    7 CL11 UNL     1     -34.851  19.263   1.739  1.00 20.00    -0.125 Cl
ENDROOT
BRANCH   5   8
HETATM    8  C8  UNL     1     -33.211  16.902  -2.167  1.00 20.00     0.035 C 
BRANCH   8   9
HETATM    9  C9  UNL     1     -33.264  16.538  -3.661  1.00 20.00    -0.020 C 
HETATM   10  C6  UNL     1     -33.610  15.067  -3.891  1.00 20.00     0.009 C 
HETATM   11  C7  UNL     1     -34.285  17.428  -4.375  1.00 20.00     0.009 C 
ENDBRANCH   8   9
ENDBRANCH   5   8
TORSDOF 2
ENDMDL
MODEL 2
REMARK VINA RESULT:      -3.8      2.855      4.947
REMARK  2 active torsions:
REMARK  status: ('A' for Active; 'I' for Inactive)
REMARK    1  A    between atoms: C5_5  and  C8_8 
REMARK    2  A    between atoms: C8_8  and  C9_9 
ROOT
HETATM    1  C1  UNL     1     -34.639  17.413  -5.267  1.00 20.00     0.046 C 
HETATM    2  C2  UNL     1     -33.266  15.894  -3.825  1.00 20.00     0.052 C 
HETATM    3  C3  UNL     1     -34.288  18.546  -4.314  1.00 20.00     0.169 C 
HETATM    4  C4  UNL     1     -34.609  16.079  -4.530  1.00 20.00     0.086 C 
HETATM    5  C5  UNL     1     -32.902  17.108  -2.963  1.00 20.00     0.123 C 
HETATM    6  O10 UNL     1     -33.020  18.335  -3.694  1.00 20.00    -0.386 OA
HETATM    7 CL11 UNL     1     -34.894  14.737  -5.672  1.00 20.00    -0.125 Cl
ENDROOT
BRANCH   5   8
HETATM    8  C8  UNL     1     -33.658  17.170  -1.664  1.00 20.00     0.035 C 
BRANCH   8   9
HETATM    9  C9  UNL     1     -33.235  18.343  -0.763  1.00 20.00    -0.020 C 
HETATM   10  C6  UNL     1     -33.915  18.302   0.606  1.00 20.00     0.009 C 
HETATM   11  C7  UNL     1     -31.715  18.339  -0.585  1.00 20.00     0.009 C 
ENDBRANCH   8   9
ENDBRANCH   5   8
TORSDOF 2
ENDMDL
MODEL 3
REMARK VINA RESULT:      -3.8     10.944     12.071
REMARK  2 active torsions:
REMARK  status: ('A' for Active; 'I' for Inactive)
REMARK    1  A    between atoms: C5_5  and  C8_8 
REMARK    2  A    between atoms: C8_8  and  C9_9 
ROOT
HETATM    1  C1  UNL     1     -43.238  14.568   7.151  1.00 20.00     0.046 C 
HETATM    2  C2  UNL     1     -40.740  14.664   7.001  1.00 20.00     0.052 C 
HETATM    3  C3  UNL     1     -43.149  13.097   6.769  1.00 20.00     0.169 C 
HETATM    4  C4  UNL     1     -42.048  15.331   6.579  1.00 20.00     0.086 C 
HETATM    5  C5  UNL     1     -40.740  13.162   6.697  1.00 20.00     0.123 C 
HETATM    6  O10 UNL     1     -41.918  12.518   7.199  1.00 20.00    -0.386 OA
HETATM    7 CL11 UNL     1     -42.081  17.028   7.131  1.00 20.00    -0.125 Cl
ENDROOT
BRANCH   5   8
HETATM    8  C8  UNL     1     -40.518  12.843   5.244  1.00 20.00     0.035 C 
BRANCH   8   9
HETATM    9  C9  UNL     1     -39.420  11.791   5.007  1.00 20.00    -0.020 C 
HETATM   10  C6  UNL     1     -39.003  11.704   3.539  1.00 20.00     0.009 C 
HETATM   11  C7  UNL     1     -38.200  12.112   5.874  1.00 20.00     0.009 C 
ENDBRANCH   8   9
ENDBRANCH   5   8
TORSDOF 2
ENDMDL
MODEL 4
REMARK VINA RESULT:      -3.8      2.101      2.810
REMARK  2 active torsions:
REMARK  status: ('A' for Active; 'I' for Inactive)
REMARK    1  A    between atoms: C5_5  and  C8_8 
REMARK    2  A    between atoms: C8_8  and  C9_9 
ROOT
HETATM    1  C1  UNL     1     -32.763  19.240  -2.526  1.00 20.00     0.046 C 
HETATM    2  C2  UNL     1     -33.577  16.992  -1.782  1.00 20.00     0.052 C 
HETATM    3  C3  UNL     1     -33.069  18.817  -3.955  1.00 20.00     0.169 C 
HETATM    4  C4  UNL     1     -32.450  18.017  -1.672  1.00 20.00     0.086 C 
HETATM    5  C5  UNL     1     -33.926  16.680  -3.242  1.00 20.00     0.123 C 
HETATM    6  O10 UNL     1     -34.138  17.874  -4.005  1.00 20.00    -0.386 OA
HETATM    7 CL11 UNL     1     -32.217  18.496   0.031  1.00 20.00    -0.125 Cl
ENDROOT
BRANCH   5   8
HETATM    8  C8  UNL     1     -32.935  15.769  -3.913  1.00 20.00     0.035 C 
BRANCH   8   9
HETATM    9  C9  UNL     1     -33.591  14.679  -4.778  1.00 20.00    -0.020 C 
HETATM   10  C6  UNL     1     -34.874  14.131  -4.153  1.00 20.00     0.009 C 
HETATM   11  C7  UNL     1     -33.892  15.235  -6.172  1.00 20.00     0.009 C 
ENDBRANCH   8   9
ENDBRANCH   5   8
TORSDOF 2
ENDMDL
MODEL 5
REMARK VINA RESULT:      -3.7      2.541      4.647
REMARK  2 active torsions:
REMARK  status: ('A' for Active; 'I' for Inactive)
REMARK    1  A    between atoms: C5_5  and  C8_8 
REMARK    2  A    between atoms: C8_8  and  C9_9 
ROOT
HETATM    1  C1  UNL     1     -34.134  16.525  -4.555  1.00 20.00     0.046 C 
HETATM    2  C2  UNL     1     -34.821  18.276  -2.902  1.00 20.00     0.052 C 
HETATM    3  C3  UNL     1     -33.150  16.008  -3.516  1.00 20.00     0.169 C 
HETATM    4  C4  UNL     1     -34.388  18.013  -4.343  1.00 20.00     0.086 C 
HETATM    5  C5  UNL     1     -33.859  17.642  -1.891  1.00 20.00     0.123 C 
HETATM    6  O10 UNL     1     -33.608  16.263  -2.189  1.00 20.00    -0.386 OA
HETATM    7 CL11 UNL     1     -35.637  18.594  -5.478  1.00 20.00    -0.125 Cl
ENDROOT
BRANCH   5   8
HETATM    8  C8  UNL     1     -32.576  18.409  -1.722  1.00 20.00     0.035 C 
BRANCH   8   9
HETATM    9  C9  UNL     1     -32.356  18.929  -0.291  1.00 20.00    -0.020 C 
HETATM   10  C6  UNL     1     -33.406  18.404   0.689  1.00 20.00     0.009 C 
HETATM   11  C7  UNL     1     -30.957  18.539   0.193  1.00 20.00     0.009 C 
ENDBRANCH   8   9
ENDBRANCH   5   8
TORSDOF 2
ENDMDL
MODEL 6
REMARK VINA RESULT:      -3.5     11.725     12.558
REMARK  2 active torsions:
REMARK  status: ('A' for Active; 'I' for Inactive)
REMARK    1  A    between atoms: C5_5  and  C8_8 
REMARK    2  A    between atoms: C8_8  and  C9_9 
ROOT
HETATM    1  C1  UNL     1     -32.253   9.485   3.291  1.00 20.00     0.046 C 
HETATM    2  C2  UNL     1     -32.555   7.052   2.781  1.00 20.00     0.052 C 
HETATM    3  C3  UNL     1     -32.732   9.191   4.705  1.00 20.00     0.169 C 
HETATM    4  C4  UNL     1     -32.849   8.477   2.315  1.00 20.00     0.086 C 
HETATM    5  C5  UNL     1     -32.954   6.835   4.245  1.00 20.00     0.123 C 
HETATM    6  O10 UNL     1     -32.420   7.856   5.098  1.00 20.00    -0.386 OA
HETATM    7 CL11 UNL     1     -32.189   8.738   0.678  1.00 20.00    -0.125 Cl
ENDROOT
BRANCH   5   8
HETATM    8  C8  UNL     1     -34.436   6.673   4.446  1.00 20.00     0.035 C 
BRANCH   8   9
HETATM    9  C9  UNL     1     -34.827   5.316   5.055  1.00 20.00    -0.020 C 
HETATM   10  C6  UNL     1     -34.017   4.158   4.472  1.00 20.00     0.009 C 
HETATM   11  C7  UNL     1     -34.647   5.359   6.575  1.00 20.00     0.009 C 
ENDBRANCH   8   9
ENDBRANCH   5   8
TORSDOF 2
ENDMDL
MODEL 7
REMARK VINA RESULT:      -3.4     11.688     12.731
REMARK  2 active torsions:
REMARK  status: ('A' for Active; 'I' for Inactive)
REMARK    1  A    between atoms: C5_5  and  C8_8 
REMARK    2  A    between atoms: C8_8  and  C9_9 
ROOT
HETATM    1  C1  UNL     1     -41.018  15.905  10.276  1.00 20.00     0.046 C 
HETATM    2  C2  UNL     1     -40.402  15.771   7.853  1.00 20.00     0.052 C 
HETATM    3  C3  UNL     1     -41.087  14.384  10.286  1.00 20.00     0.169 C 
HETATM    4  C4  UNL     1     -41.319  16.435   8.879  1.00 20.00     0.086 C 
HETATM    5  C5  UNL     1     -40.420  14.243   7.974  1.00 20.00     0.123 C 
HETATM    6  O10 UNL     1     -40.202  13.814   9.323  1.00 20.00    -0.386 OA
HETATM    7 CL11 UNL     1     -41.113  18.207   8.834  1.00 20.00    -0.125 Cl
ENDROOT
BRANCH   5   8
HETATM    8  C8  UNL     1     -41.653  13.609   7.389  1.00 20.00     0.035 C 
BRANCH   8   9
HETATM    9  C9  UNL     1     -41.394  12.867   6.067  1.00 20.00    -0.020 C 
HETATM   10  C6  UNL     1     -41.542  13.778   4.848  1.00 20.00     0.009 C 
HETATM   11  C7  UNL     1     -39.992  12.251   6.085  1.00 20.00     0.009 C 
ENDBRANCH   8   9
ENDBRANCH   5   8
TORSDOF 2
ENDMDL
MODEL 8
REMARK VINA RESULT:      -3.3      1.812      2.386
REMARK  2 active torsions:
REMARK  status: ('A' for Active; 'I' for Inactive)
REMARK    1  A    between atoms: C5_5  and  C8_8 
REMARK    2  A    between atoms: C8_8  and  C9_9 
ROOT
HETATM    1  C1  UNL     1     -32.977  18.945   1.140  1.00 20.00     0.046 C 
HETATM    2  C2  UNL     1     -31.495  18.064  -0.676  1.00 20.00     0.052 C 
HETATM    3  C3  UNL     1     -34.154  18.765   0.192  1.00 20.00     0.169 C 
HETATM    4  C4  UNL     1     -31.696  19.180   0.348  1.00 20.00     0.086 C 
HETATM    5  C5  UNL     1     -32.745  17.845  -1.535  1.00 20.00     0.123 C 
HETATM    6  O10 UNL     1     -33.924  17.702  -0.732  1.00 20.00    -0.386 OA
HETATM    7 CL11 UNL     1     -30.295  19.263   1.451  1.00 20.00    -0.125 Cl
ENDROOT
BRANCH   5   8
HETATM    8  C8  UNL     1     -32.931  18.889  -2.602  1.00 20.00     0.035 C 
BRANCH   8   9
HETATM    9  C9  UNL     1     -33.644  18.362  -3.859  1.00 20.00    -0.020 C 
HETATM   10  C6  UNL     1     -33.593  16.838  -3.963  1.00 20.00     0.009 C 
HETATM   11  C7  UNL     1     -35.101  18.832  -3.864  1.00 20.00     0.009 C 
ENDBRANCH   8   9
ENDBRANCH   5   8
TORSDOF 2
ENDMDL
MODEL 9
REMARK VINA RESULT:      -3.3      3.797      5.872
REMARK  2 active torsions:
REMARK  status: ('A' for Active; 'I' for Inactive)
REMARK    1  A    between atoms: C5_5  and  C8_8 
REMARK    2  A    between atoms: C8_8  and  C9_9 
ROOT
HETATM    1  C1  UNL     1     -34.681  16.213  -7.492  1.00 20.00     0.046 C 
HETATM    2  C2  UNL     1     -35.623  16.760  -5.237  1.00 20.00     0.052 C 
HETATM    3  C3  UNL     1     -33.769  15.206  -6.806  1.00 20.00     0.169 C 
HETATM    4  C4  UNL     1     -35.042  17.337  -6.527  1.00 20.00     0.086 C 
HETATM    5  C5  UNL     1     -34.723  15.671  -4.642  1.00 20.00     0.123 C 
HETATM    6  O10 UNL     1     -34.363  14.686  -5.618  1.00 20.00    -0.386 OA
HETATM    7 CL11 UNL     1     -36.212  18.450  -7.286  1.00 20.00    -0.125 Cl
ENDROOT
BRANCH   5   8
HETATM    8  C8  UNL     1     -33.510  16.214  -3.937  1.00 20.00     0.035 C 
BRANCH   8   9
HETATM    9  C9  UNL     1     -33.813  17.425  -3.038  1.00 20.00    -0.020 C 
HETATM   10  C6  UNL     1     -33.548  17.134  -1.560  1.00 20.00     0.009 C 
HETATM   11  C7  UNL     1     -32.978  18.626  -3.487  1.00 20.00     0.009 C 
ENDBRANCH   8   9
ENDBRANCH   5   8
TORSDOF 2
ENDMDL
