MODEL 1
REMARK VINA RESULT:      -4.0      0.000      0.000
REMARK  0 active torsions:
REMARK  status: ('A' for Active; 'I' for Inactive)
ROOT
HETATM    1  C1  UNL     1     -33.730  18.146  -1.131  1.00 20.00     0.088 C 
HETATM    2  C2  UNL     1     -33.427  16.817  -3.117  1.00 20.00    -0.065 C 
HETATM    3  C3  UNL     1     -33.525  16.904  -1.784  1.00 20.00     0.096 C 
HETATM    4  C4  UNL     1     -33.209  15.521  -3.846  1.00 20.00     0.061 C 
HETATM    5  C5  UNL     1     -33.547  18.005  -4.034  1.00 20.00     0.072 C 
HETATM    6  C6  UNL     1     -34.277  15.356  -4.921  1.00 20.00     0.173 C 
HETATM    7  C7  UNL     1     -34.595  17.744  -5.135  1.00 20.00     0.057 C 
HETATM    8  C8  UNL     1     -34.463  18.821  -6.220  1.00 20.00     0.046 C 
HETATM    9  C9  UNL     1     -36.032  17.781  -4.590  1.00 20.00     0.046 C 
HETATM   10  N10 UNL     1     -33.899  19.159  -0.591  1.00 20.00    -0.192 NA
HETATM   11  O11 UNL     1     -34.325  16.491  -5.792  1.00 20.00    -0.380 OA
ENDROOT
TORSDOF 0
ENDMDL
MODEL 2
REMARK VINA RESULT:      -4.0     12.434     13.819
REMARK  0 active torsions:
REMARK  status: ('A' for Active; 'I' for Inactive)
ROOT
HETATM    1  C1  UNL     1     -39.230  12.047   5.653  1.00 20.00     0.088 C 
HETATM    2  C2  UNL     1     -41.344  12.909   6.418  1.00 20.00    -0.065 C 
HETATM    3  C3  UNL     1     -40.579  11.873   6.051  1.00 20.00     0.096 C 
HETATM    4  C4  UNL     1     -42.778  12.767   6.845  1.00 20.00     0.061 C 
HETATM    5  C5  UNL     1     -40.846  14.329   6.465  1.00 20.00     0.072 C 
HETATM    6  C6  UNL     1     -42.975  13.438   8.200  1.00 20.00     0.173 C 
HETATM    7  C7  UNL     1     -41.136  14.966   7.839  1.00 20.00     0.057 C 
HETATM    8  C8  UNL     1     -40.912  16.482   7.748  1.00 20.00     0.046 C 
HETATM    9  C9  UNL     1     -40.223  14.410   8.943  1.00 20.00     0.046 C 
HETATM   10  N10 UNL     1     -38.124  12.182   5.328  1.00 20.00    -0.192 NA
HETATM   11  O11 UNL     1     -42.524  14.796   8.184  1.00 20.00    -0.380 OA
ENDROOT
TORSDOF 0
ENDMDL
MODEL 3
REMARK VINA RESULT:      -3.9      1.986      2.410
REMARK  0 active torsions:
REMARK  status: ('A' for Active; 'I' for Inactive)
ROOT
HETATM    1  C1  UNL     1     -33.292  17.647  -3.405  1.00 20.00     0.088 C 
HETATM    2  C2  UNL     1     -34.085  15.549  -4.279  1.00 20.00    -0.065 C 
HETATM    3  C3  UNL     1     -33.595  16.270  -3.263  1.00 20.00     0.096 C 
HETATM    4  C4  UNL     1     -34.418  14.087  -4.169  1.00 20.00     0.061 C 
HETATM    5  C5  UNL     1     -34.378  16.127  -5.638  1.00 20.00     0.072 C 
HETATM    6  C6  UNL     1     -35.851  13.855  -4.635  1.00 20.00     0.173 C 
HETATM    7  C7  UNL     1     -35.820  15.798  -6.073  1.00 20.00     0.057 C 
HETATM    8  C8  UNL     1     -35.979  16.116  -7.567  1.00 20.00     0.046 C 
HETATM    9  C9  UNL     1     -36.864  16.613  -5.293  1.00 20.00     0.046 C 
HETATM   10  N10 UNL     1     -33.043  18.776  -3.514  1.00 20.00    -0.192 NA
HETATM   11  O11 UNL     1     -36.069  14.385  -5.945  1.00 20.00    -0.380 OA
ENDROOT
TORSDOF 0
ENDMDL
MODEL 4
REMARK VINA RESULT:      -3.8      1.884      3.174
REMARK  0 active torsions:
REMARK  status: ('A' for Active; 'I' for Inactive)
ROOT
HETATM    1  C1  UNL     1     -31.702  18.858  -0.371  1.00 20.00     0.088 C 
HETATM    2  C2  UNL     1     -33.941  18.605  -1.218  1.00 20.00    -0.065 C 
HETATM    3  C3  UNL     1     -33.057  19.263  -0.457  1.00 20.00     0.096 C 
HETATM    4  C4  UNL     1     -35.386  19.002  -1.334  1.00 20.00     0.061 C 
HETATM    5  C5  UNL     1     -33.581  17.409  -2.058  1.00 20.00     0.072 C 
HETATM    6  C6  UNL     1     -35.755  19.157  -2.806  1.00 20.00     0.173 C 
HETATM    7  C7  UNL     1     -34.041  17.606  -3.517  1.00 20.00     0.057 C 
HETATM    8  C8  UNL     1     -33.951  16.265  -4.258  1.00 20.00     0.046 C 
HETATM    9  C9  UNL     1     -33.174  18.631  -4.266  1.00 20.00     0.046 C 
HETATM   10  N10 UNL     1     -30.590  18.532  -0.298  1.00 20.00    -0.192 NA
HETATM   11  O11 UNL     1     -35.431  17.982  -3.554  1.00 20.00    -0.380 OA
ENDROOT
TORSDOF 0
ENDMDL
MODEL 5
REMARK VINA RESULT:      -3.7     12.313     13.655
REMARK  0 active torsions:
REMARK  status: ('A' for Active; 'I' for Inactive)
ROOT
HETATM    1  C1  UNL     1     -41.157  16.910   7.601  1.00 20.00     0.088 C 
HETATM    2  C2  UNL     1     -41.778  14.611   7.955  1.00 20.00    -0.065 C 
HETATM    3  C3  UNL     1     -42.061  15.916   8.051  1.00 20.00     0.096 C 
HETATM    4  C4  UNL     1     -42.709  13.527   8.420  1.00 20.00     0.061 C 
HETATM    5  C5  UNL     1     -40.505  14.084   7.348  1.00 20.00     0.072 C 
HETATM    6  C6  UNL     1     -42.939  12.532   7.288  1.00 20.00     0.173 C 
HETATM    7  C7  UNL     1     -40.810  13.036   6.258  1.00 20.00     0.057 C 
HETATM    8  C8  UNL     1     -39.515  12.298   5.894  1.00 20.00     0.046 C 
HETATM    9  C9  UNL     1     -41.378  13.674   4.980  1.00 20.00     0.046 C 
HETATM   10  N10 UNL     1     -40.421  17.730   7.234  1.00 20.00    -0.192 NA
HETATM   11  O11 UNL     1     -41.703  12.030   6.772  1.00 20.00    -0.380 OA
ENDROOT
TORSDOF 0
ENDMDL
MODEL 6
REMARK VINA RESULT:      -3.6      1.326      1.818
REMARK  0 active torsions:
REMARK  status: ('A' for Active; 'I' for Inactive)
ROOT
HETATM    1  C1  UNL     1     -33.481  16.592  -2.464  1.00 20.00     0.088 C 
HETATM    2  C2  UNL     1     -33.939  16.005  -4.753  1.00 20.00    -0.065 C 
HETATM    3  C3  UNL     1     -33.566  15.648  -3.517  1.00 20.00     0.096 C 
HETATM    4  C4  UNL     1     -34.041  15.035  -5.897  1.00 20.00     0.061 C 
HETATM    5  C5  UNL     1     -34.318  17.412  -5.129  1.00 20.00     0.072 C 
HETATM    6  C6  UNL     1     -35.421  15.144  -6.536  1.00 20.00     0.173 C 
HETATM    7  C7  UNL     1     -35.693  17.441  -5.829  1.00 20.00     0.057 C 
HETATM    8  C8  UNL     1     -35.899  18.818  -6.475  1.00 20.00     0.046 C 
HETATM    9  C9  UNL     1     -36.850  17.189  -4.849  1.00 20.00     0.046 C 
HETATM   10  N10 UNL     1     -33.410  17.361  -1.596  1.00 20.00    -0.192 NA
HETATM   11  O11 UNL     1     -35.720  16.492  -6.912  1.00 20.00    -0.380 OA
ENDROOT
TORSDOF 0
ENDMDL
MODEL 7
REMARK VINA RESULT:      -3.5      2.906      3.944
REMARK  0 active torsions:
REMARK  status: ('A' for Active; 'I' for Inactive)
ROOT
HETATM    1  C1  UNL     1     -34.145  15.161  -6.741  1.00 20.00     0.088 C 
HETATM    2  C2  UNL     1     -34.114  15.956  -4.469  1.00 20.00    -0.065 C 
HETATM    3  C3  UNL     1     -33.629  15.150  -5.422  1.00 20.00     0.096 C 
HETATM    4  C4  UNL     1     -33.595  15.973  -3.058  1.00 20.00     0.061 C 
HETATM    5  C5  UNL     1     -35.218  16.951  -4.711  1.00 20.00     0.072 C 
HETATM    6  C6  UNL     1     -33.226  17.401  -2.669  1.00 20.00     0.173 C 
HETATM    7  C7  UNL     1     -34.802  18.357  -4.234  1.00 20.00     0.057 C 
HETATM    8  C8  UNL     1     -36.041  19.263  -4.198  1.00 20.00     0.046 C 
HETATM    9  C9  UNL     1     -33.760  19.002  -5.163  1.00 20.00     0.046 C 
HETATM   10  N10 UNL     1     -34.562  15.167  -7.825  1.00 20.00    -0.192 NA
HETATM   11  O11 UNL     1     -34.319  18.301  -2.878  1.00 20.00    -0.380 OA
ENDROOT
TORSDOF 0
ENDMDL
MODEL 8
REMARK VINA RESULT:      -3.5      1.950      3.403
REMARK  0 active torsions:
REMARK  status: ('A' for Active; 'I' for Inactive)
ROOT
HETATM    1  C1  UNL     1     -34.372  18.790  -4.004  1.00 20.00     0.088 C 
HETATM    2  C2  UNL     1     -34.709  17.426  -5.959  1.00 20.00    -0.065 C 
HETATM    3  C3  UNL     1     -34.174  18.507  -5.378  1.00 20.00     0.096 C 
HETATM    4  C4  UNL     1     -34.523  17.092  -7.413  1.00 20.00     0.061 C 
HETATM    5  C5  UNL     1     -35.538  16.413  -5.215  1.00 20.00     0.072 C 
HETATM    6  C6  UNL     1     -34.005  15.664  -7.545  1.00 20.00     0.173 C 
HETATM    7  C7  UNL     1     -34.998  14.987  -5.446  1.00 20.00     0.057 C 
HETATM    8  C8  UNL     1     -36.035  13.970  -4.949  1.00 20.00     0.046 C 
HETATM    9  C9  UNL     1     -33.679  14.737  -4.698  1.00 20.00     0.046 C 
HETATM   10  N10 UNL     1     -34.530  19.027  -2.878  1.00 20.00    -0.192 NA
HETATM   11  O11 UNL     1     -34.847  14.735  -6.856  1.00 20.00    -0.380 OA
ENDROOT
TORSDOF 0
ENDMDL
MODEL 9
REMARK VINA RESULT:      -3.4     12.001     13.406
REMARK  0 active torsions:
REMARK  status: ('A' for Active; 'I' for Inactive)
ROOT
HETATM    1  C1  UNL     1     -32.546   8.604   1.892  1.00 20.00     0.088 C 
HETATM    2  C2  UNL     1     -32.753   7.895   4.184  1.00 20.00    -0.065 C 
HETATM    3  C3  UNL     1     -32.603   8.874   3.282  1.00 20.00     0.096 C 
HETATM    4  C4  UNL     1     -32.817   8.140   5.666  1.00 20.00     0.061 C 
HETATM    5  C5  UNL     1     -32.897   6.443   3.812  1.00 20.00     0.072 C 
HETATM    6  C6  UNL     1     -34.070   7.486   6.237  1.00 20.00     0.173 C 
HETATM    7  C7  UNL     1     -34.147   5.830   4.476  1.00 20.00     0.057 C 
HETATM    8  C8  UNL     1     -34.088   4.302   4.342  1.00 20.00     0.046 C 
HETATM    9  C9  UNL     1     -35.451   6.321   3.827  1.00 20.00     0.046 C 
HETATM   10  N10 UNL     1     -32.500   8.389   0.752  1.00 20.00    -0.192 NA
HETATM   11  O11 UNL     1     -34.143   6.099   5.891  1.00 20.00    -0.380 OA
ENDROOT
TORSDOF 0
ENDMDL
