MODEL 1
REMARK VINA RESULT:      -3.9      0.000      0.000
REMARK  1 active torsions:
REMARK  status: ('A' for Active; 'I' for Inactive)
REMARK    1  A    between atoms: C4_4  and  S9_9 
ROOT
HETATM    1  C1  UNL     1     -32.348   6.920   3.167  1.00 20.00     0.041 C 
HETATM    2  C2  UNL     1     -33.667   7.067   5.292  1.00 20.00     0.052 C 
HETATM    3  C3  UNL     1     -33.157   5.677   2.819  1.00 20.00     0.170 C 
HETATM    4  C4  UNL     1     -33.160   7.843   4.074  1.00 20.00     0.049 C 
HETATM    5  C5  UNL     1     -34.405   5.774   4.887  1.00 20.00     0.054 C 
HETATM    6  C6  UNL     1     -35.782   6.062   4.268  1.00 20.00     0.045 C 
HETATM    7  C7  UNL     1     -34.612   4.900   6.132  1.00 20.00     0.045 C 
HETATM    8  O8  UNL     1     -33.598   4.995   3.991  1.00 20.00    -0.381 OA
ENDROOT
BRANCH   4   9
HETATM    9  S9  UNL     1     -32.140   9.260   4.602  1.00 20.00    -0.177 SA
HETATM   10  H23 UNL     1     -33.003   9.710   5.523  1.00 20.00     0.102 HD
ENDBRANCH   4   9
TORSDOF 1
ENDMDL
MODEL 2
REMARK VINA RESULT:      -3.4     12.498     13.444
REMARK  1 active torsions:
REMARK  status: ('A' for Active; 'I' for Inactive)
REMARK    1  A    between atoms: C4_4  and  S9_9 
ROOT
HETATM    1  C1  UNL     1     -34.095  17.836  -4.099  1.00 20.00     0.041 C 
HETATM    2  C2  UNL     1     -33.531  16.712  -1.933  1.00 20.00     0.052 C 
HETATM    3  C3  UNL     1     -33.894  19.171  -3.392  1.00 20.00     0.170 C 
HETATM    4  C4  UNL     1     -33.247  16.754  -3.437  1.00 20.00     0.049 C 
HETATM    5  C5  UNL     1     -33.396  18.104  -1.281  1.00 20.00     0.054 C 
HETATM    6  C6  UNL     1     -31.931  18.556  -1.178  1.00 20.00     0.045 C 
HETATM    7  C7  UNL     1     -33.985  18.056   0.136  1.00 20.00     0.045 C 
HETATM    8  O8  UNL     1     -34.177  19.071  -1.998  1.00 20.00    -0.381 OA
ENDROOT
BRANCH   4   9
HETATM    9  S9  UNL     1     -33.595  15.131  -4.195  1.00 20.00    -0.177 SA
HETATM   10  H23 UNL     1     -34.282  15.616  -5.238  1.00 20.00     0.102 HD
ENDBRANCH   4   9
TORSDOF 1
ENDMDL
MODEL 3
REMARK VINA RESULT:      -3.3     12.592     13.468
REMARK  1 active torsions:
REMARK  status: ('A' for Active; 'I' for Inactive)
REMARK    1  A    between atoms: C4_4  and  S9_9 
ROOT
HETATM    1  C1  UNL     1     -33.320  19.236   1.114  1.00 20.00     0.041 C 
HETATM    2  C2  UNL     1     -31.813  18.660  -0.802  1.00 20.00     0.052 C 
HETATM    3  C3  UNL     1     -34.501  18.999   0.181  1.00 20.00     0.170 C 
HETATM    4  C4  UNL     1     -32.122  18.398   0.674  1.00 20.00     0.049 C 
HETATM    5  C5  UNL     1     -33.061  18.489  -1.693  1.00 20.00     0.054 C 
HETATM    6  C6  UNL     1     -33.464  17.014  -1.850  1.00 20.00     0.045 C 
HETATM    7  C7  UNL     1     -32.766  19.057  -3.088  1.00 20.00     0.045 C 
HETATM    8  O8  UNL     1     -34.155  19.263  -1.177  1.00 20.00    -0.381 OA
ENDROOT
BRANCH   4   9
HETATM    9  S9  UNL     1     -30.669  18.788   1.707  1.00 20.00    -0.177 SA
HETATM   10  H23 UNL     1     -29.771  18.685   0.719  1.00 20.00     0.102 HD
ENDBRANCH   4   9
TORSDOF 1
ENDMDL
MODEL 4
REMARK VINA RESULT:      -3.2     12.627     13.316
REMARK  1 active torsions:
REMARK  status: ('A' for Active; 'I' for Inactive)
REMARK    1  A    between atoms: C4_4  and  S9_9 
ROOT
HETATM    1  C1  UNL     1     -32.390  18.983   0.940  1.00 20.00     0.041 C 
HETATM    2  C2  UNL     1     -34.090  18.172  -0.710  1.00 20.00     0.052 C 
HETATM    3  C3  UNL     1     -31.344  18.851  -0.160  1.00 20.00     0.170 C 
HETATM    4  C4  UNL     1     -33.766  19.244   0.334  1.00 20.00     0.049 C 
HETATM    5  C5  UNL     1     -32.962  18.021  -1.751  1.00 20.00     0.054 C 
HETATM    6  C6  UNL     1     -32.906  19.210  -2.723  1.00 20.00     0.045 C 
HETATM    7  C7  UNL     1     -33.200  16.743  -2.569  1.00 20.00     0.045 C 
HETATM    8  O8  UNL     1     -31.698  17.837  -1.097  1.00 20.00    -0.381 OA
ENDROOT
BRANCH   4   9
HETATM    9  S9  UNL     1     -35.036  19.262   1.643  1.00 20.00    -0.177 SA
HETATM   10  H23 UNL     1     -34.805  18.015   2.071  1.00 20.00     0.102 HD
ENDBRANCH   4   9
TORSDOF 1
ENDMDL
MODEL 5
REMARK VINA RESULT:      -3.2     12.423     13.381
REMARK  1 active torsions:
REMARK  status: ('A' for Active; 'I' for Inactive)
REMARK    1  A    between atoms: C4_4  and  S9_9 
ROOT
HETATM    1  C1  UNL     1     -33.290  16.306  -3.372  1.00 20.00     0.041 C 
HETATM    2  C2  UNL     1     -35.191  16.601  -4.976  1.00 20.00     0.052 C 
HETATM    3  C3  UNL     1     -32.934  15.027  -4.119  1.00 20.00     0.170 C 
HETATM    4  C4  UNL     1     -33.996  17.285  -4.306  1.00 20.00     0.049 C 
HETATM    5  C5  UNL     1     -34.792  15.270  -5.646  1.00 20.00     0.054 C 
HETATM    6  C6  UNL     1     -33.966  15.487  -6.923  1.00 20.00     0.045 C 
HETATM    7  C7  UNL     1     -36.063  14.496  -6.022  1.00 20.00     0.045 C 
HETATM    8  O8  UNL     1     -34.084  14.434  -4.718  1.00 20.00    -0.381 OA
ENDROOT
BRANCH   4   9
HETATM    9  S9  UNL     1     -34.545  18.755  -3.375  1.00 20.00    -0.177 SA
HETATM   10  H23 UNL     1     -34.022  18.375  -2.203  1.00 20.00     0.102 HD
ENDBRANCH   4   9
TORSDOF 1
ENDMDL
MODEL 6
REMARK VINA RESULT:      -3.0     10.054     11.020
REMARK  1 active torsions:
REMARK  status: ('A' for Active; 'I' for Inactive)
REMARK    1  A    between atoms: C4_4  and  S9_9 
ROOT
HETATM    1  C1  UNL     1     -43.417  13.622   5.884  1.00 20.00     0.041 C 
HETATM    2  C2  UNL     1     -41.066  13.578   5.022  1.00 20.00     0.052 C 
HETATM    3  C3  UNL     1     -42.910  12.922   7.138  1.00 20.00     0.170 C 
HETATM    4  C4  UNL     1     -42.302  14.451   5.252  1.00 20.00     0.049 C 
HETATM    5  C5  UNL     1     -40.644  12.826   6.302  1.00 20.00     0.054 C 
HETATM    6  C6  UNL     1     -40.013  13.763   7.344  1.00 20.00     0.045 C 
HETATM    7  C7  UNL     1     -39.611  11.750   5.936  1.00 20.00     0.045 C 
HETATM    8  O8  UNL     1     -41.762  12.122   6.862  1.00 20.00    -0.381 OA
ENDROOT
BRANCH   4   9
HETATM    9  S9  UNL     1     -42.872  15.174   3.678  1.00 20.00    -0.177 SA
HETATM   10  H23 UNL     1     -41.968  14.553   2.910  1.00 20.00     0.102 HD
ENDBRANCH   4   9
TORSDOF 1
ENDMDL
MODEL 7
REMARK VINA RESULT:      -3.0     12.822     13.935
REMARK  1 active torsions:
REMARK  status: ('A' for Active; 'I' for Inactive)
REMARK    1  A    between atoms: C4_4  and  S9_9 
ROOT
HETATM    1  C1  UNL     1     -35.689  17.297  -4.896  1.00 20.00     0.041 C 
HETATM    2  C2  UNL     1     -33.726  16.533  -3.540  1.00 20.00     0.052 C 
HETATM    3  C3  UNL     1     -35.734  18.544  -4.022  1.00 20.00     0.170 C 
HETATM    4  C4  UNL     1     -34.268  16.744  -4.957  1.00 20.00     0.049 C 
HETATM    5  C5  UNL     1     -33.872  17.800  -2.672  1.00 20.00     0.054 C 
HETATM    6  C6  UNL     1     -32.883  18.902  -3.083  1.00 20.00     0.045 C 
HETATM    7  C7  UNL     1     -33.605  17.438  -1.204  1.00 20.00     0.045 C 
HETATM    8  O8  UNL     1     -35.222  18.286  -2.717  1.00 20.00    -0.381 OA
ENDROOT
BRANCH   4   9
HETATM    9  S9  UNL     1     -34.243  15.175  -5.887  1.00 20.00    -0.177 SA
HETATM   10  H23 UNL     1     -35.058  15.587  -6.866  1.00 20.00     0.102 HD
ENDBRANCH   4   9
TORSDOF 1
ENDMDL
MODEL 8
REMARK VINA RESULT:      -3.0     13.416     14.251
REMARK  1 active torsions:
REMARK  status: ('A' for Active; 'I' for Inactive)
REMARK    1  A    between atoms: C4_4  and  S9_9 
ROOT
HETATM    1  C1  UNL     1     -34.433  17.118  -7.522  1.00 20.00     0.041 C 
HETATM    2  C2  UNL     1     -34.724  16.641  -5.080  1.00 20.00     0.052 C 
HETATM    3  C3  UNL     1     -34.365  15.613  -7.749  1.00 20.00     0.170 C 
HETATM    4  C4  UNL     1     -35.261  17.429  -6.278  1.00 20.00     0.049 C 
HETATM    5  C5  UNL     1     -34.597  15.135  -5.390  1.00 20.00     0.054 C 
HETATM    6  C6  UNL     1     -35.965  14.441  -5.467  1.00 20.00     0.045 C 
HETATM    7  C7  UNL     1     -33.778  14.460  -4.281  1.00 20.00     0.045 C 
HETATM    8  O8  UNL     1     -33.856  14.934  -6.603  1.00 20.00    -0.381 OA
ENDROOT
BRANCH   4   9
HETATM    9  S9  UNL     1     -35.223  19.220  -5.930  1.00 20.00    -0.177 SA
HETATM   10  H23 UNL     1     -34.403  19.133  -4.874  1.00 20.00     0.102 HD
ENDBRANCH   4   9
TORSDOF 1
ENDMDL
MODEL 9
REMARK VINA RESULT:      -3.0      9.382     10.563
REMARK  1 active torsions:
REMARK  status: ('A' for Active; 'I' for Inactive)
REMARK    1  A    between atoms: C4_4  and  S9_9 
ROOT
HETATM    1  C1  UNL     1     -43.341   4.843   1.031  1.00 20.00     0.041 C 
HETATM    2  C2  UNL     1     -42.251   6.168  -0.794  1.00 20.00     0.052 C 
HETATM    3  C3  UNL     1     -43.244   6.084   1.910  1.00 20.00     0.170 C 
HETATM    4  C4  UNL     1     -43.417   5.242  -0.441  1.00 20.00     0.049 C 
HETATM    5  C5  UNL     1     -42.147   7.362   0.176  1.00 20.00     0.054 C 
HETATM    6  C6  UNL     1     -43.269   8.389  -0.045  1.00 20.00     0.045 C 
HETATM    7  C7  UNL     1     -40.801   8.069  -0.036  1.00 20.00     0.045 C 
HETATM    8  O8  UNL     1     -42.139   6.904   1.537  1.00 20.00    -0.381 OA
ENDROOT
BRANCH   4   9
HETATM    9  S9  UNL     1     -43.391   3.754  -1.496  1.00 20.00    -0.177 SA
HETATM   10  H23 UNL     1     -42.152   3.945  -1.965  1.00 20.00     0.102 HD
ENDBRANCH   4   9
TORSDOF 1
ENDMDL
