MODEL 1
REMARK VINA RESULT:      -3.8      0.000      0.000
REMARK  0 active torsions:
REMARK  status: ('A' for Active; 'I' for Inactive)
ROOT
HETATM    1  C1  UNL     1     -40.553  15.498  10.861  1.00 20.00     0.000 C 
HETATM    2  C2  UNL     1     -41.209  16.689  10.169  1.00 20.00     0.000 C 
HETATM    3  C3  UNL     1     -41.135  14.126  10.497  1.00 20.00     0.003 C 
HETATM    4  C4  UNL     1     -40.916  16.815   8.669  1.00 20.00     0.003 C 
HETATM    5  C5  UNL     1     -42.035  14.071   9.259  1.00 20.00     0.038 C 
HETATM    6  C6  UNL     1     -40.381  15.565   7.968  1.00 20.00     0.038 C 
HETATM    7  C7  UNL     1     -41.047  13.158   5.243  1.00 20.00     0.046 C 
HETATM    8  C8  UNL     1     -42.436  14.507   6.832  1.00 20.00     0.058 C 
HETATM    9  C9  UNL     1     -39.983  13.091   6.328  1.00 20.00     0.170 C 
HETATM   10  C10 UNL     1     -41.888  14.418   5.407  1.00 20.00     0.087 C 
HETATM   11  C11 UNL     1     -41.333  14.347   7.909  1.00 20.00     0.062 C 
HETATM   12  O12 UNL     1     -40.564  13.157   7.629  1.00 20.00    -0.380 OA
HETATM   13 CL13 UNL     1     -43.233  14.417   4.230  1.00 20.00    -0.125 Cl
ENDROOT
TORSDOF 0
ENDMDL
MODEL 2
REMARK VINA RESULT:      -3.7      1.734      2.645
REMARK  0 active torsions:
REMARK  status: ('A' for Active; 'I' for Inactive)
ROOT
HETATM    1  C1  UNL     1     -42.000  16.572  10.249  1.00 20.00     0.000 C 
HETATM    2  C2  UNL     1     -41.708  15.186  10.818  1.00 20.00     0.000 C 
HETATM    3  C3  UNL     1     -41.135  16.985   9.051  1.00 20.00     0.003 C 
HETATM    4  C4  UNL     1     -42.140  14.013   9.932  1.00 20.00     0.003 C 
HETATM    5  C5  UNL     1     -40.349  15.868   8.358  1.00 20.00     0.038 C 
HETATM    6  C6  UNL     1     -42.412  14.329   8.461  1.00 20.00     0.038 C 
HETATM    7  C7  UNL     1     -41.403  13.513   4.999  1.00 20.00     0.046 C 
HETATM    8  C8  UNL     1     -40.259  13.643   7.223  1.00 20.00     0.058 C 
HETATM    9  C9  UNL     1     -42.330  14.618   5.481  1.00 20.00     0.170 C 
HETATM   10  C10 UNL     1     -40.881  12.710   6.184  1.00 20.00     0.087 C 
HETATM   11  C11 UNL     1     -41.202  14.807   7.624  1.00 20.00     0.062 C 
HETATM   12  O12 UNL     1     -41.680  15.462   6.429  1.00 20.00    -0.380 OA
HETATM   13 CL13 UNL     1     -39.674  11.513   5.632  1.00 20.00    -0.125 Cl
ENDROOT
TORSDOF 0
ENDMDL
MODEL 3
REMARK VINA RESULT:      -3.5     12.109     13.350
REMARK  0 active torsions:
REMARK  status: ('A' for Active; 'I' for Inactive)
ROOT
HETATM    1  C1  UNL     1     -32.210  19.263   0.733  1.00 20.00     0.000 C 
HETATM    2  C2  UNL     1     -33.238  18.180   1.048  1.00 20.00     0.000 C 
HETATM    3  C3  UNL     1     -31.288  18.966  -0.457  1.00 20.00     0.003 C 
HETATM    4  C4  UNL     1     -34.375  18.044   0.029  1.00 20.00     0.003 C 
HETATM    5  C5  UNL     1     -31.715  17.825  -1.385  1.00 20.00     0.038 C 
HETATM    6  C6  UNL     1     -34.145  18.677  -1.343  1.00 20.00     0.038 C 
HETATM    7  C7  UNL     1     -33.972  17.963  -4.966  1.00 20.00     0.046 C 
HETATM    8  C8  UNL     1     -33.408  16.730  -2.860  1.00 20.00     0.058 C 
HETATM    9  C9  UNL     1     -33.615  19.248  -4.236  1.00 20.00     0.170 C 
HETATM   10  C10 UNL     1     -34.441  16.905  -3.974  1.00 20.00     0.087 C 
HETATM   11  C11 UNL     1     -33.006  18.073  -2.199  1.00 20.00     0.062 C 
HETATM   12  O12 UNL     1     -32.634  19.016  -3.227  1.00 20.00    -0.380 OA
HETATM   13 CL13 UNL     1     -34.710  15.351  -4.814  1.00 20.00    -0.125 Cl
ENDROOT
TORSDOF 0
ENDMDL
MODEL 4
REMARK VINA RESULT:      -3.5     12.824     14.492
REMARK  0 active torsions:
REMARK  status: ('A' for Active; 'I' for Inactive)
ROOT
HETATM    1  C1  UNL     1     -35.026  15.564  -6.257  1.00 20.00     0.000 C 
HETATM    2  C2  UNL     1     -34.892  14.555  -5.120  1.00 20.00     0.000 C 
HETATM    3  C3  UNL     1     -35.572  16.940  -5.852  1.00 20.00     0.003 C 
HETATM    4  C4  UNL     1     -33.775  14.850  -4.114  1.00 20.00     0.003 C 
HETATM    5  C5  UNL     1     -35.586  17.256  -4.354  1.00 20.00     0.038 C 
HETATM    6  C6  UNL     1     -33.218  16.274  -4.106  1.00 20.00     0.038 C 
HETATM    7  C7  UNL     1     -32.699  19.263  -1.992  1.00 20.00     0.046 C 
HETATM    8  C8  UNL     1     -34.419  17.449  -2.153  1.00 20.00     0.058 C 
HETATM    9  C9  UNL     1     -32.494  19.115  -3.492  1.00 20.00     0.170 C 
HETATM   10  C10 UNL     1     -33.188  17.948  -1.396  1.00 20.00     0.087 C 
HETATM   11  C11 UNL     1     -34.198  17.395  -3.686  1.00 20.00     0.062 C 
HETATM   12  O12 UNL     1     -33.685  18.668  -4.137  1.00 20.00    -0.380 OA
HETATM   13 CL13 UNL     1     -33.577  18.166   0.335  1.00 20.00    -0.125 Cl
ENDROOT
TORSDOF 0
ENDMDL
MODEL 5
REMARK VINA RESULT:      -3.5     22.314     23.719
REMARK  0 active torsions:
REMARK  status: ('A' for Active; 'I' for Inactive)
ROOT
HETATM    1  C1  UNL     1     -28.624  -1.782  12.332  1.00 20.00     0.000 C 
HETATM    2  C2  UNL     1     -28.035  -0.617  11.541  1.00 20.00     0.000 C 
HETATM    3  C3  UNL     1     -28.388  -3.172  11.725  1.00 20.00     0.003 C 
HETATM    4  C4  UNL     1     -26.506  -0.516  11.569  1.00 20.00     0.003 C 
HETATM    5  C5  UNL     1     -27.325  -3.267  10.627  1.00 20.00     0.038 C 
HETATM    6  C6  UNL     1     -25.744  -1.769  12.002  1.00 20.00     0.038 C 
HETATM    7  C7  UNL     1     -23.214  -4.242  10.929  1.00 20.00     0.046 C 
HETATM    8  C8  UNL     1     -24.996  -2.887   9.805  1.00 20.00     0.058 C 
HETATM    9  C9  UNL     1     -24.101  -4.268  12.165  1.00 20.00     0.170 C 
HETATM   10  C10 UNL     1     -23.500  -2.994  10.102  1.00 20.00     0.087 C 
HETATM   11  C11 UNL     1     -25.870  -3.005  11.080  1.00 20.00     0.062 C 
HETATM   12  O12 UNL     1     -25.481  -4.186  11.814  1.00 20.00    -0.380 OA
HETATM   13 CL13 UNL     1     -22.572  -3.043   8.575  1.00 20.00    -0.125 Cl
ENDROOT
TORSDOF 0
ENDMDL
MODEL 6
REMARK VINA RESULT:      -3.5     13.805     15.203
REMARK  0 active torsions:
REMARK  status: ('A' for Active; 'I' for Inactive)
ROOT
HETATM    1  C1  UNL     1     -37.468  17.097  -7.666  1.00 20.00     0.000 C 
HETATM    2  C2  UNL     1     -37.982  17.752  -6.387  1.00 20.00     0.000 C 
HETATM    3  C3  UNL     1     -35.961  17.243  -7.918  1.00 20.00     0.003 C 
HETATM    4  C4  UNL     1     -37.563  17.059  -5.086  1.00 20.00     0.003 C 
HETATM    5  C5  UNL     1     -35.111  17.701  -6.730  1.00 20.00     0.038 C 
HETATM    6  C6  UNL     1     -36.383  16.091  -5.174  1.00 20.00     0.038 C 
HETATM    7  C7  UNL     1     -32.990  15.395  -3.880  1.00 20.00     0.046 C 
HETATM    8  C8  UNL     1     -34.346  17.444  -4.365  1.00 20.00     0.058 C 
HETATM    9  C9  UNL     1     -33.728  14.712  -5.023  1.00 20.00     0.170 C 
HETATM   10  C10 UNL     1     -33.858  16.491  -3.274  1.00 20.00     0.087 C 
HETATM   11  C11 UNL     1     -35.014  16.704  -5.552  1.00 20.00     0.062 C 
HETATM   12  O12 UNL     1     -34.135  15.655  -6.013  1.00 20.00    -0.380 OA
HETATM   13 CL13 UNL     1     -32.934  17.392  -2.038  1.00 20.00    -0.125 Cl
ENDROOT
TORSDOF 0
ENDMDL
MODEL 7
REMARK VINA RESULT:      -3.4     13.827     14.997
REMARK  0 active torsions:
REMARK  status: ('A' for Active; 'I' for Inactive)
ROOT
HETATM    1  C1  UNL     1     -32.886  15.368  -4.043  1.00 20.00     0.000 C 
HETATM    2  C2  UNL     1     -33.507  16.255  -2.967  1.00 20.00     0.000 C 
HETATM    3  C3  UNL     1     -33.871  14.805  -5.076  1.00 20.00     0.003 C 
HETATM    4  C4  UNL     1     -33.991  17.627  -3.451  1.00 20.00     0.003 C 
HETATM    5  C5  UNL     1     -35.256  15.455  -5.126  1.00 20.00     0.038 C 
HETATM    6  C6  UNL     1     -34.187  17.791  -4.959  1.00 20.00     0.038 C 
HETATM    7  C7  UNL     1     -36.670  18.610  -7.572  1.00 20.00     0.046 C 
HETATM    8  C8  UNL     1     -36.714  17.472  -5.341  1.00 20.00     0.058 C 
HETATM    9  C9  UNL     1     -35.253  18.084  -7.743  1.00 20.00     0.170 C 
HETATM   10  C10 UNL     1     -36.997  18.774  -6.093  1.00 20.00     0.087 C 
HETATM   11  C11 UNL     1     -35.290  16.923  -5.609  1.00 20.00     0.062 C 
HETATM   12  O12 UNL     1     -35.066  16.861  -7.035  1.00 20.00    -0.380 OA
HETATM   13 CL13 UNL     1     -38.710  19.241  -5.890  1.00 20.00    -0.125 Cl
ENDROOT
TORSDOF 0
ENDMDL
MODEL 8
REMARK VINA RESULT:      -3.4      1.392      1.517
REMARK  0 active torsions:
REMARK  status: ('A' for Active; 'I' for Inactive)
ROOT
HETATM    1  C1  UNL     1     -41.029  13.931  11.565  1.00 20.00     0.000 C 
HETATM    2  C2  UNL     1     -40.567  15.332  11.175  1.00 20.00     0.000 C 
HETATM    3  C3  UNL     1     -42.346  13.472  10.924  1.00 20.00     0.003 C 
HETATM    4  C4  UNL     1     -40.070  15.477   9.733  1.00 20.00     0.003 C 
HETATM    5  C5  UNL     1     -42.850  14.294   9.734  1.00 20.00     0.038 C 
HETATM    6  C6  UNL     1     -40.469  14.371   8.756  1.00 20.00     0.038 C 
HETATM    7  C7  UNL     1     -42.245  13.686   5.587  1.00 20.00     0.046 C 
HETATM    8  C8  UNL     1     -42.499  15.309   7.478  1.00 20.00     0.058 C 
HETATM    9  C9  UNL     1     -41.690  12.693   6.596  1.00 20.00     0.170 C 
HETATM   10  C10 UNL     1     -41.982  15.113   6.053  1.00 20.00     0.087 C 
HETATM   11  C11 UNL     1     -41.980  14.226   8.458  1.00 20.00     0.062 C 
HETATM   12  O12 UNL     1     -42.229  12.919   7.896  1.00 20.00    -0.380 OA
HETATM   13 CL13 UNL     1     -42.769  16.275   4.947  1.00 20.00    -0.125 Cl
ENDROOT
TORSDOF 0
ENDMDL
MODEL 9
REMARK VINA RESULT:      -3.3      2.341      4.410
REMARK  0 active torsions:
REMARK  status: ('A' for Active; 'I' for Inactive)
ROOT
HETATM    1  C1  UNL     1     -40.516  12.439   5.351  1.00 20.00     0.000 C 
HETATM    2  C2  UNL     1     -41.185  13.643   4.694  1.00 20.00     0.000 C 
HETATM    3  C3  UNL     1     -39.873  12.711   6.717  1.00 20.00     0.003 C 
HETATM    4  C4  UNL     1     -42.482  14.114   5.360  1.00 20.00     0.003 C 
HETATM    5  C5  UNL     1     -40.264  14.020   7.409  1.00 20.00     0.038 C 
HETATM    6  C6  UNL     1     -42.733  13.631   6.789  1.00 20.00     0.038 C 
HETATM    7  C7  UNL     1     -43.306  14.758  10.263  1.00 20.00     0.046 C 
HETATM    8  C8  UNL     1     -41.997  15.587   8.294  1.00 20.00     0.058 C 
HETATM    9  C9  UNL     1     -43.060  13.346   9.753  1.00 20.00     0.170 C 
HETATM   10  C10 UNL     1     -43.284  15.748   9.104  1.00 20.00     0.087 C 
HETATM   11  C11 UNL     1     -41.738  14.120   7.867  1.00 20.00     0.062 C 
HETATM   12  O12 UNL     1     -41.835  13.264   9.026  1.00 20.00    -0.380 OA
HETATM   13 CL13 UNL     1     -43.417  17.419   9.722  1.00 20.00    -0.125 Cl
ENDROOT
TORSDOF 0
ENDMDL
