MODEL 1
REMARK VINA RESULT:      -4.1      0.000      0.000
REMARK  1 active torsions:
REMARK  status: ('A' for Active; 'I' for Inactive)
REMARK    1  A    between atoms: C5_5  and  C8_8 
ROOT
HETATM    1  C1  UNL     1     -33.467   7.467   6.533  1.00 20.00     0.046 C 
HETATM    2  C2  UNL     1     -33.391   6.873   4.102  1.00 20.00     0.057 C 
HETATM    3  C3  UNL     1     -34.470   6.338   6.723  1.00 20.00     0.170 C 
HETATM    4  C4  UNL     1     -33.551   8.010   5.112  1.00 20.00     0.087 C 
HETATM    5  C5  UNL     1     -34.355   5.702   4.388  1.00 20.00     0.058 C 
HETATM    6  C6  UNL     1     -35.785   6.031   4.009  1.00 20.00     0.046 C 
HETATM    7  O9  UNL     1     -34.277   5.298   5.767  1.00 20.00    -0.380 OA
HETATM    8 CL10 UNL     1     -32.292   9.248   4.850  1.00 20.00    -0.125 Cl
ENDROOT
BRANCH   5   9
HETATM    9  C8  UNL     1     -33.905   4.478   3.572  1.00 20.00     0.033 C 
HETATM   10  C7  UNL     1     -32.901   4.853   2.537  1.00 20.00     0.008 C 
ENDBRANCH   5   9
TORSDOF 1
ENDMDL
MODEL 2
REMARK VINA RESULT:      -4.0      9.514     10.199
REMARK  1 active torsions:
REMARK  status: ('A' for Active; 'I' for Inactive)
REMARK    1  A    between atoms: C5_5  and  C8_8 
ROOT
HETATM    1  C1  UNL     1     -42.296  13.858   8.432  1.00 20.00     0.046 C 
HETATM    2  C2  UNL     1     -40.124  13.720   7.198  1.00 20.00     0.057 C 
HETATM    3  C3  UNL     1     -42.897  12.951   7.369  1.00 20.00     0.170 C 
HETATM    4  C4  UNL     1     -41.140  14.660   7.847  1.00 20.00     0.087 C 
HETATM    5  C5  UNL     1     -40.785  12.747   6.200  1.00 20.00     0.058 C 
HETATM    6  C6  UNL     1     -41.190  13.433   4.911  1.00 20.00     0.046 C 
HETATM    7  O9  UNL     1     -41.916  12.088   6.799  1.00 20.00    -0.380 OA
HETATM    8 CL10 UNL     1     -40.355  15.631   9.123  1.00 20.00    -0.125 Cl
ENDROOT
BRANCH   5   9
HETATM    9  C8  UNL     1     -39.787  11.627   5.861  1.00 20.00     0.033 C 
HETATM   10  C7  UNL     1     -39.263  11.766   4.473  1.00 20.00     0.008 C 
ENDBRANCH   5   9
TORSDOF 1
ENDMDL
MODEL 3
REMARK VINA RESULT:      -3.9     16.061     16.844
REMARK  1 active torsions:
REMARK  status: ('A' for Active; 'I' for Inactive)
REMARK    1  A    between atoms: C5_5  and  C8_8 
ROOT
HETATM    1  C1  UNL     1     -23.212  17.983  12.332  1.00 20.00     0.046 C 
HETATM    2  C2  UNL     1     -24.278  17.668  10.089  1.00 20.00     0.057 C 
HETATM    3  C3  UNL     1     -21.998  18.556  11.616  1.00 20.00     0.170 C 
HETATM    4  C4  UNL     1     -23.943  17.002  11.424  1.00 20.00     0.087 C 
HETATM    5  C5  UNL     1     -23.041  18.326   9.441  1.00 20.00     0.058 C 
HETATM    6  C6  UNL     1     -22.088  17.303   8.857  1.00 20.00     0.046 C 
HETATM    7  O9  UNL     1     -22.359  19.174  10.382  1.00 20.00    -0.380 OA
HETATM    8 CL10 UNL     1     -25.436  16.424  12.216  1.00 20.00    -0.125 Cl
ENDROOT
BRANCH   5   9
HETATM    9  C8  UNL     1     -23.509  19.257   8.310  1.00 20.00     0.033 C 
HETATM   10  C7  UNL     1     -24.994  19.263   8.190  1.00 20.00     0.008 C 
ENDBRANCH   5   9
TORSDOF 1
ENDMDL
MODEL 4
REMARK VINA RESULT:      -3.6     10.044     10.749
REMARK  1 active torsions:
REMARK  status: ('A' for Active; 'I' for Inactive)
REMARK    1  A    between atoms: C5_5  and  C8_8 
ROOT
HETATM    1  C1  UNL     1     -40.630  15.673   8.148  1.00 20.00     0.046 C 
HETATM    2  C2  UNL     1     -41.412  14.584   6.034  1.00 20.00     0.057 C 
HETATM    3  C3  UNL     1     -40.466  14.282   8.742  1.00 20.00     0.170 C 
HETATM    4  C4  UNL     1     -41.713  15.662   7.076  1.00 20.00     0.087 C 
HETATM    5  C5  UNL     1     -41.151  13.208   6.681  1.00 20.00     0.058 C 
HETATM    6  C6  UNL     1     -42.424  12.563   7.192  1.00 20.00     0.046 C 
HETATM    7  O9  UNL     1     -40.178  13.313   7.736  1.00 20.00    -0.380 OA
HETATM    8 CL10 UNL     1     -41.820  17.263   6.292  1.00 20.00    -0.125 Cl
ENDROOT
BRANCH   5   9
HETATM    9  C8  UNL     1     -40.522  12.276   5.631  1.00 20.00     0.033 C 
HETATM   10  C7  UNL     1     -39.090  12.000   5.937  1.00 20.00     0.008 C 
ENDBRANCH   5   9
TORSDOF 1
ENDMDL
MODEL 5
REMARK VINA RESULT:      -3.6     15.562     16.698
REMARK  1 active torsions:
REMARK  status: ('A' for Active; 'I' for Inactive)
REMARK    1  A    between atoms: C5_5  and  C8_8 
ROOT
HETATM    1  C1  UNL     1     -22.889  18.678   8.403  1.00 20.00     0.046 C 
HETATM    2  C2  UNL     1     -24.631  18.074  10.096  1.00 20.00     0.057 C 
HETATM    3  C3  UNL     1     -21.838  18.438   9.477  1.00 20.00     0.170 C 
HETATM    4  C4  UNL     1     -24.207  19.097   9.042  1.00 20.00     0.087 C 
HETATM    5  C5  UNL     1     -23.503  17.781  11.109  1.00 20.00     0.058 C 
HETATM    6  C6  UNL     1     -23.301  18.920  12.087  1.00 20.00     0.046 C 
HETATM    7  O9  UNL     1     -22.272  17.471  10.430  1.00 20.00    -0.380 OA
HETATM    8 CL10 UNL     1     -25.474  19.257   7.795  1.00 20.00    -0.125 Cl
ENDROOT
BRANCH   5   9
HETATM    9  C8  UNL     1     -23.866  16.515  11.904  1.00 20.00     0.033 C 
HETATM   10  C7  UNL     1     -25.303  16.515  12.300  1.00 20.00     0.008 C 
ENDBRANCH   5   9
TORSDOF 1
ENDMDL
MODEL 6
REMARK VINA RESULT:      -3.6     13.026     14.099
REMARK  1 active torsions:
REMARK  status: ('A' for Active; 'I' for Inactive)
REMARK    1  A    between atoms: C5_5  and  C8_8 
ROOT
HETATM    1  C1  UNL     1     -33.338  17.824  -4.318  1.00 20.00     0.046 C 
HETATM    2  C2  UNL     1     -32.968  17.014  -1.979  1.00 20.00     0.057 C 
HETATM    3  C3  UNL     1     -33.123  19.240  -3.805  1.00 20.00     0.170 C 
HETATM    4  C4  UNL     1     -33.880  16.938  -3.203  1.00 20.00     0.087 C 
HETATM    5  C5  UNL     1     -32.691  18.470  -1.549  1.00 20.00     0.058 C 
HETATM    6  C6  UNL     1     -33.889  19.107  -0.875  1.00 20.00     0.046 C 
HETATM    7  O9  UNL     1     -32.260  19.263  -2.670  1.00 20.00    -0.380 OA
HETATM    8 CL10 UNL     1     -34.014  15.250  -3.768  1.00 20.00    -0.125 Cl
ENDROOT
BRANCH   5   9
HETATM    9  C8  UNL     1     -31.514  18.481  -0.559  1.00 20.00     0.033 C 
HETATM   10  C7  UNL     1     -31.988  18.601   0.849  1.00 20.00     0.008 C 
ENDBRANCH   5   9
TORSDOF 1
ENDMDL
MODEL 7
REMARK VINA RESULT:      -3.4     12.993     13.812
REMARK  1 active torsions:
REMARK  status: ('A' for Active; 'I' for Inactive)
REMARK    1  A    between atoms: C5_5  and  C8_8 
ROOT
HETATM    1  C1  UNL     1     -32.369  18.955   0.813  1.00 20.00     0.046 C 
HETATM    2  C2  UNL     1     -34.114  18.921  -0.981  1.00 20.00     0.057 C 
HETATM    3  C3  UNL     1     -31.367  18.475  -0.227  1.00 20.00     0.170 C 
HETATM    4  C4  UNL     1     -33.772  18.488   0.445  1.00 20.00     0.087 C 
HETATM    5  C5  UNL     1     -33.026  18.505  -1.992  1.00 20.00     0.058 C 
HETATM    6  C6  UNL     1     -33.052  17.018  -2.284  1.00 20.00     0.046 C 
HETATM    7  O9  UNL     1     -31.722  18.909  -1.538  1.00 20.00    -0.380 OA
HETATM    8 CL10 UNL     1     -34.965  19.154   1.595  1.00 20.00    -0.125 Cl
ENDROOT
BRANCH   5   9
HETATM    9  C8  UNL     1     -33.257  19.263  -3.311  1.00 20.00     0.033 C 
HETATM   10  C7  UNL     1     -33.977  18.417  -4.305  1.00 20.00     0.008 C 
ENDBRANCH   5   9
TORSDOF 1
ENDMDL
MODEL 8
REMARK VINA RESULT:      -3.3     10.301     11.033
REMARK  1 active torsions:
REMARK  status: ('A' for Active; 'I' for Inactive)
REMARK    1  A    between atoms: C5_5  and  C8_8 
ROOT
HETATM    1  C1  UNL     1     -41.641  16.062   6.768  1.00 20.00     0.046 C 
HETATM    2  C2  UNL     1     -41.918  14.235   5.079  1.00 20.00     0.057 C 
HETATM    3  C3  UNL     1     -41.047  15.028   7.712  1.00 20.00     0.170 C 
HETATM    4  C4  UNL     1     -42.609  15.394   5.798  1.00 20.00     0.087 C 
HETATM    5  C5  UNL     1     -41.240  13.261   6.065  1.00 20.00     0.058 C 
HETATM    6  C6  UNL     1     -42.245  12.396   6.800  1.00 20.00     0.046 C 
HETATM    7  O9  UNL     1     -40.406  13.972   6.998  1.00 20.00    -0.380 OA
HETATM    8 CL10 UNL     1     -43.211  16.584   4.611  1.00 20.00    -0.125 Cl
ENDROOT
BRANCH   5   9
HETATM    9  C8  UNL     1     -40.289  12.341   5.281  1.00 20.00     0.033 C 
HETATM   10  C7  UNL     1     -39.108  11.951   6.102  1.00 20.00     0.008 C 
ENDBRANCH   5   9
TORSDOF 1
ENDMDL
MODEL 9
REMARK VINA RESULT:      -3.3     13.351     13.965
REMARK  1 active torsions:
REMARK  status: ('A' for Active; 'I' for Inactive)
REMARK    1  A    between atoms: C5_5  and  C8_8 
ROOT
HETATM    1  C1  UNL     1     -33.294  15.788  -3.508  1.00 20.00     0.046 C 
HETATM    2  C2  UNL     1     -34.410  17.205  -5.243  1.00 20.00     0.057 C 
HETATM    3  C3  UNL     1     -33.987  14.582  -4.122  1.00 20.00     0.170 C 
HETATM    4  C4  UNL     1     -34.117  17.048  -3.751  1.00 20.00     0.087 C 
HETATM    5  C5  UNL     1     -35.020  15.925  -5.854  1.00 20.00     0.058 C 
HETATM    6  C6  UNL     1     -36.465  15.725  -5.443  1.00 20.00     0.046 C 
HETATM    7  O9  UNL     1     -34.232  14.769  -5.514  1.00 20.00    -0.380 OA
HETATM    8 CL10 UNL     1     -33.245  18.481  -3.141  1.00 20.00    -0.125 Cl
ENDROOT
BRANCH   5   9
HETATM    9  C8  UNL     1     -34.961  16.029  -7.388  1.00 20.00     0.033 C 
HETATM   10  C7  UNL     1     -33.668  15.510  -7.918  1.00 20.00     0.008 C 
ENDBRANCH   5   9
TORSDOF 1
ENDMDL
