MODEL 1
REMARK VINA RESULT:      -4.0      0.000      0.000
REMARK  2 active torsions:
REMARK  status: ('A' for Active; 'I' for Inactive)
REMARK    1  A    between atoms: C5_5  and  C8_8 
REMARK    2  A    between atoms: C8_8  and  C9_9 
ROOT
HETATM    1  C1  UNL     1     -32.507  18.463   0.642  1.00 20.00     0.046 C 
HETATM    2  C2  UNL     1     -34.242  18.736  -1.141  1.00 20.00     0.057 C 
HETATM    3  C3  UNL     1     -31.404  18.521  -0.412  1.00 20.00     0.170 C 
HETATM    4  C4  UNL     1     -33.720  19.263   0.196  1.00 20.00     0.087 C 
HETATM    5  C5  UNL     1     -33.101  18.412  -2.136  1.00 20.00     0.058 C 
HETATM    6  C6  UNL     1     -33.392  19.074  -3.490  1.00 20.00     0.046 C 
HETATM    7  O10 UNL     1     -31.858  18.969  -1.687  1.00 20.00    -0.380 OA
HETATM    8 CL11 UNL     1     -35.003  19.197   1.433  1.00 20.00    -0.125 Cl
ENDROOT
BRANCH   5   9
HETATM    9  C8  UNL     1     -32.960  16.899  -2.362  1.00 20.00     0.037 C 
BRANCH   9  10
HETATM   10  C9  UNL     1     -33.754  16.454  -3.582  1.00 20.00    -0.002 C 
HETATM   11  C7  UNL     1     -33.220  15.141  -4.130  1.00 20.00     0.005 C 
ENDBRANCH   9  10
ENDBRANCH   5   9
TORSDOF 2
ENDMDL
MODEL 2
REMARK VINA RESULT:      -3.7     11.963     12.711
REMARK  2 active torsions:
REMARK  status: ('A' for Active; 'I' for Inactive)
REMARK    1  A    between atoms: C5_5  and  C8_8 
REMARK    2  A    between atoms: C8_8  and  C9_9 
ROOT
HETATM    1  C1  UNL     1     -41.354  14.333   9.202  1.00 20.00     0.046 C 
HETATM    2  C2  UNL     1     -42.323  13.069   7.271  1.00 20.00     0.057 C 
HETATM    3  C3  UNL     1     -40.679  15.304   8.238  1.00 20.00     0.170 C 
HETATM    4  C4  UNL     1     -42.629  13.770   8.595  1.00 20.00     0.087 C 
HETATM    5  C5  UNL     1     -41.316  13.861   6.401  1.00 20.00     0.058 C 
HETATM    6  C6  UNL     1     -41.868  14.008   4.977  1.00 20.00     0.046 C 
HETATM    7  O10 UNL     1     -41.152  15.196   6.897  1.00 20.00    -0.380 OA
HETATM    8 CL11 UNL     1     -43.417  12.640   9.728  1.00 20.00    -0.125 Cl
ENDROOT
BRANCH   5   9
HETATM    9  C8  UNL     1     -39.958  13.148   6.317  1.00 20.00     0.037 C 
BRANCH   9  10
HETATM   10  C9  UNL     1     -40.075  11.838   5.552  1.00 20.00    -0.002 C 
HETATM   11  C7  UNL     1     -39.013  11.742   4.470  1.00 20.00     0.005 C 
ENDBRANCH   9  10
ENDBRANCH   5   9
TORSDOF 2
ENDMDL
MODEL 3
REMARK VINA RESULT:      -3.6      2.334      4.448
REMARK  2 active torsions:
REMARK  status: ('A' for Active; 'I' for Inactive)
REMARK    1  A    between atoms: C5_5  and  C8_8 
REMARK    2  A    between atoms: C8_8  and  C9_9 
ROOT
HETATM    1  C1  UNL     1     -34.362  17.514  -4.318  1.00 20.00     0.046 C 
HETATM    2  C2  UNL     1     -33.255  16.632  -2.255  1.00 20.00     0.057 C 
HETATM    3  C3  UNL     1     -33.791  18.902  -4.041  1.00 20.00     0.170 C 
HETATM    4  C4  UNL     1     -33.451  16.435  -3.758  1.00 20.00     0.087 C 
HETATM    5  C5  UNL     1     -33.045  18.118  -1.875  1.00 20.00     0.058 C 
HETATM    6  C6  UNL     1     -31.805  18.253  -0.981  1.00 20.00     0.046 C 
HETATM    7  O10 UNL     1     -32.776  18.910  -3.039  1.00 20.00    -0.380 OA
HETATM    8 CL11 UNL     1     -34.119  14.815  -4.090  1.00 20.00    -0.125 Cl
ENDROOT
BRANCH   5   9
HETATM    9  C8  UNL     1     -34.252  18.682  -1.109  1.00 20.00     0.037 C 
BRANCH   9  10
HETATM   10  C9  UNL     1     -33.928  18.856   0.368  1.00 20.00    -0.002 C 
HETATM   11  C7  UNL     1     -35.164  19.263   1.152  1.00 20.00     0.005 C 
ENDBRANCH   9  10
ENDBRANCH   5   9
TORSDOF 2
ENDMDL
MODEL 4
REMARK VINA RESULT:      -3.6      4.214      6.224
REMARK  2 active torsions:
REMARK  status: ('A' for Active; 'I' for Inactive)
REMARK    1  A    between atoms: C5_5  and  C8_8 
REMARK    2  A    between atoms: C8_8  and  C9_9 
ROOT
HETATM    1  C1  UNL     1     -34.571  17.087  -7.537  1.00 20.00     0.046 C 
HETATM    2  C2  UNL     1     -35.966  16.448  -5.560  1.00 20.00     0.057 C 
HETATM    3  C3  UNL     1     -34.044  15.658  -7.636  1.00 20.00     0.170 C 
HETATM    4  C4  UNL     1     -35.969  17.105  -6.941  1.00 20.00     0.087 C 
HETATM    5  C5  UNL     1     -35.106  15.162  -5.517  1.00 20.00     0.058 C 
HETATM    6  C6  UNL     1     -35.916  14.019  -4.891  1.00 20.00     0.046 C 
HETATM    7  O10 UNL     1     -34.775  14.725  -6.842  1.00 20.00    -0.380 OA
HETATM    8 CL11 UNL     1     -36.584  18.776  -6.833  1.00 20.00    -0.125 Cl
ENDROOT
BRANCH   5   9
HETATM    9  C8  UNL     1     -33.832  15.361  -4.683  1.00 20.00     0.037 C 
BRANCH   9  10
HETATM   10  C9  UNL     1     -33.869  16.687  -3.936  1.00 20.00    -0.002 C 
HETATM   11  C7  UNL     1     -33.390  16.519  -2.504  1.00 20.00     0.005 C 
ENDBRANCH   9  10
ENDBRANCH   5   9
TORSDOF 2
ENDMDL
MODEL 5
REMARK VINA RESULT:      -3.6      4.421      6.442
REMARK  2 active torsions:
REMARK  status: ('A' for Active; 'I' for Inactive)
REMARK    1  A    between atoms: C5_5  and  C8_8 
REMARK    2  A    between atoms: C8_8  and  C9_9 
ROOT
HETATM    1  C1  UNL     1     -35.431  16.779  -7.771  1.00 20.00     0.046 C 
HETATM    2  C2  UNL     1     -36.363  15.814  -5.658  1.00 20.00     0.057 C 
HETATM    3  C3  UNL     1     -34.149  15.973  -7.582  1.00 20.00     0.170 C 
HETATM    4  C4  UNL     1     -36.616  16.061  -7.146  1.00 20.00     0.087 C 
HETATM    5  C5  UNL     1     -34.916  15.346  -5.372  1.00 20.00     0.058 C 
HETATM    6  C6  UNL     1     -34.944  14.090  -4.491  1.00 20.00     0.046 C 
HETATM    7  O10 UNL     1     -34.256  14.959  -6.584  1.00 20.00    -0.380 OA
HETATM    8 CL11 UNL     1     -38.112  17.003  -7.375  1.00 20.00    -0.125 Cl
ENDROOT
BRANCH   5   9
HETATM    9  C8  UNL     1     -34.106  16.427  -4.641  1.00 20.00     0.037 C 
BRANCH   9  10
HETATM   10  C9  UNL     1     -33.380  15.844  -3.437  1.00 20.00    -0.002 C 
HETATM   11  C7  UNL     1     -33.396  16.816  -2.269  1.00 20.00     0.005 C 
ENDBRANCH   9  10
ENDBRANCH   5   9
TORSDOF 2
ENDMDL
MODEL 6
REMARK VINA RESULT:      -3.6     11.685     12.569
REMARK  2 active torsions:
REMARK  status: ('A' for Active; 'I' for Inactive)
REMARK    1  A    between atoms: C5_5  and  C8_8 
REMARK    2  A    between atoms: C8_8  and  C9_9 
ROOT
HETATM    1  C1  UNL     1     -41.094  16.160   7.323  1.00 20.00     0.046 C 
HETATM    2  C2  UNL     1     -41.168  13.754   8.008  1.00 20.00     0.057 C 
HETATM    3  C3  UNL     1     -42.189  15.908   6.290  1.00 20.00     0.170 C 
HETATM    4  C4  UNL     1     -41.228  15.202   8.495  1.00 20.00     0.087 C 
HETATM    5  C5  UNL     1     -41.981  13.532   6.709  1.00 20.00     0.058 C 
HETATM    6  C6  UNL     1     -42.908  12.321   6.881  1.00 20.00     0.046 C 
HETATM    7  O10 UNL     1     -42.841  14.649   6.448  1.00 20.00    -0.380 OA
HETATM    8 CL11 UNL     1     -39.951  15.505   9.702  1.00 20.00    -0.125 Cl
ENDROOT
BRANCH   5   9
HETATM    9  C8  UNL     1     -41.064  13.267   5.506  1.00 20.00     0.037 C 
BRANCH   9  10
HETATM   10  C9  UNL     1     -39.990  12.245   5.852  1.00 20.00    -0.002 C 
HETATM   11  C7  UNL     1     -39.298  11.737   4.598  1.00 20.00     0.005 C 
ENDBRANCH   9  10
ENDBRANCH   5   9
TORSDOF 2
ENDMDL
MODEL 7
REMARK VINA RESULT:      -3.4      2.949      4.058
REMARK  2 active torsions:
REMARK  status: ('A' for Active; 'I' for Inactive)
REMARK    1  A    between atoms: C5_5  and  C8_8 
REMARK    2  A    between atoms: C8_8  and  C9_9 
ROOT
HETATM    1  C1  UNL     1     -35.621  18.493  -4.529  1.00 20.00     0.046 C 
HETATM    2  C2  UNL     1     -33.150  18.564  -4.141  1.00 20.00     0.057 C 
HETATM    3  C3  UNL     1     -35.867  18.586  -3.025  1.00 20.00     0.170 C 
HETATM    4  C4  UNL     1     -34.321  19.183  -4.905  1.00 20.00     0.087 C 
HETATM    5  C5  UNL     1     -33.493  18.281  -2.659  1.00 20.00     0.058 C 
HETATM    6  C6  UNL     1     -32.397  18.861  -1.755  1.00 20.00     0.046 C 
HETATM    7  O10 UNL     1     -34.705  18.945  -2.279  1.00 20.00    -0.380 OA
HETATM    8 CL11 UNL     1     -34.041  19.078  -6.664  1.00 20.00    -0.125 Cl
ENDROOT
BRANCH   5   9
HETATM    9  C8  UNL     1     -33.596  16.774  -2.380  1.00 20.00     0.037 C 
BRANCH   9  10
HETATM   10  C9  UNL     1     -33.024  15.964  -3.535  1.00 20.00    -0.002 C 
HETATM   11  C7  UNL     1     -34.038  14.954  -4.046  1.00 20.00     0.005 C 
ENDBRANCH   9  10
ENDBRANCH   5   9
TORSDOF 2
ENDMDL
MODEL 8
REMARK VINA RESULT:      -3.4      3.677      5.059
REMARK  2 active torsions:
REMARK  status: ('A' for Active; 'I' for Inactive)
REMARK    1  A    between atoms: C5_5  and  C8_8 
REMARK    2  A    between atoms: C8_8  and  C9_9 
ROOT
HETATM    1  C1  UNL     1     -33.845  15.035  -4.032  1.00 20.00     0.046 C 
HETATM    2  C2  UNL     1     -34.757  17.352  -4.289  1.00 20.00     0.057 C 
HETATM    3  C3  UNL     1     -33.960  14.815  -5.537  1.00 20.00     0.170 C 
HETATM    4  C4  UNL     1     -33.618  16.505  -3.718  1.00 20.00     0.087 C 
HETATM    5  C5  UNL     1     -35.175  16.903  -5.709  1.00 20.00     0.058 C 
HETATM    6  C6  UNL     1     -35.219  18.120  -6.644  1.00 20.00     0.046 C 
HETATM    7  O10 UNL     1     -34.200  16.014  -6.272  1.00 20.00    -0.380 OA
HETATM    8 CL11 UNL     1     -33.478  16.757  -1.958  1.00 20.00    -0.125 Cl
ENDROOT
BRANCH   5   9
HETATM    9  C8  UNL     1     -36.563  16.246  -5.710  1.00 20.00     0.037 C 
BRANCH   9  10
HETATM   10  C9  UNL     1     -37.578  17.115  -4.981  1.00 20.00    -0.002 C 
HETATM   11  C7  UNL     1     -38.904  16.390  -4.826  1.00 20.00     0.005 C 
ENDBRANCH   9  10
ENDBRANCH   5   9
TORSDOF 2
ENDMDL
MODEL 9
REMARK VINA RESULT:      -3.3     11.698     13.032
REMARK  2 active torsions:
REMARK  status: ('A' for Active; 'I' for Inactive)
REMARK    1  A    between atoms: C5_5  and  C8_8 
REMARK    2  A    between atoms: C8_8  and  C9_9 
ROOT
HETATM    1  C1  UNL     1     -40.796  13.199   4.936  1.00 20.00     0.046 C 
HETATM    2  C2  UNL     1     -42.363  14.594   6.302  1.00 20.00     0.057 C 
HETATM    3  C3  UNL     1     -40.654  12.213   6.092  1.00 20.00     0.170 C 
HETATM    4  C4  UNL     1     -42.158  13.874   4.968  1.00 20.00     0.087 C 
HETATM    5  C5  UNL     1     -41.866  13.760   7.507  1.00 20.00     0.058 C 
HETATM    6  C6  UNL     1     -42.961  13.700   8.581  1.00 20.00     0.046 C 
HETATM    7  O10 UNL     1     -41.622  12.400   7.122  1.00 20.00    -0.380 OA
HETATM    8 CL11 UNL     1     -42.322  15.021   3.612  1.00 20.00    -0.125 Cl
ENDROOT
BRANCH   5   9
HETATM    9  C8  UNL     1     -40.607  14.372   8.140  1.00 20.00     0.037 C 
BRANCH   9  10
HETATM   10  C9  UNL     1     -40.420  15.816   7.694  1.00 20.00    -0.002 C 
HETATM   11  C7  UNL     1     -40.834  16.782   8.791  1.00 20.00     0.005 C 
ENDBRANCH   9  10
ENDBRANCH   5   9
TORSDOF 2
ENDMDL
