MODEL 1
REMARK VINA RESULT:      -3.6      0.000      0.000
REMARK  1 active torsions:
REMARK  status: ('A' for Active; 'I' for Inactive)
REMARK    1  A    between atoms: C6_6  and  C8_8 
ROOT
HETATM    1  C3  UNL     1     -33.033  19.085   1.224  1.00 20.00     0.046 C 
HETATM    2  C4  UNL     1     -31.804  18.176  -0.757  1.00 20.00     0.058 C 
HETATM    3  C5  UNL     1     -34.305  19.037   0.390  1.00 20.00     0.170 C 
HETATM    4  C7  UNL     1     -31.819  19.261   0.320  1.00 20.00     0.087 C 
HETATM    5  C8  UNL     1     -33.146  18.088  -1.514  1.00 20.00     0.062 C 
HETATM    6  C9  UNL     1     -33.178  16.776  -2.315  1.00 20.00     0.046 C 
HETATM    7  O10 UNL     1     -34.249  18.006  -0.593  1.00 20.00    -0.380 OA
HETATM    8 CL11 UNL     1     -30.318  19.193   1.284  1.00 20.00    -0.125 Cl
ENDROOT
BRANCH   5   9
HETATM    9  C6  UNL     1     -33.337  19.242  -2.476  1.00 20.00     0.020 A 
HETATM   10  C1  UNL     1     -33.131  19.041  -3.952  1.00 20.00     0.008 A 
HETATM   11  C2  UNL     1     -34.516  19.262  -3.410  1.00 20.00     0.008 A 
ENDBRANCH   5   9
TORSDOF 1
ENDMDL
MODEL 2
REMARK VINA RESULT:      -3.4      5.586      7.317
REMARK  1 active torsions:
REMARK  status: ('A' for Active; 'I' for Inactive)
REMARK    1  A    between atoms: C6_6  and  C8_8 
ROOT
HETATM    1  C3  UNL     1     -36.990  16.445  -7.639  1.00 20.00     0.046 C 
HETATM    2  C4  UNL     1     -36.709  15.956  -5.201  1.00 20.00     0.058 C 
HETATM    3  C5  UNL     1     -35.922  15.399  -7.918  1.00 20.00     0.170 C 
HETATM    4  C7  UNL     1     -36.778  17.056  -6.259  1.00 20.00     0.087 C 
HETATM    5  C8  UNL     1     -35.687  14.859  -5.568  1.00 20.00     0.062 C 
HETATM    6  C9  UNL     1     -35.921  13.639  -4.661  1.00 20.00     0.046 C 
HETATM    7  O10 UNL     1     -35.901  14.389  -6.911  1.00 20.00    -0.380 OA
HETATM    8 CL11 UNL     1     -38.102  18.194  -5.880  1.00 20.00    -0.125 Cl
ENDROOT
BRANCH   5   9
HETATM    9  C6  UNL     1     -34.257  15.324  -5.385  1.00 20.00     0.020 A 
HETATM   10  C1  UNL     1     -33.871  16.132  -4.177  1.00 20.00     0.008 A 
HETATM   11  C2  UNL     1     -33.393  14.713  -4.317  1.00 20.00     0.008 A 
ENDBRANCH   5   9
TORSDOF 1
ENDMDL
MODEL 3
REMARK VINA RESULT:      -3.4     11.661     12.664
REMARK  1 active torsions:
REMARK  status: ('A' for Active; 'I' for Inactive)
REMARK    1  A    between atoms: C6_6  and  C8_8 
ROOT
HETATM    1  C3  UNL     1     -41.204  16.372   8.236  1.00 20.00     0.046 C 
HETATM    2  C4  UNL     1     -41.138  13.905   8.653  1.00 20.00     0.058 C 
HETATM    3  C5  UNL     1     -41.473  16.064   6.771  1.00 20.00     0.170 C 
HETATM    4  C7  UNL     1     -40.418  15.234   8.876  1.00 20.00     0.087 C 
HETATM    5  C8  UNL     1     -41.485  13.674   7.167  1.00 20.00     0.062 C 
HETATM    6  C9  UNL     1     -42.495  12.518   7.067  1.00 20.00     0.046 C 
HETATM    7  O10 UNL     1     -42.153  14.821   6.612  1.00 20.00    -0.380 OA
HETATM    8 CL11 UNL     1     -40.209  15.537  10.624  1.00 20.00    -0.125 Cl
ENDROOT
BRANCH   5   9
HETATM    9  C6  UNL     1     -40.264  13.315   6.343  1.00 20.00     0.020 A 
HETATM   10  C1  UNL     1     -40.003  11.887   5.957  1.00 20.00     0.008 A 
HETATM   11  C2  UNL     1     -40.418  12.884   4.911  1.00 20.00     0.008 A 
ENDBRANCH   5   9
TORSDOF 1
ENDMDL
MODEL 4
REMARK VINA RESULT:      -3.3     11.676     13.198
REMARK  1 active torsions:
REMARK  status: ('A' for Active; 'I' for Inactive)
REMARK    1  A    between atoms: C6_6  and  C8_8 
ROOT
HETATM    1  C3  UNL     1     -41.453  13.729   4.830  1.00 20.00     0.046 C 
HETATM    2  C4  UNL     1     -40.189  13.475   6.974  1.00 20.00     0.058 C 
HETATM    3  C5  UNL     1     -42.389  14.683   5.555  1.00 20.00     0.170 C 
HETATM    4  C7  UNL     1     -40.852  12.733   5.814  1.00 20.00     0.087 C 
HETATM    5  C8  UNL     1     -41.136  14.508   7.621  1.00 20.00     0.062 C 
HETATM    6  C9  UNL     1     -40.310  15.441   8.523  1.00 20.00     0.046 C 
HETATM    7  O10 UNL     1     -41.725  15.359   6.622  1.00 20.00    -0.380 OA
HETATM    8 CL11 UNL     1     -39.660  11.691   4.987  1.00 20.00    -0.125 Cl
ENDROOT
BRANCH   5   9
HETATM    9  C6  UNL     1     -42.209  13.851   8.466  1.00 20.00     0.020 A 
HETATM   10  C1  UNL     1     -42.194  14.001   9.961  1.00 20.00     0.008 A 
HETATM   11  C2  UNL     1     -43.254  14.690   9.148  1.00 20.00     0.008 A 
ENDBRANCH   5   9
TORSDOF 1
ENDMDL
MODEL 5
REMARK VINA RESULT:      -3.2      3.721      5.132
REMARK  1 active torsions:
REMARK  status: ('A' for Active; 'I' for Inactive)
REMARK    1  A    between atoms: C6_6  and  C8_8 
ROOT
HETATM    1  C3  UNL     1     -33.258  15.462  -3.810  1.00 20.00     0.046 C 
HETATM    2  C4  UNL     1     -33.999  17.788  -4.362  1.00 20.00     0.058 C 
HETATM    3  C5  UNL     1     -34.085  14.975  -4.990  1.00 20.00     0.170 C 
HETATM    4  C7  UNL     1     -33.850  16.750  -3.250  1.00 20.00     0.087 C 
HETATM    5  C8  UNL     1     -34.755  17.225  -5.585  1.00 20.00     0.062 C 
HETATM    6  C9  UNL     1     -34.561  18.184  -6.772  1.00 20.00     0.046 C 
HETATM    7  O10 UNL     1     -34.189  15.971  -6.005  1.00 20.00    -0.380 OA
HETATM    8 CL11 UNL     1     -32.811  17.390  -1.946  1.00 20.00    -0.125 Cl
ENDROOT
BRANCH   5   9
HETATM    9  C6  UNL     1     -36.241  17.082  -5.323  1.00 20.00     0.020 A 
HETATM   10  C1  UNL     1     -37.232  17.889  -6.114  1.00 20.00     0.008 A 
HETATM   11  C2  UNL     1     -37.125  16.406  -6.333  1.00 20.00     0.008 A 
ENDBRANCH   5   9
TORSDOF 1
ENDMDL
MODEL 6
REMARK VINA RESULT:      -3.2     12.046     13.517
REMARK  1 active torsions:
REMARK  status: ('A' for Active; 'I' for Inactive)
REMARK    1  A    between atoms: C6_6  and  C8_8 
ROOT
HETATM    1  C3  UNL     1     -42.213  12.515   6.596  1.00 20.00     0.046 C 
HETATM    2  C4  UNL     1     -40.393  14.226   6.746  1.00 20.00     0.058 C 
HETATM    3  C5  UNL     1     -42.798  13.103   7.870  1.00 20.00     0.170 C 
HETATM    4  C7  UNL     1     -40.706  12.742   6.557  1.00 20.00     0.087 C 
HETATM    5  C8  UNL     1     -41.087  14.813   7.993  1.00 20.00     0.062 C 
HETATM    6  C9  UNL     1     -41.018  16.348   7.923  1.00 20.00     0.046 C 
HETATM    7  O10 UNL     1     -42.489  14.489   7.999  1.00 20.00    -0.380 OA
HETATM    8 CL11 UNL     1     -40.036  12.163   5.006  1.00 20.00    -0.125 Cl
ENDROOT
BRANCH   5   9
HETATM    9  C6  UNL     1     -40.428  14.362   9.281  1.00 20.00     0.020 A 
HETATM   10  C1  UNL     1     -40.063  15.366  10.338  1.00 20.00     0.008 A 
HETATM   11  C2  UNL     1     -41.191  14.402  10.576  1.00 20.00     0.008 A 
ENDBRANCH   5   9
TORSDOF 1
ENDMDL
MODEL 7
REMARK VINA RESULT:      -3.2     24.760     25.664
REMARK  1 active torsions:
REMARK  status: ('A' for Active; 'I' for Inactive)
REMARK    1  A    between atoms: C6_6  and  C8_8 
ROOT
HETATM    1  C3  UNL     1     -23.937  -1.896  11.621  1.00 20.00     0.046 C 
HETATM    2  C4  UNL     1     -25.240  -3.875  10.817  1.00 20.00     0.058 C 
HETATM    3  C5  UNL     1     -25.258  -1.248  12.004  1.00 20.00     0.170 C 
HETATM    4  C7  UNL     1     -24.145  -2.869  10.466  1.00 20.00     0.087 C 
HETATM    5  C8  UNL     1     -26.533  -3.183  11.300  1.00 20.00     0.062 C 
HETATM    6  C9  UNL     1     -27.443  -4.235  11.956  1.00 20.00     0.046 C 
HETATM    7  O10 UNL     1     -26.246  -2.223  12.332  1.00 20.00    -0.380 OA
HETATM    8 CL11 UNL     1     -22.620  -3.722  10.097  1.00 20.00    -0.125 Cl
ENDROOT
BRANCH   5   9
HETATM    9  C6  UNL     1     -27.294  -2.534  10.162  1.00 20.00     0.020 A 
HETATM   10  C1  UNL     1     -28.691  -2.980   9.832  1.00 20.00     0.008 A 
HETATM   11  C2  UNL     1     -28.460  -1.630  10.449  1.00 20.00     0.008 A 
ENDBRANCH   5   9
TORSDOF 1
ENDMDL
MODEL 8
REMARK VINA RESULT:      -3.2      3.854      4.962
REMARK  1 active torsions:
REMARK  status: ('A' for Active; 'I' for Inactive)
REMARK    1  A    between atoms: C6_6  and  C8_8 
ROOT
HETATM    1  C3  UNL     1     -35.159  18.151  -3.334  1.00 20.00     0.046 C 
HETATM    2  C4  UNL     1     -34.166  16.003  -4.147  1.00 20.00     0.058 C 
HETATM    3  C5  UNL     1     -35.998  18.181  -4.603  1.00 20.00     0.170 C 
HETATM    4  C7  UNL     1     -33.862  17.389  -3.581  1.00 20.00     0.087 C 
HETATM    5  C8  UNL     1     -35.103  16.066  -5.372  1.00 20.00     0.062 C 
HETATM    6  C9  UNL     1     -35.636  14.653  -5.662  1.00 20.00     0.046 C 
HETATM    7  O10 UNL     1     -36.264  16.867  -5.088  1.00 20.00    -0.380 OA
HETATM    8 CL11 UNL     1     -32.934  17.246  -2.062  1.00 20.00    -0.125 Cl
ENDROOT
BRANCH   5   9
HETATM    9  C6  UNL     1     -34.392  16.574  -6.610  1.00 20.00     0.020 A 
HETATM   10  C1  UNL     1     -34.062  15.632  -7.735  1.00 20.00     0.008 A 
HETATM   11  C2  UNL     1     -35.128  16.676  -7.917  1.00 20.00     0.008 A 
ENDBRANCH   5   9
TORSDOF 1
ENDMDL
MODEL 9
REMARK VINA RESULT:      -3.2      5.250      6.557
REMARK  1 active torsions:
REMARK  status: ('A' for Active; 'I' for Inactive)
REMARK    1  A    between atoms: C6_6  and  C8_8 
ROOT
HETATM    1  C3  UNL     1     -36.752  18.230  -5.421  1.00 20.00     0.046 C 
HETATM    2  C4  UNL     1     -36.355  15.855  -6.099  1.00 20.00     0.058 C 
HETATM    3  C5  UNL     1     -35.278  18.318  -5.057  1.00 20.00     0.170 C 
HETATM    4  C7  UNL     1     -37.243  16.794  -5.284  1.00 20.00     0.087 C 
HETATM    5  C8  UNL     1     -34.857  16.043  -5.776  1.00 20.00     0.062 C 
HETATM    6  C9  UNL     1     -34.023  15.338  -6.859  1.00 20.00     0.046 C 
HETATM    7  O10 UNL     1     -34.489  17.432  -5.848  1.00 20.00    -0.380 OA
HETATM    8 CL11 UNL     1     -38.939  16.667  -5.830  1.00 20.00    -0.125 Cl
ENDROOT
BRANCH   5   9
HETATM    9  C6  UNL     1     -34.484  15.459  -4.429  1.00 20.00     0.020 A 
HETATM   10  C1  UNL     1     -33.338  14.494  -4.311  1.00 20.00     0.008 A 
HETATM   11  C2  UNL     1     -33.213  15.881  -3.747  1.00 20.00     0.008 A 
ENDBRANCH   5   9
TORSDOF 1
ENDMDL
