MODEL 1
REMARK VINA RESULT:      -4.4      0.000      0.000
REMARK  2 active torsions:
REMARK  status: ('A' for Active; 'I' for Inactive)
REMARK    1  A    between atoms: C4_4  and  O10_10 
REMARK    2  A    between atoms: C5_5  and  C8_8 
ROOT
HETATM    1  C1  UNL     1     -34.463   5.175   6.182  1.00 20.00     0.058 C 
HETATM    2  C2  UNL     1     -33.702   6.008   3.938  1.00 20.00     0.069 C 
HETATM    3  C3  UNL     1     -34.254   6.587   6.708  1.00 20.00     0.171 C 
HETATM    4  C4  UNL     1     -34.752   5.184   4.685  1.00 20.00     0.123 C 
HETATM    5  C5  UNL     1     -33.399   7.378   4.587  1.00 20.00     0.059 C 
HETATM    6  C6  UNL     1     -34.458   8.419   4.284  1.00 20.00     0.046 C 
HETATM    7  O9  UNL     1     -33.207   7.252   6.006  1.00 20.00    -0.380 OA
ENDROOT
BRANCH   5   8
HETATM    8  C8  UNL     1     -32.055   7.891   4.036  1.00 20.00     0.033 C 
HETATM    9  C7  UNL     1     -31.983   7.744   2.554  1.00 20.00     0.008 C 
ENDBRANCH   5   8
BRANCH   4  10
HETATM   10  O10 UNL     1     -36.047   5.718   4.437  1.00 20.00    -0.395 OA
HETATM   11  H26 UNL     1     -36.685   5.055   4.743  1.00 20.00     0.210 HD
ENDBRANCH   4  10
TORSDOF 2
ENDMDL
MODEL 2
REMARK VINA RESULT:      -3.7      8.769     10.204
REMARK  2 active torsions:
REMARK  status: ('A' for Active; 'I' for Inactive)
REMARK    1  A    between atoms: C4_4  and  O10_10 
REMARK    2  A    between atoms: C5_5  and  C8_8 
ROOT
HETATM    1  C1  UNL     1     -41.380   8.282  -0.476  1.00 20.00     0.058 C 
HETATM    2  C2  UNL     1     -41.256   5.784  -0.249  1.00 20.00     0.069 C 
HETATM    3  C3  UNL     1     -42.833   8.188  -0.034  1.00 20.00     0.171 C 
HETATM    4  C4  UNL     1     -40.566   7.112   0.064  1.00 20.00     0.123 C 
HETATM    5  C5  UNL     1     -42.770   5.771   0.069  1.00 20.00     0.059 C 
HETATM    6  C6  UNL     1     -43.058   5.594   1.546  1.00 20.00     0.046 C 
HETATM    7  O9  UNL     1     -43.417   6.951  -0.434  1.00 20.00    -0.380 OA
ENDROOT
BRANCH   5   8
HETATM    8  C8  UNL     1     -43.416   4.596  -0.687  1.00 20.00     0.033 C 
HETATM    9  C7  UNL     1     -42.651   4.256  -1.921  1.00 20.00     0.008 C 
ENDBRANCH   5   8
BRANCH   4  10
HETATM   10  O10 UNL     1     -40.389   7.242   1.470  1.00 20.00    -0.395 OA
HETATM   11  H26 UNL     1     -41.047   6.665   1.888  1.00 20.00     0.210 HD
ENDBRANCH   4  10
TORSDOF 2
ENDMDL
MODEL 3
REMARK VINA RESULT:      -3.6     12.426     13.918
REMARK  2 active torsions:
REMARK  status: ('A' for Active; 'I' for Inactive)
REMARK    1  A    between atoms: C4_4  and  O10_10 
REMARK    2  A    between atoms: C5_5  and  C8_8 
ROOT
HETATM    1  C1  UNL     1     -33.176  15.725  -3.757  1.00 20.00     0.058 C 
HETATM    2  C2  UNL     1     -33.965  15.024  -6.036  1.00 20.00     0.069 C 
HETATM    3  C3  UNL     1     -34.233  16.820  -3.797  1.00 20.00     0.171 C 
HETATM    4  C4  UNL     1     -33.576  14.546  -4.637  1.00 20.00     0.123 C 
HETATM    5  C5  UNL     1     -34.921  16.239  -6.043  1.00 20.00     0.059 C 
HETATM    6  C6  UNL     1     -36.359  15.858  -5.753  1.00 20.00     0.046 C 
HETATM    7  O9  UNL     1     -34.476  17.257  -5.131  1.00 20.00    -0.380 OA
ENDROOT
BRANCH   5   8
HETATM    8  C8  UNL     1     -34.872  16.890  -7.438  1.00 20.00     0.033 C 
HETATM    9  C7  UNL     1     -34.213  18.226  -7.392  1.00 20.00     0.008 C 
ENDBRANCH   5   8
BRANCH   4  10
HETATM   10  O10 UNL     1     -34.664  13.841  -4.050  1.00 20.00    -0.395 OA
HETATM   11  H26 UNL     1     -35.278  14.509  -3.708  1.00 20.00     0.210 HD
ENDBRANCH   4  10
TORSDOF 2
ENDMDL
MODEL 4
REMARK VINA RESULT:      -3.6      8.936     10.286
REMARK  2 active torsions:
REMARK  status: ('A' for Active; 'I' for Inactive)
REMARK    1  A    between atoms: C4_4  and  O10_10 
REMARK    2  A    between atoms: C5_5  and  C8_8 
ROOT
HETATM    1  C1  UNL     1     -43.416  13.582   5.809  1.00 20.00     0.058 C 
HETATM    2  C2  UNL     1     -41.012  13.594   5.081  1.00 20.00     0.069 C 
HETATM    3  C3  UNL     1     -42.959  12.899   7.090  1.00 20.00     0.171 C 
HETATM    4  C4  UNL     1     -42.294  14.418   5.204  1.00 20.00     0.123 C 
HETATM    5  C5  UNL     1     -40.658  12.788   6.352  1.00 20.00     0.059 C 
HETATM    6  C6  UNL     1     -40.026  13.642   7.433  1.00 20.00     0.046 C 
HETATM    7  O9  UNL     1     -41.806  12.093   6.865  1.00 20.00    -0.380 OA
ENDROOT
BRANCH   5   8
HETATM    8  C8  UNL     1     -39.652  11.687   5.966  1.00 20.00     0.033 C 
HETATM    9  C7  UNL     1     -39.347  11.716   4.507  1.00 20.00     0.008 C 
ENDBRANCH   5   8
BRANCH   4  10
HETATM   10  O10 UNL     1     -42.050  15.568   6.005  1.00 20.00    -0.395 OA
HETATM   11  H26 UNL     1     -42.824  15.677   6.580  1.00 20.00     0.210 HD
ENDBRANCH   4  10
TORSDOF 2
ENDMDL
MODEL 5
REMARK VINA RESULT:      -3.5     12.829     13.745
REMARK  2 active torsions:
REMARK  status: ('A' for Active; 'I' for Inactive)
REMARK    1  A    between atoms: C4_4  and  O10_10 
REMARK    2  A    between atoms: C5_5  and  C8_8 
ROOT
HETATM    1  C1  UNL     1     -35.479  14.771  -5.527  1.00 20.00     0.058 C 
HETATM    2  C2  UNL     1     -33.674  15.837  -4.145  1.00 20.00     0.069 C 
HETATM    3  C3  UNL     1     -36.086  16.157  -5.691  1.00 20.00     0.171 C 
HETATM    4  C4  UNL     1     -33.978  14.856  -5.278  1.00 20.00     0.123 C 
HETATM    5  C5  UNL     1     -34.427  17.183  -4.259  1.00 20.00     0.059 C 
HETATM    6  C6  UNL     1     -33.801  18.124  -5.268  1.00 20.00     0.046 C 
HETATM    7  O9  UNL     1     -35.818  16.977  -4.557  1.00 20.00    -0.380 OA
ENDROOT
BRANCH   5   8
HETATM    8  C8  UNL     1     -34.401  17.873  -2.882  1.00 20.00     0.033 C 
HETATM    9  C7  UNL     1     -33.555  17.121  -1.912  1.00 20.00     0.008 C 
ENDBRANCH   5   8
BRANCH   4  10
HETATM   10  O10 UNL     1     -33.305  15.265  -6.462  1.00 20.00    -0.395 OA
HETATM   11  H26 UNL     1     -33.942  15.779  -6.982  1.00 20.00     0.210 HD
ENDBRANCH   4  10
TORSDOF 2
ENDMDL
MODEL 6
REMARK VINA RESULT:      -3.5     12.783     14.489
REMARK  2 active torsions:
REMARK  status: ('A' for Active; 'I' for Inactive)
REMARK    1  A    between atoms: C4_4  and  O10_10 
REMARK    2  A    between atoms: C5_5  and  C8_8 
ROOT
HETATM    1  C1  UNL     1     -34.418  17.036  -7.719  1.00 20.00     0.058 C 
HETATM    2  C2  UNL     1     -34.903  16.733  -5.274  1.00 20.00     0.069 C 
HETATM    3  C3  UNL     1     -34.311  15.522  -7.822  1.00 20.00     0.171 C 
HETATM    4  C4  UNL     1     -35.321  17.445  -6.561  1.00 20.00     0.123 C 
HETATM    5  C5  UNL     1     -34.652  15.217  -5.446  1.00 20.00     0.059 C 
HETATM    6  C6  UNL     1     -35.934  14.410  -5.497  1.00 20.00     0.046 C 
HETATM    7  O9  UNL     1     -33.842  14.952  -6.603  1.00 20.00    -0.380 OA
ENDROOT
BRANCH   5   8
HETATM    8  C8  UNL     1     -33.824  14.721  -4.245  1.00 20.00     0.033 C 
HETATM    9  C7  UNL     1     -33.345  15.858  -3.408  1.00 20.00     0.008 C 
ENDBRANCH   5   8
BRANCH   4  10
HETATM   10  O10 UNL     1     -36.677  17.136  -6.862  1.00 20.00    -0.395 OA
HETATM   11  H26 UNL     1     -36.809  16.203  -6.631  1.00 20.00     0.210 HD
ENDBRANCH   4  10
TORSDOF 2
ENDMDL
MODEL 7
REMARK VINA RESULT:      -3.4     12.463     14.014
REMARK  2 active torsions:
REMARK  status: ('A' for Active; 'I' for Inactive)
REMARK    1  A    between atoms: C4_4  and  O10_10 
REMARK    2  A    between atoms: C5_5  and  C8_8 
ROOT
HETATM    1  C1  UNL     1     -34.623  14.308  -4.238  1.00 20.00     0.058 C 
HETATM    2  C2  UNL     1     -34.865  16.402  -5.603  1.00 20.00     0.069 C 
HETATM    3  C3  UNL     1     -35.840  13.763  -4.971  1.00 20.00     0.171 C 
HETATM    4  C4  UNL     1     -33.891  15.344  -5.084  1.00 20.00     0.123 C 
HETATM    5  C5  UNL     1     -36.165  15.819  -6.205  1.00 20.00     0.059 C 
HETATM    6  C6  UNL     1     -35.973  15.280  -7.608  1.00 20.00     0.046 C 
HETATM    7  O9  UNL     1     -36.729  14.811  -5.350  1.00 20.00    -0.380 OA
ENDROOT
BRANCH   5   8
HETATM    8  C8  UNL     1     -37.219  16.940  -6.265  1.00 20.00     0.033 C 
HETATM    9  C7  UNL     1     -38.246  16.779  -5.197  1.00 20.00     0.008 C 
ENDBRANCH   5   8
BRANCH   4  10
HETATM   10  O10 UNL     1     -33.239  14.713  -6.179  1.00 20.00    -0.395 OA
HETATM   11  H26 UNL     1     -33.507  13.781  -6.164  1.00 20.00     0.210 HD
ENDBRANCH   4  10
TORSDOF 2
ENDMDL
MODEL 8
REMARK VINA RESULT:      -3.4      9.349     10.734
REMARK  2 active torsions:
REMARK  status: ('A' for Active; 'I' for Inactive)
REMARK    1  A    between atoms: C4_4  and  O10_10 
REMARK    2  A    between atoms: C5_5  and  C8_8 
ROOT
HETATM    1  C1  UNL     1     -40.850  15.779   8.099  1.00 20.00     0.058 C 
HETATM    2  C2  UNL     1     -40.046  13.496   7.432  1.00 20.00     0.069 C 
HETATM    3  C3  UNL     1     -42.006  15.588   7.127  1.00 20.00     0.171 C 
HETATM    4  C4  UNL     1     -40.329  14.437   8.602  1.00 20.00     0.123 C 
HETATM    5  C5  UNL     1     -41.179  13.441   6.379  1.00 20.00     0.059 C 
HETATM    6  C6  UNL     1     -42.346  12.578   6.815  1.00 20.00     0.046 C 
HETATM    7  O9  UNL     1     -41.629  14.760   6.031  1.00 20.00    -0.380 OA
ENDROOT
BRANCH   5   8
HETATM    8  C8  UNL     1     -40.606  12.847   5.079  1.00 20.00     0.033 C 
HETATM    9  C7  UNL     1     -39.593  11.791   5.363  1.00 20.00     0.008 C 
ENDBRANCH   5   8
BRANCH   4  10
HETATM   10  O10 UNL     1     -41.276  13.841   9.481  1.00 20.00    -0.395 OA
HETATM   11  H26 UNL     1     -42.132  13.863   9.026  1.00 20.00     0.210 HD
ENDBRANCH   4  10
TORSDOF 2
ENDMDL
MODEL 9
REMARK VINA RESULT:      -3.4      8.966     10.161
REMARK  2 active torsions:
REMARK  status: ('A' for Active; 'I' for Inactive)
REMARK    1  A    between atoms: C4_4  and  O10_10 
REMARK    2  A    between atoms: C5_5  and  C8_8 
ROOT
HETATM    1  C1  UNL     1     -41.717  14.143   8.563  1.00 20.00     0.058 C 
HETATM    2  C2  UNL     1     -42.089  12.334   6.862  1.00 20.00     0.069 C 
HETATM    3  C3  UNL     1     -40.534  14.604   7.724  1.00 20.00     0.171 C 
HETATM    4  C4  UNL     1     -42.751  13.423   7.705  1.00 20.00     0.123 C 
HETATM    5  C5  UNL     1     -40.799  12.792   6.142  1.00 20.00     0.059 C 
HETATM    6  C6  UNL     1     -41.079  13.610   4.897  1.00 20.00     0.046 C 
HETATM    7  O9  UNL     1     -39.932  13.512   7.034  1.00 20.00    -0.380 OA
ENDROOT
BRANCH   5   8
HETATM    8  C8  UNL     1     -40.005  11.541   5.721  1.00 20.00     0.033 C 
HETATM    9  C7  UNL     1     -39.161  11.810   4.522  1.00 20.00     0.008 C 
ENDBRANCH   5   8
BRANCH   4  10
HETATM   10  O10 UNL     1     -43.417  14.350   6.855  1.00 20.00    -0.395 OA
HETATM   11  H26 UNL     1     -43.165  14.125   5.946  1.00 20.00     0.210 HD
ENDBRANCH   4  10
TORSDOF 2
ENDMDL
