MODEL 1
REMARK VINA RESULT:      -3.7      0.000      0.000
REMARK  0 active torsions:
REMARK  status: ('A' for Active; 'I' for Inactive)
ROOT
HETATM    1  C1  UNL     1     -41.540  13.747   4.800  1.00 20.00     0.085 C 
HETATM    2  C2  UNL     1     -42.200  12.459   6.808  1.00 20.00     0.067 C 
HETATM    3  C3  UNL     1     -40.225  13.996   6.894  1.00 20.00     0.078 C 
HETATM    4  C4  UNL     1     -43.077  13.538   7.446  1.00 20.00     0.171 C 
HETATM    5  C5  UNL     1     -41.048  13.053   6.004  1.00 20.00     0.130 C 
HETATM    6  C6  UNL     1     -41.096  14.874   7.831  1.00 20.00     0.056 C 
HETATM    7  C7  UNL     1     -40.675  16.345   7.700  1.00 20.00     0.045 C 
HETATM    8  C8  UNL     1     -40.935  14.459   9.302  1.00 20.00     0.045 C 
HETATM    9  N9  UNL     1     -41.927  14.294   3.852  1.00 20.00    -0.195 NA
HETATM   10  O10 UNL     1     -42.477  14.830   7.451  1.00 20.00    -0.381 OA
HETATM   11 CL11 UNL     1     -39.994  11.730   5.400  1.00 20.00    -0.103 Cl
ENDROOT
TORSDOF 0
ENDMDL
MODEL 2
REMARK VINA RESULT:      -3.6      2.880      3.908
REMARK  0 active torsions:
REMARK  status: ('A' for Active; 'I' for Inactive)
ROOT
HETATM    1  C1  UNL     1     -41.013  14.302   9.386  1.00 20.00     0.085 C 
HETATM    2  C2  UNL     1     -42.776  14.685   7.690  1.00 20.00     0.067 C 
HETATM    3  C3  UNL     1     -40.374  14.535   6.996  1.00 20.00     0.078 C 
HETATM    4  C4  UNL     1     -42.987  13.220   7.302  1.00 20.00     0.171 C 
HETATM    5  C5  UNL     1     -41.337  14.968   8.111  1.00 20.00     0.130 C 
HETATM    6  C6  UNL     1     -40.773  13.193   6.325  1.00 20.00     0.056 C 
HETATM    7  C7  UNL     1     -39.559  12.254   6.288  1.00 20.00     0.045 C 
HETATM    8  C8  UNL     1     -41.257  13.407   4.882  1.00 20.00     0.045 C 
HETATM    9  N9  UNL     1     -40.759  13.778  10.389  1.00 20.00    -0.195 NA
HETATM   10  O10 UNL     1     -41.772  12.507   7.088  1.00 20.00    -0.381 OA
HETATM   11 CL11 UNL     1     -41.139  16.725   8.422  1.00 20.00    -0.103 Cl
ENDROOT
TORSDOF 0
ENDMDL
MODEL 3
REMARK VINA RESULT:      -3.4     12.191     13.334
REMARK  0 active torsions:
REMARK  status: ('A' for Active; 'I' for Inactive)
ROOT
HETATM    1  C1  UNL     1     -32.173  18.685  -1.063  1.00 20.00     0.085 C 
HETATM    2  C2  UNL     1     -33.904  16.946  -1.391  1.00 20.00     0.067 C 
HETATM    3  C3  UNL     1     -34.099  19.150  -2.564  1.00 20.00     0.078 C 
HETATM    4  C4  UNL     1     -33.306  16.319  -2.652  1.00 20.00     0.171 C 
HETATM    5  C5  UNL     1     -33.609  18.439  -1.294  1.00 20.00     0.130 C 
HETATM    6  C6  UNL     1     -33.816  18.351  -3.865  1.00 20.00     0.056 C 
HETATM    7  C7  UNL     1     -33.130  19.263  -4.892  1.00 20.00     0.045 C 
HETATM    8  C8  UNL     1     -35.114  17.816  -4.490  1.00 20.00     0.045 C 
HETATM    9  N9  UNL     1     -31.043  18.878  -0.881  1.00 20.00    -0.195 NA
HETATM   10  O10 UNL     1     -32.899  17.276  -3.626  1.00 20.00    -0.381 OA
HETATM   11 CL11 UNL     1     -34.450  19.125   0.137  1.00 20.00    -0.103 Cl
ENDROOT
TORSDOF 0
ENDMDL
MODEL 4
REMARK VINA RESULT:      -3.4     13.496     14.180
REMARK  0 active torsions:
REMARK  status: ('A' for Active; 'I' for Inactive)
ROOT
HETATM    1  C1  UNL     1     -34.146  15.288  -6.624  1.00 20.00     0.085 C 
HETATM    2  C2  UNL     1     -36.331  15.244  -5.461  1.00 20.00     0.067 C 
HETATM    3  C3  UNL     1     -34.596  16.929  -4.813  1.00 20.00     0.078 C 
HETATM    4  C4  UNL     1     -37.031  16.288  -6.333  1.00 20.00     0.171 C 
HETATM    5  C5  UNL     1     -34.833  15.506  -5.337  1.00 20.00     0.130 C 
HETATM    6  C6  UNL     1     -35.554  17.982  -5.434  1.00 20.00     0.056 C 
HETATM    7  C7  UNL     1     -34.742  19.175  -5.957  1.00 20.00     0.045 C 
HETATM    8  C8  UNL     1     -36.562  18.505  -4.398  1.00 20.00     0.045 C 
HETATM    9  N9  UNL     1     -33.605  15.116  -7.636  1.00 20.00    -0.195 NA
HETATM   10  O10 UNL     1     -36.243  17.451  -6.572  1.00 20.00    -0.381 OA
HETATM   11 CL11 UNL     1     -34.110  14.321  -4.198  1.00 20.00    -0.103 Cl
ENDROOT
TORSDOF 0
ENDMDL
MODEL 5
REMARK VINA RESULT:      -3.3      2.015      2.957
REMARK  0 active torsions:
REMARK  status: ('A' for Active; 'I' for Inactive)
ROOT
HETATM    1  C1  UNL     1     -40.720  12.546   6.162  1.00 20.00     0.085 C 
HETATM    2  C2  UNL     1     -40.739  14.900   6.927  1.00 20.00     0.067 C 
HETATM    3  C3  UNL     1     -42.847  13.549   6.966  1.00 20.00     0.078 C 
HETATM    4  C4  UNL     1     -40.521  14.617   8.415  1.00 20.00     0.171 C 
HETATM    5  C5  UNL     1     -41.517  13.784   6.236  1.00 20.00     0.130 C 
HETATM    6  C6  UNL     1     -42.720  13.611   8.512  1.00 20.00     0.056 C 
HETATM    7  C7  UNL     1     -43.374  12.369   9.134  1.00 20.00     0.045 C 
HETATM    8  C8  UNL     1     -43.416  14.856   9.085  1.00 20.00     0.045 C 
HETATM    9  N9  UNL     1     -40.094  11.571   6.103  1.00 20.00    -0.195 NA
HETATM   10  O10 UNL     1     -41.349  13.575   8.924  1.00 20.00    -0.381 OA
HETATM   11 CL11 UNL     1     -41.844  14.248   4.533  1.00 20.00    -0.103 Cl
ENDROOT
TORSDOF 0
ENDMDL
MODEL 6
REMARK VINA RESULT:      -3.3     13.557     14.754
REMARK  0 active torsions:
REMARK  status: ('A' for Active; 'I' for Inactive)
ROOT
HETATM    1  C1  UNL     1     -36.993  16.718  -7.268  1.00 20.00     0.085 C 
HETATM    2  C2  UNL     1     -34.543  17.072  -7.235  1.00 20.00     0.067 C 
HETATM    3  C3  UNL     1     -35.731  16.301  -5.169  1.00 20.00     0.078 C 
HETATM    4  C4  UNL     1     -34.139  15.630  -7.550  1.00 20.00     0.171 C 
HETATM    5  C5  UNL     1     -35.847  17.146  -6.446  1.00 20.00     0.130 C 
HETATM    6  C6  UNL     1     -34.991  14.953  -5.388  1.00 20.00     0.056 C 
HETATM    7  C7  UNL     1     -35.828  13.805  -4.806  1.00 20.00     0.045 C 
HETATM    8  C8  UNL     1     -33.619  14.945  -4.696  1.00 20.00     0.045 C 
HETATM    9  N9  UNL     1     -37.895  16.381  -7.916  1.00 20.00    -0.195 NA
HETATM   10  O10 UNL     1     -34.846  14.660  -6.782  1.00 20.00    -0.381 OA
HETATM   11 CL11 UNL     1     -36.183  18.853  -6.003  1.00 20.00    -0.103 Cl
ENDROOT
TORSDOF 0
ENDMDL
MODEL 7
REMARK VINA RESULT:      -3.2     13.208     13.869
REMARK  0 active torsions:
REMARK  status: ('A' for Active; 'I' for Inactive)
ROOT
HETATM    1  C1  UNL     1     -35.593  15.090  -5.499  1.00 20.00     0.085 C 
HETATM    2  C2  UNL     1     -33.259  15.384  -4.729  1.00 20.00     0.067 C 
HETATM    3  C3  UNL     1     -34.487  17.298  -5.778  1.00 20.00     0.078 C 
HETATM    4  C4  UNL     1     -33.586  15.928  -3.337  1.00 20.00     0.171 C 
HETATM    5  C5  UNL     1     -34.312  15.772  -5.762  1.00 20.00     0.130 C 
HETATM    6  C6  UNL     1     -34.467  17.935  -4.363  1.00 20.00     0.056 C 
HETATM    7  C7  UNL     1     -35.683  18.858  -4.194  1.00 20.00     0.045 C 
HETATM    8  C8  UNL     1     -33.196  18.771  -4.141  1.00 20.00     0.045 C 
HETATM    9  N9  UNL     1     -36.600  14.552  -5.293  1.00 20.00    -0.195 NA
HETATM   10  O10 UNL     1     -34.590  16.939  -3.341  1.00 20.00    -0.381 OA
HETATM   11 CL11 UNL     1     -33.794  15.213  -7.387  1.00 20.00    -0.103 Cl
ENDROOT
TORSDOF 0
ENDMDL
MODEL 8
REMARK VINA RESULT:      -3.1      2.030      2.362
REMARK  0 active torsions:
REMARK  status: ('A' for Active; 'I' for Inactive)
ROOT
HETATM    1  C1  UNL     1     -41.176  12.492   6.337  1.00 20.00     0.085 C 
HETATM    2  C2  UNL     1     -43.148  13.951   6.003  1.00 20.00     0.067 C 
HETATM    3  C3  UNL     1     -42.075  13.784   8.260  1.00 20.00     0.078 C 
HETATM    4  C4  UNL     1     -42.381  15.245   5.726  1.00 20.00     0.171 C 
HETATM    5  C5  UNL     1     -42.398  13.031   6.962  1.00 20.00     0.130 C 
HETATM    6  C6  UNL     1     -41.623  15.251   8.024  1.00 20.00     0.056 C 
HETATM    7  C7  UNL     1     -40.319  15.518   8.790  1.00 20.00     0.045 C 
HETATM    8  C8  UNL     1     -42.681  16.252   8.515  1.00 20.00     0.045 C 
HETATM    9  N9  UNL     1     -40.214  12.067   5.846  1.00 20.00    -0.195 NA
HETATM   10  O10 UNL     1     -41.319  15.486   6.645  1.00 20.00    -0.381 OA
HETATM   11 CL11 UNL     1     -43.417  11.601   7.339  1.00 20.00    -0.103 Cl
ENDROOT
TORSDOF 0
ENDMDL
MODEL 9
REMARK VINA RESULT:      -3.1     13.166     14.345
REMARK  0 active torsions:
REMARK  status: ('A' for Active; 'I' for Inactive)
ROOT
HETATM    1  C1  UNL     1     -34.938  14.059  -4.500  1.00 20.00     0.085 C 
HETATM    2  C2  UNL     1     -34.128  16.370  -4.131  1.00 20.00     0.067 C 
HETATM    3  C3  UNL     1     -34.038  15.355  -6.420  1.00 20.00     0.078 C 
HETATM    4  C4  UNL     1     -35.430  17.087  -4.492  1.00 20.00     0.171 C 
HETATM    5  C5  UNL     1     -33.949  15.072  -4.913  1.00 20.00     0.130 C 
HETATM    6  C6  UNL     1     -35.146  16.377  -6.789  1.00 20.00     0.056 C 
HETATM    7  C7  UNL     1     -36.018  15.808  -7.918  1.00 20.00     0.045 C 
HETATM    8  C8  UNL     1     -34.547  17.708  -7.270  1.00 20.00     0.045 C 
HETATM    9  N9  UNL     1     -35.717  13.263  -4.175  1.00 20.00    -0.195 NA
HETATM   10  O10 UNL     1     -36.035  16.602  -5.688  1.00 20.00    -0.381 OA
HETATM   11 CL11 UNL     1     -32.345  14.360  -4.533  1.00 20.00    -0.103 Cl
ENDROOT
TORSDOF 0
ENDMDL
