MODEL 1
REMARK VINA RESULT:      -3.9      0.000      0.000
REMARK  0 active torsions:
REMARK  status: ('A' for Active; 'I' for Inactive)
ROOT
HETATM    1  C1  UNL     1     -33.474   7.703   6.353  1.00 20.00     0.046 C 
HETATM    2  C2  UNL     1     -33.377   6.656   4.081  1.00 20.00     0.057 C 
HETATM    3  C3  UNL     1     -34.478   6.628   6.744  1.00 20.00     0.170 C 
HETATM    4  C4  UNL     1     -33.536   7.965   4.852  1.00 20.00     0.087 C 
HETATM    5  C5  UNL     1     -34.362   5.575   4.569  1.00 20.00     0.055 C 
HETATM    6  C6  UNL     1     -33.951   4.217   3.983  1.00 20.00     0.045 C 
HETATM    7  C7  UNL     1     -35.807   5.869   4.134  1.00 20.00     0.045 C 
HETATM    8  O8  UNL     1     -34.279   5.430   5.995  1.00 20.00    -0.381 OA
HETATM    9 CL9  UNL     1     -32.260   9.121   4.377  1.00 20.00    -0.125 Cl
ENDROOT
TORSDOF 0
ENDMDL
MODEL 2
REMARK VINA RESULT:      -3.5     13.016     13.693
REMARK  0 active torsions:
REMARK  status: ('A' for Active; 'I' for Inactive)
ROOT
HETATM    1  C1  UNL     1     -32.380  18.888   0.789  1.00 20.00     0.046 C 
HETATM    2  C2  UNL     1     -34.134  18.913  -0.998  1.00 20.00     0.057 C 
HETATM    3  C3  UNL     1     -31.384  18.444  -0.273  1.00 20.00     0.170 C 
HETATM    4  C4  UNL     1     -33.789  18.442   0.414  1.00 20.00     0.087 C 
HETATM    5  C5  UNL     1     -33.054  18.507  -2.021  1.00 20.00     0.055 C 
HETATM    6  C6  UNL     1     -33.298  19.262  -3.336  1.00 20.00     0.045 C 
HETATM    7  C7  UNL     1     -33.077  17.000  -2.321  1.00 20.00     0.045 C 
HETATM    8  O8  UNL     1     -31.755  18.916  -1.567  1.00 20.00    -0.381 OA
HETATM    9 CL9  UNL     1     -34.972  19.087   1.587  1.00 20.00    -0.125 Cl
ENDROOT
TORSDOF 0
ENDMDL
MODEL 3
REMARK VINA RESULT:      -3.5      1.526      2.485
REMARK  0 active torsions:
REMARK  status: ('A' for Active; 'I' for Inactive)
ROOT
HETATM    1  C1  UNL     1     -32.181   7.239   3.173  1.00 20.00     0.046 C 
HETATM    2  C2  UNL     1     -34.061   7.367   4.821  1.00 20.00     0.057 C 
HETATM    3  C3  UNL     1     -32.596   5.801   2.895  1.00 20.00     0.170 C 
HETATM    4  C4  UNL     1     -32.576   7.641   4.590  1.00 20.00     0.087 C 
HETATM    5  C5  UNL     1     -34.446   5.921   4.449  1.00 20.00     0.055 C 
HETATM    6  C6  UNL     1     -35.976   5.802   4.408  1.00 20.00     0.045 C 
HETATM    7  C7  UNL     1     -33.912   4.899   5.465  1.00 20.00     0.045 C 
HETATM    8  O8  UNL     1     -33.991   5.607   3.124  1.00 20.00    -0.381 OA
HETATM    9 CL9  UNL     1     -32.216   9.369   4.862  1.00 20.00    -0.125 Cl
ENDROOT
TORSDOF 0
ENDMDL
MODEL 4
REMARK VINA RESULT:      -3.4      9.840     10.340
REMARK  0 active torsions:
REMARK  status: ('A' for Active; 'I' for Inactive)
ROOT
HETATM    1  C1  UNL     1     -42.258  13.814   8.543  1.00 20.00     0.046 C 
HETATM    2  C2  UNL     1     -40.140  13.728   7.211  1.00 20.00     0.057 C 
HETATM    3  C3  UNL     1     -42.896  12.929   7.481  1.00 20.00     0.170 C 
HETATM    4  C4  UNL     1     -41.129  14.639   7.936  1.00 20.00     0.087 C 
HETATM    5  C5  UNL     1     -40.846  12.795   6.205  1.00 20.00     0.055 C 
HETATM    6  C6  UNL     1     -39.860  11.712   5.746  1.00 20.00     0.045 C 
HETATM    7  C7  UNL     1     -41.341  13.552   4.963  1.00 20.00     0.045 C 
HETATM    8  O8  UNL     1     -41.927  12.099   6.843  1.00 20.00    -0.381 OA
HETATM    9 CL9  UNL     1     -40.291  15.568   9.212  1.00 20.00    -0.125 Cl
ENDROOT
TORSDOF 0
ENDMDL
MODEL 5
REMARK VINA RESULT:      -3.3     12.980     13.528
REMARK  0 active torsions:
REMARK  status: ('A' for Active; 'I' for Inactive)
ROOT
HETATM    1  C1  UNL     1     -33.308  19.251   0.790  1.00 20.00     0.046 C 
HETATM    2  C2  UNL     1     -31.922  18.115  -0.958  1.00 20.00     0.057 C 
HETATM    3  C3  UNL     1     -34.464  19.243  -0.201  1.00 20.00     0.170 C 
HETATM    4  C4  UNL     1     -31.975  19.262   0.050  1.00 20.00     0.087 C 
HETATM    5  C5  UNL     1     -33.154  18.104  -1.885  1.00 20.00     0.055 C 
HETATM    6  C6  UNL     1     -33.195  16.775  -2.652  1.00 20.00     0.045 C 
HETATM    7  C7  UNL     1     -33.118  19.249  -2.910  1.00 20.00     0.045 C 
HETATM    8  O8  UNL     1     -34.363  18.150  -1.112  1.00 20.00    -0.381 OA
HETATM    9 CL9  UNL     1     -30.625  19.127   1.212  1.00 20.00    -0.125 Cl
ENDROOT
TORSDOF 0
ENDMDL
MODEL 6
REMARK VINA RESULT:      -3.3      2.270      3.031
REMARK  0 active torsions:
REMARK  status: ('A' for Active; 'I' for Inactive)
ROOT
HETATM    1  C1  UNL     1     -32.378   6.597   2.992  1.00 20.00     0.046 C 
HETATM    2  C2  UNL     1     -33.786   4.826   4.063  1.00 20.00     0.057 C 
HETATM    3  C3  UNL     1     -33.060   7.610   3.901  1.00 20.00     0.170 C 
HETATM    4  C4  UNL     1     -33.299   5.409   2.737  1.00 20.00     0.087 C 
HETATM    5  C5  UNL     1     -34.395   5.906   4.980  1.00 20.00     0.055 C 
HETATM    6  C6  UNL     1     -34.576   5.326   6.390  1.00 20.00     0.045 C 
HETATM    7  C7  UNL     1     -35.765   6.387   4.478  1.00 20.00     0.045 C 
HETATM    8  O8  UNL     1     -33.488   7.010   5.122  1.00 20.00    -0.381 OA
HETATM    9 CL9  UNL     1     -32.444   4.160   1.790  1.00 20.00    -0.125 Cl
ENDROOT
TORSDOF 0
ENDMDL
MODEL 7
REMARK VINA RESULT:      -3.3     13.172     13.990
REMARK  0 active torsions:
REMARK  status: ('A' for Active; 'I' for Inactive)
ROOT
HETATM    1  C1  UNL     1     -33.292  16.036  -3.545  1.00 20.00     0.046 C 
HETATM    2  C2  UNL     1     -34.417  17.091  -5.518  1.00 20.00     0.057 C 
HETATM    3  C3  UNL     1     -33.595  14.681  -4.168  1.00 20.00     0.170 C 
HETATM    4  C4  UNL     1     -34.323  17.068  -3.993  1.00 20.00     0.087 C 
HETATM    5  C5  UNL     1     -34.644  15.683  -6.104  1.00 20.00     0.055 C 
HETATM    6  C6  UNL     1     -34.423  15.728  -7.622  1.00 20.00     0.045 C 
HETATM    7  C7  UNL     1     -36.068  15.168  -5.840  1.00 20.00     0.045 C 
HETATM    8  O8  UNL     1     -33.667  14.764  -5.591  1.00 20.00    -0.381 OA
HETATM    9 CL9  UNL     1     -33.882  18.685  -3.376  1.00 20.00    -0.125 Cl
ENDROOT
TORSDOF 0
ENDMDL
MODEL 8
REMARK VINA RESULT:      -3.2      2.450      3.791
REMARK  0 active torsions:
REMARK  status: ('A' for Active; 'I' for Inactive)
ROOT
HETATM    1  C1  UNL     1     -33.514   5.275   3.827  1.00 20.00     0.046 C 
HETATM    2  C2  UNL     1     -33.602   7.275   5.331  1.00 20.00     0.057 C 
HETATM    3  C3  UNL     1     -32.846   6.159   2.784  1.00 20.00     0.170 C 
HETATM    4  C4  UNL     1     -34.401   6.113   4.743  1.00 20.00     0.087 C 
HETATM    5  C5  UNL     1     -32.879   8.090   4.240  1.00 20.00     0.055 C 
HETATM    6  C6  UNL     1     -31.865   9.032   4.904  1.00 20.00     0.045 C 
HETATM    7  C7  UNL     1     -33.855   8.940   3.411  1.00 20.00     0.045 C 
HETATM    8  O8  UNL     1     -32.113   7.221   3.391  1.00 20.00    -0.381 OA
HETATM    9 CL9  UNL     1     -35.068   5.097   6.051  1.00 20.00    -0.125 Cl
ENDROOT
TORSDOF 0
ENDMDL
MODEL 9
REMARK VINA RESULT:      -3.2     12.839     13.701
REMARK  0 active torsions:
REMARK  status: ('A' for Active; 'I' for Inactive)
ROOT
HETATM    1  C1  UNL     1     -34.655  17.904  -3.966  1.00 20.00     0.046 C 
HETATM    2  C2  UNL     1     -34.137  15.460  -3.802  1.00 20.00     0.057 C 
HETATM    3  C3  UNL     1     -35.367  17.608  -5.278  1.00 20.00     0.170 C 
HETATM    4  C4  UNL     1     -33.561  16.872  -3.712  1.00 20.00     0.087 C 
HETATM    5  C5  UNL     1     -34.917  15.237  -5.114  1.00 20.00     0.055 C 
HETATM    6  C6  UNL     1     -35.717  13.931  -5.008  1.00 20.00     0.045 C 
HETATM    7  C7  UNL     1     -33.985  15.132  -6.331  1.00 20.00     0.045 C 
HETATM    8  O8  UNL     1     -35.886  16.279  -5.302  1.00 20.00    -0.381 OA
HETATM    9 CL9  UNL     1     -32.825  17.138  -2.106  1.00 20.00    -0.125 Cl
ENDROOT
TORSDOF 0
ENDMDL
