MODEL 1
REMARK VINA RESULT:      -4.0      0.000      0.000
REMARK  2 active torsions:
REMARK  status: ('A' for Active; 'I' for Inactive)
REMARK    1  A    between atoms: C5_5  and  C8_8 
REMARK    2  A    between atoms: C5_5  and  O10_10 
ROOT
HETATM    1  C1  UNL     1     -34.869  14.135  -4.210  1.00 20.00     0.064 C 
HETATM    2  C2  UNL     1     -34.855  16.421  -5.250  1.00 20.00     0.069 C 
HETATM    3  C3  UNL     1     -36.054  13.806  -5.110  1.00 20.00     0.171 C 
HETATM    4  C4  UNL     1     -36.111  16.023  -6.040  1.00 20.00     0.120 C 
HETATM    5  C5  UNL     1     -33.989  15.227  -4.825  1.00 20.00     0.062 C 
HETATM    6  C6  UNL     1     -35.851  15.694  -7.508  1.00 20.00     0.039 C 
HETATM    7  O9  UNL     1     -36.827  14.971  -5.388  1.00 20.00    -0.386 OA
ENDROOT
BRANCH   5   8
HETATM    8  C8  UNL     1     -32.902  15.663  -3.839  1.00 20.00     0.033 C 
HETATM    9  C7  UNL     1     -33.459  16.532  -2.762  1.00 20.00     0.008 C 
ENDBRANCH   5   8
BRANCH   5  10
HETATM   10  O10 UNL     1     -33.330  14.677  -5.968  1.00 20.00    -0.390 OA
HETATM   11  H26 UNL     1     -34.030  14.422  -6.587  1.00 20.00     0.210 HD
ENDBRANCH   5  10
TORSDOF 2
ENDMDL
MODEL 2
REMARK VINA RESULT:      -3.9     12.163     13.181
REMARK  2 active torsions:
REMARK  status: ('A' for Active; 'I' for Inactive)
REMARK    1  A    between atoms: C5_5  and  C8_8 
REMARK    2  A    between atoms: C5_5  and  O10_10 
ROOT
HETATM    1  C1  UNL     1     -40.145  13.588   7.428  1.00 20.00     0.064 C 
HETATM    2  C2  UNL     1     -40.965  13.461   5.057  1.00 20.00     0.069 C 
HETATM    3  C3  UNL     1     -41.266  14.588   7.691  1.00 20.00     0.171 C 
HETATM    4  C4  UNL     1     -41.995  14.547   5.401  1.00 20.00     0.120 C 
HETATM    5  C5  UNL     1     -40.498  12.647   6.273  1.00 20.00     0.062 C 
HETATM    6  C6  UNL     1     -43.417  14.025   5.591  1.00 20.00     0.039 C 
HETATM    7  O9  UNL     1     -41.573  15.334   6.517  1.00 20.00    -0.386 OA
ENDROOT
BRANCH   5   8
HETATM    8  C8  UNL     1     -39.302  11.763   5.912  1.00 20.00     0.033 C 
HETATM    9  C7  UNL     1     -39.050  11.758   4.443  1.00 20.00     0.008 C 
ENDBRANCH   5   8
BRANCH   5  10
HETATM   10  O10 UNL     1     -41.551  11.783   6.707  1.00 20.00    -0.390 OA
HETATM   11  H26 UNL     1     -41.916  11.378   5.907  1.00 20.00     0.210 HD
ENDBRANCH   5  10
TORSDOF 2
ENDMDL
MODEL 3
REMARK VINA RESULT:      -3.8      2.849      4.735
REMARK  2 active torsions:
REMARK  status: ('A' for Active; 'I' for Inactive)
REMARK    1  A    between atoms: C5_5  and  C8_8 
REMARK    2  A    between atoms: C5_5  and  O10_10 
ROOT
HETATM    1  C1  UNL     1     -35.176  18.136  -3.426  1.00 20.00     0.064 C 
HETATM    2  C2  UNL     1     -33.475  16.665  -2.308  1.00 20.00     0.069 C 
HETATM    3  C3  UNL     1     -34.941  19.145  -2.308  1.00 20.00     0.171 C 
HETATM    4  C4  UNL     1     -33.385  17.702  -1.177  1.00 20.00     0.120 C 
HETATM    5  C5  UNL     1     -33.945  17.252  -3.647  1.00 20.00     0.062 C 
HETATM    6  C6  UNL     1     -32.136  18.578  -1.227  1.00 20.00     0.039 C 
HETATM    7  O9  UNL     1     -34.575  18.491  -1.096  1.00 20.00    -0.386 OA
ENDROOT
BRANCH   5   8
HETATM    8  C8  UNL     1     -34.253  16.140  -4.653  1.00 20.00     0.033 C 
HETATM    9  C7  UNL     1     -33.737  14.822  -4.185  1.00 20.00     0.008 C 
ENDBRANCH   5   8
BRANCH   5  10
HETATM   10  O10 UNL     1     -32.910  18.061  -4.209  1.00 20.00    -0.390 OA
HETATM   11  H26 UNL     1     -33.021  18.945  -3.830  1.00 20.00     0.210 HD
ENDBRANCH   5  10
TORSDOF 2
ENDMDL
MODEL 4
REMARK VINA RESULT:      -3.7     12.349     13.368
REMARK  2 active torsions:
REMARK  status: ('A' for Active; 'I' for Inactive)
REMARK    1  A    between atoms: C5_5  and  C8_8 
REMARK    2  A    between atoms: C5_5  and  O10_10 
ROOT
HETATM    1  C1  UNL     1     -41.164  13.511   4.706  1.00 20.00     0.064 C 
HETATM    2  C2  UNL     1     -41.999  12.442   6.821  1.00 20.00     0.069 C 
HETATM    3  C3  UNL     1     -42.250  14.565   4.890  1.00 20.00     0.171 C 
HETATM    4  C4  UNL     1     -43.117  13.493   6.860  1.00 20.00     0.120 C 
HETATM    5  C5  UNL     1     -40.752  12.896   6.047  1.00 20.00     0.062 C 
HETATM    6  C6  UNL     1     -42.896  14.608   7.880  1.00 20.00     0.039 C 
HETATM    7  O9  UNL     1     -43.385  14.021   5.559  1.00 20.00    -0.386 OA
ENDROOT
BRANCH   5   8
HETATM    8  C8  UNL     1     -39.787  11.727   5.831  1.00 20.00     0.033 C 
HETATM    9  C7  UNL     1     -39.217  11.737   4.453  1.00 20.00     0.008 C 
ENDBRANCH   5   8
BRANCH   5  10
HETATM   10  O10 UNL     1     -40.054  13.891   6.799  1.00 20.00    -0.390 OA
HETATM   11  H26 UNL     1     -39.763  14.558   6.160  1.00 20.00     0.210 HD
ENDBRANCH   5  10
TORSDOF 2
ENDMDL
MODEL 5
REMARK VINA RESULT:      -3.6     11.681     12.985
REMARK  2 active torsions:
REMARK  status: ('A' for Active; 'I' for Inactive)
REMARK    1  A    between atoms: C5_5  and  C8_8 
REMARK    2  A    between atoms: C5_5  and  O10_10 
ROOT
HETATM    1  C1  UNL     1     -33.387   7.418   5.665  1.00 20.00     0.064 C 
HETATM    2  C2  UNL     1     -32.937   6.252   3.486  1.00 20.00     0.069 C 
HETATM    3  C3  UNL     1     -32.585   8.596   5.124  1.00 20.00     0.171 C 
HETATM    4  C4  UNL     1     -32.066   7.449   3.074  1.00 20.00     0.120 C 
HETATM    5  C5  UNL     1     -34.009   6.599   4.530  1.00 20.00     0.062 C 
HETATM    6  C6  UNL     1     -32.729   8.394   2.075  1.00 20.00     0.039 C 
HETATM    7  O9  UNL     1     -31.577   8.156   4.217  1.00 20.00    -0.386 OA
ENDROOT
BRANCH   5   8
HETATM    8  C8  UNL     1     -34.668   5.331   5.078  1.00 20.00     0.033 C 
HETATM    9  C7  UNL     1     -34.622   5.291   6.568  1.00 20.00     0.008 C 
ENDBRANCH   5   8
BRANCH   5  10
HETATM   10  O10 UNL     1     -35.037   7.385   3.923  1.00 20.00    -0.390 OA
HETATM   11  H26 UNL     1     -35.857   7.161   4.386  1.00 20.00     0.210 HD
ENDBRANCH   5  10
TORSDOF 2
ENDMDL
MODEL 6
REMARK VINA RESULT:      -3.6      1.691      2.349
REMARK  2 active torsions:
REMARK  status: ('A' for Active; 'I' for Inactive)
REMARK    1  A    between atoms: C5_5  and  C8_8 
REMARK    2  A    between atoms: C5_5  and  O10_10 
ROOT
HETATM    1  C1  UNL     1     -33.415  15.904  -3.376  1.00 20.00     0.064 C 
HETATM    2  C2  UNL     1     -35.294  17.120  -4.517  1.00 20.00     0.069 C 
HETATM    3  C3  UNL     1     -33.371  14.976  -4.584  1.00 20.00     0.171 C 
HETATM    4  C4  UNL     1     -35.233  16.073  -5.639  1.00 20.00     0.120 C 
HETATM    5  C5  UNL     1     -33.972  17.281  -3.750  1.00 20.00     0.062 C 
HETATM    6  C6  UNL     1     -34.556  16.561  -6.917  1.00 20.00     0.039 C 
HETATM    7  O9  UNL     1     -34.660  14.846  -5.179  1.00 20.00    -0.386 OA
ENDROOT
BRANCH   5   8
HETATM    8  C8  UNL     1     -34.167  18.143  -2.501  1.00 20.00     0.033 C 
HETATM    9  C7  UNL     1     -33.669  17.451  -1.277  1.00 20.00     0.008 C 
ENDBRANCH   5   8
BRANCH   5  10
HETATM   10  O10 UNL     1     -33.012  17.941  -4.578  1.00 20.00    -0.390 OA
HETATM   11  H26 UNL     1     -33.140  17.592  -5.472  1.00 20.00     0.210 HD
ENDBRANCH   5  10
TORSDOF 2
ENDMDL
MODEL 7
REMARK VINA RESULT:      -3.5     12.533     13.570
REMARK  2 active torsions:
REMARK  status: ('A' for Active; 'I' for Inactive)
REMARK    1  A    between atoms: C5_5  and  C8_8 
REMARK    2  A    between atoms: C5_5  and  O10_10 
ROOT
HETATM    1  C1  UNL     1     -42.138  12.306   6.677  1.00 20.00     0.064 C 
HETATM    2  C2  UNL     1     -40.415  14.083   7.105  1.00 20.00     0.069 C 
HETATM    3  C3  UNL     1     -43.199  13.348   7.013  1.00 20.00     0.171 C 
HETATM    4  C4  UNL     1     -41.553  15.027   7.520  1.00 20.00     0.120 C 
HETATM    5  C5  UNL     1     -40.859  12.963   6.151  1.00 20.00     0.062 C 
HETATM    6  C6  UNL     1     -41.918  16.072   6.469  1.00 20.00     0.039 C 
HETATM    7  O9  UNL     1     -42.705  14.298   7.953  1.00 20.00    -0.386 OA
ENDROOT
BRANCH   5   8
HETATM    8  C8  UNL     1     -39.750  11.923   5.978  1.00 20.00     0.033 C 
HETATM    9  C7  UNL     1     -39.319  11.816   4.554  1.00 20.00     0.008 C 
ENDBRANCH   5   8
BRANCH   5  10
HETATM   10  O10 UNL     1     -41.135  13.510   4.860  1.00 20.00    -0.390 OA
HETATM   11  H26 UNL     1     -40.385  13.270   4.298  1.00 20.00     0.210 HD
ENDBRANCH   5  10
TORSDOF 2
ENDMDL
MODEL 8
REMARK VINA RESULT:      -3.5      1.573      2.490
REMARK  2 active torsions:
REMARK  status: ('A' for Active; 'I' for Inactive)
REMARK    1  A    between atoms: C5_5  and  C8_8 
REMARK    2  A    between atoms: C5_5  and  O10_10 
ROOT
HETATM    1  C1  UNL     1     -34.443  17.258  -5.058  1.00 20.00     0.064 C 
HETATM    2  C2  UNL     1     -33.952  15.132  -6.302  1.00 20.00     0.069 C 
HETATM    3  C3  UNL     1     -35.097  17.775  -6.334  1.00 20.00     0.171 C 
HETATM    4  C4  UNL     1     -34.544  15.783  -7.561  1.00 20.00     0.120 C 
HETATM    5  C5  UNL     1     -34.484  15.729  -4.991  1.00 20.00     0.062 C 
HETATM    6  C6  UNL     1     -35.948  15.300  -7.917  1.00 20.00     0.039 C 
HETATM    7  O9  UNL     1     -34.485  17.210  -7.490  1.00 20.00    -0.386 OA
ENDROOT
BRANCH   5   8
HETATM    8  C8  UNL     1     -33.680  15.219  -3.793  1.00 20.00     0.033 C 
HETATM    9  C7  UNL     1     -33.317  16.330  -2.866  1.00 20.00     0.008 C 
ENDBRANCH   5   8
BRANCH   5  10
HETATM   10  O10 UNL     1     -35.842  15.327  -4.794  1.00 20.00    -0.390 OA
HETATM   11  H26 UNL     1     -35.947  14.489  -5.268  1.00 20.00     0.210 HD
ENDBRANCH   5  10
TORSDOF 2
ENDMDL
MODEL 9
REMARK VINA RESULT:      -3.5     12.798     13.913
REMARK  2 active torsions:
REMARK  status: ('A' for Active; 'I' for Inactive)
REMARK    1  A    between atoms: C5_5  and  C8_8 
REMARK    2  A    between atoms: C5_5  and  O10_10 
ROOT
HETATM    1  C1  UNL     1     -42.129  12.284   6.686  1.00 20.00     0.064 C 
HETATM    2  C2  UNL     1     -40.075  13.639   7.192  1.00 20.00     0.069 C 
HETATM    3  C3  UNL     1     -42.844  13.088   7.766  1.00 20.00     0.171 C 
HETATM    4  C4  UNL     1     -40.857  14.322   8.324  1.00 20.00     0.120 C 
HETATM    5  C5  UNL     1     -40.969  13.077   6.077  1.00 20.00     0.062 C 
HETATM    6  C6  UNL     1     -41.329  15.736   7.997  1.00 20.00     0.039 C 
HETATM    7  O9  UNL     1     -41.936  13.503   8.783  1.00 20.00    -0.386 OA
ENDROOT
BRANCH   5   8
HETATM    8  C8  UNL     1     -40.161  12.200   5.118  1.00 20.00     0.033 C 
HETATM    9  C7  UNL     1     -38.727  12.126   5.522  1.00 20.00     0.008 C 
ENDBRANCH   5   8
BRANCH   5  10
HETATM   10  O10 UNL     1     -41.518  14.152   5.311  1.00 20.00    -0.390 OA
HETATM   11  H26 UNL     1     -42.141  13.750   4.688  1.00 20.00     0.210 HD
ENDBRANCH   5  10
TORSDOF 2
ENDMDL
