MODEL 1
REMARK VINA RESULT:      -4.4      0.000      0.000
REMARK  1 active torsions:
REMARK  status: ('A' for Active; 'I' for Inactive)
REMARK    1  A    between atoms: C5_5  and  C7_7 
ROOT
HETATM    1  C1  UNL     1     -32.029   7.176   2.883  1.00 20.00     0.046 C 
HETATM    2  C2  UNL     1     -33.693   5.886   4.248  1.00 20.00     0.052 C 
HETATM    3  C3  UNL     1     -32.357   8.386   3.750  1.00 20.00     0.169 C 
HETATM    4  C4  UNL     1     -33.220   6.222   2.835  1.00 20.00     0.086 C 
HETATM    5  C5  UNL     1     -33.940   7.173   5.042  1.00 20.00     0.122 C 
HETATM    6  O8  UNL     1     -32.756   7.978   5.059  1.00 20.00    -0.386 OA
HETATM    7 CL9  UNL     1     -32.788   4.734   1.954  1.00 20.00    -0.125 Cl
ENDROOT
BRANCH   5   8
HETATM    8  C7  UNL     1     -34.313   6.863   6.485  1.00 20.00     0.027 C 
HETATM    9  C6  UNL     1     -34.681   5.425   6.670  1.00 20.00     0.007 C 
ENDBRANCH   5   8
TORSDOF 1
ENDMDL
MODEL 2
REMARK VINA RESULT:      -4.2      2.194      3.415
REMARK  1 active torsions:
REMARK  status: ('A' for Active; 'I' for Inactive)
REMARK    1  A    between atoms: C5_5  and  C7_7 
ROOT
HETATM    1  C1  UNL     1     -33.776   4.650   4.107  1.00 20.00     0.046 C 
HETATM    2  C2  UNL     1     -33.710   7.020   4.930  1.00 20.00     0.052 C 
HETATM    3  C3  UNL     1     -33.282   5.174   2.763  1.00 20.00     0.169 C 
HETATM    4  C4  UNL     1     -34.543   5.741   4.850  1.00 20.00     0.086 C 
HETATM    5  C5  UNL     1     -33.226   7.422   3.534  1.00 20.00     0.122 C 
HETATM    6  O8  UNL     1     -32.489   6.348   2.938  1.00 20.00    -0.386 OA
HETATM    7 CL9  UNL     1     -34.985   5.184   6.485  1.00 20.00    -0.125 Cl
ENDROOT
BRANCH   5   8
HETATM    8  C7  UNL     1     -32.308   8.635   3.601  1.00 20.00     0.027 C 
HETATM    9  C6  UNL     1     -32.153   9.140   5.000  1.00 20.00     0.007 C 
ENDBRANCH   5   8
TORSDOF 1
ENDMDL
MODEL 3
REMARK VINA RESULT:      -4.1      2.398      3.762
REMARK  1 active torsions:
REMARK  status: ('A' for Active; 'I' for Inactive)
REMARK    1  A    between atoms: C5_5  and  C7_7 
ROOT
HETATM    1  C1  UNL     1     -33.876   7.320   6.526  1.00 20.00     0.046 C 
HETATM    2  C2  UNL     1     -33.240   6.771   4.161  1.00 20.00     0.052 C 
HETATM    3  C3  UNL     1     -34.830   6.132   6.473  1.00 20.00     0.169 C 
HETATM    4  C4  UNL     1     -33.656   7.882   5.123  1.00 20.00     0.086 C 
HETATM    5  C5  UNL     1     -34.238   5.612   4.231  1.00 20.00     0.122 C 
HETATM    6  O8  UNL     1     -34.345   5.133   5.576  1.00 20.00    -0.386 OA
HETATM    7 CL9  UNL     1     -32.421   9.169   5.158  1.00 20.00    -0.125 Cl
ENDROOT
BRANCH   5   8
HETATM    8  C7  UNL     1     -33.788   4.448   3.358  1.00 20.00     0.027 C 
HETATM    9  C6  UNL     1     -32.832   4.887   2.295  1.00 20.00     0.007 C 
ENDBRANCH   5   8
TORSDOF 1
ENDMDL
MODEL 4
REMARK VINA RESULT:      -4.0      1.886      3.688
REMARK  1 active torsions:
REMARK  status: ('A' for Active; 'I' for Inactive)
REMARK    1  A    between atoms: C5_5  and  C7_7 
ROOT
HETATM    1  C1  UNL     1     -33.738   7.839   5.490  1.00 20.00     0.046 C 
HETATM    2  C2  UNL     1     -33.359   6.541   3.377  1.00 20.00     0.052 C 
HETATM    3  C3  UNL     1     -32.611   8.763   5.045  1.00 20.00     0.169 C 
HETATM    4  C4  UNL     1     -33.549   6.448   4.890  1.00 20.00     0.086 C 
HETATM    5  C5  UNL     1     -32.240   7.534   3.045  1.00 20.00     0.122 C 
HETATM    6  O8  UNL     1     -32.529   8.813   3.621  1.00 20.00    -0.386 OA
HETATM    7 CL9  UNL     1     -34.946   5.410   5.278  1.00 20.00    -0.125 Cl
ENDROOT
BRANCH   5   8
HETATM    8  C7  UNL     1     -32.102   7.721   1.541  1.00 20.00     0.027 C 
HETATM    9  C6  UNL     1     -32.595   9.061   1.098  1.00 20.00     0.007 C 
ENDBRANCH   5   8
TORSDOF 1
ENDMDL
MODEL 5
REMARK VINA RESULT:      -3.8      1.474      1.785
REMARK  1 active torsions:
REMARK  status: ('A' for Active; 'I' for Inactive)
REMARK    1  A    between atoms: C5_5  and  C7_7 
ROOT
HETATM    1  C1  UNL     1     -32.174   8.624   4.135  1.00 20.00     0.046 C 
HETATM    2  C2  UNL     1     -33.374   6.556   3.374  1.00 20.00     0.052 C 
HETATM    3  C3  UNL     1     -33.031   8.576   5.395  1.00 20.00     0.169 C 
HETATM    4  C4  UNL     1     -32.905   7.953   2.974  1.00 20.00     0.086 C 
HETATM    5  C5  UNL     1     -34.177   6.622   4.677  1.00 20.00     0.122 C 
HETATM    6  O8  UNL     1     -33.394   7.232   5.710  1.00 20.00    -0.386 OA
HETATM    7 CL9  UNL     1     -31.847   7.867   1.542  1.00 20.00    -0.125 Cl
ENDROOT
BRANCH   5   8
HETATM    8  C7  UNL     1     -34.567   5.228   5.151  1.00 20.00     0.027 C 
HETATM    9  C6  UNL     1     -34.555   5.123   6.643  1.00 20.00     0.007 C 
ENDBRANCH   5   8
TORSDOF 1
ENDMDL
MODEL 6
REMARK VINA RESULT:      -3.7      2.233      2.631
REMARK  1 active torsions:
REMARK  status: ('A' for Active; 'I' for Inactive)
REMARK    1  A    between atoms: C5_5  and  C7_7 
ROOT
HETATM    1  C1  UNL     1     -32.290   7.538   2.664  1.00 20.00     0.046 C 
HETATM    2  C2  UNL     1     -33.539   7.415   4.837  1.00 20.00     0.052 C 
HETATM    3  C3  UNL     1     -32.497   6.033   2.538  1.00 20.00     0.169 C 
HETATM    4  C4  UNL     1     -32.292   7.950   4.135  1.00 20.00     0.086 C 
HETATM    5  C5  UNL     1     -33.674   5.908   4.598  1.00 20.00     0.122 C 
HETATM    6  O8  UNL     1     -33.699   5.631   3.194  1.00 20.00    -0.386 OA
HETATM    7 CL9  UNL     1     -32.209   9.725   4.282  1.00 20.00    -0.125 Cl
ENDROOT
BRANCH   5   8
HETATM    8  C7  UNL     1     -34.965   5.372   5.202  1.00 20.00     0.027 C 
HETATM    9  C6  UNL     1     -34.924   5.374   6.696  1.00 20.00     0.007 C 
ENDBRANCH   5   8
TORSDOF 1
ENDMDL
MODEL 7
REMARK VINA RESULT:      -3.7     10.144     10.963
REMARK  1 active torsions:
REMARK  status: ('A' for Active; 'I' for Inactive)
REMARK    1  A    between atoms: C5_5  and  C7_7 
ROOT
HETATM    1  C1  UNL     1     -42.046  14.948   6.843  1.00 20.00     0.046 C 
HETATM    2  C2  UNL     1     -41.125  13.441   5.061  1.00 20.00     0.052 C 
HETATM    3  C3  UNL     1     -41.658  13.875   7.855  1.00 20.00     0.169 C 
HETATM    4  C4  UNL     1     -42.306  14.316   5.478  1.00 20.00     0.086 C 
HETATM    5  C5  UNL     1     -40.792  12.440   6.171  1.00 20.00     0.122 C 
HETATM    6  O8  UNL     1     -40.529  13.131   7.397  1.00 20.00    -0.386 OA
HETATM    7 CL9  UNL     1     -42.604  15.580   4.257  1.00 20.00    -0.125 Cl
ENDROOT
BRANCH   5   8
HETATM    8  C7  UNL     1     -39.553  11.626   5.821  1.00 20.00     0.027 C 
HETATM    9  C6  UNL     1     -39.209  11.731   4.370  1.00 20.00     0.007 C 
ENDBRANCH   5   8
TORSDOF 1
ENDMDL
MODEL 8
REMARK VINA RESULT:      -3.7     10.219     11.176
REMARK  1 active torsions:
REMARK  status: ('A' for Active; 'I' for Inactive)
REMARK    1  A    between atoms: C5_5  and  C7_7 
ROOT
HETATM    1  C1  UNL     1     -42.496  14.122   7.786  1.00 20.00     0.046 C 
HETATM    2  C2  UNL     1     -40.234  13.864   6.730  1.00 20.00     0.052 C 
HETATM    3  C3  UNL     1     -42.934  12.900   6.985  1.00 20.00     0.169 C 
HETATM    4  C4  UNL     1     -41.358  14.843   7.068  1.00 20.00     0.086 C 
HETATM    5  C5  UNL     1     -40.796  12.656   5.975  1.00 20.00     0.122 C 
HETATM    6  O8  UNL     1     -41.829  12.029   6.745  1.00 20.00    -0.386 OA
HETATM    7 CL9  UNL     1     -40.737  16.178   8.074  1.00 20.00    -0.125 Cl
ENDROOT
BRANCH   5   8
HETATM    8  C7  UNL     1     -39.713  11.618   5.718  1.00 20.00     0.027 C 
HETATM    9  C6  UNL     1     -39.139  11.740   4.343  1.00 20.00     0.007 C 
ENDBRANCH   5   8
TORSDOF 1
ENDMDL
MODEL 9
REMARK VINA RESULT:      -3.7      1.346      2.896
REMARK  1 active torsions:
REMARK  status: ('A' for Active; 'I' for Inactive)
REMARK    1  A    between atoms: C5_5  and  C7_7 
ROOT
HETATM    1  C1  UNL     1     -34.601   4.799   4.629  1.00 20.00     0.046 C 
HETATM    2  C2  UNL     1     -33.202   6.793   4.024  1.00 20.00     0.052 C 
HETATM    3  C3  UNL     1     -34.644   5.345   6.051  1.00 20.00     0.169 C 
HETATM    4  C4  UNL     1     -33.335   5.275   3.919  1.00 20.00     0.086 C 
HETATM    5  C5  UNL     1     -33.313   7.232   5.487  1.00 20.00     0.122 C 
HETATM    6  O8  UNL     1     -34.546   6.770   6.050  1.00 20.00    -0.386 OA
HETATM    7 CL9  UNL     1     -33.356   4.770   2.209  1.00 20.00    -0.125 Cl
ENDROOT
BRANCH   5   8
HETATM    8  C7  UNL     1     -33.287   8.749   5.607  1.00 20.00     0.027 C 
HETATM    9  C6  UNL     1     -32.216   9.357   4.759  1.00 20.00     0.007 C 
ENDBRANCH   5   8
TORSDOF 1
ENDMDL
