MODEL 1
REMARK VINA RESULT:      -3.3      0.000      0.000
REMARK  1 active torsions:
REMARK  status: ('A' for Active; 'I' for Inactive)
REMARK    1  A    between atoms: C5_5  and  C9_9 
ROOT
HETATM    1  C1  UNL     1     -33.173  15.402  -3.853  1.00 20.00     0.046 C 
HETATM    2  C2  UNL     1     -34.076  17.674  -4.393  1.00 20.00     0.058 C 
HETATM    3  C3  UNL     1     -33.974  14.863  -5.029  1.00 20.00     0.170 C 
HETATM    4  C4  UNL     1     -33.847  16.646  -3.286  1.00 20.00     0.087 C 
HETATM    5  C5  UNL     1     -34.802  17.065  -5.611  1.00 20.00     0.061 C 
HETATM    6  C6  UNL     1     -34.684  18.037  -6.797  1.00 20.00     0.046 C 
HETATM    7  O10 UNL     1     -34.156  15.852  -6.039  1.00 20.00    -0.380 OA
HETATM    8 CL11 UNL     1     -32.844  17.351  -1.987  1.00 20.00    -0.125 Cl
ENDROOT
BRANCH   5   9
HETATM    9  C9  UNL     1     -36.272  16.818  -5.337  1.00 20.00     0.012 C 
HETATM   10  C7  UNL     1     -36.906  18.054  -4.712  1.00 20.00     0.012 C 
HETATM   11  C8  UNL     1     -36.990  16.429  -6.623  1.00 20.00     0.012 C 
ENDBRANCH   5   9
TORSDOF 1
ENDMDL
MODEL 2
REMARK VINA RESULT:      -3.2     13.290     14.285
REMARK  1 active torsions:
REMARK  status: ('A' for Active; 'I' for Inactive)
REMARK    1  A    between atoms: C5_5  and  C9_9 
ROOT
HETATM    1  C1  UNL     1     -40.893  13.094   5.143  1.00 20.00     0.046 C 
HETATM    2  C2  UNL     1     -42.442  14.457   6.560  1.00 20.00     0.058 C 
HETATM    3  C3  UNL     1     -40.004  12.930   6.366  1.00 20.00     0.170 C 
HETATM    4  C4  UNL     1     -41.681  14.396   5.237  1.00 20.00     0.087 C 
HETATM    5  C5  UNL     1     -41.526  14.186   7.772  1.00 20.00     0.061 C 
HETATM    6  C6  UNL     1     -42.403  13.916   9.008  1.00 20.00     0.046 C 
HETATM    7  O10 UNL     1     -40.758  12.985   7.575  1.00 20.00    -0.380 OA
HETATM    8 CL11 UNL     1     -42.816  14.531   3.865  1.00 20.00    -0.125 Cl
ENDROOT
BRANCH   5   9
HETATM    9  C9  UNL     1     -40.616  15.358   8.077  1.00 20.00     0.012 C 
HETATM   10  C7  UNL     1     -41.360  16.671   7.868  1.00 20.00     0.012 C 
HETATM   11  C8  UNL     1     -40.081  15.255   9.499  1.00 20.00     0.012 C 
ENDBRANCH   5   9
TORSDOF 1
ENDMDL
MODEL 3
REMARK VINA RESULT:      -3.1     13.648     14.476
REMARK  1 active torsions:
REMARK  status: ('A' for Active; 'I' for Inactive)
REMARK    1  A    between atoms: C5_5  and  C9_9 
ROOT
HETATM    1  C1  UNL     1     -40.456  15.728   9.079  1.00 20.00     0.046 C 
HETATM    2  C2  UNL     1     -40.876  15.169   6.675  1.00 20.00     0.058 C 
HETATM    3  C3  UNL     1     -40.926  14.325   9.432  1.00 20.00     0.170 C 
HETATM    4  C4  UNL     1     -41.116  16.192   7.785  1.00 20.00     0.087 C 
HETATM    5  C5  UNL     1     -41.271  13.741   7.106  1.00 20.00     0.061 C 
HETATM    6  C6  UNL     1     -40.686  12.738   6.096  1.00 20.00     0.046 C 
HETATM    7  O10 UNL     1     -40.675  13.404   8.372  1.00 20.00    -0.380 OA
HETATM    8 CL11 UNL     1     -40.473  17.787   7.304  1.00 20.00    -0.125 Cl
ENDROOT
BRANCH   5   9
HETATM    9  C9  UNL     1     -42.773  13.550   7.155  1.00 20.00     0.012 C 
HETATM   10  C7  UNL     1     -43.417  14.109   5.893  1.00 20.00     0.012 C 
HETATM   11  C8  UNL     1     -43.112  12.076   7.333  1.00 20.00     0.012 C 
ENDBRANCH   5   9
TORSDOF 1
ENDMDL
MODEL 4
REMARK VINA RESULT:      -3.1     12.642     14.083
REMARK  1 active torsions:
REMARK  status: ('A' for Active; 'I' for Inactive)
REMARK    1  A    between atoms: C5_5  and  C9_9 
ROOT
HETATM    1  C1  UNL     1     -32.016   7.668   3.162  1.00 20.00     0.046 C 
HETATM    2  C2  UNL     1     -33.909   7.721   4.800  1.00 20.00     0.058 C 
HETATM    3  C3  UNL     1     -32.417   6.240   2.826  1.00 20.00     0.170 C 
HETATM    4  C4  UNL     1     -32.421   8.004   4.593  1.00 20.00     0.087 C 
HETATM    5  C5  UNL     1     -34.298   6.296   4.353  1.00 20.00     0.061 C 
HETATM    6  C6  UNL     1     -35.831   6.206   4.259  1.00 20.00     0.046 C 
HETATM    7  O10 UNL     1     -33.813   6.025   3.025  1.00 20.00    -0.380 OA
HETATM    8 CL11 UNL     1     -32.063   9.717   4.949  1.00 20.00    -0.125 Cl
ENDROOT
BRANCH   5   9
HETATM    9  C9  UNL     1     -33.814   5.239   5.324  1.00 20.00     0.012 C 
HETATM   10  C7  UNL     1     -34.635   5.286   6.607  1.00 20.00     0.012 C 
HETATM   11  C8  UNL     1     -33.887   3.859   4.682  1.00 20.00     0.012 C 
ENDBRANCH   5   9
TORSDOF 1
ENDMDL
MODEL 5
REMARK VINA RESULT:      -3.1      2.507      4.287
REMARK  1 active torsions:
REMARK  status: ('A' for Active; 'I' for Inactive)
REMARK    1  A    between atoms: C5_5  and  C9_9 
ROOT
HETATM    1  C1  UNL     1     -36.967  18.138  -4.717  1.00 20.00     0.046 C 
HETATM    2  C2  UNL     1     -34.554  17.705  -5.222  1.00 20.00     0.058 C 
HETATM    3  C3  UNL     1     -36.546  18.532  -3.309  1.00 20.00     0.170 C 
HETATM    4  C4  UNL     1     -35.972  17.142  -5.302  1.00 20.00     0.087 C 
HETATM    5  C5  UNL     1     -34.199  18.187  -3.800  1.00 20.00     0.061 C 
HETATM    6  C6  UNL     1     -32.923  19.044  -3.870  1.00 20.00     0.046 C 
HETATM    7  O10 UNL     1     -35.221  19.058  -3.284  1.00 20.00    -0.380 OA
HETATM    8 CL11 UNL     1     -36.396  16.774  -6.998  1.00 20.00    -0.125 Cl
ENDROOT
BRANCH   5   9
HETATM    9  C9  UNL     1     -33.950  17.034  -2.849  1.00 20.00     0.012 C 
HETATM   10  C7  UNL     1     -33.165  15.932  -3.550  1.00 20.00     0.012 C 
HETATM   11  C8  UNL     1     -33.213  17.523  -1.609  1.00 20.00     0.012 C 
ENDBRANCH   5   9
TORSDOF 1
ENDMDL
MODEL 6
REMARK VINA RESULT:      -3.1     13.490     14.419
REMARK  1 active torsions:
REMARK  status: ('A' for Active; 'I' for Inactive)
REMARK    1  A    between atoms: C5_5  and  C9_9 
ROOT
HETATM    1  C1  UNL     1     -41.406  13.613   5.053  1.00 20.00     0.046 C 
HETATM    2  C2  UNL     1     -40.425  13.847   7.344  1.00 20.00     0.058 C 
HETATM    3  C3  UNL     1     -42.347  14.758   5.397  1.00 20.00     0.170 C 
HETATM    4  C4  UNL     1     -40.999  12.869   6.320  1.00 20.00     0.087 C 
HETATM    5  C5  UNL     1     -41.364  15.047   7.593  1.00 20.00     0.061 C 
HETATM    6  C6  UNL     1     -40.584  16.139   8.345  1.00 20.00     0.046 C 
HETATM    7  O10 UNL     1     -41.768  15.647   6.349  1.00 20.00    -0.380 OA
HETATM    8 CL11 UNL     1     -39.798  11.605   5.933  1.00 20.00    -0.125 Cl
ENDROOT
BRANCH   5   9
HETATM    9  C9  UNL     1     -42.574  14.666   8.420  1.00 20.00     0.012 C 
HETATM   10  C7  UNL     1     -42.139  13.971   9.704  1.00 20.00     0.012 C 
HETATM   11  C8  UNL     1     -43.413  15.900   8.726  1.00 20.00     0.012 C 
ENDBRANCH   5   9
TORSDOF 1
ENDMDL
MODEL 7
REMARK VINA RESULT:      -3.0     25.354     26.681
REMARK  1 active torsions:
REMARK  status: ('A' for Active; 'I' for Inactive)
REMARK    1  A    between atoms: C5_5  and  C9_9 
ROOT
HETATM    1  C1  UNL     1     -23.519  -2.502  11.004  1.00 20.00     0.046 C 
HETATM    2  C2  UNL     1     -25.630  -3.797  10.639  1.00 20.00     0.058 C 
HETATM    3  C3  UNL     1     -24.354  -1.440  11.703  1.00 20.00     0.170 C 
HETATM    4  C4  UNL     1     -24.367  -3.246   9.979  1.00 20.00     0.087 C 
HETATM    5  C5  UNL     1     -26.397  -2.711  11.424  1.00 20.00     0.061 C 
HETATM    6  C6  UNL     1     -27.434  -3.394  12.332  1.00 20.00     0.046 C 
HETATM    7  O10 UNL     1     -25.515  -2.000  12.311  1.00 20.00    -0.380 OA
HETATM    8 CL11 UNL     1     -23.425  -4.574   9.246  1.00 20.00    -0.125 Cl
ENDROOT
BRANCH   5   9
HETATM    9  C9  UNL     1     -27.123  -1.747  10.508  1.00 20.00     0.012 C 
HETATM   10  C7  UNL     1     -28.190  -2.483   9.707  1.00 20.00     0.012 C 
HETATM   11  C8  UNL     1     -27.736  -0.611  11.316  1.00 20.00     0.012 C 
ENDBRANCH   5   9
TORSDOF 1
ENDMDL
MODEL 8
REMARK VINA RESULT:      -3.0      2.497      3.912
REMARK  1 active torsions:
REMARK  status: ('A' for Active; 'I' for Inactive)
REMARK    1  A    between atoms: C5_5  and  C9_9 
ROOT
HETATM    1  C1  UNL     1     -34.604  16.502  -5.016  1.00 20.00     0.046 C 
HETATM    2  C2  UNL     1     -32.860  16.875  -3.260  1.00 20.00     0.058 C 
HETATM    3  C3  UNL     1     -35.303  17.758  -4.514  1.00 20.00     0.170 C 
HETATM    4  C4  UNL     1     -33.810  15.856  -3.887  1.00 20.00     0.087 C 
HETATM    5  C5  UNL     1     -33.587  18.175  -2.855  1.00 20.00     0.061 C 
HETATM    6  C6  UNL     1     -32.537  19.262  -2.567  1.00 20.00     0.046 C 
HETATM    7  O10 UNL     1     -34.378  18.682  -3.945  1.00 20.00    -0.380 OA
HETATM    8 CL11 UNL     1     -32.891  14.455  -4.504  1.00 20.00    -0.125 Cl
ENDROOT
BRANCH   5   9
HETATM    9  C9  UNL     1     -34.440  17.993  -1.616  1.00 20.00     0.012 C 
HETATM   10  C7  UNL     1     -33.568  17.614  -0.426  1.00 20.00     0.012 C 
HETATM   11  C8  UNL     1     -35.231  19.263  -1.329  1.00 20.00     0.012 C 
ENDBRANCH   5   9
TORSDOF 1
ENDMDL
MODEL 9
REMARK VINA RESULT:      -3.0      1.604      2.810
REMARK  1 active torsions:
REMARK  status: ('A' for Active; 'I' for Inactive)
REMARK    1  A    between atoms: C5_5  and  C9_9 
ROOT
HETATM    1  C1  UNL     1     -35.189  18.120  -3.587  1.00 20.00     0.046 C 
HETATM    2  C2  UNL     1     -34.349  15.891  -4.358  1.00 20.00     0.058 C 
HETATM    3  C3  UNL     1     -36.144  18.110  -4.771  1.00 20.00     0.170 C 
HETATM    4  C4  UNL     1     -33.948  17.295  -3.907  1.00 20.00     0.087 C 
HETATM    5  C5  UNL     1     -35.395  15.921  -5.492  1.00 20.00     0.061 C 
HETATM    6  C6  UNL     1     -36.001  14.516  -5.646  1.00 20.00     0.046 C 
HETATM    7  O10 UNL     1     -36.497  16.782  -5.151  1.00 20.00    -0.380 OA
HETATM    8 CL11 UNL     1     -32.884  17.203  -2.476  1.00 20.00    -0.125 Cl
ENDROOT
BRANCH   5   9
HETATM    9  C9  UNL     1     -34.790  16.331  -6.819  1.00 20.00     0.012 C 
HETATM   10  C7  UNL     1     -33.674  15.369  -7.209  1.00 20.00     0.012 C 
HETATM   11  C8  UNL     1     -35.865  16.381  -7.897  1.00 20.00     0.012 C 
ENDBRANCH   5   9
TORSDOF 1
ENDMDL
