MODEL 1
REMARK VINA RESULT:      -4.1      0.000      0.000
REMARK  3 active torsions:
REMARK  status: ('A' for Active; 'I' for Inactive)
REMARK    1  A    between atoms: C4_4  and  N8_8 
REMARK    2  A    between atoms: C6_6  and  C7_7 
REMARK    3  A    between atoms: C6_6  and  N8_8 
ROOT
HETATM    1  C1  UNL     1     -33.998   5.825   4.141  1.00 20.00     0.064 C 
HETATM    2  C2  UNL     1     -34.645   5.057   5.272  1.00 20.00     0.170 C 
HETATM    3  C3  UNL     1     -33.805   7.048   6.142  1.00 20.00     0.203 C 
HETATM    4  C4  UNL     1     -34.057   7.244   4.659  1.00 20.00     0.248 C 
HETATM    5  O9  UNL     1     -34.301   5.744   6.482  1.00 20.00    -0.389 OA
ENDROOT
BRANCH   4   6
HETATM    6  N8  UNL     1     -33.110   8.118   4.032  1.00 20.00     0.092 N 
HETATM    7  C5  UNL     1     -32.341   8.846   5.040  1.00 20.00     0.310 C 
BRANCH   6   8
HETATM    8  C6  UNL     1     -32.217   7.358   3.157  1.00 20.00     0.287 C 
BRANCH   8   9
HETATM    9  C7  UNL     1     -32.186   7.905   1.740  1.00 20.00     0.144 C 
HETATM   10 CL10 UNL     1     -32.904   9.534   1.659  1.00 20.00    -0.129 Cl
ENDBRANCH   8   9
ENDBRANCH   6   8
ENDBRANCH   4   6
TORSDOF 3
ENDMDL
MODEL 2
REMARK VINA RESULT:      -3.7      1.048      1.487
REMARK  3 active torsions:
REMARK  status: ('A' for Active; 'I' for Inactive)
REMARK    1  A    between atoms: C4_4  and  N8_8 
REMARK    2  A    between atoms: C6_6  and  C7_7 
REMARK    3  A    between atoms: C6_6  and  N8_8 
ROOT
HETATM    1  C1  UNL     1     -34.281   5.385   4.669  1.00 20.00     0.064 C 
HETATM    2  C2  UNL     1     -35.076   5.539   5.946  1.00 20.00     0.170 C 
HETATM    3  C3  UNL     1     -33.518   7.269   5.855  1.00 20.00     0.203 C 
HETATM    4  C4  UNL     1     -33.791   6.796   4.439  1.00 20.00     0.248 C 
HETATM    5  O9  UNL     1     -34.421   6.558   6.715  1.00 20.00    -0.389 OA
ENDROOT
BRANCH   4   6
HETATM    6  N8  UNL     1     -32.641   6.866   3.585  1.00 20.00     0.092 N 
HETATM    7  C5  UNL     1     -32.708   5.833   2.553  1.00 20.00     0.310 C 
BRANCH   6   8
HETATM    8  C6  UNL     1     -32.539   8.193   2.977  1.00 20.00     0.287 C 
BRANCH   8   9
HETATM    9  C7  UNL     1     -32.142   8.132   1.511  1.00 20.00     0.144 C 
HETATM   10 CL10 UNL     1     -32.750   9.548   0.618  1.00 20.00    -0.129 Cl
ENDBRANCH   8   9
ENDBRANCH   6   8
ENDBRANCH   4   6
TORSDOF 3
ENDMDL
MODEL 3
REMARK VINA RESULT:      -3.4     12.028     13.154
REMARK  3 active torsions:
REMARK  status: ('A' for Active; 'I' for Inactive)
REMARK    1  A    between atoms: C4_4  and  N8_8 
REMARK    2  A    between atoms: C6_6  and  C7_7 
REMARK    3  A    between atoms: C6_6  and  N8_8 
ROOT
HETATM    1  C1  UNL     1     -34.497  16.039  -6.709  1.00 20.00     0.064 C 
HETATM    2  C2  UNL     1     -35.468  15.422  -7.690  1.00 20.00     0.170 C 
HETATM    3  C3  UNL     1     -35.819  14.431  -5.611  1.00 20.00     0.203 C 
HETATM    4  C4  UNL     1     -35.195  15.797  -5.390  1.00 20.00     0.248 C 
HETATM    5  O9  UNL     1     -36.079  14.313  -7.018  1.00 20.00    -0.389 OA
ENDROOT
BRANCH   4   6
HETATM    6  N8  UNL     1     -34.312  15.843  -4.262  1.00 20.00     0.092 N 
HETATM    7  C5  UNL     1     -33.235  14.866  -4.417  1.00 20.00     0.310 C 
BRANCH   6   8
HETATM    8  C6  UNL     1     -33.764  17.189  -4.099  1.00 20.00     0.287 C 
BRANCH   8   9
HETATM    9  C7  UNL     1     -34.294  17.887  -2.858  1.00 20.00     0.144 C 
HETATM   10 CL10 UNL     1     -33.650  17.144  -1.372  1.00 20.00    -0.129 Cl
ENDBRANCH   8   9
ENDBRANCH   6   8
ENDBRANCH   4   6
TORSDOF 3
ENDMDL
MODEL 4
REMARK VINA RESULT:      -3.4     12.058     12.674
REMARK  3 active torsions:
REMARK  status: ('A' for Active; 'I' for Inactive)
REMARK    1  A    between atoms: C4_4  and  N8_8 
REMARK    2  A    between atoms: C6_6  and  C7_7 
REMARK    3  A    between atoms: C6_6  and  N8_8 
ROOT
HETATM    1  C1  UNL     1     -33.475  16.960  -1.862  1.00 20.00     0.064 C 
HETATM    2  C2  UNL     1     -33.549  16.818  -3.366  1.00 20.00     0.170 C 
HETATM    3  C3  UNL     1     -32.814  18.976  -2.882  1.00 20.00     0.203 C 
HETATM    4  C4  UNL     1     -32.470  18.079  -1.707  1.00 20.00     0.248 C 
HETATM    5  O9  UNL     1     -33.351  18.129  -3.911  1.00 20.00    -0.389 OA
ENDROOT
BRANCH   4   6
HETATM    6  N8  UNL     1     -32.552  18.745  -0.441  1.00 20.00     0.092 N 
HETATM    7  C5  UNL     1     -33.635  18.182   0.364  1.00 20.00     0.310 C 
BRANCH   6   8
HETATM    8  C6  UNL     1     -31.279  18.644   0.272  1.00 20.00     0.287 C 
BRANCH   8   9
HETATM    9  C7  UNL     1     -31.461  18.493   1.773  1.00 20.00     0.144 C 
HETATM   10 CL10 UNL     1     -29.897  18.550   2.624  1.00 20.00    -0.129 Cl
ENDBRANCH   8   9
ENDBRANCH   6   8
ENDBRANCH   4   6
TORSDOF 3
ENDMDL
MODEL 5
REMARK VINA RESULT:      -3.4     12.046     12.730
REMARK  3 active torsions:
REMARK  status: ('A' for Active; 'I' for Inactive)
REMARK    1  A    between atoms: C4_4  and  N8_8 
REMARK    2  A    between atoms: C6_6  and  C7_7 
REMARK    3  A    between atoms: C6_6  and  N8_8 
ROOT
HETATM    1  C1  UNL     1     -33.306  15.856  -3.431  1.00 20.00     0.064 C 
HETATM    2  C2  UNL     1     -33.665  15.115  -4.699  1.00 20.00     0.170 C 
HETATM    3  C3  UNL     1     -34.912  17.082  -4.638  1.00 20.00     0.203 C 
HETATM    4  C4  UNL     1     -33.667  17.278  -3.792  1.00 20.00     0.248 C 
HETATM    5  O9  UNL     1     -34.792  15.796  -5.266  1.00 20.00    -0.389 OA
ENDROOT
BRANCH   4   6
HETATM    6  N8  UNL     1     -33.883  18.117  -2.650  1.00 20.00     0.092 N 
HETATM    7  C5  UNL     1     -35.245  18.650  -2.657  1.00 20.00     0.310 C 
BRANCH   6   8
HETATM    8  C6  UNL     1     -33.630  17.374  -1.416  1.00 20.00     0.287 C 
BRANCH   8   9
HETATM    9  C7  UNL     1     -33.070  18.253  -0.311  1.00 20.00     0.144 C 
HETATM   10 CL10 UNL     1     -31.305  18.444  -0.467  1.00 20.00    -0.129 Cl
ENDBRANCH   8   9
ENDBRANCH   6   8
ENDBRANCH   4   6
TORSDOF 3
ENDMDL
MODEL 6
REMARK VINA RESULT:      -3.3     12.215     13.040
REMARK  3 active torsions:
REMARK  status: ('A' for Active; 'I' for Inactive)
REMARK    1  A    between atoms: C4_4  and  N8_8 
REMARK    2  A    between atoms: C6_6  and  C7_7 
REMARK    3  A    between atoms: C6_6  and  N8_8 
ROOT
HETATM    1  C1  UNL     1     -33.359  17.034  -1.976  1.00 20.00     0.064 C 
HETATM    2  C2  UNL     1     -32.541  18.089  -1.265  1.00 20.00     0.170 C 
HETATM    3  C3  UNL     1     -33.005  18.865  -3.412  1.00 20.00     0.203 C 
HETATM    4  C4  UNL     1     -34.070  17.854  -3.029  1.00 20.00     0.248 C 
HETATM    5  O9  UNL     1     -32.179  19.062  -2.254  1.00 20.00    -0.389 OA
ENDROOT
BRANCH   4   6
HETATM    6  N8  UNL     1     -34.537  17.075  -4.137  1.00 20.00     0.092 N 
HETATM    7  C5  UNL     1     -34.438  17.840  -5.379  1.00 20.00     0.310 C 
BRANCH   6   8
HETATM    8  C6  UNL     1     -33.777  15.829  -4.240  1.00 20.00     0.287 C 
BRANCH   8   9
HETATM    9  C7  UNL     1     -34.155  15.016  -5.467  1.00 20.00     0.144 C 
HETATM   10 CL10 UNL     1     -35.805  14.360  -5.326  1.00 20.00    -0.129 Cl
ENDBRANCH   8   9
ENDBRANCH   6   8
ENDBRANCH   4   6
TORSDOF 3
ENDMDL
MODEL 7
REMARK VINA RESULT:      -3.3     11.815     12.392
REMARK  3 active torsions:
REMARK  status: ('A' for Active; 'I' for Inactive)
REMARK    1  A    between atoms: C4_4  and  N8_8 
REMARK    2  A    between atoms: C6_6  and  C7_7 
REMARK    3  A    between atoms: C6_6  and  N8_8 
ROOT
HETATM    1  C1  UNL     1     -32.914  18.579   1.045  1.00 20.00     0.064 C 
HETATM    2  C2  UNL     1     -31.563  19.163   1.392  1.00 20.00     0.170 C 
HETATM    3  C3  UNL     1     -31.524  18.547  -0.855  1.00 20.00     0.203 C 
HETATM    4  C4  UNL     1     -32.967  18.792  -0.451  1.00 20.00     0.248 C 
HETATM    5  O9  UNL     1     -30.708  18.912   0.269  1.00 20.00    -0.389 OA
ENDROOT
BRANCH   4   6
HETATM    6  N8  UNL     1     -33.897  17.928  -1.116  1.00 20.00     0.092 N 
HETATM    7  C5  UNL     1     -34.837  18.710  -1.917  1.00 20.00     0.310 C 
BRANCH   6   8
HETATM    8  C6  UNL     1     -33.187  16.964  -1.955  1.00 20.00     0.287 C 
BRANCH   8   9
HETATM    9  C7  UNL     1     -33.792  16.843  -3.344  1.00 20.00     0.144 C 
HETATM   10 CL10 UNL     1     -33.698  15.170  -3.948  1.00 20.00    -0.129 Cl
ENDBRANCH   8   9
ENDBRANCH   6   8
ENDBRANCH   4   6
TORSDOF 3
ENDMDL
MODEL 8
REMARK VINA RESULT:      -3.2     12.119     12.860
REMARK  3 active torsions:
REMARK  status: ('A' for Active; 'I' for Inactive)
REMARK    1  A    between atoms: C4_4  and  N8_8 
REMARK    2  A    between atoms: C6_6  and  C7_7 
REMARK    3  A    between atoms: C6_6  and  N8_8 
ROOT
HETATM    1  C1  UNL     1     -34.682  14.911  -4.799  1.00 20.00     0.064 C 
HETATM    2  C2  UNL     1     -35.828  14.348  -5.609  1.00 20.00     0.170 C 
HETATM    3  C3  UNL     1     -36.182  16.637  -5.356  1.00 20.00     0.203 C 
HETATM    4  C4  UNL     1     -34.696  16.365  -5.214  1.00 20.00     0.248 C 
HETATM    5  O9  UNL     1     -36.802  15.395  -5.722  1.00 20.00    -0.389 OA
ENDROOT
BRANCH   4   6
HETATM    6  N8  UNL     1     -34.046  17.231  -4.275  1.00 20.00     0.092 N 
HETATM    7  C5  UNL     1     -35.017  18.133  -3.656  1.00 20.00     0.310 C 
BRANCH   6   8
HETATM    8  C6  UNL     1     -33.353  16.446  -3.253  1.00 20.00     0.287 C 
BRANCH   8   9
HETATM    9  C7  UNL     1     -33.591  16.977  -1.849  1.00 20.00     0.144 C 
HETATM   10 CL10 UNL     1     -32.256  18.032  -1.322  1.00 20.00    -0.129 Cl
ENDBRANCH   8   9
ENDBRANCH   6   8
ENDBRANCH   4   6
TORSDOF 3
ENDMDL
MODEL 9
REMARK VINA RESULT:      -3.1     10.034     10.738
REMARK  3 active torsions:
REMARK  status: ('A' for Active; 'I' for Inactive)
REMARK    1  A    between atoms: C4_4  and  N8_8 
REMARK    2  A    between atoms: C6_6  and  C7_7 
REMARK    3  A    between atoms: C6_6  and  N8_8 
ROOT
HETATM    1  C1  UNL     1     -41.377  15.629   7.091  1.00 20.00     0.064 C 
HETATM    2  C2  UNL     1     -40.703  16.581   8.054  1.00 20.00     0.170 C 
HETATM    3  C3  UNL     1     -40.274  14.407   8.773  1.00 20.00     0.203 C 
HETATM    4  C4  UNL     1     -40.565  14.369   7.284  1.00 20.00     0.248 C 
HETATM    5  O9  UNL     1     -40.246  15.790   9.158  1.00 20.00    -0.389 OA
ENDROOT
BRANCH   4   6
HETATM    6  N8  UNL     1     -41.251  13.181   6.869  1.00 20.00     0.092 N 
HETATM    7  C5  UNL     1     -42.697  13.400   6.867  1.00 20.00     0.310 C 
BRANCH   6   8
HETATM    8  C6  UNL     1     -40.794  12.765   5.544  1.00 20.00     0.287 C 
BRANCH   8   9
HETATM    9  C7  UNL     1     -39.601  11.825   5.607  1.00 20.00     0.144 C 
HETATM   10 CL10 UNL     1     -38.841  11.635   4.007  1.00 20.00    -0.129 Cl
ENDBRANCH   8   9
ENDBRANCH   6   8
ENDBRANCH   4   6
TORSDOF 3
ENDMDL
