MODEL 1
REMARK VINA RESULT:      -4.5      0.000      0.000
REMARK  0 active torsions:
REMARK  status: ('A' for Active; 'I' for Inactive)
ROOT
HETATM    1  C1  UNL     1     -32.152   8.631   4.413  1.00 20.00     0.088 C 
HETATM    2  C2  UNL     1     -33.279   6.612   3.737  1.00 20.00    -0.066 C 
HETATM    3  C3  UNL     1     -32.202   7.408   3.697  1.00 20.00     0.096 C 
HETATM    4  C4  UNL     1     -33.369   5.310   2.992  1.00 20.00     0.061 C 
HETATM    5  C5  UNL     1     -34.504   6.924   4.551  1.00 20.00     0.066 C 
HETATM    6  C6  UNL     1     -33.764   4.198   3.958  1.00 20.00     0.172 C 
HETATM    7  C7  UNL     1     -34.882   5.732   5.439  1.00 20.00     0.121 C 
HETATM    8  C8  UNL     1     -33.969   5.566   6.653  1.00 20.00     0.040 C 
HETATM    9  N9  UNL     1     -32.104   9.633   4.996  1.00 20.00    -0.192 NA
HETATM   10  O10 UNL     1     -34.963   4.523   4.668  1.00 20.00    -0.386 OA
ENDROOT
TORSDOF 0
ENDMDL
MODEL 2
REMARK VINA RESULT:      -3.8     12.706     13.664
REMARK  0 active torsions:
REMARK  status: ('A' for Active; 'I' for Inactive)
ROOT
HETATM    1  C1  UNL     1     -33.820  18.224  -1.159  1.00 20.00     0.088 C 
HETATM    2  C2  UNL     1     -33.464  16.860  -3.113  1.00 20.00    -0.066 C 
HETATM    3  C3  UNL     1     -33.566  16.976  -1.782  1.00 20.00     0.096 C 
HETATM    4  C4  UNL     1     -33.195  15.555  -3.808  1.00 20.00     0.061 C 
HETATM    5  C5  UNL     1     -33.632  18.019  -4.056  1.00 20.00     0.066 C 
HETATM    6  C6  UNL     1     -34.253  15.324  -4.882  1.00 20.00     0.172 C 
HETATM    7  C7  UNL     1     -34.654  17.683  -5.150  1.00 20.00     0.121 C 
HETATM    8  C8  UNL     1     -36.101  17.714  -4.660  1.00 20.00     0.040 C 
HETATM    9  N9  UNL     1     -34.028  19.243  -0.644  1.00 20.00    -0.192 NA
HETATM   10  O10 UNL     1     -34.336  16.433  -5.782  1.00 20.00    -0.386 OA
ENDROOT
TORSDOF 0
ENDMDL
MODEL 3
REMARK VINA RESULT:      -3.7      1.652      2.507
REMARK  0 active torsions:
REMARK  status: ('A' for Active; 'I' for Inactive)
ROOT
HETATM    1  C1  UNL     1     -32.676   8.600   2.871  1.00 20.00     0.088 C 
HETATM    2  C2  UNL     1     -33.126   7.305   4.852  1.00 20.00    -0.066 C 
HETATM    3  C3  UNL     1     -32.807   8.473   4.277  1.00 20.00     0.096 C 
HETATM    4  C4  UNL     1     -33.273   7.131   6.337  1.00 20.00     0.061 C 
HETATM    5  C5  UNL     1     -33.395   6.048   4.071  1.00 20.00     0.066 C 
HETATM    6  C6  UNL     1     -34.626   6.496   6.644  1.00 20.00     0.172 C 
HETATM    7  C7  UNL     1     -34.734   5.427   4.488  1.00 20.00     0.121 C 
HETATM    8  C8  UNL     1     -35.948   6.175   3.937  1.00 20.00     0.040 C 
HETATM    9  N9  UNL     1     -32.567   8.711   1.721  1.00 20.00    -0.192 NA
HETATM   10  O10 UNL     1     -34.808   5.278   5.915  1.00 20.00    -0.386 OA
ENDROOT
TORSDOF 0
ENDMDL
MODEL 4
REMARK VINA RESULT:      -3.7     12.402     13.474
REMARK  0 active torsions:
REMARK  status: ('A' for Active; 'I' for Inactive)
ROOT
HETATM    1  C1  UNL     1     -33.250  17.667  -3.525  1.00 20.00     0.088 C 
HETATM    2  C2  UNL     1     -34.093  15.595  -4.421  1.00 20.00    -0.066 C 
HETATM    3  C3  UNL     1     -33.562  16.289  -3.404  1.00 20.00     0.096 C 
HETATM    4  C4  UNL     1     -34.436  14.135  -4.331  1.00 20.00     0.061 C 
HETATM    5  C5  UNL     1     -34.427  16.210  -5.752  1.00 20.00     0.066 C 
HETATM    6  C6  UNL     1     -35.886  13.926  -4.757  1.00 20.00     0.172 C 
HETATM    7  C7  UNL     1     -35.875  15.892  -6.147  1.00 20.00     0.121 C 
HETATM    8  C8  UNL     1     -36.909  16.710  -5.374  1.00 20.00     0.040 C 
HETATM    9  N9  UNL     1     -32.993  18.794  -3.616  1.00 20.00    -0.192 NA
HETATM   10  O10 UNL     1     -36.135  14.483  -6.051  1.00 20.00    -0.386 OA
ENDROOT
TORSDOF 0
ENDMDL
MODEL 5
REMARK VINA RESULT:      -3.7     12.976     14.220
REMARK  0 active torsions:
REMARK  status: ('A' for Active; 'I' for Inactive)
ROOT
HETATM    1  C1  UNL     1     -33.997  15.138  -5.742  1.00 20.00     0.088 C 
HETATM    2  C2  UNL     1     -33.904  16.379  -3.680  1.00 20.00    -0.066 C 
HETATM    3  C3  UNL     1     -33.488  15.354  -4.436  1.00 20.00     0.096 C 
HETATM    4  C4  UNL     1     -33.388  16.641  -2.293  1.00 20.00     0.061 C 
HETATM    5  C5  UNL     1     -34.912  17.392  -4.147  1.00 20.00     0.066 C 
HETATM    6  C6  UNL     1     -32.901  18.083  -2.195  1.00 20.00     0.172 C 
HETATM    7  C7  UNL     1     -34.382  18.818  -3.946  1.00 20.00     0.121 C 
HETATM    8  C8  UNL     1     -33.322  19.220  -4.972  1.00 20.00     0.040 C 
HETATM    9  N9  UNL     1     -34.409  14.954  -6.811  1.00 20.00    -0.192 NA
HETATM   10  O10 UNL     1     -33.915  19.007  -2.601  1.00 20.00    -0.386 OA
ENDROOT
TORSDOF 0
ENDMDL
MODEL 6
REMARK VINA RESULT:      -3.7      9.857     10.859
REMARK  0 active torsions:
REMARK  status: ('A' for Active; 'I' for Inactive)
ROOT
HETATM    1  C1  UNL     1     -39.234  12.032   5.598  1.00 20.00     0.088 C 
HETATM    2  C2  UNL     1     -41.365  12.802   6.418  1.00 20.00    -0.066 C 
HETATM    3  C3  UNL     1     -40.560  11.798   6.043  1.00 20.00     0.096 C 
HETATM    4  C4  UNL     1     -42.774  12.593   6.895  1.00 20.00     0.061 C 
HETATM    5  C5  UNL     1     -40.936  14.243   6.425  1.00 20.00     0.066 C 
HETATM    6  C6  UNL     1     -42.963  13.283   8.242  1.00 20.00     0.172 C 
HETATM    7  C7  UNL     1     -41.227  14.888   7.786  1.00 20.00     0.121 C 
HETATM    8  C8  UNL     1     -40.248  14.465   8.880  1.00 20.00     0.040 C 
HETATM    9  N9  UNL     1     -38.148  12.217   5.233  1.00 20.00    -0.192 NA
HETATM   10  O10 UNL     1     -42.590  14.663   8.179  1.00 20.00    -0.386 OA
ENDROOT
TORSDOF 0
ENDMDL
MODEL 7
REMARK VINA RESULT:      -3.4      1.805      2.222
REMARK  0 active torsions:
REMARK  status: ('A' for Active; 'I' for Inactive)
ROOT
HETATM    1  C1  UNL     1     -32.407   6.894   2.321  1.00 20.00     0.088 C 
HETATM    2  C2  UNL     1     -33.841   5.811   3.925  1.00 20.00    -0.066 C 
HETATM    3  C3  UNL     1     -32.881   5.739   2.993  1.00 20.00     0.096 C 
HETATM    4  C4  UNL     1     -34.368   4.610   4.658  1.00 20.00     0.061 C 
HETATM    5  C5  UNL     1     -34.475   7.105   4.357  1.00 20.00     0.066 C 
HETATM    6  C6  UNL     1     -34.294   4.859   6.162  1.00 20.00     0.172 C 
HETATM    7  C7  UNL     1     -34.430   7.247   5.884  1.00 20.00     0.121 C 
HETATM    8  C8  UNL     1     -33.045   7.606   6.420  1.00 20.00     0.040 C 
HETATM    9  N9  UNL     1     -32.014   7.835   1.767  1.00 20.00    -0.192 NA
HETATM   10  O10 UNL     1     -34.957   6.074   6.523  1.00 20.00    -0.386 OA
ENDROOT
TORSDOF 0
ENDMDL
MODEL 8
REMARK VINA RESULT:      -3.4     13.154     14.066
REMARK  0 active torsions:
REMARK  status: ('A' for Active; 'I' for Inactive)
ROOT
HETATM    1  C1  UNL     1     -31.733  18.846  -0.396  1.00 20.00     0.088 C 
HETATM    2  C2  UNL     1     -33.985  18.634  -1.223  1.00 20.00    -0.066 C 
HETATM    3  C3  UNL     1     -33.087  19.263  -0.452  1.00 20.00     0.096 C 
HETATM    4  C4  UNL     1     -35.428  19.046  -1.309  1.00 20.00     0.061 C 
HETATM    5  C5  UNL     1     -33.641  17.466  -2.104  1.00 20.00     0.066 C 
HETATM    6  C6  UNL     1     -35.814  19.245  -2.771  1.00 20.00     0.172 C 
HETATM    7  C7  UNL     1     -34.128  17.706  -3.539  1.00 20.00     0.121 C 
HETATM    8  C8  UNL     1     -33.264  18.701  -4.314  1.00 20.00     0.040 C 
HETATM    9  N9  UNL     1     -30.623  18.511  -0.345  1.00 20.00    -0.192 NA
HETATM   10  O10 UNL     1     -35.513  18.085  -3.553  1.00 20.00    -0.386 OA
ENDROOT
TORSDOF 0
ENDMDL
MODEL 9
REMARK VINA RESULT:      -3.4     12.556     13.760
REMARK  0 active torsions:
REMARK  status: ('A' for Active; 'I' for Inactive)
ROOT
HETATM    1  C1  UNL     1     -35.758  14.129  -4.755  1.00 20.00     0.088 C 
HETATM    2  C2  UNL     1     -34.634  16.237  -5.069  1.00 20.00    -0.066 C 
HETATM    3  C3  UNL     1     -35.718  15.465  -5.229  1.00 20.00     0.096 C 
HETATM    4  C4  UNL     1     -34.554  17.656  -5.557  1.00 20.00     0.061 C 
HETATM    5  C5  UNL     1     -33.390  15.774  -4.362  1.00 20.00     0.066 C 
HETATM    6  C6  UNL     1     -34.126  18.565  -4.409  1.00 20.00     0.172 C 
HETATM    7  C7  UNL     1     -32.980  16.776  -3.275  1.00 20.00     0.121 C 
HETATM    8  C8  UNL     1     -33.861  16.712  -2.027  1.00 20.00     0.040 C 
HETATM    9  N9  UNL     1     -35.798  13.035  -4.371  1.00 20.00    -0.192 NA
HETATM   10  O10 UNL     1     -32.912  18.109  -3.806  1.00 20.00    -0.386 OA
ENDROOT
TORSDOF 0
ENDMDL
