MODEL 1
REMARK VINA RESULT:      -3.6      0.000      0.000
REMARK  2 active torsions:
REMARK  status: ('A' for Active; 'I' for Inactive)
REMARK    1  A    between atoms: C4_4  and  S10_10 
REMARK    2  A    between atoms: C5_5  and  C8_8 
ROOT
HETATM    1  C1  UNL     1     -34.840  17.343  -4.161  1.00 20.00     0.041 C 
HETATM    2  C2  UNL     1     -33.451  16.632  -2.201  1.00 20.00     0.052 C 
HETATM    3  C3  UNL     1     -34.933  18.721  -3.521  1.00 20.00     0.170 C 
HETATM    4  C4  UNL     1     -33.551  16.645  -3.728  1.00 20.00     0.049 C 
HETATM    5  C5  UNL     1     -33.636  18.040  -1.599  1.00 20.00     0.058 C 
HETATM    6  C6  UNL     1     -32.422  18.945  -1.854  1.00 20.00     0.046 C 
HETATM    7  O9  UNL     1     -34.837  18.646  -2.101  1.00 20.00    -0.381 OA
ENDROOT
BRANCH   5   8
HETATM    8  C8  UNL     1     -33.832  17.917  -0.081  1.00 20.00     0.033 C 
HETATM    9  C7  UNL     1     -32.715  18.565   0.665  1.00 20.00     0.008 C 
ENDBRANCH   5   8
BRANCH   4  10
HETATM   10  S10 UNL     1     -33.505  14.940  -4.377  1.00 20.00    -0.177 SA
HETATM   11  H26 UNL     1     -32.180  14.787  -4.254  1.00 20.00     0.102 HD
ENDBRANCH   4  10
TORSDOF 2
ENDMDL
MODEL 2
REMARK VINA RESULT:      -3.4      3.729      5.041
REMARK  2 active torsions:
REMARK  status: ('A' for Active; 'I' for Inactive)
REMARK    1  A    between atoms: C4_4  and  S10_10 
REMARK    2  A    between atoms: C5_5  and  C8_8 
ROOT
HETATM    1  C1  UNL     1     -34.393  17.059  -7.820  1.00 20.00     0.041 C 
HETATM    2  C2  UNL     1     -34.812  16.778  -5.367  1.00 20.00     0.052 C 
HETATM    3  C3  UNL     1     -34.257  15.545  -7.912  1.00 20.00     0.170 C 
HETATM    4  C4  UNL     1     -35.305  17.439  -6.656  1.00 20.00     0.049 C 
HETATM    5  C5  UNL     1     -34.611  15.258  -5.538  1.00 20.00     0.058 C 
HETATM    6  C6  UNL     1     -35.945  14.503  -5.631  1.00 20.00     0.046 C 
HETATM    7  O9  UNL     1     -33.792  14.987  -6.686  1.00 20.00    -0.381 OA
ENDROOT
BRANCH   5   8
HETATM    8  C8  UNL     1     -33.835  14.713  -4.331  1.00 20.00     0.033 C 
HETATM    9  C7  UNL     1     -33.194  15.813  -3.555  1.00 20.00     0.008 C 
ENDBRANCH   5   8
BRANCH   4  10
HETATM   10  S10 UNL     1     -35.355  19.252  -6.455  1.00 20.00    -0.177 SA
HETATM   11  H26 UNL     1     -35.266  19.241  -5.119  1.00 20.00     0.102 HD
ENDBRANCH   4  10
TORSDOF 2
ENDMDL
MODEL 3
REMARK VINA RESULT:      -3.3     16.058     17.048
REMARK  2 active torsions:
REMARK  status: ('A' for Active; 'I' for Inactive)
REMARK    1  A    between atoms: C4_4  and  S10_10 
REMARK    2  A    between atoms: C5_5  and  C8_8 
ROOT
HETATM    1  C1  UNL     1     -22.825  17.958  12.246  1.00 20.00     0.041 C 
HETATM    2  C2  UNL     1     -23.432  17.089   9.976  1.00 20.00     0.052 C 
HETATM    3  C3  UNL     1     -21.762  18.814  11.571  1.00 20.00     0.170 C 
HETATM    4  C4  UNL     1     -23.975  17.682  11.279  1.00 20.00     0.049 C 
HETATM    5  C5  UNL     1     -22.301  17.950   9.378  1.00 20.00     0.058 C 
HETATM    6  C6  UNL     1     -22.826  19.263   8.777  1.00 20.00     0.046 C 
HETATM    7  O9  UNL     1     -21.293  18.211  10.367  1.00 20.00    -0.381 OA
ENDROOT
BRANCH   5   8
HETATM    8  C8  UNL     1     -21.601  17.160   8.264  1.00 20.00     0.033 C 
HETATM    9  C7  UNL     1     -21.368  18.007   7.060  1.00 20.00     0.008 C 
ENDBRANCH   5   8
BRANCH   4  10
HETATM   10  S10 UNL     1     -25.179  16.540  12.037  1.00 20.00    -0.177 SA
HETATM   11  H26 UNL     1     -26.170  17.437  12.135  1.00 20.00     0.102 HD
ENDBRANCH   4  10
TORSDOF 2
ENDMDL
MODEL 4
REMARK VINA RESULT:      -3.3     11.307     12.260
REMARK  2 active torsions:
REMARK  status: ('A' for Active; 'I' for Inactive)
REMARK    1  A    between atoms: C4_4  and  S10_10 
REMARK    2  A    between atoms: C5_5  and  C8_8 
ROOT
HETATM    1  C1  UNL     1     -41.989  15.746   5.498  1.00 20.00     0.041 C 
HETATM    2  C2  UNL     1     -40.637  14.326   7.057  1.00 20.00     0.052 C 
HETATM    3  C3  UNL     1     -42.295  14.482   4.705  1.00 20.00     0.170 C 
HETATM    4  C4  UNL     1     -41.723  15.400   6.962  1.00 20.00     0.049 C 
HETATM    5  C5  UNL     1     -40.955  13.104   6.171  1.00 20.00     0.058 C 
HETATM    6  C6  UNL     1     -42.102  12.256   6.741  1.00 20.00     0.046 C 
HETATM    7  O9  UNL     1     -41.250  13.521   4.829  1.00 20.00    -0.381 OA
ENDROOT
BRANCH   5   8
HETATM    8  C8  UNL     1     -39.707  12.216   6.069  1.00 20.00     0.033 C 
HETATM    9  C7  UNL     1     -39.433  11.823   4.658  1.00 20.00     0.008 C 
ENDBRANCH   5   8
BRANCH   4  10
HETATM   10  S10 UNL     1     -41.216  16.891   7.883  1.00 20.00    -0.177 SA
HETATM   11  H26 UNL     1     -41.129  16.289   9.076  1.00 20.00     0.102 HD
ENDBRANCH   4  10
TORSDOF 2
ENDMDL
MODEL 5
REMARK VINA RESULT:      -3.3      1.232      1.456
REMARK  2 active torsions:
REMARK  status: ('A' for Active; 'I' for Inactive)
REMARK    1  A    between atoms: C4_4  and  S10_10 
REMARK    2  A    between atoms: C5_5  and  C8_8 
ROOT
HETATM    1  C1  UNL     1     -35.824  17.244  -4.940  1.00 20.00     0.041 C 
HETATM    2  C2  UNL     1     -33.758  16.511  -3.727  1.00 20.00     0.052 C 
HETATM    3  C3  UNL     1     -35.832  18.485  -4.057  1.00 20.00     0.170 C 
HETATM    4  C4  UNL     1     -34.398  16.720  -5.102  1.00 20.00     0.049 C 
HETATM    5  C5  UNL     1     -33.869  17.770  -2.842  1.00 20.00     0.058 C 
HETATM    6  C6  UNL     1     -32.932  18.893  -3.311  1.00 20.00     0.046 C 
HETATM    7  O9  UNL     1     -35.228  18.230  -2.791  1.00 20.00    -0.381 OA
ENDROOT
BRANCH   5   8
HETATM    8  C8  UNL     1     -33.495  17.406  -1.398  1.00 20.00     0.033 C 
HETATM    9  C7  UNL     1     -32.322  18.195  -0.925  1.00 20.00     0.008 C 
ENDBRANCH   5   8
BRANCH   4  10
HETATM   10  S10 UNL     1     -34.401  15.155  -6.040  1.00 20.00    -0.177 SA
HETATM   11  H26 UNL     1     -34.708  15.707  -7.221  1.00 20.00     0.102 HD
ENDBRANCH   4  10
TORSDOF 2
ENDMDL
MODEL 6
REMARK VINA RESULT:      -3.3     12.501     13.368
REMARK  2 active torsions:
REMARK  status: ('A' for Active; 'I' for Inactive)
REMARK    1  A    between atoms: C4_4  and  S10_10 
REMARK    2  A    between atoms: C5_5  and  C8_8 
ROOT
HETATM    1  C1  UNL     1     -32.195   7.218   3.051  1.00 20.00     0.041 C 
HETATM    2  C2  UNL     1     -33.601   7.069   5.119  1.00 20.00     0.052 C 
HETATM    3  C3  UNL     1     -32.983   6.038   2.500  1.00 20.00     0.170 C 
HETATM    4  C4  UNL     1     -33.048   8.007   4.043  1.00 20.00     0.049 C 
HETATM    5  C5  UNL     1     -34.317   5.847   4.507  1.00 20.00     0.058 C 
HETATM    6  C6  UNL     1     -35.667   6.220   3.878  1.00 20.00     0.046 C 
HETATM    7  O9  UNL     1     -33.469   5.200   3.545  1.00 20.00    -0.381 OA
ENDROOT
BRANCH   5   8
HETATM    8  C8  UNL     1     -34.572   4.809   5.608  1.00 20.00     0.033 C 
HETATM    9  C7  UNL     1     -34.783   5.461   6.932  1.00 20.00     0.008 C 
ENDBRANCH   5   8
BRANCH   4  10
HETATM   10  S10 UNL     1     -32.061   9.335   4.811  1.00 20.00    -0.177 SA
HETATM   11  H26 UNL     1     -31.097   9.339   3.882  1.00 20.00     0.102 HD
ENDBRANCH   4  10
TORSDOF 2
ENDMDL
MODEL 7
REMARK VINA RESULT:      -3.2      2.803      4.376
REMARK  2 active torsions:
REMARK  status: ('A' for Active; 'I' for Inactive)
REMARK    1  A    between atoms: C4_4  and  S10_10 
REMARK    2  A    between atoms: C5_5  and  C8_8 
ROOT
HETATM    1  C1  UNL     1     -33.238  19.211   1.320  1.00 20.00     0.041 C 
HETATM    2  C2  UNL     1     -31.773  18.864  -0.683  1.00 20.00     0.052 C 
HETATM    3  C3  UNL     1     -34.433  18.902   0.428  1.00 20.00     0.170 C 
HETATM    4  C4  UNL     1     -31.987  18.511   0.791  1.00 20.00     0.049 C 
HETATM    5  C5  UNL     1     -33.040  18.611  -1.526  1.00 20.00     0.058 C 
HETATM    6  C6  UNL     1     -33.309  17.113  -1.734  1.00 20.00     0.046 C 
HETATM    7  O9  UNL     1     -34.177  19.254  -0.929  1.00 20.00    -0.381 OA
ENDROOT
BRANCH   5   8
HETATM    8  C8  UNL     1     -32.865  19.263  -2.905  1.00 20.00     0.033 C 
HETATM    9  C7  UNL     1     -33.324  18.357  -3.996  1.00 20.00     0.008 C 
ENDBRANCH   5   8
BRANCH   4  10
HETATM   10  S10 UNL     1     -30.527  18.994   1.774  1.00 20.00    -0.177 SA
HETATM   11  H26 UNL     1     -30.241  17.758   2.203  1.00 20.00     0.102 HD
ENDBRANCH   4  10
TORSDOF 2
ENDMDL
MODEL 8
REMARK VINA RESULT:      -3.1      3.141      4.938
REMARK  2 active torsions:
REMARK  status: ('A' for Active; 'I' for Inactive)
REMARK    1  A    between atoms: C4_4  and  S10_10 
REMARK    2  A    between atoms: C5_5  and  C8_8 
ROOT
HETATM    1  C1  UNL     1     -33.315  16.064  -3.321  1.00 20.00     0.041 C 
HETATM    2  C2  UNL     1     -35.083  17.122  -4.746  1.00 20.00     0.052 C 
HETATM    3  C3  UNL     1     -33.421  14.830  -4.208  1.00 20.00     0.170 C 
HETATM    4  C4  UNL     1     -33.705  17.314  -4.107  1.00 20.00     0.049 C 
HETATM    5  C5  UNL     1     -35.163  15.816  -5.563  1.00 20.00     0.058 C 
HETATM    6  C6  UNL     1     -34.364  15.902  -6.872  1.00 20.00     0.046 C 
HETATM    7  O9  UNL     1     -34.724  14.702  -4.772  1.00 20.00    -0.381 OA
ENDROOT
BRANCH   5   8
HETATM    8  C8  UNL     1     -36.629  15.530  -5.915  1.00 20.00     0.033 C 
HETATM    9  C7  UNL     1     -37.539  16.554  -5.325  1.00 20.00     0.008 C 
ENDBRANCH   5   8
BRANCH   4  10
HETATM   10  S10 UNL     1     -33.717  18.773  -3.010  1.00 20.00    -0.177 SA
HETATM   11  H26 UNL     1     -33.899  19.672  -3.986  1.00 20.00     0.102 HD
ENDBRANCH   4  10
TORSDOF 2
ENDMDL
MODEL 9
REMARK VINA RESULT:      -3.1     12.205     13.343
REMARK  2 active torsions:
REMARK  status: ('A' for Active; 'I' for Inactive)
REMARK    1  A    between atoms: C4_4  and  S10_10 
REMARK    2  A    between atoms: C5_5  and  C8_8 
ROOT
HETATM    1  C1  UNL     1     -40.493  15.766   9.025  1.00 20.00     0.041 C 
HETATM    2  C2  UNL     1     -41.561  15.372   6.793  1.00 20.00     0.052 C 
HETATM    3  C3  UNL     1     -40.388  14.254   9.177  1.00 20.00     0.170 C 
HETATM    4  C4  UNL     1     -40.480  16.151   7.547  1.00 20.00     0.049 C 
HETATM    5  C5  UNL     1     -41.461  13.854   7.048  1.00 20.00     0.058 C 
HETATM    6  C6  UNL     1     -40.253  13.224   6.338  1.00 20.00     0.046 C 
HETATM    7  O9  UNL     1     -41.420  13.583   8.458  1.00 20.00    -0.381 OA
ENDROOT
BRANCH   5   8
HETATM    8  C8  UNL     1     -42.733  13.170   6.527  1.00 20.00     0.033 C 
HETATM    9  C7  UNL     1     -43.195  12.100   7.456  1.00 20.00     0.008 C 
ENDBRANCH   5   8
BRANCH   4  10
HETATM   10  S10 UNL     1     -40.749  17.946   7.358  1.00 20.00    -0.177 SA
HETATM   11  H26 UNL     1     -42.086  17.884   7.389  1.00 20.00     0.102 HD
ENDBRANCH   4  10
TORSDOF 2
ENDMDL
