MODEL 1
REMARK VINA RESULT:      -3.8      0.000      0.000
REMARK  1 active torsions:
REMARK  status: ('A' for Active; 'I' for Inactive)
REMARK    1  A    between atoms: C6_6  and  C7_7 
ROOT
HETATM    1  C3  UNL     1     -25.592  16.992  12.192  1.00 20.00     0.046 C 
HETATM    2  C4  UNL     1     -24.401  19.170  11.869  1.00 20.00     0.052 C 
HETATM    3  C5  UNL     1     -24.347  16.295  11.662  1.00 20.00     0.169 C 
HETATM    4  C7  UNL     1     -23.165  18.383  11.419  1.00 20.00     0.126 C 
HETATM    5  C8  UNL     1     -25.694  18.398  11.612  1.00 20.00     0.086 C 
HETATM    6  O9  UNL     1     -23.167  17.048  11.941  1.00 20.00    -0.385 OA
HETATM    7 CL10 UNL     1     -27.082  19.262  12.330  1.00 20.00    -0.125 Cl
ENDROOT
BRANCH   4   8
HETATM    8  C6  UNL     1     -22.959  18.389   9.929  1.00 20.00     0.015 A 
HETATM    9  C1  UNL     1     -21.648  18.844   9.348  1.00 20.00     0.007 A 
HETATM   10  C2  UNL     1     -22.033  17.392   9.291  1.00 20.00     0.007 A 
ENDBRANCH   4   8
TORSDOF 1
ENDMDL
MODEL 2
REMARK VINA RESULT:      -3.6     16.801     17.245
REMARK  1 active torsions:
REMARK  status: ('A' for Active; 'I' for Inactive)
REMARK    1  A    between atoms: C6_6  and  C7_7 
ROOT
HETATM    1  C3  UNL     1     -32.789  19.263  -2.452  1.00 20.00     0.046 C 
HETATM    2  C4  UNL     1     -33.654  17.069  -1.611  1.00 20.00     0.052 C 
HETATM    3  C5  UNL     1     -33.270  18.859  -3.839  1.00 20.00     0.169 C 
HETATM    4  C7  UNL     1     -34.174  16.777  -3.022  1.00 20.00     0.126 C 
HETATM    5  C8  UNL     1     -32.461  18.023  -1.628  1.00 20.00     0.086 C 
HETATM    6  O9  UNL     1     -34.394  17.983  -3.767  1.00 20.00    -0.385 OA
HETATM    7 CL10 UNL     1     -32.018  18.489   0.037  1.00 20.00    -0.125 Cl
ENDROOT
BRANCH   4   8
HETATM    8  C6  UNL     1     -33.318  15.808  -3.790  1.00 20.00     0.015 A 
HETATM    9  C1  UNL     1     -33.837  14.436  -4.120  1.00 20.00     0.007 A 
HETATM   10  C2  UNL     1     -33.662  15.455  -5.210  1.00 20.00     0.007 A 
ENDBRANCH   4   8
TORSDOF 1
ENDMDL
MODEL 3
REMARK VINA RESULT:      -3.6     15.307     16.050
REMARK  1 active torsions:
REMARK  status: ('A' for Active; 'I' for Inactive)
REMARK    1  A    between atoms: C6_6  and  C7_7 
ROOT
HETATM    1  C3  UNL     1     -33.686   5.629   4.315  1.00 20.00     0.046 C 
HETATM    2  C4  UNL     1     -32.690   7.919   4.497  1.00 20.00     0.052 C 
HETATM    3  C5  UNL     1     -33.242   5.611   2.859  1.00 20.00     0.169 C 
HETATM    4  C7  UNL     1     -32.213   7.784   3.047  1.00 20.00     0.126 C 
HETATM    5  C8  UNL     1     -33.925   7.063   4.774  1.00 20.00     0.086 C 
HETATM    6  O9  UNL     1     -32.078   6.411   2.658  1.00 20.00    -0.385 OA
HETATM    7 CL10 UNL     1     -34.322   7.095   6.514  1.00 20.00    -0.125 Cl
ENDROOT
BRANCH   4   8
HETATM    8  C6  UNL     1     -33.054   8.552   2.064  1.00 20.00     0.015 A 
HETATM    9  C1  UNL     1     -32.655   9.941   1.650  1.00 20.00     0.007 A 
HETATM   10  C2  UNL     1     -32.549   8.804   0.672  1.00 20.00     0.007 A 
ENDBRANCH   4   8
TORSDOF 1
ENDMDL
MODEL 4
REMARK VINA RESULT:      -3.6     17.174     18.357
REMARK  1 active torsions:
REMARK  status: ('A' for Active; 'I' for Inactive)
REMARK    1  A    between atoms: C6_6  and  C7_7 
ROOT
HETATM    1  C3  UNL     1     -43.106  14.412   6.846  1.00 20.00     0.046 C 
HETATM    2  C4  UNL     1     -40.643  14.821   7.034  1.00 20.00     0.052 C 
HETATM    3  C5  UNL     1     -42.795  12.927   6.726  1.00 20.00     0.169 C 
HETATM    4  C7  UNL     1     -40.427  13.305   6.983  1.00 20.00     0.126 C 
HETATM    5  C8  UNL     1     -41.933  15.238   6.330  1.00 20.00     0.086 C 
HETATM    6  O9  UNL     1     -41.591  12.588   7.414  1.00 20.00    -0.385 OA
HETATM    7 CL10 UNL     1     -42.244  16.977   6.586  1.00 20.00    -0.125 Cl
ENDROOT
BRANCH   4   8
HETATM    8  C6  UNL     1     -39.942  12.812   5.647  1.00 20.00     0.015 A 
HETATM    9  C1  UNL     1     -38.587  12.173   5.523  1.00 20.00     0.007 A 
HETATM   10  C2  UNL     1     -39.828  11.337   5.383  1.00 20.00     0.007 A 
ENDBRANCH   4   8
TORSDOF 1
ENDMDL
MODEL 5
REMARK VINA RESULT:      -3.5     15.123     16.281
REMARK  1 active torsions:
REMARK  status: ('A' for Active; 'I' for Inactive)
REMARK    1  A    between atoms: C6_6  and  C7_7 
ROOT
HETATM    1  C3  UNL     1     -32.443   9.360   3.439  1.00 20.00     0.046 C 
HETATM    2  C4  UNL     1     -32.438   6.895   2.996  1.00 20.00     0.052 C 
HETATM    3  C5  UNL     1     -32.934   9.050   4.846  1.00 20.00     0.169 C 
HETATM    4  C7  UNL     1     -32.858   6.672   4.452  1.00 20.00     0.126 C 
HETATM    5  C8  UNL     1     -32.882   8.261   2.477  1.00 20.00     0.086 C 
HETATM    6  O9  UNL     1     -32.479   7.772   5.289  1.00 20.00    -0.385 OA
HETATM    7 CL10 UNL     1     -32.202   8.557   0.853  1.00 20.00    -0.125 Cl
ENDROOT
BRANCH   4   8
HETATM    8  C6  UNL     1     -34.317   6.339   4.613  1.00 20.00     0.015 A 
HETATM    9  C1  UNL     1     -34.747   4.919   4.851  1.00 20.00     0.007 A 
HETATM   10  C2  UNL     1     -34.856   5.933   5.955  1.00 20.00     0.007 A 
ENDBRANCH   4   8
TORSDOF 1
ENDMDL
MODEL 6
REMARK VINA RESULT:      -3.4     16.999     18.023
REMARK  1 active torsions:
REMARK  status: ('A' for Active; 'I' for Inactive)
REMARK    1  A    between atoms: C6_6  and  C7_7 
ROOT
HETATM    1  C3  UNL     1     -42.287  15.376   6.715  1.00 20.00     0.046 C 
HETATM    2  C4  UNL     1     -40.448  14.013   7.730  1.00 20.00     0.052 C 
HETATM    3  C5  UNL     1     -42.453  14.277   5.675  1.00 20.00     0.169 C 
HETATM    4  C7  UNL     1     -40.735  12.923   6.692  1.00 20.00     0.126 C 
HETATM    5  C8  UNL     1     -40.851  15.399   7.230  1.00 20.00     0.086 C 
HETATM    6  O9  UNL     1     -42.079  13.003   6.197  1.00 20.00    -0.385 OA
HETATM    7 CL10 UNL     1     -40.685  16.601   8.539  1.00 20.00    -0.125 Cl
ENDROOT
BRANCH   4   8
HETATM    8  C6  UNL     1     -39.738  12.887   5.566  1.00 20.00     0.015 A 
HETATM    9  C1  UNL     1     -38.491  12.056   5.687  1.00 20.00     0.007 A 
HETATM   10  C2  UNL     1     -39.580  11.644   4.736  1.00 20.00     0.007 A 
ENDBRANCH   4   8
TORSDOF 1
ENDMDL
MODEL 7
REMARK VINA RESULT:      -3.4     17.234     17.785
REMARK  1 active torsions:
REMARK  status: ('A' for Active; 'I' for Inactive)
REMARK    1  A    between atoms: C6_6  and  C7_7 
ROOT
HETATM    1  C3  UNL     1     -34.229  17.512  -5.308  1.00 20.00     0.046 C 
HETATM    2  C4  UNL     1     -33.292  16.170  -3.414  1.00 20.00     0.052 C 
HETATM    3  C5  UNL     1     -34.011  18.758  -4.462  1.00 20.00     0.169 C 
HETATM    4  C7  UNL     1     -33.037  17.481  -2.663  1.00 20.00     0.126 C 
HETATM    5  C8  UNL     1     -34.442  16.298  -4.411  1.00 20.00     0.086 C 
HETATM    6  O9  UNL     1     -32.918  18.593  -3.560  1.00 20.00    -0.385 OA
HETATM    7 CL10 UNL     1     -34.572  14.817  -5.399  1.00 20.00    -0.125 Cl
ENDROOT
BRANCH   4   8
HETATM    8  C6  UNL     1     -34.042  17.758  -1.578  1.00 20.00     0.015 A 
HETATM    9  C1  UNL     1     -33.612  17.790  -0.138  1.00 20.00     0.007 A 
HETATM   10  C2  UNL     1     -34.010  19.062  -0.833  1.00 20.00     0.007 A 
ENDBRANCH   4   8
TORSDOF 1
ENDMDL
MODEL 8
REMARK VINA RESULT:      -3.1     17.075     17.982
REMARK  1 active torsions:
REMARK  status: ('A' for Active; 'I' for Inactive)
REMARK    1  A    between atoms: C6_6  and  C7_7 
ROOT
HETATM    1  C3  UNL     1     -42.714  15.747   8.481  1.00 20.00     0.046 C 
HETATM    2  C4  UNL     1     -40.252  15.482   8.109  1.00 20.00     0.052 C 
HETATM    3  C5  UNL     1     -42.863  14.261   8.187  1.00 20.00     0.169 C 
HETATM    4  C7  UNL     1     -40.484  13.982   7.903  1.00 20.00     0.126 C 
HETATM    5  C8  UNL     1     -41.491  16.305   7.761  1.00 20.00     0.086 C 
HETATM    6  O9  UNL     1     -41.686  13.537   8.545  1.00 20.00    -0.385 OA
HETATM    7 CL10 UNL     1     -41.242  18.016   8.204  1.00 20.00    -0.125 Cl
ENDROOT
BRANCH   4   8
HETATM    8  C6  UNL     1     -40.446  13.561   6.459  1.00 20.00     0.015 A 
HETATM    9  C1  UNL     1     -39.427  12.560   5.990  1.00 20.00     0.007 A 
HETATM   10  C2  UNL     1     -40.879  12.177   6.064  1.00 20.00     0.007 A 
ENDBRANCH   4   8
TORSDOF 1
ENDMDL
MODEL 9
REMARK VINA RESULT:      -3.1     19.862     21.107
REMARK  1 active torsions:
REMARK  status: ('A' for Active; 'I' for Inactive)
REMARK    1  A    between atoms: C6_6  and  C7_7 
ROOT
HETATM    1  C3  UNL     1     -23.951  -1.877  11.652  1.00 20.00     0.046 C 
HETATM    2  C4  UNL     1     -25.255  -3.850  10.830  1.00 20.00     0.052 C 
HETATM    3  C5  UNL     1     -25.277  -1.222  12.015  1.00 20.00     0.169 C 
HETATM    4  C7  UNL     1     -26.535  -3.149  11.295  1.00 20.00     0.126 C 
HETATM    5  C8  UNL     1     -24.147  -2.853  10.497  1.00 20.00     0.086 C 
HETATM    6  O9  UNL     1     -26.271  -2.195  12.332  1.00 20.00    -0.385 OA
HETATM    7 CL10 UNL     1     -22.621  -3.715  10.154  1.00 20.00    -0.125 Cl
ENDROOT
BRANCH   4   8
HETATM    8  C6  UNL     1     -27.326  -2.534  10.173  1.00 20.00     0.015 A 
HETATM    9  C1  UNL     1     -28.703  -3.043   9.851  1.00 20.00     0.007 A 
HETATM   10  C2  UNL     1     -28.530  -1.686  10.473  1.00 20.00     0.007 A 
ENDBRANCH   4   8
TORSDOF 1
ENDMDL
