MODEL 1
REMARK VINA RESULT:      -4.0      0.000      0.000
REMARK  0 active torsions:
REMARK  status: ('A' for Active; 'I' for Inactive)
ROOT
HETATM    1  C1  UNL     1     -33.065   8.361   4.122  1.00 20.00     0.046 C 
HETATM    2  C2  UNL     1     -33.369   6.081   3.137  1.00 20.00     0.057 C 
HETATM    3  C3  UNL     1     -33.470   7.830   5.495  1.00 20.00     0.170 C 
HETATM    4  C4  UNL     1     -32.416   7.268   3.290  1.00 20.00     0.087 C 
HETATM    5  C5  UNL     1     -34.106   5.738   4.454  1.00 20.00     0.055 C 
HETATM    6  C6  UNL     1     -35.602   6.083   4.371  1.00 20.00     0.045 C 
HETATM    7  C7  UNL     1     -33.976   4.237   4.745  1.00 20.00     0.045 C 
HETATM    8  O8  UNL     1     -33.498   6.406   5.568  1.00 20.00    -0.381 OA
HETATM    9 CL9  UNL     1     -31.941   7.894   1.690  1.00 20.00    -0.125 Cl
ENDROOT
TORSDOF 0
ENDMDL
MODEL 2
REMARK VINA RESULT:      -4.0      0.950      1.114
REMARK  0 active torsions:
REMARK  status: ('A' for Active; 'I' for Inactive)
ROOT
HETATM    1  C1  UNL     1     -33.675   8.314   5.500  1.00 20.00     0.046 C 
HETATM    2  C2  UNL     1     -33.435   6.602   3.692  1.00 20.00     0.057 C 
HETATM    3  C3  UNL     1     -34.144   7.233   6.471  1.00 20.00     0.170 C 
HETATM    4  C4  UNL     1     -32.741   7.731   4.454  1.00 20.00     0.087 C 
HETATM    5  C5  UNL     1     -34.256   5.676   4.621  1.00 20.00     0.055 C 
HETATM    6  C6  UNL     1     -35.767   5.845   4.398  1.00 20.00     0.045 C 
HETATM    7  C7  UNL     1     -33.892   4.211   4.343  1.00 20.00     0.045 C 
HETATM    8  O8  UNL     1     -33.922   5.907   5.996  1.00 20.00    -0.381 OA
HETATM    9 CL9  UNL     1     -32.192   8.998   3.326  1.00 20.00    -0.125 Cl
ENDROOT
TORSDOF 0
ENDMDL
MODEL 3
REMARK VINA RESULT:      -3.7     12.191     13.228
REMARK  0 active torsions:
REMARK  status: ('A' for Active; 'I' for Inactive)
ROOT
HETATM    1  C1  UNL     1     -34.199  17.229  -4.552  1.00 20.00     0.046 C 
HETATM    2  C2  UNL     1     -33.416  16.571  -2.269  1.00 20.00     0.057 C 
HETATM    3  C3  UNL     1     -33.661  18.642  -4.337  1.00 20.00     0.170 C 
HETATM    4  C4  UNL     1     -33.393  16.217  -3.757  1.00 20.00     0.087 C 
HETATM    5  C5  UNL     1     -33.248  18.088  -2.016  1.00 20.00     0.055 C 
HETATM    6  C6  UNL     1     -34.547  18.724  -1.497  1.00 20.00     0.045 C 
HETATM    7  C7  UNL     1     -32.149  18.320  -0.970  1.00 20.00     0.045 C 
HETATM    8  O8  UNL     1     -32.802  18.756  -3.204  1.00 20.00    -0.381 OA
HETATM    9 CL9  UNL     1     -34.022  14.569  -4.014  1.00 20.00    -0.125 Cl
ENDROOT
TORSDOF 0
ENDMDL
MODEL 4
REMARK VINA RESULT:      -3.5     15.650     16.522
REMARK  0 active torsions:
REMARK  status: ('A' for Active; 'I' for Inactive)
ROOT
HETATM    1  C1  UNL     1     -24.741  18.625  10.413  1.00 20.00     0.046 C 
HETATM    2  C2  UNL     1     -22.767  17.134  10.041  1.00 20.00     0.057 C 
HETATM    3  C3  UNL     1     -24.537  19.251   9.035  1.00 20.00     0.170 C 
HETATM    4  C4  UNL     1     -24.244  17.190  10.432  1.00 20.00     0.087 C 
HETATM    5  C5  UNL     1     -22.432  18.068   8.854  1.00 20.00     0.055 C 
HETATM    6  C6  UNL     1     -21.573  19.263   9.299  1.00 20.00     0.045 C 
HETATM    7  C7  UNL     1     -21.653  17.290   7.785  1.00 20.00     0.045 C 
HETATM    8  O8  UNL     1     -23.629  18.524   8.210  1.00 20.00    -0.381 OA
HETATM    9 CL9  UNL     1     -24.488  16.462  12.042  1.00 20.00    -0.125 Cl
ENDROOT
TORSDOF 0
ENDMDL
MODEL 5
REMARK VINA RESULT:      -3.4     10.154     11.010
REMARK  0 active torsions:
REMARK  status: ('A' for Active; 'I' for Inactive)
ROOT
HETATM    1  C1  UNL     1     -42.267  14.086   8.204  1.00 20.00     0.046 C 
HETATM    2  C2  UNL     1     -40.145  13.997   6.882  1.00 20.00     0.057 C 
HETATM    3  C3  UNL     1     -42.786  12.854   7.468  1.00 20.00     0.170 C 
HETATM    4  C4  UNL     1     -40.750  14.068   8.285  1.00 20.00     0.087 C 
HETATM    5  C5  UNL     1     -40.898  13.009   5.960  1.00 20.00     0.055 C 
HETATM    6  C6  UNL     1     -41.674  13.744   4.855  1.00 20.00     0.045 C 
HETATM    7  C7  UNL     1     -39.896  12.058   5.290  1.00 20.00     0.045 C 
HETATM    8  O8  UNL     1     -41.780  12.173   6.720  1.00 20.00    -0.381 OA
HETATM    9 CL9  UNL     1     -40.149  15.507   9.149  1.00 20.00    -0.125 Cl
ENDROOT
TORSDOF 0
ENDMDL
MODEL 6
REMARK VINA RESULT:      -3.4     12.266     13.112
REMARK  0 active torsions:
REMARK  status: ('A' for Active; 'I' for Inactive)
ROOT
HETATM    1  C1  UNL     1     -33.520  15.933  -3.438  1.00 20.00     0.046 C 
HETATM    2  C2  UNL     1     -35.357  16.590  -5.005  1.00 20.00     0.057 C 
HETATM    3  C3  UNL     1     -33.123  14.791  -4.369  1.00 20.00     0.170 C 
HETATM    4  C4  UNL     1     -34.138  17.079  -4.221  1.00 20.00     0.087 C 
HETATM    5  C5  UNL     1     -35.119  15.214  -5.674  1.00 20.00     0.055 C 
HETATM    6  C6  UNL     1     -35.950  14.108  -5.003  1.00 20.00     0.045 C 
HETATM    7  C7  UNL     1     -35.518  15.282  -7.154  1.00 20.00     0.045 C 
HETATM    8  O8  UNL     1     -33.726  14.874  -5.659  1.00 20.00    -0.381 OA
HETATM    9 CL9  UNL     1     -34.596  18.412  -3.129  1.00 20.00    -0.125 Cl
ENDROOT
TORSDOF 0
ENDMDL
MODEL 7
REMARK VINA RESULT:      -3.3     12.492     13.640
REMARK  0 active torsions:
REMARK  status: ('A' for Active; 'I' for Inactive)
ROOT
HETATM    1  C1  UNL     1     -33.748  15.141  -3.879  1.00 20.00     0.046 C 
HETATM    2  C2  UNL     1     -34.754  17.411  -4.186  1.00 20.00     0.057 C 
HETATM    3  C3  UNL     1     -33.894  14.866  -5.374  1.00 20.00     0.170 C 
HETATM    4  C4  UNL     1     -33.570  16.627  -3.619  1.00 20.00     0.087 C 
HETATM    5  C5  UNL     1     -35.189  16.901  -5.581  1.00 20.00     0.055 C 
HETATM    6  C6  UNL     1     -36.553  16.194  -5.524  1.00 20.00     0.045 C 
HETATM    7  C7  UNL     1     -35.303  18.084  -6.553  1.00 20.00     0.045 C 
HETATM    8  O8  UNL     1     -34.196  16.031  -6.139  1.00 20.00    -0.381 OA
HETATM    9 CL9  UNL     1     -33.395  16.943  -1.873  1.00 20.00    -0.125 Cl
ENDROOT
TORSDOF 0
ENDMDL
MODEL 8
REMARK VINA RESULT:      -3.3     15.795     16.552
REMARK  0 active torsions:
REMARK  status: ('A' for Active; 'I' for Inactive)
ROOT
HETATM    1  C1  UNL     1     -22.656  19.173   9.002  1.00 20.00     0.046 C 
HETATM    2  C2  UNL     1     -24.665  18.159  10.095  1.00 20.00     0.057 C 
HETATM    3  C3  UNL     1     -21.743  18.432   9.976  1.00 20.00     0.170 C 
HETATM    4  C4  UNL     1     -23.940  18.396   8.769  1.00 20.00     0.087 C 
HETATM    5  C5  UNL     1     -23.698  17.761  11.237  1.00 20.00     0.055 C 
HETATM    6  C6  UNL     1     -23.568  18.880  12.283  1.00 20.00     0.045 C 
HETATM    7  C7  UNL     1     -24.220  16.503  11.943  1.00 20.00     0.045 C 
HETATM    8  O8  UNL     1     -22.409  17.411  10.715  1.00 20.00    -0.381 OA
HETATM    9 CL9  UNL     1     -25.001  19.263   7.628  1.00 20.00    -0.125 Cl
ENDROOT
TORSDOF 0
ENDMDL
MODEL 9
REMARK VINA RESULT:      -3.3     12.551     13.390
REMARK  0 active torsions:
REMARK  status: ('A' for Active; 'I' for Inactive)
ROOT
HETATM    1  C1  UNL     1     -32.744  18.507   0.446  1.00 20.00     0.046 C 
HETATM    2  C2  UNL     1     -34.525  18.639  -1.307  1.00 20.00     0.057 C 
HETATM    3  C3  UNL     1     -31.668  18.507  -0.637  1.00 20.00     0.170 C 
HETATM    4  C4  UNL     1     -33.978  19.260  -0.020  1.00 20.00     0.087 C 
HETATM    5  C5  UNL     1     -33.405  18.264  -2.307  1.00 20.00     0.055 C 
HETATM    6  C6  UNL     1     -33.248  16.741  -2.437  1.00 20.00     0.045 C 
HETATM    7  C7  UNL     1     -33.737  18.832  -3.693  1.00 20.00     0.045 C 
HETATM    8  O8  UNL     1     -32.160  18.865  -1.927  1.00 20.00    -0.381 OA
HETATM    9 CL9  UNL     1     -35.230  19.261   1.250  1.00 20.00    -0.125 Cl
ENDROOT
TORSDOF 0
ENDMDL
