MODEL 1
REMARK VINA RESULT:      -4.1      0.000      0.000
REMARK  4 active torsions:
REMARK  status: ('A' for Active; 'I' for Inactive)
REMARK    1  A    between atoms: C1_1  and  C3_3 
REMARK    2  A    between atoms: C1_1  and  C7_7 
REMARK    3  A    between atoms: C7_7  and  C8_8 
REMARK    4  A    between atoms: C8_8  and  S10_10 
ROOT
HETATM    1  C1  UNL     1     -32.644   8.293   4.552  1.00 20.00     0.132 C 
HETATM    2  O9  UNL     1     -32.077   9.352   4.819  1.00 20.00    -0.298 OA
ENDROOT
BRANCH   1   3
HETATM    3  C3  UNL     1     -32.052   7.317   3.569  1.00 20.00     0.059 A 
HETATM    4  C2  UNL     1     -32.168   7.627   2.120  1.00 20.00     0.017 A 
HETATM    5  C4  UNL     1     -32.997   6.523   2.721  1.00 20.00    -0.007 A 
HETATM    6  C5  UNL     1     -32.680   5.099   2.421  1.00 20.00     0.011 C 
ENDBRANCH   1   3
BRANCH   1   7
HETATM    7  C7  UNL     1     -33.973   7.930   5.187  1.00 20.00     0.088 C 
BRANCH   7   8
HETATM    8  C8  UNL     1     -33.837   7.032   6.410  1.00 20.00     0.081 C 
BRANCH   8   9
HETATM    9  S10 UNL     1     -34.496   5.364   6.108  1.00 20.00    -0.173 SA
HETATM   10  C6  UNL     1     -35.519   5.746   4.667  1.00 20.00     0.089 C 
ENDBRANCH   8   9
ENDBRANCH   7   8
ENDBRANCH   1   7
TORSDOF 4
ENDMDL
MODEL 2
REMARK VINA RESULT:      -3.8      9.236     10.304
REMARK  4 active torsions:
REMARK  status: ('A' for Active; 'I' for Inactive)
REMARK    1  A    between atoms: C1_1  and  C3_3 
REMARK    2  A    between atoms: C1_1  and  C7_7 
REMARK    3  A    between atoms: C7_7  and  C8_8 
REMARK    4  A    between atoms: C8_8  and  S10_10 
ROOT
HETATM    1  C1  UNL     1     -41.563  12.587   6.415  1.00 20.00     0.132 C 
HETATM    2  O9  UNL     1     -42.371  12.134   7.225  1.00 20.00    -0.298 OA
ENDROOT
BRANCH   1   3
HETATM    3  C3  UNL     1     -40.415  11.755   5.908  1.00 20.00     0.059 A 
HETATM    4  C2  UNL     1     -39.044  12.104   6.365  1.00 20.00     0.017 A 
HETATM    5  C4  UNL     1     -39.461  12.396   4.948  1.00 20.00    -0.007 A 
HETATM    6  C5  UNL     1     -38.913  11.589   3.822  1.00 20.00     0.011 C 
ENDBRANCH   1   3
BRANCH   1   7
HETATM    7  C7  UNL     1     -41.678  14.011   5.904  1.00 20.00     0.088 C 
BRANCH   7   8
HETATM    8  C8  UNL     1     -41.969  15.029   6.999  1.00 20.00     0.081 C 
BRANCH   8   9
HETATM    9  S10 UNL     1     -40.446  15.738   7.694  1.00 20.00    -0.173 SA
HETATM   10  C6  UNL     1     -40.320  14.692   9.164  1.00 20.00     0.089 C 
ENDBRANCH   8   9
ENDBRANCH   7   8
ENDBRANCH   1   7
TORSDOF 4
ENDMDL
MODEL 3
REMARK VINA RESULT:      -3.8     12.058     12.907
REMARK  4 active torsions:
REMARK  status: ('A' for Active; 'I' for Inactive)
REMARK    1  A    between atoms: C1_1  and  C3_3 
REMARK    2  A    between atoms: C1_1  and  C7_7 
REMARK    3  A    between atoms: C7_7  and  C8_8 
REMARK    4  A    between atoms: C8_8  and  S10_10 
ROOT
HETATM    1  C1  UNL     1     -33.501  16.738  -3.460  1.00 20.00     0.132 C 
HETATM    2  O9  UNL     1     -33.685  17.675  -4.236  1.00 20.00    -0.298 OA
ENDROOT
BRANCH   1   3
HETATM    3  C3  UNL     1     -33.156  16.979  -2.014  1.00 20.00     0.059 A 
HETATM    4  C2  UNL     1     -34.026  17.898  -1.232  1.00 20.00     0.017 A 
HETATM    5  C4  UNL     1     -32.643  18.335  -1.637  1.00 20.00    -0.007 A 
HETATM    6  C5  UNL     1     -31.561  18.443  -0.618  1.00 20.00     0.011 C 
ENDBRANCH   1   3
BRANCH   1   7
HETATM    7  C7  UNL     1     -33.598  15.298  -3.928  1.00 20.00     0.088 C 
BRANCH   7   8
HETATM    8  C8  UNL     1     -34.053  15.159  -5.375  1.00 20.00     0.081 C 
BRANCH   8   9
HETATM    9  S10 UNL     1     -35.772  14.581  -5.497  1.00 20.00    -0.173 SA
HETATM   10  C6  UNL     1     -36.566  16.182  -5.767  1.00 20.00     0.089 C 
ENDBRANCH   8   9
ENDBRANCH   7   8
ENDBRANCH   1   7
TORSDOF 4
ENDMDL
MODEL 4
REMARK VINA RESULT:      -3.7      2.217      3.932
REMARK  4 active torsions:
REMARK  status: ('A' for Active; 'I' for Inactive)
REMARK    1  A    between atoms: C1_1  and  C3_3 
REMARK    2  A    between atoms: C1_1  and  C7_7 
REMARK    3  A    between atoms: C7_7  and  C8_8 
REMARK    4  A    between atoms: C8_8  and  S10_10 
ROOT
HETATM    1  C1  UNL     1     -32.616   8.307   4.651  1.00 20.00     0.132 C 
HETATM    2  O9  UNL     1     -32.198   9.313   5.225  1.00 20.00    -0.298 OA
ENDROOT
BRANCH   1   3
HETATM    3  C3  UNL     1     -33.943   7.695   5.015  1.00 20.00     0.059 A 
HETATM    4  C2  UNL     1     -34.097   7.124   6.379  1.00 20.00     0.017 A 
HETATM    5  C4  UNL     1     -34.000   6.208   5.188  1.00 20.00    -0.007 A 
HETATM    6  C5  UNL     1     -35.201   5.468   4.710  1.00 20.00     0.011 C 
ENDBRANCH   1   3
BRANCH   1   7
HETATM    7  C7  UNL     1     -31.805   7.629   3.562  1.00 20.00     0.088 C 
BRANCH   7   8
HETATM    8  C8  UNL     1     -32.471   7.674   2.192  1.00 20.00     0.081 C 
BRANCH   8   9
HETATM    9  S10 UNL     1     -32.840   9.375   1.668  1.00 20.00    -0.173 SA
HETATM   10  C6  UNL     1     -32.810   9.109  -0.119  1.00 20.00     0.089 C 
ENDBRANCH   8   9
ENDBRANCH   7   8
ENDBRANCH   1   7
TORSDOF 4
ENDMDL
MODEL 5
REMARK VINA RESULT:      -3.6     12.180     13.013
REMARK  4 active torsions:
REMARK  status: ('A' for Active; 'I' for Inactive)
REMARK    1  A    between atoms: C1_1  and  C3_3 
REMARK    2  A    between atoms: C1_1  and  C7_7 
REMARK    3  A    between atoms: C7_7  and  C8_8 
REMARK    4  A    between atoms: C8_8  and  S10_10 
ROOT
HETATM    1  C1  UNL     1     -33.490  16.532  -3.373  1.00 20.00     0.132 C 
HETATM    2  O9  UNL     1     -32.928  15.546  -3.850  1.00 20.00    -0.298 OA
ENDROOT
BRANCH   1   3
HETATM    3  C3  UNL     1     -33.255  16.949  -1.945  1.00 20.00     0.059 A 
HETATM    4  C2  UNL     1     -34.088  18.051  -1.394  1.00 20.00     0.017 A 
HETATM    5  C4  UNL     1     -32.635  18.291  -1.705  1.00 20.00    -0.007 A 
HETATM    6  C5  UNL     1     -31.646  18.446  -0.601  1.00 20.00     0.011 C 
ENDBRANCH   1   3
BRANCH   1   7
HETATM    7  C7  UNL     1     -34.458  17.361  -4.197  1.00 20.00     0.088 C 
BRANCH   7   8
HETATM    8  C8  UNL     1     -34.703  16.800  -5.591  1.00 20.00     0.081 C 
BRANCH   8   9
HETATM    9  S10 UNL     1     -36.366  16.082  -5.755  1.00 20.00    -0.173 SA
HETATM   10  C6  UNL     1     -35.945  14.365  -5.378  1.00 20.00     0.089 C 
ENDBRANCH   8   9
ENDBRANCH   7   8
ENDBRANCH   1   7
TORSDOF 4
ENDMDL
MODEL 6
REMARK VINA RESULT:      -3.6     12.026     12.649
REMARK  4 active torsions:
REMARK  status: ('A' for Active; 'I' for Inactive)
REMARK    1  A    between atoms: C1_1  and  C3_3 
REMARK    2  A    between atoms: C1_1  and  C7_7 
REMARK    3  A    between atoms: C7_7  and  C8_8 
REMARK    4  A    between atoms: C8_8  and  S10_10 
ROOT
HETATM    1  C1  UNL     1     -33.560  18.424   0.265  1.00 20.00     0.132 C 
HETATM    2  O9  UNL     1     -34.466  18.567   1.086  1.00 20.00    -0.298 OA
ENDROOT
BRANCH   1   3
HETATM    3  C3  UNL     1     -32.216  19.076   0.464  1.00 20.00     0.059 A 
HETATM    4  C2  UNL     1     -31.052  18.511  -0.268  1.00 20.00     0.017 A 
HETATM    5  C4  UNL     1     -31.175  18.308   1.218  1.00 20.00    -0.007 A 
HETATM    6  C5  UNL     1     -30.273  19.036   2.153  1.00 20.00     0.011 C 
ENDBRANCH   1   3
BRANCH   1   7
HETATM    7  C7  UNL     1     -33.761  17.599  -0.992  1.00 20.00     0.088 C 
BRANCH   7   8
HETATM    8  C8  UNL     1     -34.539  18.328  -2.080  1.00 20.00     0.081 C 
BRANCH   8   9
HETATM    9  S10 UNL     1     -34.199  17.650  -3.733  1.00 20.00    -0.173 SA
HETATM   10  C6  UNL     1     -33.298  16.168  -3.226  1.00 20.00     0.089 C 
ENDBRANCH   8   9
ENDBRANCH   7   8
ENDBRANCH   1   7
TORSDOF 4
ENDMDL
MODEL 7
REMARK VINA RESULT:      -3.6     11.995     13.318
REMARK  4 active torsions:
REMARK  status: ('A' for Active; 'I' for Inactive)
REMARK    1  A    between atoms: C1_1  and  C3_3 
REMARK    2  A    between atoms: C1_1  and  C7_7 
REMARK    3  A    between atoms: C7_7  and  C8_8 
REMARK    4  A    between atoms: C8_8  and  S10_10 
ROOT
HETATM    1  C1  UNL     1     -33.872  14.907  -4.493  1.00 20.00     0.132 C 
HETATM    2  O9  UNL     1     -34.192  13.894  -3.871  1.00 20.00    -0.298 OA
ENDROOT
BRANCH   1   3
HETATM    3  C3  UNL     1     -33.130  16.033  -3.822  1.00 20.00     0.059 A 
HETATM    4  C2  UNL     1     -33.543  16.419  -2.447  1.00 20.00     0.017 A 
HETATM    5  C4  UNL     1     -33.864  17.321  -3.609  1.00 20.00    -0.007 A 
HETATM    6  C5  UNL     1     -33.135  18.608  -3.785  1.00 20.00     0.011 C 
ENDBRANCH   1   3
BRANCH   1   7
HETATM    7  C7  UNL     1     -34.225  15.073  -5.959  1.00 20.00     0.088 C 
BRANCH   7   8
HETATM    8  C8  UNL     1     -35.686  14.776  -6.270  1.00 20.00     0.081 C 
BRANCH   8   9
HETATM    9  S10 UNL     1     -36.762  16.199  -5.921  1.00 20.00    -0.173 SA
HETATM   10  C6  UNL     1     -35.814  17.463  -6.800  1.00 20.00     0.089 C 
ENDBRANCH   8   9
ENDBRANCH   7   8
ENDBRANCH   1   7
TORSDOF 4
ENDMDL
MODEL 8
REMARK VINA RESULT:      -3.6     11.958     12.663
REMARK  4 active torsions:
REMARK  status: ('A' for Active; 'I' for Inactive)
REMARK    1  A    between atoms: C1_1  and  C3_3 
REMARK    2  A    between atoms: C1_1  and  C7_7 
REMARK    3  A    between atoms: C7_7  and  C8_8 
REMARK    4  A    between atoms: C8_8  and  S10_10 
ROOT
HETATM    1  C1  UNL     1     -33.973  17.744  -1.591  1.00 20.00     0.132 C 
HETATM    2  O9  UNL     1     -34.840  18.486  -2.053  1.00 20.00    -0.298 OA
ENDROOT
BRANCH   1   3
HETATM    3  C3  UNL     1     -33.616  17.778  -0.128  1.00 20.00     0.059 A 
HETATM    4  C2  UNL     1     -34.113  18.918   0.686  1.00 20.00     0.017 A 
HETATM    5  C4  UNL     1     -32.653  18.829   0.330  1.00 20.00    -0.007 A 
HETATM    6  C5  UNL     1     -31.646  18.486   1.372  1.00 20.00     0.011 C 
ENDBRANCH   1   3
BRANCH   1   7
HETATM    7  C7  UNL     1     -33.213  16.775  -2.477  1.00 20.00     0.088 C 
BRANCH   7   8
HETATM    8  C8  UNL     1     -33.855  16.569  -3.843  1.00 20.00     0.081 C 
BRANCH   8   9
HETATM    9  S10 UNL     1     -33.811  14.827  -4.363  1.00 20.00    -0.173 SA
HETATM   10  C6  UNL     1     -34.091  15.077  -6.131  1.00 20.00     0.089 C 
ENDBRANCH   8   9
ENDBRANCH   7   8
ENDBRANCH   1   7
TORSDOF 4
ENDMDL
MODEL 9
REMARK VINA RESULT:      -3.6      0.947      1.609
REMARK  4 active torsions:
REMARK  status: ('A' for Active; 'I' for Inactive)
REMARK    1  A    between atoms: C1_1  and  C3_3 
REMARK    2  A    between atoms: C1_1  and  C7_7 
REMARK    3  A    between atoms: C7_7  and  C8_8 
REMARK    4  A    between atoms: C8_8  and  S10_10 
ROOT
HETATM    1  C1  UNL     1     -32.883   8.462   4.555  1.00 20.00     0.132 C 
HETATM    2  O9  UNL     1     -31.948   9.195   4.873  1.00 20.00    -0.298 OA
ENDROOT
BRANCH   1   3
HETATM    3  C3  UNL     1     -33.063   7.999   3.133  1.00 20.00     0.059 A 
HETATM    4  C2  UNL     1     -32.112   6.986   2.603  1.00 20.00     0.017 A 
HETATM    5  C4  UNL     1     -32.030   8.413   2.130  1.00 20.00    -0.007 A 
HETATM    6  C5  UNL     1     -32.463   8.773   0.750  1.00 20.00     0.011 C 
ENDBRANCH   1   3
BRANCH   1   7
HETATM    7  C7  UNL     1     -33.907   8.004   5.576  1.00 20.00     0.088 C 
BRANCH   7   8
HETATM    8  C8  UNL     1     -33.469   6.780   6.369  1.00 20.00     0.081 C 
BRANCH   8   9
HETATM    9  S10 UNL     1     -34.701   5.444   6.299  1.00 20.00    -0.173 SA
HETATM   10  C6  UNL     1     -34.450   4.949   4.578  1.00 20.00     0.089 C 
ENDBRANCH   8   9
ENDBRANCH   7   8
ENDBRANCH   1   7
TORSDOF 4
ENDMDL
