MODEL 1
REMARK VINA RESULT:      -3.8      0.000      0.000
REMARK  0 active torsions:
REMARK  status: ('A' for Active; 'I' for Inactive)
ROOT
HETATM    1  C1  UNL     1     -32.855   6.382   2.976  1.00 20.00     0.066 C 
HETATM    2  C2  UNL     1     -34.509   7.486   4.527  1.00 20.00     0.071 C 
HETATM    3  C3  UNL     1     -33.219   5.056   3.632  1.00 20.00     0.171 C 
HETATM    4  C4  UNL     1     -32.001   8.233   4.617  1.00 20.00     0.207 A 
HETATM    5  C5  UNL     1     -34.836   6.096   5.086  1.00 20.00     0.120 C 
HETATM    6  C6  UNL     1     -33.131   7.494   3.940  1.00 20.00     0.086 A 
HETATM    7  C7  UNL     1     -34.146   5.806   6.417  1.00 20.00     0.039 C 
HETATM    8  O8  UNL     1     -34.567   5.074   4.114  1.00 20.00    -0.386 OA
HETATM    9  O9  UNL     1     -32.694   8.782   3.487  1.00 20.00    -0.375 OA
ENDROOT
TORSDOF 0
ENDMDL
MODEL 2
REMARK VINA RESULT:      -3.7      1.248      3.530
REMARK  0 active torsions:
REMARK  status: ('A' for Active; 'I' for Inactive)
ROOT
HETATM    1  C1  UNL     1     -34.370   6.187   6.411  1.00 20.00     0.066 C 
HETATM    2  C2  UNL     1     -34.694   6.827   3.994  1.00 20.00     0.071 C 
HETATM    3  C3  UNL     1     -33.354   7.319   6.511  1.00 20.00     0.171 C 
HETATM    4  C4  UNL     1     -33.869   4.408   4.559  1.00 20.00     0.207 A 
HETATM    5  C5  UNL     1     -33.692   7.968   4.214  1.00 20.00     0.120 C 
HETATM    6  C6  UNL     1     -34.454   5.733   4.987  1.00 20.00     0.086 A 
HETATM    7  C7  UNL     1     -32.293   7.647   3.692  1.00 20.00     0.039 C 
HETATM    8  O8  UNL     1     -33.666   8.371   5.592  1.00 20.00    -0.386 OA
HETATM    9  O9  UNL     1     -35.275   4.573   4.791  1.00 20.00    -0.375 OA
ENDROOT
TORSDOF 0
ENDMDL
MODEL 3
REMARK VINA RESULT:      -3.6      1.149      3.131
REMARK  0 active torsions:
REMARK  status: ('A' for Active; 'I' for Inactive)
ROOT
HETATM    1  C1  UNL     1     -33.191   5.679   3.358  1.00 20.00     0.066 C 
HETATM    2  C2  UNL     1     -33.467   6.581   5.696  1.00 20.00     0.071 C 
HETATM    3  C3  UNL     1     -32.606   7.032   2.971  1.00 20.00     0.171 C 
HETATM    4  C4  UNL     1     -35.589   5.765   4.399  1.00 20.00     0.207 A 
HETATM    5  C5  UNL     1     -32.822   7.887   5.215  1.00 20.00     0.120 C 
HETATM    6  C6  UNL     1     -34.089   5.857   4.542  1.00 20.00     0.086 A 
HETATM    7  C7  UNL     1     -33.840   8.988   4.928  1.00 20.00     0.039 C 
HETATM    8  O8  UNL     1     -31.962   7.651   4.089  1.00 20.00    -0.386 OA
HETATM    9  O9  UNL     1     -34.810   4.674   4.912  1.00 20.00    -0.375 OA
ENDROOT
TORSDOF 0
ENDMDL
MODEL 4
REMARK VINA RESULT:      -3.5      1.289      2.261
REMARK  0 active torsions:
REMARK  status: ('A' for Active; 'I' for Inactive)
ROOT
HETATM    1  C1  UNL     1     -33.266   7.145   6.274  1.00 20.00     0.066 C 
HETATM    2  C2  UNL     1     -33.450   6.063   4.004  1.00 20.00     0.071 C 
HETATM    3  C3  UNL     1     -34.564   6.439   6.648  1.00 20.00     0.171 C 
HETATM    4  C4  UNL     1     -33.406   8.676   4.157  1.00 20.00     0.207 A 
HETATM    5  C5  UNL     1     -34.723   5.363   4.496  1.00 20.00     0.120 C 
HETATM    6  C6  UNL     1     -33.215   7.317   4.788  1.00 20.00     0.086 A 
HETATM    7  C7  UNL     1     -36.004   6.038   4.013  1.00 20.00     0.039 C 
HETATM    8  O8  UNL     1     -34.707   5.212   5.924  1.00 20.00    -0.386 OA
HETATM    9  O9  UNL     1     -32.104   8.097   4.327  1.00 20.00    -0.375 OA
ENDROOT
TORSDOF 0
ENDMDL
MODEL 5
REMARK VINA RESULT:      -3.5     12.178     13.241
REMARK  0 active torsions:
REMARK  status: ('A' for Active; 'I' for Inactive)
ROOT
HETATM    1  C1  UNL     1     -34.927  14.046  -4.455  1.00 20.00     0.066 C 
HETATM    2  C2  UNL     1     -33.779  15.222  -6.367  1.00 20.00     0.071 C 
HETATM    3  C3  UNL     1     -36.241  14.242  -5.204  1.00 20.00     0.171 C 
HETATM    4  C4  UNL     1     -33.593  16.242  -3.963  1.00 20.00     0.207 A 
HETATM    5  C5  UNL     1     -35.145  15.326  -7.058  1.00 20.00     0.120 C 
HETATM    6  C6  UNL     1     -33.959  15.103  -4.885  1.00 20.00     0.086 A 
HETATM    7  C7  UNL     1     -35.789  16.703  -6.913  1.00 20.00     0.039 C 
HETATM    8  O8  UNL     1     -36.024  14.279  -6.618  1.00 20.00    -0.386 OA
HETATM    9  O9  UNL     1     -32.732  15.109  -4.144  1.00 20.00    -0.375 OA
ENDROOT
TORSDOF 0
ENDMDL
MODEL 6
REMARK VINA RESULT:      -3.2     12.472     13.651
REMARK  0 active torsions:
REMARK  status: ('A' for Active; 'I' for Inactive)
ROOT
HETATM    1  C1  UNL     1     -33.815  14.804  -4.625  1.00 20.00     0.066 C 
HETATM    2  C2  UNL     1     -35.530  16.559  -5.204  1.00 20.00     0.071 C 
HETATM    3  C3  UNL     1     -33.136  15.847  -3.745  1.00 20.00     0.171 C 
HETATM    4  C4  UNL     1     -34.115  15.492  -7.131  1.00 20.00     0.207 A 
HETATM    5  C5  UNL     1     -34.797  17.517  -4.257  1.00 20.00     0.120 C 
HETATM    6  C6  UNL     1     -34.591  15.502  -5.698  1.00 20.00     0.086 A 
HETATM    7  C7  UNL     1     -33.891  18.505  -4.986  1.00 20.00     0.039 C 
HETATM    8  O8  UNL     1     -34.086  16.792  -3.242  1.00 20.00    -0.386 OA
HETATM    9  O9  UNL     1     -35.160  14.621  -6.675  1.00 20.00    -0.375 OA
ENDROOT
TORSDOF 0
ENDMDL
MODEL 7
REMARK VINA RESULT:      -3.2     12.938     13.969
REMARK  0 active torsions:
REMARK  status: ('A' for Active; 'I' for Inactive)
ROOT
HETATM    1  C1  UNL     1     -35.905  15.989  -7.413  1.00 20.00     0.066 C 
HETATM    2  C2  UNL     1     -35.862  14.580  -5.323  1.00 20.00     0.071 C 
HETATM    3  C3  UNL     1     -34.385  16.054  -7.327  1.00 20.00     0.171 C 
HETATM    4  C4  UNL     1     -37.174  16.845  -5.292  1.00 20.00     0.207 A 
HETATM    5  C5  UNL     1     -34.331  14.668  -5.355  1.00 20.00     0.120 C 
HETATM    6  C6  UNL     1     -36.461  15.748  -6.045  1.00 20.00     0.086 A 
HETATM    7  C7  UNL     1     -33.769  15.702  -4.382  1.00 20.00     0.039 C 
HETATM    8  O8  UNL     1     -33.856  14.885  -6.693  1.00 20.00    -0.386 OA
HETATM    9  O9  UNL     1     -37.892  15.808  -5.976  1.00 20.00    -0.375 OA
ENDROOT
TORSDOF 0
ENDMDL
MODEL 8
REMARK VINA RESULT:      -3.1      8.799      9.578
REMARK  0 active torsions:
REMARK  status: ('A' for Active; 'I' for Inactive)
ROOT
HETATM    1  C1  UNL     1     -42.162   7.319   1.517  1.00 20.00     0.066 C 
HETATM    2  C2  UNL     1     -40.793   6.248  -0.310  1.00 20.00     0.071 C 
HETATM    3  C3  UNL     1     -43.027   6.064   1.520  1.00 20.00     0.171 C 
HETATM    4  C4  UNL     1     -41.976   8.533  -0.793  1.00 20.00     0.207 A 
HETATM    5  C5  UNL     1     -41.696   5.013  -0.193  1.00 20.00     0.120 C 
HETATM    6  C6  UNL     1     -41.520   7.465   0.173  1.00 20.00     0.086 A 
HETATM    7  C7  UNL     1     -42.763   4.945  -1.283  1.00 20.00     0.039 C 
HETATM    8  O8  UNL     1     -42.269   4.918   1.120  1.00 20.00    -0.386 OA
HETATM    9  O9  UNL     1     -40.792   8.689   0.002  1.00 20.00    -0.375 OA
ENDROOT
TORSDOF 0
ENDMDL
MODEL 9
REMARK VINA RESULT:      -3.1     12.291     13.351
REMARK  0 active torsions:
REMARK  status: ('A' for Active; 'I' for Inactive)
ROOT
HETATM    1  C1  UNL     1     -33.224  15.907  -3.691  1.00 20.00     0.066 C 
HETATM    2  C2  UNL     1     -34.317  17.239  -5.532  1.00 20.00     0.071 C 
HETATM    3  C3  UNL     1     -34.002  14.695  -4.190  1.00 20.00     0.171 C 
HETATM    4  C4  UNL     1     -34.688  17.978  -3.048  1.00 20.00     0.207 A 
HETATM    5  C5  UNL     1     -35.015  15.950  -5.982  1.00 20.00     0.120 C 
HETATM    6  C6  UNL     1     -33.958  17.151  -4.081  1.00 20.00     0.086 A 
HETATM    7  C7  UNL     1     -36.466  15.859  -5.514  1.00 20.00     0.039 C 
HETATM    8  O8  UNL     1     -34.259  14.792  -5.594  1.00 20.00    -0.386 OA
HETATM    9  O9  UNL     1     -33.395  18.355  -3.543  1.00 20.00    -0.375 OA
ENDROOT
TORSDOF 0
ENDMDL
