MODEL 1
REMARK VINA RESULT:      -4.3      0.000      0.000
REMARK  0 active torsions:
REMARK  status: ('A' for Active; 'I' for Inactive)
ROOT
HETATM    1  C1  UNL     1     -33.300   5.205   3.471  1.00 20.00     0.066 C 
HETATM    2  C2  UNL     1     -33.568   6.979   5.250  1.00 20.00     0.071 C 
HETATM    3  C3  UNL     1     -32.737   6.300   2.570  1.00 20.00     0.171 C 
HETATM    4  C4  UNL     1     -35.683   5.666   4.443  1.00 20.00     0.207 A 
HETATM    5  C5  UNL     1     -32.991   7.976   4.237  1.00 20.00     0.120 C 
HETATM    6  C6  UNL     1     -34.184   5.832   4.504  1.00 20.00     0.086 A 
HETATM    7  C7  UNL     1     -32.223   9.087   4.939  1.00 20.00     0.039 C 
HETATM    8  O8  UNL     1     -32.080   7.304   3.353  1.00 20.00    -0.386 OA
HETATM    9  O9  UNL     1     -34.872   4.891   5.339  1.00 20.00    -0.375 OA
ENDROOT
TORSDOF 0
ENDMDL
MODEL 2
REMARK VINA RESULT:      -3.8     15.377     16.349
REMARK  0 active torsions:
REMARK  status: ('A' for Active; 'I' for Inactive)
ROOT
HETATM    1  C1  UNL     1     -23.917  16.579  10.571  1.00 20.00     0.066 C 
HETATM    2  C2  UNL     1     -24.971  18.874  10.629  1.00 20.00     0.071 C 
HETATM    3  C3  UNL     1     -24.494  16.362  11.967  1.00 20.00     0.171 C 
HETATM    4  C4  UNL     1     -22.382  18.680  10.306  1.00 20.00     0.207 A 
HETATM    5  C5  UNL     1     -25.485  18.522  12.031  1.00 20.00     0.120 C 
HETATM    6  C6  UNL     1     -23.753  18.050  10.337  1.00 20.00     0.086 A 
HETATM    7  C7  UNL     1     -26.805  19.221  12.323  1.00 20.00     0.039 C 
HETATM    8  O8  UNL     1     -25.707  17.106  12.129  1.00 20.00    -0.386 OA
HETATM    9  O9  UNL     1     -23.103  18.379   9.102  1.00 20.00    -0.375 OA
ENDROOT
TORSDOF 0
ENDMDL
MODEL 3
REMARK VINA RESULT:      -3.8     15.568     16.856
REMARK  0 active torsions:
REMARK  status: ('A' for Active; 'I' for Inactive)
ROOT
HETATM    1  C1  UNL     1     -21.646  18.469  10.271  1.00 20.00     0.066 C 
HETATM    2  C2  UNL     1     -23.685  17.004   9.996  1.00 20.00     0.071 C 
HETATM    3  C3  UNL     1     -22.078  18.668  11.721  1.00 20.00     0.171 C 
HETATM    4  C4  UNL     1     -23.430  19.115   8.470  1.00 20.00     0.207 A 
HETATM    5  C5  UNL     1     -24.002  17.294  11.469  1.00 20.00     0.120 C 
HETATM    6  C6  UNL     1     -22.850  18.122   9.449  1.00 20.00     0.086 A 
HETATM    7  C7  UNL     1     -24.723  16.120  12.115  1.00 20.00     0.039 C 
HETATM    8  O8  UNL     1     -22.783  17.515  12.196  1.00 20.00    -0.386 OA
HETATM    9  O9  UNL     1     -22.593  18.030   8.041  1.00 20.00    -0.375 OA
ENDROOT
TORSDOF 0
ENDMDL
MODEL 4
REMARK VINA RESULT:      -3.7      1.116      2.641
REMARK  0 active torsions:
REMARK  status: ('A' for Active; 'I' for Inactive)
ROOT
HETATM    1  C1  UNL     1     -33.657   7.866   5.013  1.00 20.00     0.066 C 
HETATM    2  C2  UNL     1     -34.135   5.594   4.018  1.00 20.00     0.071 C 
HETATM    3  C3  UNL     1     -32.385   7.884   4.171  1.00 20.00     0.171 C 
HETATM    4  C4  UNL     1     -33.913   5.815   6.616  1.00 20.00     0.207 A 
HETATM    5  C5  UNL     1     -32.825   5.744   3.233  1.00 20.00     0.120 C 
HETATM    6  C6  UNL     1     -34.062   6.443   5.251  1.00 20.00     0.086 A 
HETATM    7  C7  UNL     1     -32.901   5.019   1.897  1.00 20.00     0.039 C 
HETATM    8  O8  UNL     1     -32.572   7.132   2.966  1.00 20.00    -0.386 OA
HETATM    9  O9  UNL     1     -35.180   6.291   6.137  1.00 20.00    -0.375 OA
ENDROOT
TORSDOF 0
ENDMDL
MODEL 5
REMARK VINA RESULT:      -3.6      1.168      3.278
REMARK  0 active torsions:
REMARK  status: ('A' for Active; 'I' for Inactive)
ROOT
HETATM    1  C1  UNL     1     -32.933   6.478   2.583  1.00 20.00     0.066 C 
HETATM    2  C2  UNL     1     -33.899   7.218   4.797  1.00 20.00     0.071 C 
HETATM    3  C3  UNL     1     -32.987   5.052   3.123  1.00 20.00     0.171 C 
HETATM    4  C4  UNL     1     -31.584   8.178   4.043  1.00 20.00     0.207 A 
HETATM    5  C5  UNL     1     -33.893   5.741   5.210  1.00 20.00     0.120 C 
HETATM    6  C6  UNL     1     -32.860   7.431   3.737  1.00 20.00     0.086 A 
HETATM    7  C7  UNL     1     -35.028   5.438   6.177  1.00 20.00     0.039 C 
HETATM    8  O8  UNL     1     -34.068   4.909   4.053  1.00 20.00    -0.386 OA
HETATM    9  O9  UNL     1     -32.680   8.801   3.357  1.00 20.00    -0.375 OA
ENDROOT
TORSDOF 0
ENDMDL
MODEL 6
REMARK VINA RESULT:      -3.5      1.174      2.247
REMARK  0 active torsions:
REMARK  status: ('A' for Active; 'I' for Inactive)
ROOT
HETATM    1  C1  UNL     1     -34.321   6.999   5.579  1.00 20.00     0.066 C 
HETATM    2  C2  UNL     1     -33.667   6.160   3.287  1.00 20.00     0.071 C 
HETATM    3  C3  UNL     1     -33.097   7.907   5.513  1.00 20.00     0.171 C 
HETATM    4  C4  UNL     1     -33.844   4.447   5.258  1.00 20.00     0.207 A 
HETATM    5  C5  UNL     1     -32.472   7.119   3.359  1.00 20.00     0.120 C 
HETATM    6  C6  UNL     1     -34.100   5.819   4.682  1.00 20.00     0.086 A 
HETATM    7  C7  UNL     1     -32.083   7.615   1.973  1.00 20.00     0.039 C 
HETATM    8  O8  UNL     1     -32.811   8.265   4.156  1.00 20.00    -0.386 OA
HETATM    9  O9  UNL     1     -35.132   4.827   4.751  1.00 20.00    -0.375 OA
ENDROOT
TORSDOF 0
ENDMDL
MODEL 7
REMARK VINA RESULT:      -3.5      9.911     10.637
REMARK  0 active torsions:
REMARK  status: ('A' for Active; 'I' for Inactive)
ROOT
HETATM    1  C1  UNL     1     -42.730  13.856   5.890  1.00 20.00     0.066 C 
HETATM    2  C2  UNL     1     -40.875  12.200   6.334  1.00 20.00     0.071 C 
HETATM    3  C3  UNL     1     -41.889  14.372   4.726  1.00 20.00     0.171 C 
HETATM    4  C4  UNL     1     -41.550  13.879   8.224  1.00 20.00     0.207 A 
HETATM    5  C5  UNL     1     -40.136  12.819   5.140  1.00 20.00     0.120 C 
HETATM    6  C6  UNL     1     -41.825  13.215   6.897  1.00 20.00     0.086 A 
HETATM    7  C7  UNL     1     -39.266  11.786   4.439  1.00 20.00     0.039 C 
HETATM    8  O8  UNL     1     -41.084  13.317   4.184  1.00 20.00    -0.386 OA
HETATM    9  O9  UNL     1     -42.485  12.798   8.099  1.00 20.00    -0.375 OA
ENDROOT
TORSDOF 0
ENDMDL
MODEL 8
REMARK VINA RESULT:      -3.5      1.293      3.479
REMARK  0 active torsions:
REMARK  status: ('A' for Active; 'I' for Inactive)
ROOT
HETATM    1  C1  UNL     1     -33.895   6.843   5.940  1.00 20.00     0.066 C 
HETATM    2  C2  UNL     1     -32.623   6.730   3.760  1.00 20.00     0.071 C 
HETATM    3  C3  UNL     1     -34.829   5.784   5.363  1.00 20.00     0.171 C 
HETATM    4  C4  UNL     1     -33.646   9.019   4.510  1.00 20.00     0.207 A 
HETATM    5  C5  UNL     1     -33.640   5.675   3.306  1.00 20.00     0.120 C 
HETATM    6  C6  UNL     1     -33.254   7.593   4.812  1.00 20.00     0.086 A 
HETATM    7  C7  UNL     1     -33.005   4.679   2.346  1.00 20.00     0.039 C 
HETATM    8  O8  UNL     1     -34.124   4.942   4.443  1.00 20.00    -0.386 OA
HETATM    9  O9  UNL     1     -32.444   8.701   5.227  1.00 20.00    -0.375 OA
ENDROOT
TORSDOF 0
ENDMDL
MODEL 9
REMARK VINA RESULT:      -3.5     12.176     13.407
REMARK  0 active torsions:
REMARK  status: ('A' for Active; 'I' for Inactive)
ROOT
HETATM    1  C1  UNL     1     -33.536  19.263  -2.572  1.00 20.00     0.066 C 
HETATM    2  C2  UNL     1     -33.477  16.806  -1.985  1.00 20.00     0.071 C 
HETATM    3  C3  UNL     1     -33.220  18.850  -4.006  1.00 20.00     0.171 C 
HETATM    4  C4  UNL     1     -31.833  18.437  -0.766  1.00 20.00     0.207 A 
HETATM    5  C5  UNL     1     -33.159  16.537  -3.461  1.00 20.00     0.120 C 
HETATM    6  C6  UNL     1     -33.041  18.199  -1.640  1.00 20.00     0.086 A 
HETATM    7  C7  UNL     1     -33.714  15.191  -3.904  1.00 20.00     0.039 C 
HETATM    8  O8  UNL     1     -33.756  17.551  -4.283  1.00 20.00    -0.386 OA
HETATM    9  O9  UNL     1     -33.170  18.528  -0.250  1.00 20.00    -0.375 OA
ENDROOT
TORSDOF 0
ENDMDL
