MODEL 1
REMARK VINA RESULT:      -3.7      0.000      0.000
REMARK  1 active torsions:
REMARK  status: ('A' for Active; 'I' for Inactive)
REMARK    1  A    between atoms: C4_4  and  C5_5 
ROOT
HETATM    1  C1  UNL     1     -33.696   6.962   6.346  1.00 20.00     0.016 C 
HETATM    2  C2  UNL     1     -34.729   5.856   6.477  1.00 20.00     0.074 C 
HETATM    3  C3  UNL     1     -33.706   6.227   4.021  1.00 20.00     0.079 C 
HETATM    4  C4  UNL     1     -33.779   7.468   4.907  1.00 20.00     0.005 C 
HETATM    5  S6  UNL     1     -34.654   4.956   4.905  1.00 20.00    -0.169 SA
ENDROOT
BRANCH   4   6
HETATM    6  C5  UNL     1     -32.689   8.451   4.588  1.00 20.00     0.090 C 
HETATM    7 BR7  UNL     1     -32.064   8.149   2.779  1.00 20.00    -0.096 Br
ENDBRANCH   4   6
TORSDOF 1
ENDMDL
MODEL 2
REMARK VINA RESULT:      -3.7      2.806      3.761
REMARK  1 active torsions:
REMARK  status: ('A' for Active; 'I' for Inactive)
REMARK    1  A    between atoms: C4_4  and  C5_5 
ROOT
HETATM    1  C1  UNL     1     -32.822   6.145   3.222  1.00 20.00     0.016 C 
HETATM    2  C2  UNL     1     -32.136   7.456   2.875  1.00 20.00     0.074 C 
HETATM    3  C3  UNL     1     -33.560   7.439   5.153  1.00 20.00     0.079 C 
HETATM    4  C4  UNL     1     -34.054   6.504   4.051  1.00 20.00     0.005 C 
HETATM    5  S6  UNL     1     -32.298   8.479   4.364  1.00 20.00    -0.169 SA
ENDROOT
BRANCH   4   6
HETATM    6  C5  UNL     1     -34.734   5.288   4.610  1.00 20.00     0.090 C 
HETATM    7 BR7  UNL     1     -34.585   5.301   6.541  1.00 20.00    -0.096 Br
ENDBRANCH   4   6
TORSDOF 1
ENDMDL
MODEL 3
REMARK VINA RESULT:      -3.2      2.595      3.393
REMARK  1 active torsions:
REMARK  status: ('A' for Active; 'I' for Inactive)
REMARK    1  A    between atoms: C4_4  and  C5_5 
ROOT
HETATM    1  C1  UNL     1     -33.243   8.844   5.174  1.00 20.00     0.016 C 
HETATM    2  C2  UNL     1     -32.231   9.110   4.073  1.00 20.00     0.074 C 
HETATM    3  C3  UNL     1     -33.285   6.639   4.132  1.00 20.00     0.079 C 
HETATM    4  C4  UNL     1     -33.173   7.348   5.480  1.00 20.00     0.005 C 
HETATM    5  S6  UNL     1     -32.349   7.674   2.971  1.00 20.00    -0.169 SA
ENDROOT
BRANCH   4   6
HETATM    6  C5  UNL     1     -34.247   6.914   6.434  1.00 20.00     0.090 C 
HETATM    7 BR7  UNL     1     -34.779   5.099   6.017  1.00 20.00    -0.096 Br
ENDBRANCH   4   6
TORSDOF 1
ENDMDL
MODEL 4
REMARK VINA RESULT:      -3.1      0.902      1.673
REMARK  1 active torsions:
REMARK  status: ('A' for Active; 'I' for Inactive)
REMARK    1  A    between atoms: C4_4  and  C5_5 
ROOT
HETATM    1  C1  UNL     1     -33.975   6.377   4.040  1.00 20.00     0.016 C 
HETATM    2  C2  UNL     1     -34.360   5.030   4.629  1.00 20.00     0.074 C 
HETATM    3  C3  UNL     1     -34.007   7.028   6.390  1.00 20.00     0.079 C 
HETATM    4  C4  UNL     1     -33.173   7.110   5.114  1.00 20.00     0.005 C 
HETATM    5  S6  UNL     1     -34.752   5.373   6.366  1.00 20.00    -0.169 SA
ENDROOT
BRANCH   4   6
HETATM    6  C5  UNL     1     -32.874   8.530   4.728  1.00 20.00     0.090 C 
HETATM    7 BR7  UNL     1     -32.439   8.602   2.841  1.00 20.00    -0.096 Br
ENDBRANCH   4   6
TORSDOF 1
ENDMDL
MODEL 5
REMARK VINA RESULT:      -3.0     15.934     16.449
REMARK  1 active torsions:
REMARK  status: ('A' for Active; 'I' for Inactive)
REMARK    1  A    between atoms: C4_4  and  C5_5 
ROOT
HETATM    1  C1  UNL     1     -24.395  18.545   9.999  1.00 20.00     0.016 C 
HETATM    2  C2  UNL     1     -24.110  19.191   8.653  1.00 20.00     0.074 C 
HETATM    3  C3  UNL     1     -22.036  17.950   9.827  1.00 20.00     0.079 C 
HETATM    4  C4  UNL     1     -23.077  18.546  10.771  1.00 20.00     0.005 C 
HETATM    5  S6  UNL     1     -22.466  18.587   8.182  1.00 20.00    -0.169 SA
ENDROOT
BRANCH   4   6
HETATM    6  C5  UNL     1     -23.174  17.778  12.058  1.00 20.00     0.090 C 
HETATM    7 BR7  UNL     1     -24.443  16.331  11.846  1.00 20.00    -0.096 Br
ENDBRANCH   4   6
TORSDOF 1
ENDMDL
MODEL 6
REMARK VINA RESULT:      -3.0     15.322     15.815
REMARK  1 active torsions:
REMARK  status: ('A' for Active; 'I' for Inactive)
REMARK    1  A    between atoms: C4_4  and  C5_5 
ROOT
HETATM    1  C1  UNL     1     -23.838  16.988  10.472  1.00 20.00     0.016 C 
HETATM    2  C2  UNL     1     -24.321  16.442  11.805  1.00 20.00     0.074 C 
HETATM    3  C3  UNL     1     -25.218  18.885  11.138  1.00 20.00     0.079 C 
HETATM    4  C4  UNL     1     -23.840  18.510  10.597  1.00 20.00     0.005 C 
HETATM    5  S6  UNL     1     -25.631  17.580  12.331  1.00 20.00    -0.169 SA
ENDROOT
BRANCH   4   6
HETATM    6  C5  UNL     1     -23.547  19.187   9.289  1.00 20.00     0.090 C 
HETATM    7 BR7  UNL     1     -22.067  18.287   8.421  1.00 20.00    -0.096 Br
ENDBRANCH   4   6
TORSDOF 1
ENDMDL
MODEL 7
REMARK VINA RESULT:      -2.9      1.362      2.084
REMARK  1 active torsions:
REMARK  status: ('A' for Active; 'I' for Inactive)
REMARK    1  A    between atoms: C4_4  and  C5_5 
ROOT
HETATM    1  C1  UNL     1     -34.563   5.168   4.544  1.00 20.00     0.016 C 
HETATM    2  C2  UNL     1     -34.748   5.356   6.040  1.00 20.00     0.074 C 
HETATM    3  C3  UNL     1     -33.349   7.269   4.776  1.00 20.00     0.079 C 
HETATM    4  C4  UNL     1     -33.258   5.870   4.173  1.00 20.00     0.005 C 
HETATM    5  S6  UNL     1     -34.182   7.046   6.373  1.00 20.00    -0.169 SA
ENDROOT
BRANCH   4   6
HETATM    6  C5  UNL     1     -33.038   5.911   2.689  1.00 20.00     0.090 C 
HETATM    7 BR7  UNL     1     -32.266   7.620   2.203  1.00 20.00    -0.096 Br
ENDBRANCH   4   6
TORSDOF 1
ENDMDL
MODEL 8
REMARK VINA RESULT:      -2.9      1.096      1.763
REMARK  1 active torsions:
REMARK  status: ('A' for Active; 'I' for Inactive)
REMARK    1  A    between atoms: C4_4  and  C5_5 
ROOT
HETATM    1  C1  UNL     1     -33.261   7.101   5.016  1.00 20.00     0.016 C 
HETATM    2  C2  UNL     1     -34.170   7.097   6.233  1.00 20.00     0.074 C 
HETATM    3  C3  UNL     1     -34.163   4.850   4.762  1.00 20.00     0.079 C 
HETATM    4  C4  UNL     1     -33.886   6.145   4.002  1.00 20.00     0.005 C 
HETATM    5  S6  UNL     1     -34.707   5.374   6.413  1.00 20.00    -0.169 SA
ENDROOT
BRANCH   4   6
HETATM    6  C5  UNL     1     -32.996   5.919   2.814  1.00 20.00     0.090 C 
HETATM    7 BR7  UNL     1     -32.160   7.594   2.313  1.00 20.00    -0.096 Br
ENDBRANCH   4   6
TORSDOF 1
ENDMDL
MODEL 9
REMARK VINA RESULT:      -2.9      9.596      9.964
REMARK  1 active torsions:
REMARK  status: ('A' for Active; 'I' for Inactive)
REMARK    1  A    between atoms: C4_4  and  C5_5 
ROOT
HETATM    1  C1  UNL     1     -41.113  13.337   4.901  1.00 20.00     0.016 C 
HETATM    2  C2  UNL     1     -42.240  14.296   5.243  1.00 20.00     0.074 C 
HETATM    3  C3  UNL     1     -40.479  13.800   7.210  1.00 20.00     0.079 C 
HETATM    4  C4  UNL     1     -40.698  12.667   6.210  1.00 20.00     0.005 C 
HETATM    5  S6  UNL     1     -41.774  15.017   6.841  1.00 20.00    -0.169 SA
ENDROOT
BRANCH   4   6
HETATM    6  C5  UNL     1     -39.471  11.817   6.047  1.00 20.00     0.090 C 
HETATM    7 BR7  UNL     1     -39.018  11.701   4.167  1.00 20.00    -0.096 Br
ENDBRANCH   4   6
TORSDOF 1
ENDMDL
