MODEL 1
REMARK VINA RESULT:      -3.4      0.000      0.000
REMARK  1 active torsions:
REMARK  status: ('A' for Active; 'I' for Inactive)
REMARK    1  A    between atoms: C4_4  and  C5_5 
ROOT
HETATM    1  C1  UNL     1     -34.420   4.737   5.003  1.00 20.00     0.011 C 
HETATM    2  C2  UNL     1     -35.010   5.888   4.202  1.00 20.00     0.016 C 
HETATM    3  C3  UNL     1     -34.436   5.169   6.459  1.00 20.00     0.074 C 
HETATM    4  C4  UNL     1     -34.304   7.167   4.649  1.00 20.00     0.057 C 
HETATM    5  S6  UNL     1     -34.026   6.936   6.438  1.00 20.00    -0.164 SA
ENDROOT
BRANCH   4   6
HETATM    6  C5  UNL     1     -32.973   7.390   3.942  1.00 20.00     0.100 C 
HETATM    7 BR7  UNL     1     -32.103   8.968   4.666  1.00 20.00    -0.095 Br
ENDBRANCH   4   6
TORSDOF 1
ENDMDL
MODEL 2
REMARK VINA RESULT:      -3.4      1.597      1.734
REMARK  1 active torsions:
REMARK  status: ('A' for Active; 'I' for Inactive)
REMARK    1  A    between atoms: C4_4  and  C5_5 
ROOT
HETATM    1  C1  UNL     1     -34.295   5.364   6.305  1.00 20.00     0.011 C 
HETATM    2  C2  UNL     1     -35.084   5.261   5.008  1.00 20.00     0.016 C 
HETATM    3  C3  UNL     1     -34.173   6.844   6.622  1.00 20.00     0.074 C 
HETATM    4  C4  UNL     1     -34.453   6.228   4.008  1.00 20.00     0.057 C 
HETATM    5  S6  UNL     1     -33.938   7.659   5.017  1.00 20.00    -0.164 SA
ENDROOT
BRANCH   4   6
HETATM    6  C5  UNL     1     -33.246   5.637   3.291  1.00 20.00     0.100 C 
HETATM    7 BR7  UNL     1     -32.083   7.067   2.678  1.00 20.00    -0.095 Br
ENDBRANCH   4   6
TORSDOF 1
ENDMDL
MODEL 3
REMARK VINA RESULT:      -3.2      2.628      3.550
REMARK  1 active torsions:
REMARK  status: ('A' for Active; 'I' for Inactive)
REMARK    1  A    between atoms: C4_4  and  C5_5 
ROOT
HETATM    1  C1  UNL     1     -31.836   8.031   4.003  1.00 20.00     0.011 C 
HETATM    2  C2  UNL     1     -33.121   8.672   4.506  1.00 20.00     0.016 C 
HETATM    3  C3  UNL     1     -32.246   6.979   2.988  1.00 20.00     0.074 C 
HETATM    4  C4  UNL     1     -34.078   7.545   4.888  1.00 20.00     0.057 C 
HETATM    5  S6  UNL     1     -33.764   6.240   3.652  1.00 20.00    -0.164 SA
ENDROOT
BRANCH   4   6
HETATM    6  C5  UNL     1     -33.830   7.003   6.290  1.00 20.00     0.100 C 
HETATM    7 BR7  UNL     1     -34.520   5.192   6.423  1.00 20.00    -0.095 Br
ENDBRANCH   4   6
TORSDOF 1
ENDMDL
MODEL 4
REMARK VINA RESULT:      -3.1     15.927     16.778
REMARK  1 active torsions:
REMARK  status: ('A' for Active; 'I' for Inactive)
REMARK    1  A    between atoms: C4_4  and  C5_5 
ROOT
HETATM    1  C1  UNL     1     -24.064  16.821  10.656  1.00 20.00     0.011 C 
HETATM    2  C2  UNL     1     -23.877  18.123   9.891  1.00 20.00     0.016 C 
HETATM    3  C3  UNL     1     -23.892  17.155  12.128  1.00 20.00     0.074 C 
HETATM    4  C4  UNL     1     -22.595  18.776  10.403  1.00 20.00     0.057 C 
HETATM    5  S6  UNL     1     -22.563  18.389  12.186  1.00 20.00    -0.164 SA
ENDROOT
BRANCH   4   6
HETATM    6  C5  UNL     1     -21.341  18.231   9.731  1.00 20.00     0.100 C 
HETATM    7 BR7  UNL     1     -21.595  18.189   7.806  1.00 20.00    -0.095 Br
ENDBRANCH   4   6
TORSDOF 1
ENDMDL
MODEL 5
REMARK VINA RESULT:      -3.0     12.724     13.163
REMARK  1 active torsions:
REMARK  status: ('A' for Active; 'I' for Inactive)
REMARK    1  A    between atoms: C4_4  and  C5_5 
ROOT
HETATM    1  C1  UNL     1     -34.232  14.474  -4.326  1.00 20.00     0.011 C 
HETATM    2  C2  UNL     1     -32.908  15.173  -4.054  1.00 20.00     0.016 C 
HETATM    3  C3  UNL     1     -35.033  15.397  -5.226  1.00 20.00     0.074 C 
HETATM    4  C4  UNL     1     -33.225  16.605  -3.626  1.00 20.00     0.057 C 
HETATM    5  S6  UNL     1     -34.672  17.074  -4.633  1.00 20.00    -0.164 SA
ENDROOT
BRANCH   4   6
HETATM    6  C5  UNL     1     -33.562  16.723  -2.145  1.00 20.00     0.100 C 
HETATM    7 BR7  UNL     1     -32.571  18.198  -1.364  1.00 20.00    -0.095 Br
ENDBRANCH   4   6
TORSDOF 1
ENDMDL
MODEL 6
REMARK VINA RESULT:      -2.9      9.311     10.049
REMARK  1 active torsions:
REMARK  status: ('A' for Active; 'I' for Inactive)
REMARK    1  A    between atoms: C4_4  and  C5_5 
ROOT
HETATM    1  C1  UNL     1     -40.516   6.675   0.123  1.00 20.00     0.011 C 
HETATM    2  C2  UNL     1     -41.510   7.781  -0.198  1.00 20.00     0.016 C 
HETATM    3  C3  UNL     1     -40.981   5.442  -0.633  1.00 20.00     0.074 C 
HETATM    4  C4  UNL     1     -42.913   7.214   0.013  1.00 20.00     0.057 C 
HETATM    5  S6  UNL     1     -42.792   5.479  -0.539  1.00 20.00    -0.164 SA
ENDROOT
BRANCH   4   6
HETATM    6  C5  UNL     1     -43.363   7.266   1.467  1.00 20.00     0.100 C 
HETATM    7 BR7  UNL     1     -43.417   5.469   2.201  1.00 20.00    -0.095 Br
ENDBRANCH   4   6
TORSDOF 1
ENDMDL
MODEL 7
REMARK VINA RESULT:      -2.9     16.056     16.868
REMARK  1 active torsions:
REMARK  status: ('A' for Active; 'I' for Inactive)
REMARK    1  A    between atoms: C4_4  and  C5_5 
ROOT
HETATM    1  C1  UNL     1     -23.378  18.528   9.795  1.00 20.00     0.011 C 
HETATM    2  C2  UNL     1     -24.352  17.624  10.535  1.00 20.00     0.016 C 
HETATM    3  C3  UNL     1     -22.084  18.515  10.591  1.00 20.00     0.074 C 
HETATM    4  C4  UNL     1     -24.332  18.035  12.006  1.00 20.00     0.057 C 
HETATM    5  S6  UNL     1     -22.595  18.488  12.332  1.00 20.00    -0.164 SA
ENDROOT
BRANCH   4   6
HETATM    6  C5  UNL     1     -25.242  19.220  12.306  1.00 20.00     0.100 C 
HETATM    7 BR7  UNL     1     -27.093  18.633  12.332  1.00 20.00    -0.095 Br
ENDBRANCH   4   6
TORSDOF 1
ENDMDL
MODEL 8
REMARK VINA RESULT:      -2.9     16.365     17.057
REMARK  1 active torsions:
REMARK  status: ('A' for Active; 'I' for Inactive)
REMARK    1  A    between atoms: C4_4  and  C5_5 
ROOT
HETATM    1  C1  UNL     1     -21.571  17.649   9.210  1.00 20.00     0.011 C 
HETATM    2  C2  UNL     1     -21.355  18.567  10.404  1.00 20.00     0.016 C 
HETATM    3  C3  UNL     1     -22.804  18.160   8.487  1.00 20.00     0.074 C 
HETATM    4  C4  UNL     1     -22.693  18.698  11.130  1.00 20.00     0.057 C 
HETATM    5  S6  UNL     1     -23.940  18.694   9.798  1.00 20.00    -0.164 SA
ENDROOT
BRANCH   4   6
HETATM    6  C5  UNL     1     -22.960  17.549  12.094  1.00 20.00     0.100 C 
HETATM    7 BR7  UNL     1     -24.553  16.586  11.539  1.00 20.00    -0.095 Br
ENDBRANCH   4   6
TORSDOF 1
ENDMDL
MODEL 9
REMARK VINA RESULT:      -2.8      9.334      9.874
REMARK  1 active torsions:
REMARK  status: ('A' for Active; 'I' for Inactive)
REMARK    1  A    between atoms: C4_4  and  C5_5 
ROOT
HETATM    1  C1  UNL     1     -42.562  12.744   7.061  1.00 20.00     0.011 C 
HETATM    2  C2  UNL     1     -41.804  13.259   5.846  1.00 20.00     0.016 C 
HETATM    3  C3  UNL     1     -42.272  13.713   8.194  1.00 20.00     0.074 C 
HETATM    4  C4  UNL     1     -40.370  13.546   6.286  1.00 20.00     0.057 C 
HETATM    5  S6  UNL     1     -40.532  14.184   7.987  1.00 20.00    -0.164 SA
ENDROOT
BRANCH   4   6
HETATM    6  C5  UNL     1     -39.486  12.305   6.279  1.00 20.00     0.100 C 
HETATM    7 BR7  UNL     1     -39.180  11.729   4.450  1.00 20.00    -0.095 Br
ENDBRANCH   4   6
TORSDOF 1
ENDMDL
