MODEL 1
REMARK VINA RESULT:      -4.6      0.000      0.000
REMARK  3 active torsions:
REMARK  status: ('A' for Active; 'I' for Inactive)
REMARK    1  A    between atoms: C1_1  and  C7_7 
REMARK    2  A    between atoms: C1_1  and  C9_9 
REMARK    3  A    between atoms: C8_8  and  C9_9 
ROOT
HETATM    1  C1  UNL     1     -32.625   7.950   4.152  1.00 20.00     0.141 C 
HETATM    2  O10 UNL     1     -32.145   8.780   4.922  1.00 20.00    -0.297 OA
ENDROOT
BRANCH   1   3
HETATM    3  C7  UNL     1     -33.870   7.209   4.500  1.00 20.00     0.116 C 
HETATM    4  C3  UNL     1     -33.852   5.772   4.002  1.00 20.00     0.024 C 
HETATM    5  C2  UNL     1     -34.784   4.986   4.912  1.00 20.00     0.012 C 
HETATM    6  C6  UNL     1     -34.374   5.316   6.337  1.00 20.00     0.075 C 
HETATM    7  S11 UNL     1     -33.981   7.086   6.308  1.00 20.00    -0.157 SA
ENDBRANCH   1   3
BRANCH   1   8
HETATM    8  C9  UNL     1     -32.001   7.615   2.809  1.00 20.00     0.084 C 
BRANCH   8   9
HETATM    9  C8  UNL     1     -32.801   8.161   1.640  1.00 20.00    -0.007 A 
HETATM   10  C4  UNL     1     -32.814   9.637   1.356  1.00 20.00     0.005 A 
HETATM   11  C5  UNL     1     -32.095   8.699   0.427  1.00 20.00     0.005 A 
ENDBRANCH   8   9
ENDBRANCH   1   8
TORSDOF 3
ENDMDL
MODEL 2
REMARK VINA RESULT:      -4.4     10.010     10.810
REMARK  3 active torsions:
REMARK  status: ('A' for Active; 'I' for Inactive)
REMARK    1  A    between atoms: C1_1  and  C7_7 
REMARK    2  A    between atoms: C1_1  and  C9_9 
REMARK    3  A    between atoms: C8_8  and  C9_9 
ROOT
HETATM    1  C1  UNL     1     -41.791  12.925   6.842  1.00 20.00     0.141 C 
HETATM    2  O10 UNL     1     -42.498  11.945   7.066  1.00 20.00    -0.297 OA
ENDROOT
BRANCH   1   3
HETATM    3  C7  UNL     1     -41.771  14.088   7.775  1.00 20.00     0.116 C 
HETATM    4  C3  UNL     1     -40.420  14.269   8.451  1.00 20.00     0.024 C 
HETATM    5  C2  UNL     1     -40.316  15.740   8.823  1.00 20.00     0.012 C 
HETATM    6  C6  UNL     1     -40.666  16.527   7.572  1.00 20.00     0.075 C 
HETATM    7  S11 UNL     1     -42.029  15.604   6.810  1.00 20.00    -0.157 SA
ENDBRANCH   1   3
BRANCH   1   8
HETATM    8  C9  UNL     1     -40.896  13.033   5.620  1.00 20.00     0.084 C 
BRANCH   8   9
HETATM    9  C8  UNL     1     -39.939  11.861   5.491  1.00 20.00    -0.007 A 
HETATM   10  C4  UNL     1     -39.127  11.681   4.239  1.00 20.00     0.005 A 
HETATM   11  C5  UNL     1     -38.454  12.091   5.519  1.00 20.00     0.005 A 
ENDBRANCH   8   9
ENDBRANCH   1   8
TORSDOF 3
ENDMDL
MODEL 3
REMARK VINA RESULT:      -4.0     11.763     12.453
REMARK  3 active torsions:
REMARK  status: ('A' for Active; 'I' for Inactive)
REMARK    1  A    between atoms: C1_1  and  C7_7 
REMARK    2  A    between atoms: C1_1  and  C9_9 
REMARK    3  A    between atoms: C8_8  and  C9_9 
ROOT
HETATM    1  C1  UNL     1     -34.195  17.844  -2.709  1.00 20.00     0.141 C 
HETATM    2  O10 UNL     1     -35.051  18.725  -2.759  1.00 20.00    -0.297 OA
ENDROOT
BRANCH   1   3
HETATM    3  C7  UNL     1     -33.802  17.084  -3.929  1.00 20.00     0.116 C 
HETATM    4  C3  UNL     1     -33.424  15.643  -3.622  1.00 20.00     0.024 C 
HETATM    5  C2  UNL     1     -33.673  14.848  -4.895  1.00 20.00     0.012 C 
HETATM    6  C6  UNL     1     -35.078  15.198  -5.353  1.00 20.00     0.075 C 
HETATM    7  S11 UNL     1     -35.243  16.975  -5.028  1.00 20.00    -0.157 SA
ENDBRANCH   1   3
BRANCH   1   8
HETATM    8  C9  UNL     1     -33.480  17.462  -1.425  1.00 20.00     0.084 C 
BRANCH   8   9
HETATM    9  C8  UNL     1     -32.724  18.626  -0.808  1.00 20.00    -0.007 A 
HETATM   10  C4  UNL     1     -32.411  18.631   0.662  1.00 20.00     0.005 A 
HETATM   11  C5  UNL     1     -31.307  18.444  -0.341  1.00 20.00     0.005 A 
ENDBRANCH   8   9
ENDBRANCH   1   8
TORSDOF 3
ENDMDL
MODEL 4
REMARK VINA RESULT:      -4.0     10.161     10.943
REMARK  3 active torsions:
REMARK  status: ('A' for Active; 'I' for Inactive)
REMARK    1  A    between atoms: C1_1  and  C7_7 
REMARK    2  A    between atoms: C1_1  and  C9_9 
REMARK    3  A    between atoms: C8_8  and  C9_9 
ROOT
HETATM    1  C1  UNL     1     -41.134  13.526   7.002  1.00 20.00     0.141 C 
HETATM    2  O10 UNL     1     -41.861  12.876   7.752  1.00 20.00    -0.297 OA
ENDROOT
BRANCH   1   3
HETATM    3  C7  UNL     1     -40.485  14.785   7.463  1.00 20.00     0.116 C 
HETATM    4  C3  UNL     1     -41.308  16.020   7.131  1.00 20.00     0.024 C 
HETATM    5  C2  UNL     1     -40.922  17.085   8.148  1.00 20.00     0.012 C 
HETATM    6  C6  UNL     1     -41.024  16.431   9.515  1.00 20.00     0.075 C 
HETATM    7  S11 UNL     1     -40.384  14.751   9.275  1.00 20.00    -0.157 SA
ENDBRANCH   1   3
BRANCH   1   8
HETATM    8  C9  UNL     1     -40.843  13.109   5.572  1.00 20.00     0.084 C 
BRANCH   8   9
HETATM    9  C8  UNL     1     -39.932  11.897   5.490  1.00 20.00    -0.007 A 
HETATM   10  C4  UNL     1     -39.164  11.612   4.230  1.00 20.00     0.005 A 
HETATM   11  C5  UNL     1     -38.439  12.074   5.463  1.00 20.00     0.005 A 
ENDBRANCH   8   9
ENDBRANCH   1   8
TORSDOF 3
ENDMDL
MODEL 5
REMARK VINA RESULT:      -4.0     10.116     10.850
REMARK  3 active torsions:
REMARK  status: ('A' for Active; 'I' for Inactive)
REMARK    1  A    between atoms: C1_1  and  C7_7 
REMARK    2  A    between atoms: C1_1  and  C9_9 
REMARK    3  A    between atoms: C8_8  and  C9_9 
ROOT
HETATM    1  C1  UNL     1     -41.880  13.013   6.875  1.00 20.00     0.141 C 
HETATM    2  O10 UNL     1     -42.509  11.991   7.141  1.00 20.00    -0.297 OA
ENDROOT
BRANCH   1   3
HETATM    3  C7  UNL     1     -42.011  14.237   7.715  1.00 20.00     0.116 C 
HETATM    4  C3  UNL     1     -42.134  13.916   9.197  1.00 20.00     0.024 C 
HETATM    5  C2  UNL     1     -41.627  15.138   9.948  1.00 20.00     0.012 C 
HETATM    6  C6  UNL     1     -40.279  15.487   9.342  1.00 20.00     0.075 C 
HETATM    7  S11 UNL     1     -40.485  15.207   7.562  1.00 20.00    -0.157 SA
ENDBRANCH   1   3
BRANCH   1   8
HETATM    8  C9  UNL     1     -40.935  13.113   5.691  1.00 20.00     0.084 C 
BRANCH   8   9
HETATM    9  C8  UNL     1     -40.017  11.910   5.572  1.00 20.00    -0.007 A 
HETATM   10  C4  UNL     1     -39.246  11.669   4.304  1.00 20.00     0.005 A 
HETATM   11  C5  UNL     1     -38.525  12.097   5.552  1.00 20.00     0.005 A 
ENDBRANCH   8   9
ENDBRANCH   1   8
TORSDOF 3
ENDMDL
MODEL 6
REMARK VINA RESULT:      -4.0      1.579      1.744
REMARK  3 active torsions:
REMARK  status: ('A' for Active; 'I' for Inactive)
REMARK    1  A    between atoms: C1_1  and  C7_7 
REMARK    2  A    between atoms: C1_1  and  C9_9 
REMARK    3  A    between atoms: C8_8  and  C9_9 
ROOT
HETATM    1  C1  UNL     1     -32.920   6.097   2.989  1.00 20.00     0.141 C 
HETATM    2  O10 UNL     1     -32.643   4.983   2.548  1.00 20.00    -0.297 OA
ENDROOT
BRANCH   1   3
HETATM    3  C7  UNL     1     -34.027   6.282   3.970  1.00 20.00     0.116 C 
HETATM    4  C3  UNL     1     -34.267   5.041   4.817  1.00 20.00     0.024 C 
HETATM    5  C2  UNL     1     -34.897   5.520   6.117  1.00 20.00     0.012 C 
HETATM    6  C6  UNL     1     -34.020   6.649   6.630  1.00 20.00     0.075 C 
HETATM    7  S11 UNL     1     -33.543   7.577   5.146  1.00 20.00    -0.157 SA
ENDBRANCH   1   3
BRANCH   1   8
HETATM    8  C9  UNL     1     -32.172   7.353   2.580  1.00 20.00     0.084 C 
BRANCH   8   9
HETATM    9  C8  UNL     1     -32.854   8.096   1.445  1.00 20.00    -0.007 A 
HETATM   10  C4  UNL     1     -32.799   9.596   1.382  1.00 20.00     0.005 A 
HETATM   11  C5  UNL     1     -32.032   8.774   0.385  1.00 20.00     0.005 A 
ENDBRANCH   8   9
ENDBRANCH   1   8
TORSDOF 3
ENDMDL
MODEL 7
REMARK VINA RESULT:      -3.9     11.511     12.752
REMARK  3 active torsions:
REMARK  status: ('A' for Active; 'I' for Inactive)
REMARK    1  A    between atoms: C1_1  and  C7_7 
REMARK    2  A    between atoms: C1_1  and  C9_9 
REMARK    3  A    between atoms: C8_8  and  C9_9 
ROOT
HETATM    1  C1  UNL     1     -33.977  15.128  -4.298  1.00 20.00     0.141 C 
HETATM    2  O10 UNL     1     -34.366  13.978  -4.100  1.00 20.00    -0.297 OA
ENDROOT
BRANCH   1   3
HETATM    3  C7  UNL     1     -34.400  15.884  -5.511  1.00 20.00     0.116 C 
HETATM    4  C3  UNL     1     -33.817  15.305  -6.791  1.00 20.00     0.024 C 
HETATM    5  C2  UNL     1     -34.765  15.697  -7.915  1.00 20.00     0.012 C 
HETATM    6  C6  UNL     1     -36.160  15.309  -7.456  1.00 20.00     0.075 C 
HETATM    7  S11 UNL     1     -36.199  15.723  -5.690  1.00 20.00    -0.157 SA
ENDBRANCH   1   3
BRANCH   1   8
HETATM    8  C9  UNL     1     -33.050  15.860  -3.344  1.00 20.00     0.084 C 
BRANCH   8   9
HETATM    9  C8  UNL     1     -33.681  17.112  -2.762  1.00 20.00    -0.007 A 
HETATM   10  C4  UNL     1     -33.682  17.339  -1.276  1.00 20.00     0.005 A 
HETATM   11  C5  UNL     1     -32.815  18.187  -2.165  1.00 20.00     0.005 A 
ENDBRANCH   8   9
ENDBRANCH   1   8
TORSDOF 3
ENDMDL
MODEL 8
REMARK VINA RESULT:      -3.8     11.271     11.903
REMARK  3 active torsions:
REMARK  status: ('A' for Active; 'I' for Inactive)
REMARK    1  A    between atoms: C1_1  and  C7_7 
REMARK    2  A    between atoms: C1_1  and  C9_9 
REMARK    3  A    between atoms: C8_8  and  C9_9 
ROOT
HETATM    1  C1  UNL     1     -34.038  17.786  -2.066  1.00 20.00     0.141 C 
HETATM    2  O10 UNL     1     -35.112  18.375  -1.955  1.00 20.00    -0.297 OA
ENDROOT
BRANCH   1   3
HETATM    3  C7  UNL     1     -33.132  17.612  -0.895  1.00 20.00     0.116 C 
HETATM    4  C3  UNL     1     -31.824  18.372  -1.053  1.00 20.00     0.024 C 
HETATM    5  C2  UNL     1     -31.313  18.652   0.353  1.00 20.00     0.012 C 
HETATM    6  C6  UNL     1     -32.473  19.261   1.119  1.00 20.00     0.075 C 
HETATM    7  S11 UNL     1     -33.932  18.337   0.564  1.00 20.00    -0.157 SA
ENDBRANCH   1   3
BRANCH   1   8
HETATM    8  C9  UNL     1     -33.553  17.198  -3.379  1.00 20.00     0.084 C 
BRANCH   8   9
HETATM    9  C8  UNL     1     -33.673  15.685  -3.421  1.00 20.00    -0.007 A 
HETATM   10  C4  UNL     1     -34.074  14.993  -4.694  1.00 20.00     0.005 A 
HETATM   11  C5  UNL     1     -32.666  14.869  -4.182  1.00 20.00     0.005 A 
ENDBRANCH   8   9
ENDBRANCH   1   8
TORSDOF 3
ENDMDL
MODEL 9
REMARK VINA RESULT:      -3.8     11.977     12.808
REMARK  3 active torsions:
REMARK  status: ('A' for Active; 'I' for Inactive)
REMARK    1  A    between atoms: C1_1  and  C7_7 
REMARK    2  A    between atoms: C1_1  and  C9_9 
REMARK    3  A    between atoms: C8_8  and  C9_9 
ROOT
HETATM    1  C1  UNL     1     -33.344  17.747  -3.336  1.00 20.00     0.141 C 
HETATM    2  O10 UNL     1     -32.826  18.710  -3.899  1.00 20.00    -0.297 OA
ENDROOT
BRANCH   1   3
HETATM    3  C7  UNL     1     -34.313  16.869  -4.051  1.00 20.00     0.116 C 
HETATM    4  C3  UNL     1     -34.597  17.346  -5.468  1.00 20.00     0.024 C 
HETATM    5  C2  UNL     1     -35.027  16.121  -6.260  1.00 20.00     0.012 C 
HETATM    6  C6  UNL     1     -33.982  15.050  -5.999  1.00 20.00     0.075 C 
HETATM    7  S11 UNL     1     -33.568  15.225  -4.242  1.00 20.00    -0.157 SA
ENDBRANCH   1   3
BRANCH   1   8
HETATM    8  C9  UNL     1     -33.047  17.379  -1.894  1.00 20.00     0.084 C 
BRANCH   8   9
HETATM    9  C8  UNL     1     -32.566  18.563  -1.075  1.00 20.00    -0.007 A 
HETATM   10  C4  UNL     1     -32.570  18.496   0.427  1.00 20.00     0.005 A 
HETATM   11  C5  UNL     1     -31.267  18.485  -0.323  1.00 20.00     0.005 A 
ENDBRANCH   8   9
ENDBRANCH   1   8
TORSDOF 3
ENDMDL
