MODEL 1
REMARK VINA RESULT:      -3.9      0.000      0.000
REMARK  1 active torsions:
REMARK  status: ('A' for Active; 'I' for Inactive)
REMARK    1  A    between atoms: C4_4  and  C5_5 
ROOT
HETATM    1  C1  UNL     1     -33.703   5.967   4.003  1.00 20.00     0.016 C 
HETATM    2  C2  UNL     1     -34.737   5.101   4.702  1.00 20.00     0.074 C 
HETATM    3  C3  UNL     1     -33.659   7.072   6.176  1.00 20.00     0.079 C 
HETATM    4  C4  UNL     1     -33.758   7.337   4.677  1.00 20.00     0.009 C 
HETATM    5  S6  UNL     1     -34.625   5.560   6.454  1.00 20.00    -0.169 SA
ENDROOT
BRANCH   4   6
HETATM    6  C5  UNL     1     -32.649   8.259   4.188  1.00 20.00     0.120 C 
HETATM    7 CL7  UNL     1     -32.120   7.778   2.565  1.00 20.00    -0.130 Cl
ENDBRANCH   4   6
TORSDOF 1
ENDMDL
MODEL 2
REMARK VINA RESULT:      -3.8      2.746      3.655
REMARK  1 active torsions:
REMARK  status: ('A' for Active; 'I' for Inactive)
REMARK    1  A    between atoms: C4_4  and  C5_5 
ROOT
HETATM    1  C1  UNL     1     -33.542   7.515   5.554  1.00 20.00     0.016 C 
HETATM    2  C2  UNL     1     -32.730   8.598   4.865  1.00 20.00     0.074 C 
HETATM    3  C3  UNL     1     -33.144   6.353   3.448  1.00 20.00     0.079 C 
HETATM    4  C4  UNL     1     -34.236   6.723   4.446  1.00 20.00     0.009 C 
HETATM    5  S6  UNL     1     -32.053   7.803   3.381  1.00 20.00    -0.169 SA
ENDROOT
BRANCH   4   6
HETATM    6  C5  UNL     1     -34.953   5.492   4.987  1.00 20.00     0.120 C 
HETATM    7 CL7  UNL     1     -34.419   5.149   6.643  1.00 20.00    -0.130 Cl
ENDBRANCH   4   6
TORSDOF 1
ENDMDL
MODEL 3
REMARK VINA RESULT:      -3.8      1.212      1.764
REMARK  1 active torsions:
REMARK  status: ('A' for Active; 'I' for Inactive)
REMARK    1  A    between atoms: C4_4  and  C5_5 
ROOT
HETATM    1  C1  UNL     1     -34.191   7.134   6.358  1.00 20.00     0.016 C 
HETATM    2  C2  UNL     1     -34.601   5.675   6.469  1.00 20.00     0.074 C 
HETATM    3  C3  UNL     1     -33.684   6.463   4.070  1.00 20.00     0.079 C 
HETATM    4  C4  UNL     1     -33.113   7.200   5.277  1.00 20.00     0.009 C 
HETATM    5  S6  UNL     1     -34.601   5.058   4.763  1.00 20.00    -0.169 SA
ENDROOT
BRANCH   4   6
HETATM    6  C5  UNL     1     -32.730   8.635   4.939  1.00 20.00     0.120 C 
HETATM    7 CL7  UNL     1     -32.596   8.837   3.181  1.00 20.00    -0.130 Cl
ENDBRANCH   4   6
TORSDOF 1
ENDMDL
MODEL 4
REMARK VINA RESULT:      -3.4      1.864      2.774
REMARK  1 active torsions:
REMARK  status: ('A' for Active; 'I' for Inactive)
REMARK    1  A    between atoms: C4_4  and  C5_5 
ROOT
HETATM    1  C1  UNL     1     -34.143   5.878   6.052  1.00 20.00     0.016 C 
HETATM    2  C2  UNL     1     -34.230   7.292   6.603  1.00 20.00     0.074 C 
HETATM    3  C3  UNL     1     -33.251   7.056   4.113  1.00 20.00     0.079 C 
HETATM    4  C4  UNL     1     -34.266   5.998   4.533  1.00 20.00     0.009 C 
HETATM    5  S6  UNL     1     -33.307   8.313   5.421  1.00 20.00    -0.169 SA
ENDROOT
BRANCH   4   6
HETATM    6  C5  UNL     1     -34.022   4.666   3.834  1.00 20.00     0.120 C 
HETATM    7 CL7  UNL     1     -32.884   4.878   2.490  1.00 20.00    -0.130 Cl
ENDBRANCH   4   6
TORSDOF 1
ENDMDL
MODEL 5
REMARK VINA RESULT:      -3.4      1.024      1.658
REMARK  1 active torsions:
REMARK  status: ('A' for Active; 'I' for Inactive)
REMARK    1  A    between atoms: C4_4  and  C5_5 
ROOT
HETATM    1  C1  UNL     1     -34.112   4.796   4.799  1.00 20.00     0.016 C 
HETATM    2  C2  UNL     1     -34.886   5.265   6.020  1.00 20.00     0.074 C 
HETATM    3  C3  UNL     1     -33.341   7.109   4.822  1.00 20.00     0.079 C 
HETATM    4  C4  UNL     1     -33.913   6.025   3.914  1.00 20.00     0.009 C 
HETATM    5  S6  UNL     1     -34.203   6.901   6.407  1.00 20.00    -0.169 SA
ENDROOT
BRANCH   4   6
HETATM    6  C5  UNL     1     -32.998   5.735   2.730  1.00 20.00     0.120 C 
HETATM    7 CL7  UNL     1     -32.125   7.203   2.254  1.00 20.00    -0.130 Cl
ENDBRANCH   4   6
TORSDOF 1
ENDMDL
MODEL 6
REMARK VINA RESULT:      -3.3      2.900      3.344
REMARK  1 active torsions:
REMARK  status: ('A' for Active; 'I' for Inactive)
REMARK    1  A    between atoms: C4_4  and  C5_5 
ROOT
HETATM    1  C1  UNL     1     -33.550   6.411   4.074  1.00 20.00     0.016 C 
HETATM    2  C2  UNL     1     -32.543   6.876   3.036  1.00 20.00     0.074 C 
HETATM    3  C3  UNL     1     -33.123   8.633   4.985  1.00 20.00     0.079 C 
HETATM    4  C4  UNL     1     -33.217   7.158   5.365  1.00 20.00     0.009 C 
HETATM    5  S6  UNL     1     -32.329   8.650   3.352  1.00 20.00    -0.169 SA
ENDROOT
BRANCH   4   6
HETATM    6  C5  UNL     1     -34.259   6.917   6.450  1.00 20.00     0.120 C 
HETATM    7 CL7  UNL     1     -34.830   5.238   6.390  1.00 20.00    -0.130 Cl
ENDBRANCH   4   6
TORSDOF 1
ENDMDL
MODEL 7
REMARK VINA RESULT:      -3.1      2.035      2.246
REMARK  1 active torsions:
REMARK  status: ('A' for Active; 'I' for Inactive)
REMARK    1  A    between atoms: C4_4  and  C5_5 
ROOT
HETATM    1  C1  UNL     1     -34.638   6.151   4.916  1.00 20.00     0.016 C 
HETATM    2  C2  UNL     1     -34.316   4.792   4.318  1.00 20.00     0.074 C 
HETATM    3  C3  UNL     1     -32.792   6.840   3.480  1.00 20.00     0.079 C 
HETATM    4  C4  UNL     1     -33.336   6.951   4.901  1.00 20.00     0.009 C 
HETATM    5  S6  UNL     1     -33.159   5.138   2.964  1.00 20.00    -0.169 SA
ENDROOT
BRANCH   4   6
HETATM    6  C5  UNL     1     -33.551   8.401   5.316  1.00 20.00     0.120 C 
HETATM    7 CL7  UNL     1     -32.120   9.371   4.920  1.00 20.00    -0.130 Cl
ENDBRANCH   4   6
TORSDOF 1
ENDMDL
MODEL 8
REMARK VINA RESULT:      -3.0     16.148     16.719
REMARK  1 active torsions:
REMARK  status: ('A' for Active; 'I' for Inactive)
REMARK    1  A    between atoms: C4_4  and  C5_5 
ROOT
HETATM    1  C1  UNL     1     -24.469  18.320  10.224  1.00 20.00     0.016 C 
HETATM    2  C2  UNL     1     -24.480  18.485  11.734  1.00 20.00     0.074 C 
HETATM    3  C3  UNL     1     -22.060  18.476  10.566  1.00 20.00     0.079 C 
HETATM    4  C4  UNL     1     -23.207  19.020   9.721  1.00 20.00     0.009 C 
HETATM    5  S6  UNL     1     -22.747  18.300  12.238  1.00 20.00    -0.169 SA
ENDROOT
BRANCH   4   6
HETATM    6  C5  UNL     1     -22.977  18.784   8.233  1.00 20.00     0.120 C 
HETATM    7 CL7  UNL     1     -21.763  17.514   7.993  1.00 20.00    -0.130 Cl
ENDBRANCH   4   6
TORSDOF 1
ENDMDL
MODEL 9
REMARK VINA RESULT:      -3.0     12.641     13.189
REMARK  1 active torsions:
REMARK  status: ('A' for Active; 'I' for Inactive)
REMARK    1  A    between atoms: C4_4  and  C5_5 
ROOT
HETATM    1  C1  UNL     1     -33.712  15.104  -3.798  1.00 20.00     0.016 C 
HETATM    2  C2  UNL     1     -33.829  15.009  -5.310  1.00 20.00     0.074 C 
HETATM    3  C3  UNL     1     -34.531  17.362  -4.219  1.00 20.00     0.079 C 
HETATM    4  C4  UNL     1     -33.456  16.576  -3.476  1.00 20.00     0.009 C 
HETATM    5  S6  UNL     1     -34.735  16.501  -5.805  1.00 20.00    -0.169 SA
ENDROOT
BRANCH   4   6
HETATM    6  C5  UNL     1     -33.489  16.846  -1.977  1.00 20.00     0.120 C 
HETATM    7 CL7  UNL     1     -32.374  18.162  -1.565  1.00 20.00    -0.130 Cl
ENDBRANCH   4   6
TORSDOF 1
ENDMDL
