MODEL 1
REMARK VINA RESULT:      -4.9      0.000      0.000
REMARK  2 active torsions:
REMARK  status: ('A' for Active; 'I' for Inactive)
REMARK    1  A    between atoms: C3_3  and  C7_7 
REMARK    2  A    between atoms: C3_3  and  C10_10 
ROOT
HETATM    1  C1  UNL     1     -32.763   9.483   0.332  1.00 20.00     0.012 C 
HETATM    2  C2  UNL     1     -32.466   8.655   1.149  1.00 20.00    -0.110 C 
HETATM    3  C10 UNL     1     -32.103   7.638   2.141  1.00 20.00     0.171 C 
ENDROOT
BRANCH   3   4
HETATM    4  C3  UNL     1     -32.451   8.055   3.556  1.00 20.00     0.144 C 
HETATM    5  O11 UNL     1     -32.437   9.226   3.935  1.00 20.00    -0.297 OA
BRANCH   4   6
HETATM    6  C7  UNL     1     -32.823   6.949   4.495  1.00 20.00     0.087 C 
HETATM    7  C6  UNL     1     -33.486   5.790   3.742  1.00 20.00     0.046 C 
HETATM    8  C8  UNL     1     -34.857   5.720   4.413  1.00 20.00     0.122 C 
HETATM    9  C4  UNL     1     -34.738   5.192   5.843  1.00 20.00     0.034 C 
HETATM   10  O12 UNL     1     -35.123   7.121   4.652  1.00 20.00    -0.380 OA
HETATM   11  C5  UNL     1     -34.111   6.381   6.574  1.00 20.00     0.035 C 
HETATM   12  C9  UNL     1     -33.941   7.395   5.444  1.00 20.00     0.133 C 
ENDBRANCH   4   6
ENDBRANCH   3   4
TORSDOF 2
ENDMDL
MODEL 2
REMARK VINA RESULT:      -4.6     11.261     13.099
REMARK  2 active torsions:
REMARK  status: ('A' for Active; 'I' for Inactive)
REMARK    1  A    between atoms: C3_3  and  C7_7 
REMARK    2  A    between atoms: C3_3  and  C10_10 
ROOT
HETATM    1  C1  UNL     1     -33.635  17.237  -1.599  1.00 20.00     0.012 C 
HETATM    2  C2  UNL     1     -33.338  16.560  -2.544  1.00 20.00    -0.110 C 
HETATM    3  C10 UNL     1     -32.967  15.736  -3.699  1.00 20.00     0.171 C 
ENDROOT
BRANCH   3   4
HETATM    4  C3  UNL     1     -34.142  14.958  -4.259  1.00 20.00     0.144 C 
HETATM    5  O11 UNL     1     -34.353  13.775  -3.994  1.00 20.00    -0.297 OA
BRANCH   4   6
HETATM    6  C7  UNL     1     -35.056  15.716  -5.172  1.00 20.00     0.087 C 
HETATM    7  C6  UNL     1     -36.126  14.792  -5.767  1.00 20.00     0.046 C 
HETATM    8  C8  UNL     1     -35.855  14.920  -7.265  1.00 20.00     0.122 C 
HETATM    9  C4  UNL     1     -36.257  16.303  -7.776  1.00 20.00     0.034 C 
HETATM   10  O12 UNL     1     -34.414  15.022  -7.282  1.00 20.00    -0.380 OA
HETATM   11  C5  UNL     1     -35.154  17.193  -7.200  1.00 20.00     0.035 C 
HETATM   12  C9  UNL     1     -34.307  16.186  -6.424  1.00 20.00     0.133 C 
ENDBRANCH   4   6
ENDBRANCH   3   4
TORSDOF 2
ENDMDL
MODEL 3
REMARK VINA RESULT:      -4.5     11.322     12.927
REMARK  2 active torsions:
REMARK  status: ('A' for Active; 'I' for Inactive)
REMARK    1  A    between atoms: C3_3  and  C7_7 
REMARK    2  A    between atoms: C3_3  and  C10_10 
ROOT
HETATM    1  C1  UNL     1     -33.664  17.156  -1.594  1.00 20.00     0.012 C 
HETATM    2  C2  UNL     1     -33.323  16.538  -2.564  1.00 20.00    -0.110 C 
HETATM    3  C10 UNL     1     -32.898  15.785  -3.750  1.00 20.00     0.171 C 
ENDROOT
BRANCH   3   4
HETATM    4  C3  UNL     1     -34.042  15.035  -4.402  1.00 20.00     0.144 C 
HETATM    5  O11 UNL     1     -34.449  13.946  -4.000  1.00 20.00    -0.297 OA
BRANCH   4   6
HETATM    6  C7  UNL     1     -34.671  15.698  -5.589  1.00 20.00     0.087 C 
HETATM    7  C6  UNL     1     -35.631  16.810  -5.152  1.00 20.00     0.046 C 
HETATM    8  C8  UNL     1     -36.957  16.332  -5.743  1.00 20.00     0.122 C 
HETATM    9  C4  UNL     1     -36.949  16.449  -7.266  1.00 20.00     0.034 C 
HETATM   10  O12 UNL     1     -36.841  14.901  -5.570  1.00 20.00    -0.380 OA
HETATM   11  C5  UNL     1     -36.016  15.307  -7.673  1.00 20.00     0.035 C 
HETATM   12  C9  UNL     1     -35.611  14.731  -6.317  1.00 20.00     0.133 C 
ENDBRANCH   4   6
ENDBRANCH   3   4
TORSDOF 2
ENDMDL
MODEL 4
REMARK VINA RESULT:      -4.4      1.027      1.655
REMARK  2 active torsions:
REMARK  status: ('A' for Active; 'I' for Inactive)
REMARK    1  A    between atoms: C3_3  and  C7_7 
REMARK    2  A    between atoms: C3_3  and  C10_10 
ROOT
HETATM    1  C1  UNL     1     -32.553   9.133   0.648  1.00 20.00     0.012 C 
HETATM    2  C2  UNL     1     -32.382   8.439   1.613  1.00 20.00    -0.110 C 
HETATM    3  C10 UNL     1     -32.173   7.586   2.788  1.00 20.00     0.171 C 
ENDROOT
BRANCH   3   4
HETATM    4  C3  UNL     1     -32.653   8.234   4.070  1.00 20.00     0.144 C 
HETATM    5  O11 UNL     1     -32.112   9.219   4.570  1.00 20.00    -0.297 OA
BRANCH   4   6
HETATM    6  C7  UNL     1     -33.849   7.605   4.718  1.00 20.00     0.087 C 
HETATM    7  C6  UNL     1     -33.590   7.335   6.204  1.00 20.00     0.046 C 
HETATM    8  C8  UNL     1     -33.766   5.820   6.286  1.00 20.00     0.122 C 
HETATM    9  C4  UNL     1     -35.233   5.430   6.106  1.00 20.00     0.034 C 
HETATM   10  O12 UNL     1     -33.207   5.404   5.019  1.00 20.00    -0.380 OA
HETATM   11  C5  UNL     1     -35.449   5.673   4.610  1.00 20.00     0.035 C 
HETATM   12  C9  UNL     1     -34.080   6.191   4.172  1.00 20.00     0.133 C 
ENDBRANCH   4   6
ENDBRANCH   3   4
TORSDOF 2
ENDMDL
MODEL 5
REMARK VINA RESULT:      -4.2     10.135     11.208
REMARK  2 active torsions:
REMARK  status: ('A' for Active; 'I' for Inactive)
REMARK    1  A    between atoms: C3_3  and  C7_7 
REMARK    2  A    between atoms: C3_3  and  C10_10 
ROOT
HETATM    1  C1  UNL     1     -39.178  11.749   4.796  1.00 20.00     0.012 C 
HETATM    2  C2  UNL     1     -40.072  12.511   5.041  1.00 20.00    -0.110 C 
HETATM    3  C10 UNL     1     -41.163  13.447   5.335  1.00 20.00     0.171 C 
ENDROOT
BRANCH   3   4
HETATM    4  C3  UNL     1     -41.753  13.237   6.715  1.00 20.00     0.144 C 
HETATM    5  O11 UNL     1     -42.156  12.146   7.115  1.00 20.00    -0.297 OA
BRANCH   4   6
HETATM    6  C7  UNL     1     -41.824  14.451   7.591  1.00 20.00     0.087 C 
HETATM    7  C6  UNL     1     -40.479  15.186   7.620  1.00 20.00     0.046 C 
HETATM    8  C8  UNL     1     -40.125  15.137   9.105  1.00 20.00     0.122 C 
HETATM    9  C4  UNL     1     -41.045  16.050   9.916  1.00 20.00     0.034 C 
HETATM   10  O12 UNL     1     -40.629  13.833   9.471  1.00 20.00    -0.380 OA
HETATM   11  C5  UNL     1     -42.364  15.273   9.901  1.00 20.00     0.035 C 
HETATM   12  C9  UNL     1     -42.002  14.050   9.060  1.00 20.00     0.133 C 
ENDBRANCH   4   6
ENDBRANCH   3   4
TORSDOF 2
ENDMDL
MODEL 6
REMARK VINA RESULT:      -4.1     11.770     12.873
REMARK  2 active torsions:
REMARK  status: ('A' for Active; 'I' for Inactive)
REMARK    1  A    between atoms: C3_3  and  C7_7 
REMARK    2  A    between atoms: C3_3  and  C10_10 
ROOT
HETATM    1  C1  UNL     1     -30.408  18.548   2.190  1.00 20.00     0.012 C 
HETATM    2  C2  UNL     1     -31.436  18.503   1.571  1.00 20.00    -0.110 C 
HETATM    3  C10 UNL     1     -32.695  18.445   0.821  1.00 20.00     0.171 C 
ENDROOT
BRANCH   3   4
HETATM    4  C3  UNL     1     -32.482  18.508  -0.678  1.00 20.00     0.144 C 
HETATM    5  O11 UNL     1     -31.430  18.887  -1.193  1.00 20.00    -0.297 OA
BRANCH   4   6
HETATM    6  C7  UNL     1     -33.639  18.075  -1.526  1.00 20.00     0.087 C 
HETATM    7  C6  UNL     1     -33.300  16.801  -2.307  1.00 20.00     0.046 C 
HETATM    8  C8  UNL     1     -33.466  17.264  -3.754  1.00 20.00     0.122 C 
HETATM    9  C4  UNL     1     -34.939  17.502  -4.085  1.00 20.00     0.034 C 
HETATM   10  O12 UNL     1     -32.973  18.621  -3.672  1.00 20.00    -0.380 OA
HETATM   11  C5  UNL     1     -35.235  18.797  -3.325  1.00 20.00     0.035 C 
HETATM   12  C9  UNL     1     -33.893  19.083  -2.652  1.00 20.00     0.133 C 
ENDBRANCH   4   6
ENDBRANCH   3   4
TORSDOF 2
ENDMDL
MODEL 7
REMARK VINA RESULT:      -4.1      9.974     10.961
REMARK  2 active torsions:
REMARK  status: ('A' for Active; 'I' for Inactive)
REMARK    1  A    between atoms: C3_3  and  C7_7 
REMARK    2  A    between atoms: C3_3  and  C10_10 
ROOT
HETATM    1  C1  UNL     1     -38.886  11.652   3.954  1.00 20.00     0.012 C 
HETATM    2  C2  UNL     1     -39.615  11.858   4.885  1.00 20.00    -0.110 C 
HETATM    3  C10 UNL     1     -40.505  12.102   6.025  1.00 20.00     0.171 C 
ENDROOT
BRANCH   3   4
HETATM    4  C3  UNL     1     -41.292  13.390   5.884  1.00 20.00     0.144 C 
HETATM    5  O11 UNL     1     -41.591  13.880   4.795  1.00 20.00    -0.297 OA
BRANCH   4   6
HETATM    6  C7  UNL     1     -41.700  14.055   7.162  1.00 20.00     0.087 C 
HETATM    7  C6  UNL     1     -42.266  15.454   6.896  1.00 20.00     0.046 C 
HETATM    8  C8  UNL     1     -41.308  16.339   7.694  1.00 20.00     0.122 C 
HETATM    9  C4  UNL     1     -41.517  16.153   9.196  1.00 20.00     0.034 C 
HETATM   10  O12 UNL     1     -40.055  15.646   7.495  1.00 20.00    -0.380 OA
HETATM   11  C5  UNL     1     -40.910  14.769   9.436  1.00 20.00     0.035 C 
HETATM   12  C9  UNL     1     -40.474  14.365   8.028  1.00 20.00     0.133 C 
ENDBRANCH   4   6
ENDBRANCH   3   4
TORSDOF 2
ENDMDL
MODEL 8
REMARK VINA RESULT:      -4.0     11.955     13.286
REMARK  2 active torsions:
REMARK  status: ('A' for Active; 'I' for Inactive)
REMARK    1  A    between atoms: C3_3  and  C7_7 
REMARK    2  A    between atoms: C3_3  and  C10_10 
ROOT
HETATM    1  C1  UNL     1     -33.729  17.878  -0.506  1.00 20.00     0.012 C 
HETATM    2  C2  UNL     1     -33.542  17.268  -1.523  1.00 20.00    -0.110 C 
HETATM    3  C10 UNL     1     -33.309  16.519  -2.762  1.00 20.00     0.171 C 
ENDROOT
BRANCH   3   4
HETATM    4  C3  UNL     1     -33.906  17.202  -3.976  1.00 20.00     0.144 C 
HETATM    5  O11 UNL     1     -33.610  18.347  -4.317  1.00 20.00    -0.297 OA
BRANCH   4   6
HETATM    6  C7  UNL     1     -34.898  16.400  -4.761  1.00 20.00     0.087 C 
HETATM    7  C6  UNL     1     -34.296  15.060  -5.199  1.00 20.00     0.046 C 
HETATM    8  C8  UNL     1     -34.394  15.152  -6.721  1.00 20.00     0.122 C 
HETATM    9  C4  UNL     1     -35.848  15.055  -7.181  1.00 20.00     0.034 C 
HETATM   10  O12 UNL     1     -34.125  16.556  -6.934  1.00 20.00    -0.380 OA
HETATM   11  C5  UNL     1     -36.409  16.416  -6.766  1.00 20.00     0.035 C 
HETATM   12  C9  UNL     1     -35.197  17.071  -6.106  1.00 20.00     0.133 C 
ENDBRANCH   4   6
ENDBRANCH   3   4
TORSDOF 2
ENDMDL
MODEL 9
REMARK VINA RESULT:      -4.0     11.845     12.963
REMARK  2 active torsions:
REMARK  status: ('A' for Active; 'I' for Inactive)
REMARK    1  A    between atoms: C3_3  and  C7_7 
REMARK    2  A    between atoms: C3_3  and  C10_10 
ROOT
HETATM    1  C1  UNL     1     -32.473  18.139  -0.792  1.00 20.00     0.012 C 
HETATM    2  C2  UNL     1     -32.845  17.488  -1.730  1.00 20.00    -0.110 C 
HETATM    3  C10 UNL     1     -33.293  16.688  -2.875  1.00 20.00     0.171 C 
ENDROOT
BRANCH   3   4
HETATM    4  C3  UNL     1     -34.419  17.351  -3.643  1.00 20.00     0.144 C 
HETATM    5  O11 UNL     1     -35.173  18.186  -3.144  1.00 20.00    -0.297 OA
BRANCH   4   6
HETATM    6  C7  UNL     1     -34.575  16.933  -5.073  1.00 20.00     0.087 C 
HETATM    7  C6  UNL     1     -36.053  16.901  -5.477  1.00 20.00     0.046 C 
HETATM    8  C8  UNL     1     -36.239  15.439  -5.881  1.00 20.00     0.122 C 
HETATM    9  C4  UNL     1     -35.508  15.138  -7.189  1.00 20.00     0.034 C 
HETATM   10  O12 UNL     1     -35.386  14.773  -4.922  1.00 20.00    -0.380 OA
HETATM   11  C5  UNL     1     -34.043  15.138  -6.746  1.00 20.00     0.035 C 
HETATM   12  C9  UNL     1     -34.161  15.469  -5.259  1.00 20.00     0.133 C 
ENDBRANCH   4   6
ENDBRANCH   3   4
TORSDOF 2
ENDMDL
