MODEL 1
REMARK VINA RESULT:      -3.9      0.000      0.000
REMARK  4 active torsions:
REMARK  status: ('A' for Active; 'I' for Inactive)
REMARK    1  A    between atoms: C1_1  and  C3_3 
REMARK    2  A    between atoms: C1_1  and  C7_7 
REMARK    3  A    between atoms: C7_7  and  C8_8 
REMARK    4  A    between atoms: C8_8  and  S10_10 
ROOT
HETATM    1  C1  UNL     1     -32.539   8.379   4.557  1.00 20.00     0.132 C 
HETATM    2  O9  UNL     1     -32.044   9.390   5.055  1.00 20.00    -0.298 OA
ENDROOT
BRANCH   1   3
HETATM    3  C3  UNL     1     -31.828   7.616   3.471  1.00 20.00     0.059 A 
HETATM    4  C2  UNL     1     -32.644   6.759   2.567  1.00 20.00     0.017 A 
HETATM    5  C4  UNL     1     -32.009   8.017   2.046  1.00 20.00    -0.007 A 
HETATM    6  C5  UNL     1     -32.864   9.161   1.619  1.00 20.00     0.011 C 
ENDBRANCH   1   3
BRANCH   1   7
HETATM    7  C7  UNL     1     -33.896   7.866   5.003  1.00 20.00     0.088 C 
BRANCH   7   8
HETATM    8  C8  UNL     1     -33.858   7.125   6.333  1.00 20.00     0.081 C 
BRANCH   8   9
HETATM    9  S10 UNL     1     -34.538   5.444   6.200  1.00 20.00    -0.173 SA
HETATM   10  C6  UNL     1     -35.351   5.621   4.596  1.00 20.00     0.089 C 
ENDBRANCH   8   9
ENDBRANCH   7   8
ENDBRANCH   1   7
TORSDOF 4
ENDMDL
MODEL 2
REMARK VINA RESULT:      -3.6      2.313      4.243
REMARK  4 active torsions:
REMARK  status: ('A' for Active; 'I' for Inactive)
REMARK    1  A    between atoms: C1_1  and  C3_3 
REMARK    2  A    between atoms: C1_1  and  C7_7 
REMARK    3  A    between atoms: C7_7  and  C8_8 
REMARK    4  A    between atoms: C8_8  and  S10_10 
ROOT
HETATM    1  C1  UNL     1     -33.647   7.666   5.003  1.00 20.00     0.132 C 
HETATM    2  O9  UNL     1     -33.974   8.200   6.063  1.00 20.00    -0.298 OA
ENDROOT
BRANCH   1   3
HETATM    3  C3  UNL     1     -34.529   6.640   4.341  1.00 20.00     0.059 A 
HETATM    4  C2  UNL     1     -33.915   5.346   3.933  1.00 20.00     0.017 A 
HETATM    5  C4  UNL     1     -34.889   5.393   5.076  1.00 20.00    -0.007 A 
HETATM    6  C5  UNL     1     -34.428   5.095   6.461  1.00 20.00     0.011 C 
ENDBRANCH   1   3
BRANCH   1   7
HETATM    7  C7  UNL     1     -32.334   8.006   4.323  1.00 20.00     0.088 C 
BRANCH   7   8
HETATM    8  C8  UNL     1     -32.493   8.929   3.121  1.00 20.00     0.081 C 
BRANCH   8   9
HETATM    9  S10 UNL     1     -32.189   8.065   1.550  1.00 20.00    -0.173 SA
HETATM   10  C6  UNL     1     -32.733   9.372   0.427  1.00 20.00     0.089 C 
ENDBRANCH   8   9
ENDBRANCH   7   8
ENDBRANCH   1   7
TORSDOF 4
ENDMDL
MODEL 3
REMARK VINA RESULT:      -3.6     11.648     12.402
REMARK  4 active torsions:
REMARK  status: ('A' for Active; 'I' for Inactive)
REMARK    1  A    between atoms: C1_1  and  C3_3 
REMARK    2  A    between atoms: C1_1  and  C7_7 
REMARK    3  A    between atoms: C7_7  and  C8_8 
REMARK    4  A    between atoms: C8_8  and  S10_10 
ROOT
HETATM    1  C1  UNL     1     -32.928  18.478  -2.009  1.00 20.00     0.132 C 
HETATM    2  O9  UNL     1     -32.298  19.185  -2.795  1.00 20.00    -0.298 OA
ENDROOT
BRANCH   1   3
HETATM    3  C3  UNL     1     -33.426  19.022  -0.696  1.00 20.00     0.059 A 
HETATM    4  C2  UNL     1     -33.680  18.059   0.411  1.00 20.00     0.017 A 
HETATM    5  C4  UNL     1     -32.526  19.018   0.493  1.00 20.00    -0.007 A 
HETATM    6  C5  UNL     1     -31.127  18.504   0.461  1.00 20.00     0.011 C 
ENDBRANCH   1   3
BRANCH   1   7
HETATM    7  C7  UNL     1     -33.218  17.021  -2.320  1.00 20.00     0.088 C 
BRANCH   7   8
HETATM    8  C8  UNL     1     -33.582  16.772  -3.778  1.00 20.00     0.081 C 
BRANCH   8   9
HETATM    9  S10 UNL     1     -33.428  15.017  -4.230  1.00 20.00    -0.173 SA
HETATM   10  C6  UNL     1     -34.137  15.115  -5.889  1.00 20.00     0.089 C 
ENDBRANCH   8   9
ENDBRANCH   7   8
ENDBRANCH   1   7
TORSDOF 4
ENDMDL
MODEL 4
REMARK VINA RESULT:      -3.4      2.223      4.218
REMARK  4 active torsions:
REMARK  status: ('A' for Active; 'I' for Inactive)
REMARK    1  A    between atoms: C1_1  and  C3_3 
REMARK    2  A    between atoms: C1_1  and  C7_7 
REMARK    3  A    between atoms: C7_7  and  C8_8 
REMARK    4  A    between atoms: C8_8  and  S10_10 
ROOT
HETATM    1  C1  UNL     1     -33.336   7.878   5.375  1.00 20.00     0.132 C 
HETATM    2  O9  UNL     1     -34.064   8.826   5.668  1.00 20.00    -0.298 OA
ENDROOT
BRANCH   1   3
HETATM    3  C3  UNL     1     -33.500   6.535   6.037  1.00 20.00     0.059 A 
HETATM    4  C2  UNL     1     -34.753   6.277   6.798  1.00 20.00     0.017 A 
HETATM    5  C4  UNL     1     -34.496   5.564   5.501  1.00 20.00    -0.007 A 
HETATM    6  C5  UNL     1     -35.356   5.842   4.315  1.00 20.00     0.011 C 
ENDBRANCH   1   3
BRANCH   1   7
HETATM    7  C7  UNL     1     -32.232   8.023   4.345  1.00 20.00     0.088 C 
BRANCH   7   8
HETATM    8  C8  UNL     1     -32.635   8.856   3.135  1.00 20.00     0.081 C 
BRANCH   8   9
HETATM    9  S10 UNL     1     -32.198   8.043   1.568  1.00 20.00    -0.173 SA
HETATM   10  C6  UNL     1     -32.708   9.360   0.442  1.00 20.00     0.089 C 
ENDBRANCH   8   9
ENDBRANCH   7   8
ENDBRANCH   1   7
TORSDOF 4
ENDMDL
MODEL 5
REMARK VINA RESULT:      -3.3     11.572     12.504
REMARK  4 active torsions:
REMARK  status: ('A' for Active; 'I' for Inactive)
REMARK    1  A    between atoms: C1_1  and  C3_3 
REMARK    2  A    between atoms: C1_1  and  C7_7 
REMARK    3  A    between atoms: C7_7  and  C8_8 
REMARK    4  A    between atoms: C8_8  and  S10_10 
ROOT
HETATM    1  C1  UNL     1     -33.955  14.851  -4.558  1.00 20.00     0.132 C 
HETATM    2  O9  UNL     1     -34.485  13.879  -4.019  1.00 20.00    -0.298 OA
ENDROOT
BRANCH   1   3
HETATM    3  C3  UNL     1     -34.271  15.221  -5.984  1.00 20.00     0.059 A 
HETATM    4  C2  UNL     1     -35.597  14.823  -6.533  1.00 20.00     0.017 A 
HETATM    5  C4  UNL     1     -35.293  16.269  -6.265  1.00 20.00    -0.007 A 
HETATM    6  C5  UNL     1     -36.033  17.001  -5.198  1.00 20.00     0.011 C 
ENDBRANCH   1   3
BRANCH   1   7
HETATM    7  C7  UNL     1     -32.949  15.711  -3.817  1.00 20.00     0.088 C 
BRANCH   7   8
HETATM    8  C8  UNL     1     -33.538  16.435  -2.613  1.00 20.00     0.081 C 
BRANCH   8   9
HETATM    9  S10 UNL     1     -33.143  18.210  -2.623  1.00 20.00    -0.173 SA
HETATM   10  C6  UNL     1     -32.176  18.269  -1.098  1.00 20.00     0.089 C 
ENDBRANCH   8   9
ENDBRANCH   7   8
ENDBRANCH   1   7
TORSDOF 4
ENDMDL
MODEL 6
REMARK VINA RESULT:      -3.3      2.387      4.442
REMARK  4 active torsions:
REMARK  status: ('A' for Active; 'I' for Inactive)
REMARK    1  A    between atoms: C1_1  and  C3_3 
REMARK    2  A    between atoms: C1_1  and  C7_7 
REMARK    3  A    between atoms: C7_7  and  C8_8 
REMARK    4  A    between atoms: C8_8  and  S10_10 
ROOT
HETATM    1  C1  UNL     1     -34.871   5.519   4.497  1.00 20.00     0.132 C 
HETATM    2  O9  UNL     1     -35.800   5.993   3.842  1.00 20.00    -0.298 OA
ENDROOT
BRANCH   1   3
HETATM    3  C3  UNL     1     -34.856   5.598   6.001  1.00 20.00     0.059 A 
HETATM    4  C2  UNL     1     -33.539   5.532   6.692  1.00 20.00     0.017 A 
HETATM    5  C4  UNL     1     -34.317   6.817   6.670  1.00 20.00    -0.007 A 
HETATM    6  C5  UNL     1     -33.788   7.995   5.926  1.00 20.00     0.011 C 
ENDBRANCH   1   3
BRANCH   1   7
HETATM    7  C7  UNL     1     -33.692   4.849   3.817  1.00 20.00     0.088 C 
BRANCH   7   8
HETATM    8  C8  UNL     1     -33.144   5.637   2.634  1.00 20.00     0.081 C 
BRANCH   8   9
HETATM    9  S10 UNL     1     -32.269   7.141   3.161  1.00 20.00    -0.173 SA
HETATM   10  C6  UNL     1     -32.241   7.996   1.570  1.00 20.00     0.089 C 
ENDBRANCH   8   9
ENDBRANCH   7   8
ENDBRANCH   1   7
TORSDOF 4
ENDMDL
MODEL 7
REMARK VINA RESULT:      -3.2     11.679     12.516
REMARK  4 active torsions:
REMARK  status: ('A' for Active; 'I' for Inactive)
REMARK    1  A    between atoms: C1_1  and  C3_3 
REMARK    2  A    between atoms: C1_1  and  C7_7 
REMARK    3  A    between atoms: C7_7  and  C8_8 
REMARK    4  A    between atoms: C8_8  and  S10_10 
ROOT
HETATM    1  C1  UNL     1     -33.449  16.733  -3.444  1.00 20.00     0.132 C 
HETATM    2  O9  UNL     1     -33.391  17.656  -4.257  1.00 20.00    -0.298 OA
ENDROOT
BRANCH   1   3
HETATM    3  C3  UNL     1     -33.174  16.964  -1.981  1.00 20.00     0.059 A 
HETATM    4  C2  UNL     1     -32.553  18.257  -1.581  1.00 20.00     0.017 A 
HETATM    5  C4  UNL     1     -33.983  17.963  -1.227  1.00 20.00    -0.007 A 
HETATM    6  C5  UNL     1     -35.081  18.761  -1.842  1.00 20.00     0.011 C 
ENDBRANCH   1   3
BRANCH   1   7
HETATM    7  C7  UNL     1     -33.782  15.320  -3.881  1.00 20.00     0.088 C 
BRANCH   7   8
HETATM    8  C8  UNL     1     -34.023  15.187  -5.379  1.00 20.00     0.081 C 
BRANCH   8   9
HETATM    9  S10 UNL     1     -35.725  14.672  -5.756  1.00 20.00    -0.173 SA
HETATM   10  C6  UNL     1     -36.533  16.274  -5.545  1.00 20.00     0.089 C 
ENDBRANCH   8   9
ENDBRANCH   7   8
ENDBRANCH   1   7
TORSDOF 4
ENDMDL
MODEL 8
REMARK VINA RESULT:      -3.2     11.805     13.371
REMARK  4 active torsions:
REMARK  status: ('A' for Active; 'I' for Inactive)
REMARK    1  A    between atoms: C1_1  and  C3_3 
REMARK    2  A    between atoms: C1_1  and  C7_7 
REMARK    3  A    between atoms: C7_7  and  C8_8 
REMARK    4  A    between atoms: C8_8  and  S10_10 
ROOT
HETATM    1  C1  UNL     1     -34.745  17.634  -4.438  1.00 20.00     0.132 C 
HETATM    2  O9  UNL     1     -35.693  18.010  -3.747  1.00 20.00    -0.298 OA
ENDROOT
BRANCH   1   3
HETATM    3  C3  UNL     1     -33.436  17.230  -3.813  1.00 20.00     0.059 A 
HETATM    4  C2  UNL     1     -33.466  16.633  -2.449  1.00 20.00     0.017 A 
HETATM    5  C4  UNL     1     -33.117  15.784  -3.638  1.00 20.00    -0.007 A 
HETATM    6  C5  UNL     1     -34.031  14.686  -4.063  1.00 20.00     0.011 C 
ENDBRANCH   1   3
BRANCH   1   7
HETATM    7  C7  UNL     1     -34.848  17.578  -5.950  1.00 20.00     0.088 C 
BRANCH   7   8
HETATM    8  C8  UNL     1     -36.131  16.924  -6.448  1.00 20.00     0.081 C 
BRANCH   8   9
HETATM    9  S10 UNL     1     -35.799  15.461  -7.475  1.00 20.00    -0.173 SA
HETATM   10  C6  UNL     1     -34.016  15.678  -7.666  1.00 20.00     0.089 C 
ENDBRANCH   8   9
ENDBRANCH   7   8
ENDBRANCH   1   7
TORSDOF 4
ENDMDL
MODEL 9
REMARK VINA RESULT:      -3.2     10.374     11.281
REMARK  4 active torsions:
REMARK  status: ('A' for Active; 'I' for Inactive)
REMARK    1  A    between atoms: C1_1  and  C3_3 
REMARK    2  A    between atoms: C1_1  and  C7_7 
REMARK    3  A    between atoms: C7_7  and  C8_8 
REMARK    4  A    between atoms: C8_8  and  S10_10 
ROOT
HETATM    1  C1  UNL     1     -40.625  14.051   7.808  1.00 20.00     0.132 C 
HETATM    2  O9  UNL     1     -40.236  13.589   8.881  1.00 20.00    -0.298 OA
ENDROOT
BRANCH   1   3
HETATM    3  C3  UNL     1     -41.371  13.198   6.816  1.00 20.00     0.059 A 
HETATM    4  C2  UNL     1     -41.190  13.487   5.367  1.00 20.00     0.017 A 
HETATM    5  C4  UNL     1     -40.623  12.231   5.964  1.00 20.00    -0.007 A 
HETATM    6  C5  UNL     1     -39.146  12.043   6.040  1.00 20.00     0.011 C 
ENDBRANCH   1   3
BRANCH   1   7
HETATM    7  C7  UNL     1     -40.355  15.495   7.430  1.00 20.00     0.088 C 
BRANCH   7   8
HETATM    8  C8  UNL     1     -40.749  16.491   8.513  1.00 20.00     0.081 C 
BRANCH   8   9
HETATM    9  S10 UNL     1     -42.542  16.789   8.548  1.00 20.00    -0.173 SA
HETATM   10  C6  UNL     1     -42.829  16.855   6.765  1.00 20.00     0.089 C 
ENDBRANCH   8   9
ENDBRANCH   7   8
ENDBRANCH   1   7
TORSDOF 4
ENDMDL
