MODEL 1
REMARK VINA RESULT:      -4.2      0.000      0.000
REMARK  1 active torsions:
REMARK  status: ('A' for Active; 'I' for Inactive)
REMARK    1  A    between atoms: C4_4  and  C5_5 
ROOT
HETATM    1  C1  UNL     1     -34.753   6.006   6.462  1.00 20.00     0.011 C 
HETATM    2  C2  UNL     1     -33.693   7.075   6.240  1.00 20.00     0.017 C 
HETATM    3  C3  UNL     1     -34.509   4.935   5.414  1.00 20.00     0.074 C 
HETATM    4  C4  UNL     1     -33.745   7.432   4.758  1.00 20.00     0.061 C 
HETATM    5  S6  UNL     1     -34.037   5.842   3.914  1.00 20.00    -0.163 SA
ENDROOT
BRANCH   4   6
HETATM    6  C5  UNL     1     -32.471   8.098   4.268  1.00 20.00     0.129 C 
HETATM    7 CL7  UNL     1     -32.086   7.559   2.621  1.00 20.00    -0.129 Cl
ENDBRANCH   4   6
TORSDOF 1
ENDMDL
MODEL 2
REMARK VINA RESULT:      -4.1      1.356      1.422
REMARK  1 active torsions:
REMARK  status: ('A' for Active; 'I' for Inactive)
REMARK    1  A    between atoms: C4_4  and  C5_5 
ROOT
HETATM    1  C1  UNL     1     -34.265   6.972   6.636  1.00 20.00     0.011 C 
HETATM    2  C2  UNL     1     -33.234   7.365   5.588  1.00 20.00     0.017 C 
HETATM    3  C3  UNL     1     -34.570   5.502   6.408  1.00 20.00     0.074 C 
HETATM    4  C4  UNL     1     -33.788   6.900   4.244  1.00 20.00     0.061 C 
HETATM    5  S6  UNL     1     -34.577   5.297   4.605  1.00 20.00    -0.163 SA
ENDROOT
BRANCH   4   6
HETATM    6  C5  UNL     1     -32.713   6.766   3.180  1.00 20.00     0.129 C 
HETATM    7 CL7  UNL     1     -32.768   5.150   2.447  1.00 20.00    -0.129 Cl
ENDBRANCH   4   6
TORSDOF 1
ENDMDL
MODEL 3
REMARK VINA RESULT:      -4.0      2.482      3.717
REMARK  1 active torsions:
REMARK  status: ('A' for Active; 'I' for Inactive)
REMARK    1  A    between atoms: C4_4  and  C5_5 
ROOT
HETATM    1  C1  UNL     1     -32.268   7.306   2.794  1.00 20.00     0.011 C 
HETATM    2  C2  UNL     1     -32.838   5.934   3.122  1.00 20.00     0.017 C 
HETATM    3  C3  UNL     1     -32.150   8.049   4.112  1.00 20.00     0.074 C 
HETATM    4  C4  UNL     1     -34.080   6.178   3.975  1.00 20.00     0.061 C 
HETATM    5  S6  UNL     1     -33.628   7.577   5.054  1.00 20.00    -0.163 SA
ENDROOT
BRANCH   4   6
HETATM    6  C5  UNL     1     -34.487   4.959   4.784  1.00 20.00     0.129 C 
HETATM    7 CL7  UNL     1     -34.442   5.326   6.520  1.00 20.00    -0.129 Cl
ENDBRANCH   4   6
TORSDOF 1
ENDMDL
MODEL 4
REMARK VINA RESULT:      -4.0      1.116      1.116
REMARK  1 active torsions:
REMARK  status: ('A' for Active; 'I' for Inactive)
REMARK    1  A    between atoms: C4_4  and  C5_5 
ROOT
HETATM    1  C1  UNL     1     -34.752   6.040   6.405  1.00 20.00     0.011 C 
HETATM    2  C2  UNL     1     -33.727   7.105   6.044  1.00 20.00     0.017 C 
HETATM    3  C3  UNL     1     -34.449   4.837   5.530  1.00 20.00     0.074 C 
HETATM    4  C4  UNL     1     -33.763   7.238   4.524  1.00 20.00     0.061 C 
HETATM    5  S6  UNL     1     -33.980   5.531   3.920  1.00 20.00    -0.163 SA
ENDROOT
BRANCH   4   6
HETATM    6  C5  UNL     1     -32.504   7.873   3.959  1.00 20.00     0.129 C 
HETATM    7 CL7  UNL     1     -32.037   9.286   4.928  1.00 20.00    -0.129 Cl
ENDBRANCH   4   6
TORSDOF 1
ENDMDL
MODEL 5
REMARK VINA RESULT:      -3.6      1.716      2.655
REMARK  1 active torsions:
REMARK  status: ('A' for Active; 'I' for Inactive)
REMARK    1  A    between atoms: C4_4  and  C5_5 
ROOT
HETATM    1  C1  UNL     1     -33.756   8.099   5.261  1.00 20.00     0.011 C 
HETATM    2  C2  UNL     1     -33.409   7.049   4.215  1.00 20.00     0.017 C 
HETATM    3  C3  UNL     1     -33.825   7.373   6.592  1.00 20.00     0.074 C 
HETATM    4  C4  UNL     1     -34.399   5.904   4.410  1.00 20.00     0.061 C 
HETATM    5  S6  UNL     1     -34.598   5.774   6.218  1.00 20.00    -0.163 SA
ENDROOT
BRANCH   4   6
HETATM    6  C5  UNL     1     -33.913   4.598   3.807  1.00 20.00     0.129 C 
HETATM    7 CL7  UNL     1     -32.787   4.914   2.471  1.00 20.00    -0.129 Cl
ENDBRANCH   4   6
TORSDOF 1
ENDMDL
MODEL 6
REMARK VINA RESULT:      -3.4      1.318      1.704
REMARK  1 active torsions:
REMARK  status: ('A' for Active; 'I' for Inactive)
REMARK    1  A    between atoms: C4_4  and  C5_5 
ROOT
HETATM    1  C1  UNL     1     -34.505   4.921   5.104  1.00 20.00     0.011 C 
HETATM    2  C2  UNL     1     -34.087   5.857   3.979  1.00 20.00     0.017 C 
HETATM    3  C3  UNL     1     -34.940   5.805   6.259  1.00 20.00     0.074 C 
HETATM    4  C4  UNL     1     -33.106   6.853   4.591  1.00 20.00     0.061 C 
HETATM    5  S6  UNL     1     -33.779   7.200   6.249  1.00 20.00    -0.163 SA
ENDROOT
BRANCH   4   6
HETATM    6  C5  UNL     1     -32.967   8.122   3.769  1.00 20.00     0.129 C 
HETATM    7 CL7  UNL     1     -32.162   7.774   2.225  1.00 20.00    -0.129 Cl
ENDBRANCH   4   6
TORSDOF 1
ENDMDL
MODEL 7
REMARK VINA RESULT:      -3.4      2.360      3.518
REMARK  1 active torsions:
REMARK  status: ('A' for Active; 'I' for Inactive)
REMARK    1  A    between atoms: C4_4  and  C5_5 
ROOT
HETATM    1  C1  UNL     1     -32.276   8.437   3.833  1.00 20.00     0.011 C 
HETATM    2  C2  UNL     1     -33.524   8.001   4.586  1.00 20.00     0.017 C 
HETATM    3  C3  UNL     1     -32.281   7.680   2.518  1.00 20.00     0.074 C 
HETATM    4  C4  UNL     1     -33.516   6.475   4.584  1.00 20.00     0.061 C 
HETATM    5  S6  UNL     1     -32.895   6.023   2.930  1.00 20.00    -0.163 SA
ENDROOT
BRANCH   4   6
HETATM    6  C5  UNL     1     -34.888   5.879   4.846  1.00 20.00     0.129 C 
HETATM    7 CL7  UNL     1     -34.977   5.240   6.501  1.00 20.00    -0.129 Cl
ENDBRANCH   4   6
TORSDOF 1
ENDMDL
MODEL 8
REMARK VINA RESULT:      -3.2     15.816     16.665
REMARK  1 active torsions:
REMARK  status: ('A' for Active; 'I' for Inactive)
REMARK    1  A    between atoms: C4_4  and  C5_5 
ROOT
HETATM    1  C1  UNL     1     -22.895  19.035   9.467  1.00 20.00     0.011 C 
HETATM    2  C2  UNL     1     -24.183  18.339   9.883  1.00 20.00     0.017 C 
HETATM    3  C3  UNL     1     -21.808  18.516  10.391  1.00 20.00     0.074 C 
HETATM    4  C4  UNL     1     -24.307  18.531  11.392  1.00 20.00     0.061 C 
HETATM    5  S6  UNL     1     -22.602  18.368  12.017  1.00 20.00    -0.163 SA
ENDROOT
BRANCH   4   6
HETATM    6  C5  UNL     1     -25.237  17.519  12.039  1.00 20.00     0.129 C 
HETATM    7 CL7  UNL     1     -24.554  15.885  11.917  1.00 20.00    -0.129 Cl
ENDBRANCH   4   6
TORSDOF 1
ENDMDL
MODEL 9
REMARK VINA RESULT:      -3.1      1.508      1.982
REMARK  1 active torsions:
REMARK  status: ('A' for Active; 'I' for Inactive)
REMARK    1  A    between atoms: C4_4  and  C5_5 
ROOT
HETATM    1  C1  UNL     1     -34.624   5.398   6.217  1.00 20.00     0.011 C 
HETATM    2  C2  UNL     1     -34.537   5.093   4.728  1.00 20.00     0.017 C 
HETATM    3  C3  UNL     1     -34.462   6.901   6.357  1.00 20.00     0.074 C 
HETATM    4  C4  UNL     1     -33.269   5.775   4.223  1.00 20.00     0.061 C 
HETATM    5  S6  UNL     1     -33.209   7.357   5.127  1.00 20.00    -0.163 SA
ENDROOT
BRANCH   4   6
HETATM    6  C5  UNL     1     -33.276   5.991   2.720  1.00 20.00     0.129 C 
HETATM    7 CL7  UNL     1     -32.214   7.345   2.285  1.00 20.00    -0.129 Cl
ENDBRANCH   4   6
TORSDOF 1
ENDMDL
