MODEL 1
REMARK VINA RESULT:      -3.8      0.000      0.000
REMARK  0 active torsions:
REMARK  status: ('A' for Active; 'I' for Inactive)
ROOT
HETATM    1  C1  UNL     1     -31.794  18.479  -0.772  1.00 20.00     0.087 C 
HETATM    2  C2  UNL     1     -33.186  16.397  -2.642  1.00 20.00     0.029 C 
HETATM    3  C3  UNL     1     -33.702  16.999  -1.336  1.00 20.00     0.045 C 
HETATM    4  C4  UNL     1     -33.464  17.332  -3.810  1.00 20.00     0.167 C 
HETATM    5  C5  UNL     1     -33.456  19.263  -2.426  1.00 20.00     0.208 C 
HETATM    6  C6  UNL     1     -33.219  18.444  -1.152  1.00 20.00     0.146 C 
HETATM    7  N7  UNL     1     -30.674  18.506  -0.473  1.00 20.00    -0.195 NA
HETATM    8  O8  UNL     1     -32.893  18.618  -3.574  1.00 20.00    -0.388 OA
HETATM    9 CL9  UNL     1     -34.110  19.198   0.210  1.00 20.00    -0.101 Cl
ENDROOT
TORSDOF 0
ENDMDL
MODEL 2
REMARK VINA RESULT:      -3.6      4.354      5.392
REMARK  0 active torsions:
REMARK  status: ('A' for Active; 'I' for Inactive)
ROOT
HETATM    1  C1  UNL     1     -34.151  15.188  -6.502  1.00 20.00     0.087 C 
HETATM    2  C2  UNL     1     -34.099  17.601  -4.516  1.00 20.00     0.029 C 
HETATM    3  C3  UNL     1     -35.277  16.705  -4.897  1.00 20.00     0.045 C 
HETATM    4  C4  UNL     1     -33.258  16.947  -3.429  1.00 20.00     0.167 C 
HETATM    5  C5  UNL     1     -33.898  14.754  -4.080  1.00 20.00     0.208 C 
HETATM    6  C6  UNL     1     -34.821  15.270  -5.190  1.00 20.00     0.146 C 
HETATM    7  N7  UNL     1     -33.624  15.123  -7.533  1.00 20.00    -0.195 NA
HETATM    8  O8  UNL     1     -32.812  15.657  -3.844  1.00 20.00    -0.388 OA
HETATM    9 CL9  UNL     1     -36.259  14.203  -5.306  1.00 20.00    -0.101 Cl
ENDROOT
TORSDOF 0
ENDMDL
MODEL 3
REMARK VINA RESULT:      -3.6      5.316      5.879
REMARK  0 active torsions:
REMARK  status: ('A' for Active; 'I' for Inactive)
ROOT
HETATM    1  C1  UNL     1     -35.340  14.077  -4.712  1.00 20.00     0.087 C 
HETATM    2  C2  UNL     1     -36.601  16.301  -6.510  1.00 20.00     0.029 C 
HETATM    3  C3  UNL     1     -35.733  16.462  -5.262  1.00 20.00     0.045 C 
HETATM    4  C4  UNL     1     -35.734  16.078  -7.740  1.00 20.00     0.167 C 
HETATM    5  C5  UNL     1     -33.962  15.132  -6.473  1.00 20.00     0.208 C 
HETATM    6  C6  UNL     1     -34.700  15.333  -5.145  1.00 20.00     0.146 C 
HETATM    7  N7  UNL     1     -35.844  13.088  -4.371  1.00 20.00    -0.195 NA
HETATM    8  O8  UNL     1     -34.879  14.951  -7.558  1.00 20.00    -0.388 OA
HETATM    9 CL9  UNL     1     -33.513  15.746  -3.865  1.00 20.00    -0.101 Cl
ENDROOT
TORSDOF 0
ENDMDL
MODEL 4
REMARK VINA RESULT:      -3.5     12.309     12.849
REMARK  0 active torsions:
REMARK  status: ('A' for Active; 'I' for Inactive)
ROOT
HETATM    1  C1  UNL     1     -42.327  12.548   6.898  1.00 20.00     0.087 C 
HETATM    2  C2  UNL     1     -39.891  11.885   5.055  1.00 20.00     0.029 C 
HETATM    3  C3  UNL     1     -40.846  13.076   4.982  1.00 20.00     0.045 C 
HETATM    4  C4  UNL     1     -38.792  12.142   6.077  1.00 20.00     0.167 C 
HETATM    5  C5  UNL     1     -40.146  13.625   7.345  1.00 20.00     0.208 C 
HETATM    6  C6  UNL     1     -41.327  13.499   6.376  1.00 20.00     0.146 C 
HETATM    7  N7  UNL     1     -43.112  11.799   7.309  1.00 20.00    -0.195 NA
HETATM    8  O8  UNL     1     -39.351  12.434   7.356  1.00 20.00    -0.388 OA
HETATM    9 CL9  UNL     1     -42.168  15.079   6.259  1.00 20.00    -0.101 Cl
ENDROOT
TORSDOF 0
ENDMDL
MODEL 5
REMARK VINA RESULT:      -3.4      4.512      5.389
REMARK  0 active torsions:
REMARK  status: ('A' for Active; 'I' for Inactive)
ROOT
HETATM    1  C1  UNL     1     -35.610  14.964  -5.451  1.00 20.00     0.087 C 
HETATM    2  C2  UNL     1     -33.584  15.827  -3.233  1.00 20.00     0.029 C 
HETATM    3  C3  UNL     1     -33.294  15.232  -4.610  1.00 20.00     0.045 C 
HETATM    4  C4  UNL     1     -33.805  17.330  -3.334  1.00 20.00     0.167 C 
HETATM    5  C5  UNL     1     -34.548  17.193  -5.586  1.00 20.00     0.208 C 
HETATM    6  C6  UNL     1     -34.334  15.677  -5.647  1.00 20.00     0.146 C 
HETATM    7  N7  UNL     1     -36.615  14.404  -5.296  1.00 20.00    -0.195 NA
HETATM    8  O8  UNL     1     -34.853  17.624  -4.256  1.00 20.00    -0.388 OA
HETATM    9 CL9  UNL     1     -33.766  15.225  -7.288  1.00 20.00    -0.101 Cl
ENDROOT
TORSDOF 0
ENDMDL
MODEL 6
REMARK VINA RESULT:      -3.3     12.630     13.396
REMARK  0 active torsions:
REMARK  status: ('A' for Active; 'I' for Inactive)
ROOT
HETATM    1  C1  UNL     1     -40.233  12.564   6.419  1.00 20.00     0.087 C 
HETATM    2  C2  UNL     1     -40.359  14.737   8.662  1.00 20.00     0.029 C 
HETATM    3  C3  UNL     1     -40.572  14.905   7.158  1.00 20.00     0.045 C 
HETATM    4  C4  UNL     1     -41.638  14.257   9.334  1.00 20.00     0.167 C 
HETATM    5  C5  UNL     1     -42.430  13.208   7.355  1.00 20.00     0.208 C 
HETATM    6  C6  UNL     1     -41.214  13.658   6.537  1.00 20.00     0.146 C 
HETATM    7  N7  UNL     1     -39.461  11.702   6.328  1.00 20.00    -0.195 NA
HETATM    8  O8  UNL     1     -42.096  13.045   8.738  1.00 20.00    -0.388 OA
HETATM    9 CL9  UNL     1     -41.735  14.032   4.861  1.00 20.00    -0.101 Cl
ENDROOT
TORSDOF 0
ENDMDL
MODEL 7
REMARK VINA RESULT:      -3.3      5.419      6.003
REMARK  0 active torsions:
REMARK  status: ('A' for Active; 'I' for Inactive)
ROOT
HETATM    1  C1  UNL     1     -33.977  14.796  -5.168  1.00 20.00     0.087 C 
HETATM    2  C2  UNL     1     -35.960  17.206  -5.003  1.00 20.00     0.029 C 
HETATM    3  C3  UNL     1     -34.816  16.978  -5.991  1.00 20.00     0.045 C 
HETATM    4  C4  UNL     1     -37.212  16.466  -5.454  1.00 20.00     0.167 C 
HETATM    5  C5  UNL     1     -35.967  14.826  -6.637  1.00 20.00     0.208 C 
HETATM    6  C6  UNL     1     -34.626  15.487  -6.298  1.00 20.00     0.146 C 
HETATM    7  N7  UNL     1     -33.468  14.251  -4.279  1.00 20.00    -0.195 NA
HETATM    8  O8  UNL     1     -36.943  15.075  -5.620  1.00 20.00    -0.388 OA
HETATM    9 CL9  UNL     1     -33.509  15.307  -7.690  1.00 20.00    -0.101 Cl
ENDROOT
TORSDOF 0
ENDMDL
MODEL 8
REMARK VINA RESULT:      -3.3     14.885     15.712
REMARK  0 active torsions:
REMARK  status: ('A' for Active; 'I' for Inactive)
ROOT
HETATM    1  C1  UNL     1     -22.575  17.483   8.727  1.00 20.00     0.087 C 
HETATM    2  C2  UNL     1     -22.099  18.520  11.637  1.00 20.00     0.029 C 
HETATM    3  C3  UNL     1     -22.717  19.259  10.450  1.00 20.00     0.045 C 
HETATM    4  C4  UNL     1     -23.141  17.655  12.331  1.00 20.00     0.167 C 
HETATM    5  C5  UNL     1     -24.436  17.413  10.354  1.00 20.00     0.208 C 
HETATM    6  C6  UNL     1     -23.495  18.305   9.536  1.00 20.00     0.146 C 
HETATM    7  N7  UNL     1     -21.851  16.837   8.092  1.00 20.00    -0.195 NA
HETATM    8  O8  UNL     1     -23.735  16.744  11.407  1.00 20.00    -0.388 OA
HETATM    9 CL9  UNL     1     -24.458  19.262   8.363  1.00 20.00    -0.101 Cl
ENDROOT
TORSDOF 0
ENDMDL
MODEL 9
REMARK VINA RESULT:      -3.2     15.887     16.263
REMARK  0 active torsions:
REMARK  status: ('A' for Active; 'I' for Inactive)
ROOT
HETATM    1  C1  UNL     1     -22.869  17.666  10.180  1.00 20.00     0.087 C 
HETATM    2  C2  UNL     1     -24.970  16.245  12.005  1.00 20.00     0.029 C 
HETATM    3  C3  UNL     1     -23.527  16.627  12.332  1.00 20.00     0.045 C 
HETATM    4  C4  UNL     1     -25.898  17.435  12.206  1.00 20.00     0.167 C 
HETATM    5  C5  UNL     1     -24.168  19.010  11.799  1.00 20.00     0.208 C 
HETATM    6  C6  UNL     1     -23.110  17.917  11.613  1.00 20.00     0.146 C 
HETATM    7  N7  UNL     1     -22.681  17.469   9.052  1.00 20.00    -0.195 NA
HETATM    8  O8  UNL     1     -25.469  18.547  11.422  1.00 20.00    -0.388 OA
HETATM    9 CL9  UNL     1     -21.546  18.488  12.281  1.00 20.00    -0.101 Cl
ENDROOT
TORSDOF 0
ENDMDL
