MODEL 1
REMARK VINA RESULT:      -4.0      0.000      0.000
REMARK  4 active torsions:
REMARK  status: ('A' for Active; 'I' for Inactive)
REMARK    1  A    between atoms: C5_5  and  C7_7 
REMARK    2  A    between atoms: C5_5  and  O9_9 
REMARK    3  A    between atoms: C6_6  and  C7_7 
REMARK    4  A    between atoms: C8_8  and  O9_9 
ROOT
HETATM    1  C5  UNL     1     -32.919   6.498   3.420  1.00 20.00     0.174 C 
ENDROOT
BRANCH   1   2
HETATM    2  C7  UNL     1     -32.090   7.733   3.040  1.00 20.00     0.019 C 
HETATM    3  C1  UNL     1     -32.430   8.905   3.963  1.00 20.00     0.013 C 
BRANCH   2   4
HETATM    4  C6  UNL     1     -32.215   8.105   1.554  1.00 20.00     0.121 C 
HETATM    5 CL10 UNL     1     -32.884   9.732   1.280  1.00 20.00    -0.130 Cl
ENDBRANCH   2   4
ENDBRANCH   1   2
BRANCH   1   6
HETATM    6  O9  UNL     1     -33.525   6.664   4.695  1.00 20.00    -0.381 OA
BRANCH   6   7
HETATM    7  C8  UNL     1     -34.485   5.648   4.953  1.00 20.00     0.050 C 
HETATM    8  C2  UNL     1     -35.801   6.041   4.285  1.00 20.00     0.045 C 
HETATM    9  C3  UNL     1     -33.948   4.347   4.359  1.00 20.00     0.045 C 
HETATM   10  C4  UNL     1     -34.659   5.517   6.465  1.00 20.00     0.045 C 
ENDBRANCH   6   7
ENDBRANCH   1   6
TORSDOF 4
ENDMDL
MODEL 2
REMARK VINA RESULT:      -4.0      0.013      1.377
REMARK  4 active torsions:
REMARK  status: ('A' for Active; 'I' for Inactive)
REMARK    1  A    between atoms: C5_5  and  C7_7 
REMARK    2  A    between atoms: C5_5  and  O9_9 
REMARK    3  A    between atoms: C6_6  and  C7_7 
REMARK    4  A    between atoms: C8_8  and  O9_9 
ROOT
HETATM    1  C5  UNL     1     -32.932   6.504   3.416  1.00 20.00     0.174 C 
ENDROOT
BRANCH   1   2
HETATM    2  C7  UNL     1     -32.094   7.735   3.046  1.00 20.00     0.019 C 
HETATM    3  C1  UNL     1     -32.430   8.904   3.973  1.00 20.00     0.013 C 
BRANCH   2   4
HETATM    4  C6  UNL     1     -32.211   8.116   1.561  1.00 20.00     0.121 C 
HETATM    5 CL10 UNL     1     -32.888   9.740   1.293  1.00 20.00    -0.130 Cl
ENDBRANCH   2   4
ENDBRANCH   1   2
BRANCH   1   6
HETATM    6  O9  UNL     1     -33.538   6.665   4.691  1.00 20.00    -0.381 OA
BRANCH   6   7
HETATM    7  C8  UNL     1     -34.483   5.636   4.955  1.00 20.00     0.050 C 
HETATM    8  C2  UNL     1     -34.660   5.515   6.468  1.00 20.00     0.045 C 
HETATM    9  C3  UNL     1     -35.798   6.038   4.290  1.00 20.00     0.045 C 
HETATM   10  C4  UNL     1     -33.957   4.330   4.362  1.00 20.00     0.045 C 
ENDBRANCH   6   7
ENDBRANCH   1   6
TORSDOF 4
ENDMDL
MODEL 3
REMARK VINA RESULT:      -4.0      0.028      1.382
REMARK  4 active torsions:
REMARK  status: ('A' for Active; 'I' for Inactive)
REMARK    1  A    between atoms: C5_5  and  C7_7 
REMARK    2  A    between atoms: C5_5  and  O9_9 
REMARK    3  A    between atoms: C6_6  and  C7_7 
REMARK    4  A    between atoms: C8_8  and  O9_9 
ROOT
HETATM    1  C5  UNL     1     -32.924   6.503   3.424  1.00 20.00     0.174 C 
ENDROOT
BRANCH   1   2
HETATM    2  C7  UNL     1     -32.082   7.733   3.061  1.00 20.00     0.019 C 
HETATM    3  C1  UNL     1     -32.420   8.901   3.989  1.00 20.00     0.013 C 
BRANCH   2   4
HETATM    4  C6  UNL     1     -32.191   8.118   1.576  1.00 20.00     0.121 C 
HETATM    5 CL10 UNL     1     -32.890   9.732   1.307  1.00 20.00    -0.130 Cl
ENDBRANCH   2   4
ENDBRANCH   1   2
BRANCH   1   6
HETATM    6  O9  UNL     1     -33.543   6.666   4.693  1.00 20.00    -0.381 OA
BRANCH   6   7
HETATM    7  C8  UNL     1     -34.482   5.631   4.953  1.00 20.00     0.050 C 
HETATM    8  C2  UNL     1     -33.932   4.322   4.388  1.00 20.00     0.045 C 
HETATM    9  C3  UNL     1     -34.652   5.535   6.467  1.00 20.00     0.045 C 
HETATM   10  C4  UNL     1     -35.807   5.998   4.285  1.00 20.00     0.045 C 
ENDBRANCH   6   7
ENDBRANCH   1   6
TORSDOF 4
ENDMDL
MODEL 4
REMARK VINA RESULT:      -3.8      2.271      4.370
REMARK  4 active torsions:
REMARK  status: ('A' for Active; 'I' for Inactive)
REMARK    1  A    between atoms: C5_5  and  C7_7 
REMARK    2  A    between atoms: C5_5  and  O9_9 
REMARK    3  A    between atoms: C6_6  and  C7_7 
REMARK    4  A    between atoms: C8_8  and  O9_9 
ROOT
HETATM    1  C5  UNL     1     -33.917   7.598   5.565  1.00 20.00     0.174 C 
ENDROOT
BRANCH   1   2
HETATM    2  C7  UNL     1     -34.701   6.302   5.810  1.00 20.00     0.019 C 
HETATM    3  C1  UNL     1     -33.921   5.378   6.747  1.00 20.00     0.013 C 
BRANCH   2   4
HETATM    4  C6  UNL     1     -35.117   5.597   4.509  1.00 20.00     0.121 C 
HETATM    5 CL10 UNL     1     -34.009   4.293   4.019  1.00 20.00    -0.130 Cl
ENDBRANCH   2   4
ENDBRANCH   1   2
BRANCH   1   6
HETATM    6  O9  UNL     1     -34.006   7.998   4.205  1.00 20.00    -0.381 OA
BRANCH   6   7
HETATM    7  C8  UNL     1     -32.740   8.393   3.692  1.00 20.00     0.050 C 
HETATM    8  C2  UNL     1     -32.960   9.475   2.636  1.00 20.00     0.045 C 
HETATM    9  C3  UNL     1     -31.922   8.940   4.860  1.00 20.00     0.045 C 
HETATM   10  C4  UNL     1     -32.058   7.169   3.084  1.00 20.00     0.045 C 
ENDBRANCH   6   7
ENDBRANCH   1   6
TORSDOF 4
ENDMDL
MODEL 5
REMARK VINA RESULT:      -3.3     10.100     11.139
REMARK  4 active torsions:
REMARK  status: ('A' for Active; 'I' for Inactive)
REMARK    1  A    between atoms: C5_5  and  C7_7 
REMARK    2  A    between atoms: C5_5  and  O9_9 
REMARK    3  A    between atoms: C6_6  and  C7_7 
REMARK    4  A    between atoms: C8_8  and  O9_9 
ROOT
HETATM    1  C5  UNL     1     -40.395  13.969   7.121  1.00 20.00     0.174 C 
ENDROOT
BRANCH   1   2
HETATM    2  C7  UNL     1     -40.895  12.873   6.171  1.00 20.00     0.019 C 
HETATM    3  C1  UNL     1     -42.230  12.312   6.663  1.00 20.00     0.013 C 
BRANCH   2   4
HETATM    4  C6  UNL     1     -39.853  11.770   5.927  1.00 20.00     0.121 C 
HETATM    5 CL10 UNL     1     -39.198  11.760   4.271  1.00 20.00    -0.130 Cl
ENDBRANCH   2   4
ENDBRANCH   1   2
BRANCH   1   6
HETATM    6  O9  UNL     1     -40.676  13.638   8.474  1.00 20.00    -0.381 OA
BRANCH   6   7
HETATM    7  C8  UNL     1     -41.034  14.787   9.229  1.00 20.00     0.050 C 
HETATM    8  C2  UNL     1     -42.558  14.855   9.318  1.00 20.00     0.045 C 
HETATM    9  C3  UNL     1     -40.421  14.633  10.619  1.00 20.00     0.045 C 
HETATM   10  C4  UNL     1     -40.475  16.024   8.529  1.00 20.00     0.045 C 
ENDBRANCH   6   7
ENDBRANCH   1   6
TORSDOF 4
ENDMDL
MODEL 6
REMARK VINA RESULT:      -3.3     11.491     12.573
REMARK  4 active torsions:
REMARK  status: ('A' for Active; 'I' for Inactive)
REMARK    1  A    between atoms: C5_5  and  C7_7 
REMARK    2  A    between atoms: C5_5  and  O9_9 
REMARK    3  A    between atoms: C6_6  and  C7_7 
REMARK    4  A    between atoms: C8_8  and  O9_9 
ROOT
HETATM    1  C5  UNL     1     -33.347  16.301  -3.356  1.00 20.00     0.174 C 
ENDROOT
BRANCH   1   2
HETATM    2  C7  UNL     1     -33.771  17.269  -2.244  1.00 20.00     0.019 C 
HETATM    3  C1  UNL     1     -34.745  18.314  -2.791  1.00 20.00     0.013 C 
BRANCH   2   4
HETATM    4  C6  UNL     1     -32.576  17.909  -1.518  1.00 20.00     0.121 C 
HETATM    5 CL10 UNL     1     -32.902  18.298   0.188  1.00 20.00    -0.130 Cl
ENDBRANCH   2   4
ENDBRANCH   1   2
BRANCH   1   6
HETATM    6  O9  UNL     1     -34.006  16.609  -4.577  1.00 20.00    -0.381 OA
BRANCH   6   7
HETATM    7  C8  UNL     1     -34.586  15.451  -5.164  1.00 20.00     0.050 C 
HETATM    8  C2  UNL     1     -36.077  15.710  -5.379  1.00 20.00     0.045 C 
HETATM    9  C3  UNL     1     -33.883  15.211  -6.498  1.00 20.00     0.045 C 
HETATM   10  C4  UNL     1     -34.370  14.268  -4.221  1.00 20.00     0.045 C 
ENDBRANCH   6   7
ENDBRANCH   1   6
TORSDOF 4
ENDMDL
MODEL 7
REMARK VINA RESULT:      -3.2     11.689     12.855
REMARK  4 active torsions:
REMARK  status: ('A' for Active; 'I' for Inactive)
REMARK    1  A    between atoms: C5_5  and  C7_7 
REMARK    2  A    between atoms: C5_5  and  O9_9 
REMARK    3  A    between atoms: C6_6  and  C7_7 
REMARK    4  A    between atoms: C8_8  and  O9_9 
ROOT
HETATM    1  C5  UNL     1     -33.298  16.412  -3.470  1.00 20.00     0.174 C 
ENDROOT
BRANCH   1   2
HETATM    2  C7  UNL     1     -33.283  17.687  -2.617  1.00 20.00     0.019 C 
HETATM    3  C1  UNL     1     -33.658  17.363  -1.170  1.00 20.00     0.013 C 
BRANCH   2   4
HETATM    4  C6  UNL     1     -34.149  18.813  -3.206  1.00 20.00     0.121 C 
HETATM    5 CL10 UNL     1     -35.874  18.680  -2.785  1.00 20.00    -0.130 Cl
ENDBRANCH   2   4
ENDBRANCH   1   2
BRANCH   1   6
HETATM    6  O9  UNL     1     -33.897  16.653  -4.736  1.00 20.00    -0.381 OA
BRANCH   6   7
HETATM    7  C8  UNL     1     -34.548  15.492  -5.235  1.00 20.00     0.050 C 
HETATM    8  C2  UNL     1     -34.333  14.350  -4.244  1.00 20.00     0.045 C 
HETATM    9  C3  UNL     1     -36.034  15.819  -5.366  1.00 20.00     0.045 C 
HETATM   10  C4  UNL     1     -33.952  15.149  -6.599  1.00 20.00     0.045 C 
ENDBRANCH   6   7
ENDBRANCH   1   6
TORSDOF 4
ENDMDL
MODEL 8
REMARK VINA RESULT:      -3.2     11.559     12.754
REMARK  4 active torsions:
REMARK  status: ('A' for Active; 'I' for Inactive)
REMARK    1  A    between atoms: C5_5  and  C7_7 
REMARK    2  A    between atoms: C5_5  and  O9_9 
REMARK    3  A    between atoms: C6_6  and  C7_7 
REMARK    4  A    between atoms: C8_8  and  O9_9 
ROOT
HETATM    1  C5  UNL     1     -33.595  16.571  -3.628  1.00 20.00     0.174 C 
ENDROOT
BRANCH   1   2
HETATM    2  C7  UNL     1     -33.791  17.807  -2.740  1.00 20.00     0.019 C 
HETATM    3  C1  UNL     1     -33.036  19.004  -3.322  1.00 20.00     0.013 C 
BRANCH   2   4
HETATM    4  C6  UNL     1     -33.432  17.551  -1.268  1.00 20.00     0.121 C 
HETATM    5 CL10 UNL     1     -31.873  18.259  -0.780  1.00 20.00    -0.130 Cl
ENDBRANCH   2   4
ENDBRANCH   1   2
BRANCH   1   6
HETATM    6  O9  UNL     1     -34.452  16.617  -4.761  1.00 20.00    -0.381 OA
BRANCH   6   7
HETATM    7  C8  UNL     1     -34.694  15.318  -5.286  1.00 20.00     0.050 C 
HETATM    8  C2  UNL     1     -33.938  15.179  -6.606  1.00 20.00     0.045 C 
HETATM    9  C3  UNL     1     -34.182  14.306  -4.263  1.00 20.00     0.045 C 
HETATM   10  C4  UNL     1     -36.198  15.153  -5.500  1.00 20.00     0.045 C 
ENDBRANCH   6   7
ENDBRANCH   1   6
TORSDOF 4
ENDMDL
MODEL 9
REMARK VINA RESULT:      -3.2     12.116     13.012
REMARK  4 active torsions:
REMARK  status: ('A' for Active; 'I' for Inactive)
REMARK    1  A    between atoms: C5_5  and  C7_7 
REMARK    2  A    between atoms: C5_5  and  O9_9 
REMARK    3  A    between atoms: C6_6  and  C7_7 
REMARK    4  A    between atoms: C8_8  and  O9_9 
ROOT
HETATM    1  C5  UNL     1     -33.669  17.741  -0.874  1.00 20.00     0.174 C 
ENDROOT
BRANCH   1   2
HETATM    2  C7  UNL     1     -32.773  18.786  -0.195  1.00 20.00     0.019 C 
HETATM    3  C1  UNL     1     -31.299  18.470  -0.454  1.00 20.00     0.013 C 
BRANCH   2   4
HETATM    4  C6  UNL     1     -33.079  18.957   1.302  1.00 20.00     0.121 C 
HETATM    5 CL10 UNL     1     -31.649  18.778   2.347  1.00 20.00    -0.130 Cl
ENDBRANCH   2   4
ENDBRANCH   1   2
BRANCH   1   6
HETATM    6  O9  UNL     1     -34.416  18.322  -1.933  1.00 20.00    -0.381 OA
BRANCH   6   7
HETATM    7  C8  UNL     1     -34.001  17.825  -3.199  1.00 20.00     0.050 C 
HETATM    8  C2  UNL     1     -33.357  16.455  -2.995  1.00 20.00     0.045 C 
HETATM    9  C3  UNL     1     -35.245  17.709  -4.078  1.00 20.00     0.045 C 
HETATM   10  C4  UNL     1     -33.004  18.811  -3.805  1.00 20.00     0.045 C 
ENDBRANCH   6   7
ENDBRANCH   1   6
TORSDOF 4
ENDMDL
