MODEL 1
REMARK VINA RESULT:      -3.9      0.000      0.000
REMARK  3 active torsions:
REMARK  status: ('A' for Active; 'I' for Inactive)
REMARK    1  A    between atoms: C3_3  and  C5_5 
REMARK    2  A    between atoms: C3_3  and  O6_6 
REMARK    3  A    between atoms: C4_4  and  C5_5 
ROOT
HETATM    1  C1  UNL     1     -34.497   5.674   6.472  1.00 20.00     0.013 C 
HETATM    2  C5  UNL     1     -34.673   5.880   4.967  1.00 20.00     0.019 C 
ENDROOT
BRANCH   2   3
HETATM    3  C3  UNL     1     -34.109   7.243   4.545  1.00 20.00     0.172 C 
BRANCH   3   4
HETATM    4  O6  UNL     1     -33.027   7.627   5.383  1.00 20.00    -0.396 OA
HETATM    5  C2  UNL     1     -32.301   8.717   4.831  1.00 20.00     0.201 C 
ENDBRANCH   3   4
ENDBRANCH   2   3
BRANCH   2   6
HETATM    6  C4  UNL     1     -34.095   4.714   4.147  1.00 20.00     0.121 C 
HETATM    7 CL7  UNL     1     -33.060   5.236   2.797  1.00 20.00    -0.130 Cl
ENDBRANCH   2   6
TORSDOF 3
ENDMDL
MODEL 2
REMARK VINA RESULT:      -3.7      1.200      2.869
REMARK  3 active torsions:
REMARK  status: ('A' for Active; 'I' for Inactive)
REMARK    1  A    between atoms: C3_3  and  C5_5 
REMARK    2  A    between atoms: C3_3  and  O6_6 
REMARK    3  A    between atoms: C4_4  and  C5_5 
ROOT
HETATM    1  C1  UNL     1     -32.307   9.061   4.795  1.00 20.00     0.013 C 
HETATM    2  C5  UNL     1     -32.672   7.601   4.526  1.00 20.00     0.019 C 
ENDROOT
BRANCH   2   3
HETATM    3  C3  UNL     1     -34.123   7.328   4.945  1.00 20.00     0.172 C 
BRANCH   3   4
HETATM    4  O6  UNL     1     -34.178   6.760   6.247  1.00 20.00    -0.396 OA
HETATM    5  C2  UNL     1     -34.573   5.395   6.204  1.00 20.00     0.201 C 
ENDBRANCH   3   4
ENDBRANCH   2   3
BRANCH   2   6
HETATM    6  C4  UNL     1     -32.380   7.183   3.075  1.00 20.00     0.121 C 
HETATM    7 CL7  UNL     1     -32.875   5.515   2.700  1.00 20.00    -0.130 Cl
ENDBRANCH   2   6
TORSDOF 3
ENDMDL
MODEL 3
REMARK VINA RESULT:      -3.5      2.175      2.919
REMARK  3 active torsions:
REMARK  status: ('A' for Active; 'I' for Inactive)
REMARK    1  A    between atoms: C3_3  and  C5_5 
REMARK    2  A    between atoms: C3_3  and  O6_6 
REMARK    3  A    between atoms: C4_4  and  C5_5 
ROOT
HETATM    1  C1  UNL     1     -34.485   6.372   6.671  1.00 20.00     0.013 C 
HETATM    2  C5  UNL     1     -33.882   6.548   5.276  1.00 20.00     0.019 C 
ENDROOT
BRANCH   2   3
HETATM    3  C3  UNL     1     -34.639   5.689   4.255  1.00 20.00     0.172 C 
BRANCH   3   4
HETATM    4  O6  UNL     1     -33.793   4.688   3.705  1.00 20.00    -0.396 OA
HETATM    5  C2  UNL     1     -32.935   5.221   2.706  1.00 20.00     0.201 C 
ENDBRANCH   3   4
ENDBRANCH   2   3
BRANCH   2   6
HETATM    6  C4  UNL     1     -33.788   8.026   4.862  1.00 20.00     0.121 C 
HETATM    7 CL7  UNL     1     -32.141   8.541   4.427  1.00 20.00    -0.130 Cl
ENDBRANCH   2   6
TORSDOF 3
ENDMDL
MODEL 4
REMARK VINA RESULT:      -3.5      2.081      3.147
REMARK  3 active torsions:
REMARK  status: ('A' for Active; 'I' for Inactive)
REMARK    1  A    between atoms: C3_3  and  C5_5 
REMARK    2  A    between atoms: C3_3  and  O6_6 
REMARK    3  A    between atoms: C4_4  and  C5_5 
ROOT
HETATM    1  C1  UNL     1     -32.490   8.455   4.856  1.00 20.00     0.013 C 
HETATM    2  C5  UNL     1     -33.788   7.678   5.084  1.00 20.00     0.019 C 
ENDROOT
BRANCH   2   3
HETATM    3  C3  UNL     1     -34.020   6.681   3.941  1.00 20.00     0.172 C 
BRANCH   3   4
HETATM    4  O6  UNL     1     -32.806   6.400   3.255  1.00 20.00    -0.396 OA
HETATM    5  C2  UNL     1     -32.863   5.148   2.587  1.00 20.00     0.201 C 
ENDBRANCH   3   4
ENDBRANCH   2   3
BRANCH   2   6
HETATM    6  C4  UNL     1     -33.838   7.018   6.472  1.00 20.00     0.121 C 
HETATM    7 CL7  UNL     1     -34.454   5.348   6.446  1.00 20.00    -0.130 Cl
ENDBRANCH   2   6
TORSDOF 3
ENDMDL
MODEL 5
REMARK VINA RESULT:      -3.4      2.047      2.235
REMARK  3 active torsions:
REMARK  status: ('A' for Active; 'I' for Inactive)
REMARK    1  A    between atoms: C3_3  and  C5_5 
REMARK    2  A    between atoms: C3_3  and  O6_6 
REMARK    3  A    between atoms: C4_4  and  C5_5 
ROOT
HETATM    1  C1  UNL     1     -33.879   7.386   6.438  1.00 20.00     0.013 C 
HETATM    2  C5  UNL     1     -33.936   7.387   4.909  1.00 20.00     0.019 C 
ENDROOT
BRANCH   2   3
HETATM    3  C3  UNL     1     -32.624   7.927   4.326  1.00 20.00     0.172 C 
BRANCH   3   4
HETATM    4  O6  UNL     1     -32.197   7.142   3.221  1.00 20.00    -0.396 OA
HETATM    5  C2  UNL     1     -32.195   7.895   2.016  1.00 20.00     0.201 C 
ENDBRANCH   3   4
ENDBRANCH   2   3
BRANCH   2   6
HETATM    6  C4  UNL     1     -34.324   6.012   4.338  1.00 20.00     0.121 C 
HETATM    7 CL7  UNL     1     -34.518   4.753   5.581  1.00 20.00    -0.130 Cl
ENDBRANCH   2   6
TORSDOF 3
ENDMDL
MODEL 6
REMARK VINA RESULT:      -3.2      1.904      2.378
REMARK  3 active torsions:
REMARK  status: ('A' for Active; 'I' for Inactive)
REMARK    1  A    between atoms: C3_3  and  C5_5 
REMARK    2  A    between atoms: C3_3  and  O6_6 
REMARK    3  A    between atoms: C4_4  and  C5_5 
ROOT
HETATM    1  C1  UNL     1     -33.016   5.353   2.605  1.00 20.00     0.013 C 
HETATM    2  C5  UNL     1     -33.328   5.796   4.035  1.00 20.00     0.019 C 
ENDROOT
BRANCH   2   3
HETATM    3  C3  UNL     1     -33.481   7.321   4.100  1.00 20.00     0.172 C 
BRANCH   3   4
HETATM    4  O6  UNL     1     -32.215   7.964   4.032  1.00 20.00    -0.396 OA
HETATM    5  C2  UNL     1     -32.164   9.107   4.874  1.00 20.00     0.201 C 
ENDBRANCH   3   4
ENDBRANCH   2   3
BRANCH   2   6
HETATM    6  C4  UNL     1     -34.535   5.048   4.628  1.00 20.00     0.121 C 
HETATM    7 CL7  UNL     1     -34.813   5.397   6.351  1.00 20.00    -0.130 Cl
ENDBRANCH   2   6
TORSDOF 3
ENDMDL
MODEL 7
REMARK VINA RESULT:      -3.2      2.239      3.380
REMARK  3 active torsions:
REMARK  status: ('A' for Active; 'I' for Inactive)
REMARK    1  A    between atoms: C3_3  and  C5_5 
REMARK    2  A    between atoms: C3_3  and  O6_6 
REMARK    3  A    between atoms: C4_4  and  C5_5 
ROOT
HETATM    1  C1  UNL     1     -32.892   5.254   2.841  1.00 20.00     0.013 C 
HETATM    2  C5  UNL     1     -33.290   6.662   3.286  1.00 20.00     0.019 C 
ENDROOT
BRANCH   2   3
HETATM    3  C3  UNL     1     -34.124   6.601   4.572  1.00 20.00     0.172 C 
BRANCH   3   4
HETATM    4  O6  UNL     1     -34.435   5.256   4.913  1.00 20.00    -0.396 OA
HETATM    5  C2  UNL     1     -34.524   5.082   6.321  1.00 20.00     0.201 C 
ENDBRANCH   3   4
ENDBRANCH   2   3
BRANCH   2   6
HETATM    6  C4  UNL     1     -32.078   7.602   3.403  1.00 20.00     0.121 C 
HETATM    7 CL7  UNL     1     -32.248   8.828   4.682  1.00 20.00    -0.130 Cl
ENDBRANCH   2   6
TORSDOF 3
ENDMDL
MODEL 8
REMARK VINA RESULT:      -3.2      1.677      3.089
REMARK  3 active torsions:
REMARK  status: ('A' for Active; 'I' for Inactive)
REMARK    1  A    between atoms: C3_3  and  C5_5 
REMARK    2  A    between atoms: C3_3  and  O6_6 
REMARK    3  A    between atoms: C4_4  and  C5_5 
ROOT
HETATM    1  C1  UNL     1     -32.362   9.135   4.363  1.00 20.00     0.013 C 
HETATM    2  C5  UNL     1     -32.665   7.643   4.508  1.00 20.00     0.019 C 
ENDROOT
BRANCH   2   3
HETATM    3  C3  UNL     1     -34.031   7.439   5.177  1.00 20.00     0.172 C 
BRANCH   3   4
HETATM    4  O6  UNL     1     -33.908   6.658   6.358  1.00 20.00    -0.396 OA
HETATM    5  C2  UNL     1     -34.573   5.409   6.230  1.00 20.00     0.201 C 
ENDBRANCH   3   4
ENDBRANCH   2   3
BRANCH   2   6
HETATM    6  C4  UNL     1     -32.533   6.887   3.175  1.00 20.00     0.121 C 
HETATM    7 CL7  UNL     1     -32.142   7.940   1.795  1.00 20.00    -0.130 Cl
ENDBRANCH   2   6
TORSDOF 3
ENDMDL
MODEL 9
REMARK VINA RESULT:      -2.9     12.926     13.337
REMARK  3 active torsions:
REMARK  status: ('A' for Active; 'I' for Inactive)
REMARK    1  A    between atoms: C3_3  and  C5_5 
REMARK    2  A    between atoms: C3_3  and  O6_6 
REMARK    3  A    between atoms: C4_4  and  C5_5 
ROOT
HETATM    1  C1  UNL     1     -33.361  16.998  -2.005  1.00 20.00     0.013 C 
HETATM    2  C5  UNL     1     -33.141  18.004  -0.874  1.00 20.00     0.019 C 
ENDROOT
BRANCH   2   3
HETATM    3  C3  UNL     1     -31.963  18.929  -1.205  1.00 20.00     0.172 C 
BRANCH   3   4
HETATM    4  O6  UNL     1     -30.781  18.509  -0.535  1.00 20.00    -0.396 OA
HETATM    5  C2  UNL     1     -30.935  18.562   0.877  1.00 20.00     0.201 C 
ENDBRANCH   3   4
ENDBRANCH   2   3
BRANCH   2   6
HETATM    6  C4  UNL     1     -34.424  18.774  -0.518  1.00 20.00     0.121 C 
HETATM    7 CL7  UNL     1     -34.679  18.963   1.233  1.00 20.00    -0.130 Cl
ENDBRANCH   2   6
TORSDOF 3
ENDMDL
