MODEL 1
REMARK VINA RESULT:      -3.4      0.000      0.000
REMARK  4 active torsions:
REMARK  status: ('A' for Active; 'I' for Inactive)
REMARK    1  A    between atoms: C5_5  and  C7_7 
REMARK    2  A    between atoms: C5_5  and  S9_9 
REMARK    3  A    between atoms: C6_6  and  C7_7 
REMARK    4  A    between atoms: C8_8  and  S9_9 
ROOT
HETATM    1  C5  UNL     1     -33.436  17.268  -3.960  1.00 20.00     0.080 C 
ENDROOT
BRANCH   1   2
HETATM    2  C7  UNL     1     -33.631  18.015  -2.627  1.00 20.00     0.004 C 
HETATM    3  C1  UNL     1     -33.694  17.001  -1.478  1.00 20.00     0.012 C 
BRANCH   2   4
HETATM    4  C6  UNL     1     -32.588  19.111  -2.343  1.00 20.00     0.119 C 
HETATM    5 CL10 UNL     1     -31.650  18.833  -0.856  1.00 20.00    -0.130 Cl
ENDBRANCH   2   4
ENDBRANCH   1   2
BRANCH   1   6
HETATM    6  S9  UNL     1     -34.995  16.929  -4.833  1.00 20.00    -0.160 SA
BRANCH   6   7
HETATM    7  C8  UNL     1     -34.646  15.230  -5.337  1.00 20.00    -0.003 C 
HETATM    8  C2  UNL     1     -33.991  15.253  -6.721  1.00 20.00     0.026 C 
HETATM    9  C3  UNL     1     -33.697  14.606  -4.310  1.00 20.00     0.026 C 
HETATM   10  C4  UNL     1     -35.965  14.452  -5.385  1.00 20.00     0.026 C 
ENDBRANCH   6   7
ENDBRANCH   1   6
TORSDOF 4
ENDMDL
MODEL 2
REMARK VINA RESULT:      -3.4      0.131      1.380
REMARK  4 active torsions:
REMARK  status: ('A' for Active; 'I' for Inactive)
REMARK    1  A    between atoms: C5_5  and  C7_7 
REMARK    2  A    between atoms: C5_5  and  S9_9 
REMARK    3  A    between atoms: C6_6  and  C7_7 
REMARK    4  A    between atoms: C8_8  and  S9_9 
ROOT
HETATM    1  C5  UNL     1     -33.339  17.157  -3.806  1.00 20.00     0.080 C 
ENDROOT
BRANCH   1   2
HETATM    2  C7  UNL     1     -33.591  18.022  -2.556  1.00 20.00     0.004 C 
HETATM    3  C1  UNL     1     -33.728  17.114  -1.327  1.00 20.00     0.012 C 
BRANCH   2   4
HETATM    4  C6  UNL     1     -32.546  19.127  -2.316  1.00 20.00     0.119 C 
HETATM    5 CL10 UNL     1     -31.601  18.901  -0.825  1.00 20.00    -0.130 Cl
ENDBRANCH   2   4
ENDBRANCH   1   2
BRANCH   1   6
HETATM    6  S9  UNL     1     -34.803  16.983  -4.870  1.00 20.00    -0.160 SA
BRANCH   6   7
HETATM    7  C8  UNL     1     -34.568  15.259  -5.355  1.00 20.00    -0.003 C 
HETATM    8  C2  UNL     1     -33.639  14.586  -4.341  1.00 20.00     0.026 C 
HETATM    9  C3  UNL     1     -35.935  14.569  -5.365  1.00 20.00     0.026 C 
HETATM   10  C4  UNL     1     -33.944  15.223  -6.754  1.00 20.00     0.026 C 
ENDBRANCH   6   7
ENDBRANCH   1   6
TORSDOF 4
ENDMDL
MODEL 3
REMARK VINA RESULT:      -3.4      0.159      1.389
REMARK  4 active torsions:
REMARK  status: ('A' for Active; 'I' for Inactive)
REMARK    1  A    between atoms: C5_5  and  C7_7 
REMARK    2  A    between atoms: C5_5  and  S9_9 
REMARK    3  A    between atoms: C6_6  and  C7_7 
REMARK    4  A    between atoms: C8_8  and  S9_9 
ROOT
HETATM    1  C5  UNL     1     -33.384  17.106  -3.726  1.00 20.00     0.080 C 
ENDROOT
BRANCH   1   2
HETATM    2  C7  UNL     1     -33.634  18.022  -2.513  1.00 20.00     0.004 C 
HETATM    3  C1  UNL     1     -33.765  17.166  -1.246  1.00 20.00     0.012 C 
BRANCH   2   4
HETATM    4  C6  UNL     1     -32.593  19.139  -2.322  1.00 20.00     0.119 C 
HETATM    5 CL10 UNL     1     -31.630  18.969  -0.834  1.00 20.00    -0.130 Cl
ENDBRANCH   2   4
ENDBRANCH   1   2
BRANCH   1   6
HETATM    6  S9  UNL     1     -34.824  16.956  -4.826  1.00 20.00    -0.160 SA
BRANCH   6   7
HETATM    7  C8  UNL     1     -34.581  15.240  -5.338  1.00 20.00    -0.003 C 
HETATM    8  C2  UNL     1     -35.941  14.537  -5.356  1.00 20.00     0.026 C 
HETATM    9  C3  UNL     1     -33.961  15.236  -6.738  1.00 20.00     0.026 C 
HETATM   10  C4  UNL     1     -33.642  14.558  -4.338  1.00 20.00     0.026 C 
ENDBRANCH   6   7
ENDBRANCH   1   6
TORSDOF 4
ENDMDL
MODEL 4
REMARK VINA RESULT:      -3.3      0.987      1.866
REMARK  4 active torsions:
REMARK  status: ('A' for Active; 'I' for Inactive)
REMARK    1  A    between atoms: C5_5  and  C7_7 
REMARK    2  A    between atoms: C5_5  and  S9_9 
REMARK    3  A    between atoms: C6_6  and  C7_7 
REMARK    4  A    between atoms: C8_8  and  S9_9 
ROOT
HETATM    1  C5  UNL     1     -33.479  16.399  -2.990  1.00 20.00     0.080 C 
ENDROOT
BRANCH   1   2
HETATM    2  C7  UNL     1     -32.971  17.539  -2.087  1.00 20.00     0.004 C 
HETATM    3  C1  UNL     1     -32.855  18.828  -2.911  1.00 20.00     0.012 C 
BRANCH   2   4
HETATM    4  C6  UNL     1     -33.800  17.770  -0.811  1.00 20.00     0.119 C 
HETATM    5 CL10 UNL     1     -32.843  18.379   0.561  1.00 20.00    -0.130 Cl
ENDBRANCH   2   4
ENDBRANCH   1   2
BRANCH   1   6
HETATM    6  S9  UNL     1     -34.292  16.987  -4.507  1.00 20.00    -0.160 SA
BRANCH   6   7
HETATM    7  C8  UNL     1     -34.697  15.380  -5.224  1.00 20.00    -0.003 C 
HETATM    8  C2  UNL     1     -36.207  15.316  -5.467  1.00 20.00     0.026 C 
HETATM    9  C3  UNL     1     -33.939  15.236  -6.547  1.00 20.00     0.026 C 
HETATM   10  C4  UNL     1     -34.268  14.283  -4.244  1.00 20.00     0.026 C 
ENDBRANCH   6   7
ENDBRANCH   1   6
TORSDOF 4
ENDMDL
MODEL 5
REMARK VINA RESULT:      -3.1      2.776      5.089
REMARK  4 active torsions:
REMARK  status: ('A' for Active; 'I' for Inactive)
REMARK    1  A    between atoms: C5_5  and  C7_7 
REMARK    2  A    between atoms: C5_5  and  S9_9 
REMARK    3  A    between atoms: C6_6  and  C7_7 
REMARK    4  A    between atoms: C8_8  and  S9_9 
ROOT
HETATM    1  C5  UNL     1     -34.298  16.916  -4.053  1.00 20.00     0.080 C 
ENDROOT
BRANCH   1   2
HETATM    2  C7  UNL     1     -34.215  15.727  -5.029  1.00 20.00     0.004 C 
HETATM    3  C1  UNL     1     -33.329  14.630  -4.423  1.00 20.00     0.012 C 
BRANCH   2   4
HETATM    4  C6  UNL     1     -35.577  15.159  -5.470  1.00 20.00     0.119 C 
HETATM    5 CL10 UNL     1     -36.021  13.648  -4.640  1.00 20.00    -0.130 Cl
ENDBRANCH   2   4
ENDBRANCH   1   2
BRANCH   1   6
HETATM    6  S9  UNL     1     -33.319  16.676  -2.539  1.00 20.00    -0.160 SA
BRANCH   6   7
HETATM    7  C8  UNL     1     -33.737  18.226  -1.711  1.00 20.00    -0.003 C 
HETATM    8  C2  UNL     1     -33.786  17.978  -0.201  1.00 20.00     0.026 C 
HETATM    9  C3  UNL     1     -32.659  19.260  -2.047  1.00 20.00     0.026 C 
HETATM   10  C4  UNL     1     -35.104  18.699  -2.218  1.00 20.00     0.026 C 
ENDBRANCH   6   7
ENDBRANCH   1   6
TORSDOF 4
ENDMDL
MODEL 6
REMARK VINA RESULT:      -3.0      2.741      3.257
REMARK  4 active torsions:
REMARK  status: ('A' for Active; 'I' for Inactive)
REMARK    1  A    between atoms: C5_5  and  C7_7 
REMARK    2  A    between atoms: C5_5  and  S9_9 
REMARK    3  A    between atoms: C6_6  and  C7_7 
REMARK    4  A    between atoms: C8_8  and  S9_9 
ROOT
HETATM    1  C5  UNL     1     -34.800  17.159  -4.334  1.00 20.00     0.080 C 
ENDROOT
BRANCH   1   2
HETATM    2  C7  UNL     1     -33.456  16.668  -3.763  1.00 20.00     0.004 C 
HETATM    3  C1  UNL     1     -33.446  16.866  -2.242  1.00 20.00     0.012 C 
BRANCH   2   4
HETATM    4  C6  UNL     1     -33.087  15.221  -4.136  1.00 20.00     0.119 C 
HETATM    5 CL10 UNL     1     -34.476  14.108  -4.136  1.00 20.00    -0.130 Cl
ENDBRANCH   2   4
ENDBRANCH   1   2
BRANCH   1   6
HETATM    6  S9  UNL     1     -34.709  17.634  -6.087  1.00 20.00    -0.160 SA
BRANCH   6   7
HETATM    7  C8  UNL     1     -36.113  16.671  -6.690  1.00 20.00    -0.003 C 
HETATM    8  C2  UNL     1     -36.875  17.508  -7.722  1.00 20.00     0.026 C 
HETATM    9  C3  UNL     1     -35.579  15.389  -7.335  1.00 20.00     0.026 C 
HETATM   10  C4  UNL     1     -37.021  16.332  -5.504  1.00 20.00     0.026 C 
ENDBRANCH   6   7
ENDBRANCH   1   6
TORSDOF 4
ENDMDL
MODEL 7
REMARK VINA RESULT:      -3.0     12.315     14.089
REMARK  4 active torsions:
REMARK  status: ('A' for Active; 'I' for Inactive)
REMARK    1  A    between atoms: C5_5  and  C7_7 
REMARK    2  A    between atoms: C5_5  and  S9_9 
REMARK    3  A    between atoms: C6_6  and  C7_7 
REMARK    4  A    between atoms: C8_8  and  S9_9 
ROOT
HETATM    1  C5  UNL     1     -40.484  13.720   7.286  1.00 20.00     0.080 C 
ENDROOT
BRANCH   1   2
HETATM    2  C7  UNL     1     -40.690  12.683   6.166  1.00 20.00     0.004 C 
HETATM    3  C1  UNL     1     -41.166  13.396   4.894  1.00 20.00     0.012 C 
BRANCH   2   4
HETATM    4  C6  UNL     1     -39.468  11.792   5.879  1.00 20.00     0.119 C 
HETATM    5 CL10 UNL     1     -39.071  11.665   4.148  1.00 20.00    -0.130 Cl
ENDBRANCH   2   4
ENDBRANCH   1   2
BRANCH   1   6
HETATM    6  S9  UNL     1     -42.011  14.589   7.756  1.00 20.00    -0.160 SA
BRANCH   6   7
HETATM    7  C8  UNL     1     -41.267  15.901   8.750  1.00 20.00    -0.003 C 
HETATM    8  C2  UNL     1     -40.728  16.983   7.811  1.00 20.00     0.026 C 
HETATM    9  C3  UNL     1     -42.347  16.483   9.668  1.00 20.00     0.026 C 
HETATM   10  C4  UNL     1     -40.129  15.301   9.582  1.00 20.00     0.026 C 
ENDBRANCH   6   7
ENDBRANCH   1   6
TORSDOF 4
ENDMDL
MODEL 8
REMARK VINA RESULT:      -3.0      1.175      1.447
REMARK  4 active torsions:
REMARK  status: ('A' for Active; 'I' for Inactive)
REMARK    1  A    between atoms: C5_5  and  C7_7 
REMARK    2  A    between atoms: C5_5  and  S9_9 
REMARK    3  A    between atoms: C6_6  and  C7_7 
REMARK    4  A    between atoms: C8_8  and  S9_9 
ROOT
HETATM    1  C5  UNL     1     -34.133  17.433  -4.945  1.00 20.00     0.080 C 
ENDROOT
BRANCH   1   2
HETATM    2  C7  UNL     1     -33.922  17.583  -3.427  1.00 20.00     0.004 C 
HETATM    3  C1  UNL     1     -33.434  16.249  -2.846  1.00 20.00     0.012 C 
BRANCH   2   4
HETATM    4  C6  UNL     1     -32.993  18.739  -3.015  1.00 20.00     0.119 C 
HETATM    5 CL10 UNL     1     -32.225  18.506  -1.426  1.00 20.00    -0.130 Cl
ENDBRANCH   2   4
ENDBRANCH   1   2
BRANCH   1   6
HETATM    6  S9  UNL     1     -35.829  16.954  -5.394  1.00 20.00    -0.160 SA
BRANCH   6   7
HETATM    7  C8  UNL     1     -35.451  15.379  -6.192  1.00 20.00    -0.003 C 
HETATM    8  C2  UNL     1     -33.932  15.258  -6.345  1.00 20.00     0.026 C 
HETATM    9  C3  UNL     1     -35.988  14.248  -5.310  1.00 20.00     0.026 C 
HETATM   10  C4  UNL     1     -36.129  15.349  -7.566  1.00 20.00     0.026 C 
ENDBRANCH   6   7
ENDBRANCH   1   6
TORSDOF 4
ENDMDL
MODEL 9
REMARK VINA RESULT:      -3.0     12.367     14.243
REMARK  4 active torsions:
REMARK  status: ('A' for Active; 'I' for Inactive)
REMARK    1  A    between atoms: C5_5  and  C7_7 
REMARK    2  A    between atoms: C5_5  and  S9_9 
REMARK    3  A    between atoms: C6_6  and  C7_7 
REMARK    4  A    between atoms: C8_8  and  S9_9 
ROOT
HETATM    1  C5  UNL     1     -40.449  13.805   7.222  1.00 20.00     0.080 C 
ENDROOT
BRANCH   1   2
HETATM    2  C7  UNL     1     -40.731  12.733   6.154  1.00 20.00     0.004 C 
HETATM    3  C1  UNL     1     -41.182  13.414   4.855  1.00 20.00     0.012 C 
BRANCH   2   4
HETATM    4  C6  UNL     1     -39.568  11.759   5.894  1.00 20.00     0.119 C 
HETATM    5 CL10 UNL     1     -39.055  11.699   4.191  1.00 20.00    -0.130 Cl
ENDBRANCH   2   4
ENDBRANCH   1   2
BRANCH   1   6
HETATM    6  S9  UNL     1     -41.896  14.197   8.252  1.00 20.00    -0.160 SA
BRANCH   6   7
HETATM    7  C8  UNL     1     -41.247  15.676   9.060  1.00 20.00    -0.003 C 
HETATM    8  C2  UNL     1     -42.386  16.359   9.822  1.00 20.00     0.026 C 
HETATM    9  C3  UNL     1     -40.139  15.251  10.028  1.00 20.00     0.026 C 
HETATM   10  C4  UNL     1     -40.685  16.615   7.988  1.00 20.00     0.026 C 
ENDBRANCH   6   7
ENDBRANCH   1   6
TORSDOF 4
ENDMDL
