MODEL 1
REMARK VINA RESULT:      -3.9      0.000      0.000
REMARK  0 active torsions:
REMARK  status: ('A' for Active; 'I' for Inactive)
ROOT
HETATM    1  C1  UNL     1     -22.645  17.307   9.455  1.00 20.00     0.087 C 
HETATM    2  C2  UNL     1     -25.481  19.000  11.391  1.00 20.00     0.029 C 
HETATM    3  C3  UNL     1     -24.485  18.750  10.258  1.00 20.00     0.045 C 
HETATM    4  C4  UNL     1     -26.038  17.685  11.913  1.00 20.00     0.167 C 
HETATM    5  C5  UNL     1     -24.118  16.459  11.248  1.00 20.00     0.208 C 
HETATM    6  C6  UNL     1     -23.441  17.689  10.631  1.00 20.00     0.146 C 
HETATM    7  N7  UNL     1     -22.018  17.006   8.526  1.00 20.00    -0.195 NA
HETATM    8  O8  UNL     1     -24.984  16.819  12.327  1.00 20.00    -0.388 OA
HETATM    9 CL9  UNL     1     -22.277  18.374  11.821  1.00 20.00    -0.101 Cl
ENDROOT
TORSDOF 0
ENDMDL
MODEL 2
REMARK VINA RESULT:      -3.4     15.531     15.994
REMARK  0 active torsions:
REMARK  status: ('A' for Active; 'I' for Inactive)
ROOT
HETATM    1  C1  UNL     1     -33.923  18.605   0.141  1.00 20.00     0.087 C 
HETATM    2  C2  UNL     1     -33.131  16.503  -2.958  1.00 20.00     0.029 C 
HETATM    3  C3  UNL     1     -33.644  16.829  -1.556  1.00 20.00     0.045 C 
HETATM    4  C4  UNL     1     -33.464  17.629  -3.925  1.00 20.00     0.167 C 
HETATM    5  C5  UNL     1     -33.514  19.262  -2.205  1.00 20.00     0.208 C 
HETATM    6  C6  UNL     1     -33.230  18.236  -1.103  1.00 20.00     0.146 C 
HETATM    7  N7  UNL     1     -34.470  18.896   1.122  1.00 20.00    -0.195 NA
HETATM    8  O8  UNL     1     -32.942  18.869  -3.454  1.00 20.00    -0.388 OA
HETATM    9 CL9  UNL     1     -31.471  18.258  -0.722  1.00 20.00    -0.101 Cl
ENDROOT
TORSDOF 0
ENDMDL
MODEL 3
REMARK VINA RESULT:      -3.4     17.535     18.397
REMARK  0 active torsions:
REMARK  status: ('A' for Active; 'I' for Inactive)
ROOT
HETATM    1  C1  UNL     1     -42.074  14.812   6.350  1.00 20.00     0.087 C 
HETATM    2  C2  UNL     1     -39.923  11.992   4.911  1.00 20.00     0.029 C 
HETATM    3  C3  UNL     1     -40.869  13.192   4.924  1.00 20.00     0.045 C 
HETATM    4  C4  UNL     1     -38.833  12.159   5.959  1.00 20.00     0.167 C 
HETATM    5  C5  UNL     1     -40.181  13.557   7.322  1.00 20.00     0.208 C 
HETATM    6  C6  UNL     1     -41.357  13.528   6.339  1.00 20.00     0.146 C 
HETATM    7  N7  UNL     1     -42.640  15.825   6.359  1.00 20.00    -0.195 NA
HETATM    8  O8  UNL     1     -39.402  12.360   7.251  1.00 20.00    -0.388 OA
HETATM    9 CL9  UNL     1     -42.543  12.287   6.883  1.00 20.00    -0.101 Cl
ENDROOT
TORSDOF 0
ENDMDL
MODEL 4
REMARK VINA RESULT:      -3.3     17.752     18.561
REMARK  0 active torsions:
REMARK  status: ('A' for Active; 'I' for Inactive)
ROOT
HETATM    1  C1  UNL     1     -41.693  13.939   4.830  1.00 20.00     0.087 C 
HETATM    2  C2  UNL     1     -40.450  14.342   8.428  1.00 20.00     0.029 C 
HETATM    3  C3  UNL     1     -40.594  14.630   6.933  1.00 20.00     0.045 C 
HETATM    4  C4  UNL     1     -41.798  13.982   9.035  1.00 20.00     0.167 C 
HETATM    5  C5  UNL     1     -42.655  13.177   6.974  1.00 20.00     0.208 C 
HETATM    6  C6  UNL     1     -41.375  13.528   6.206  1.00 20.00     0.146 C 
HETATM    7  N7  UNL     1     -41.943  14.263   3.744  1.00 20.00    -0.195 NA
HETATM    8  O8  UNL     1     -42.383  12.880   8.346  1.00 20.00    -0.388 OA
HETATM    9 CL9  UNL     1     -40.354  12.052   6.065  1.00 20.00    -0.101 Cl
ENDROOT
TORSDOF 0
ENDMDL
MODEL 5
REMARK VINA RESULT:      -3.3     19.886     20.190
REMARK  0 active torsions:
REMARK  status: ('A' for Active; 'I' for Inactive)
ROOT
HETATM    1  C1  UNL     1     -33.878  15.791  -4.107  1.00 20.00     0.087 C 
HETATM    2  C2  UNL     1     -36.742  16.206  -6.613  1.00 20.00     0.029 C 
HETATM    3  C3  UNL     1     -35.895  16.466  -5.367  1.00 20.00     0.045 C 
HETATM    4  C4  UNL     1     -35.853  15.942  -7.818  1.00 20.00     0.167 C 
HETATM    5  C5  UNL     1     -34.063  15.141  -6.483  1.00 20.00     0.208 C 
HETATM    6  C6  UNL     1     -34.813  15.395  -5.171  1.00 20.00     0.146 C 
HETATM    7  N7  UNL     1     -33.140  16.104  -3.268  1.00 20.00    -0.195 NA
HETATM    8  O8  UNL     1     -34.960  14.861  -7.560  1.00 20.00    -0.388 OA
HETATM    9 CL9  UNL     1     -35.573  13.858  -4.624  1.00 20.00    -0.101 Cl
ENDROOT
TORSDOF 0
ENDMDL
MODEL 6
REMARK VINA RESULT:      -3.2     23.899     24.301
REMARK  0 active torsions:
REMARK  status: ('A' for Active; 'I' for Inactive)
ROOT
HETATM    1  C1  UNL     1     -43.086   8.477  -0.096  1.00 20.00     0.087 C 
HETATM    2  C2  UNL     1     -43.184   5.430   2.219  1.00 20.00     0.029 C 
HETATM    3  C3  UNL     1     -43.415   6.867   1.751  1.00 20.00     0.045 C 
HETATM    4  C4  UNL     1     -43.417   4.451   1.079  1.00 20.00     0.167 C 
HETATM    5  C5  UNL     1     -42.891   6.062  -0.581  1.00 20.00     0.208 C 
HETATM    6  C6  UNL     1     -42.666   7.176   0.447  1.00 20.00     0.146 C 
HETATM    7  N7  UNL     1     -43.417   9.503  -0.525  1.00 20.00    -0.195 NA
HETATM    8  O8  UNL     1     -42.593   4.774  -0.039  1.00 20.00    -0.388 OA
HETATM    9 CL9  UNL     1     -40.903   7.318   0.781  1.00 20.00    -0.101 Cl
ENDROOT
TORSDOF 0
ENDMDL
MODEL 7
REMARK VINA RESULT:      -3.2     17.574     17.979
REMARK  0 active torsions:
REMARK  status: ('A' for Active; 'I' for Inactive)
ROOT
HETATM    1  C1  UNL     1     -34.804  18.617  -2.163  1.00 20.00     0.087 C 
HETATM    2  C2  UNL     1     -33.069  15.628  -3.809  1.00 20.00     0.029 C 
HETATM    3  C3  UNL     1     -33.533  16.564  -2.693  1.00 20.00     0.045 C 
HETATM    4  C4  UNL     1     -34.174  15.430  -4.836  1.00 20.00     0.167 C 
HETATM    5  C5  UNL     1     -35.179  17.523  -4.346  1.00 20.00     0.208 C 
HETATM    6  C6  UNL     1     -34.166  17.849  -3.243  1.00 20.00     0.146 C 
HETATM    7  N7  UNL     1     -35.307  19.222  -1.310  1.00 20.00    -0.195 NA
HETATM    8  O8  UNL     1     -34.611  16.684  -5.354  1.00 20.00    -0.388 OA
HETATM    9 CL9  UNL     1     -32.883  18.913  -3.923  1.00 20.00    -0.101 Cl
ENDROOT
TORSDOF 0
ENDMDL
MODEL 8
REMARK VINA RESULT:      -3.2     16.017     16.397
REMARK  0 active torsions:
REMARK  status: ('A' for Active; 'I' for Inactive)
ROOT
HETATM    1  C1  UNL     1     -31.816  18.509  -1.091  1.00 20.00     0.087 C 
HETATM    2  C2  UNL     1     -33.900  18.932  -4.273  1.00 20.00     0.029 C 
HETATM    3  C3  UNL     1     -32.828  19.234  -3.227  1.00 20.00     0.045 C 
HETATM    4  C4  UNL     1     -33.997  17.435  -4.524  1.00 20.00     0.167 C 
HETATM    5  C5  UNL     1     -33.185  16.891  -2.362  1.00 20.00     0.208 C 
HETATM    6  C6  UNL     1     -32.983  18.361  -1.974  1.00 20.00     0.146 C 
HETATM    7  N7  UNL     1     -30.895  18.625  -0.395  1.00 20.00    -0.195 NA
HETATM    8  O8  UNL     1     -34.246  16.735  -3.307  1.00 20.00    -0.388 OA
HETATM    9 CL9  UNL     1     -34.405  18.915  -1.020  1.00 20.00    -0.101 Cl
ENDROOT
TORSDOF 0
ENDMDL
MODEL 9
REMARK VINA RESULT:      -3.1     17.750     18.562
REMARK  0 active torsions:
REMARK  status: ('A' for Active; 'I' for Inactive)
ROOT
HETATM    1  C1  UNL     1     -40.139  12.409   5.254  1.00 20.00     0.087 C 
HETATM    2  C2  UNL     1     -43.072  13.144   7.600  1.00 20.00     0.029 C 
HETATM    3  C3  UNL     1     -42.158  12.338   6.679  1.00 20.00     0.045 C 
HETATM    4  C4  UNL     1     -42.255  14.072   8.487  1.00 20.00     0.167 C 
HETATM    5  C5  UNL     1     -40.468  14.193   6.931  1.00 20.00     0.208 C 
HETATM    6  C6  UNL     1     -41.143  13.228   5.949  1.00 20.00     0.146 C 
HETATM    7  N7  UNL     1     -39.347  11.762   4.705  1.00 20.00    -0.195 NA
HETATM    8  O8  UNL     1     -41.428  14.924   7.698  1.00 20.00    -0.388 OA
HETATM    9 CL9  UNL     1     -41.981  14.183   4.673  1.00 20.00    -0.101 Cl
ENDROOT
TORSDOF 0
ENDMDL
