MODEL 1
REMARK VINA RESULT:      -4.5      0.000      0.000
REMARK  1 active torsions:
REMARK  status: ('A' for Active; 'I' for Inactive)
REMARK    1  A    between atoms: C4_4  and  C6_6 
ROOT
HETATM    1  C1  UNL     1     -34.796   5.043   6.051  1.00 20.00     0.135 A 
HETATM    2  C2  UNL     1     -34.436   6.241   6.627  1.00 20.00     0.136 A 
HETATM    3  C3  UNL     1     -34.002   5.772   4.034  1.00 20.00     0.144 A 
HETATM    4  C4  UNL     1     -33.643   6.971   4.610  1.00 20.00     0.069 A 
HETATM    5  N7  UNL     1     -34.586   4.787   4.744  1.00 20.00    -0.270 NA
HETATM    6  N8  UNL     1     -33.853   7.227   5.916  1.00 20.00    -0.261 NA
ENDROOT
BRANCH   4   7
HETATM    7  C6  UNL     1     -33.001   8.038   3.793  1.00 20.00     0.131 C 
HETATM    8  C5  UNL     1     -32.053   7.522   2.702  1.00 20.00     0.033 C 
HETATM    9 CL9  UNL     1     -32.106   9.180   4.855  1.00 20.00    -0.119 Cl
ENDBRANCH   4   7
TORSDOF 1
ENDMDL
MODEL 2
REMARK VINA RESULT:      -4.5      0.905      1.589
REMARK  1 active torsions:
REMARK  status: ('A' for Active; 'I' for Inactive)
REMARK    1  A    between atoms: C4_4  and  C6_6 
ROOT
HETATM    1  C1  UNL     1     -34.739   5.082   6.026  1.00 20.00     0.135 A 
HETATM    2  C2  UNL     1     -34.460   4.909   4.689  1.00 20.00     0.136 A 
HETATM    3  C3  UNL     1     -33.891   7.203   5.931  1.00 20.00     0.144 A 
HETATM    4  C4  UNL     1     -33.611   7.030   4.594  1.00 20.00     0.069 A 
HETATM    5  N7  UNL     1     -34.460   6.231   6.672  1.00 20.00    -0.270 NA
HETATM    6  N8  UNL     1     -33.891   5.881   3.948  1.00 20.00    -0.261 NA
ENDROOT
BRANCH   4   7
HETATM    7  C6  UNL     1     -32.980   8.126   3.806  1.00 20.00     0.131 C 
HETATM    8  C5  UNL     1     -32.058   7.650   2.676  1.00 20.00     0.033 C 
HETATM    9 CL9  UNL     1     -32.059   9.222   4.893  1.00 20.00    -0.119 Cl
ENDBRANCH   4   7
TORSDOF 1
ENDMDL
MODEL 3
REMARK VINA RESULT:      -4.3      2.278      4.015
REMARK  1 active torsions:
REMARK  status: ('A' for Active; 'I' for Inactive)
REMARK    1  A    between atoms: C4_4  and  C6_6 
ROOT
HETATM    1  C1  UNL     1     -32.103   8.773   3.861  1.00 20.00     0.135 A 
HETATM    2  C2  UNL     1     -32.199   7.631   3.098  1.00 20.00     0.136 A 
HETATM    3  C3  UNL     1     -33.597   7.901   5.356  1.00 20.00     0.144 A 
HETATM    4  C4  UNL     1     -33.694   6.758   4.592  1.00 20.00     0.069 A 
HETATM    5  N7  UNL     1     -32.801   8.929   5.004  1.00 20.00    -0.270 NA
HETATM    6  N8  UNL     1     -32.997   6.603   3.450  1.00 20.00    -0.261 NA
ENDROOT
BRANCH   4   7
HETATM    7  C6  UNL     1     -34.586   5.642   5.012  1.00 20.00     0.131 C 
HETATM    8  C5  UNL     1     -34.698   5.453   6.531  1.00 20.00     0.033 C 
HETATM    9 CL9  UNL     1     -34.044   4.099   4.268  1.00 20.00    -0.119 Cl
ENDBRANCH   4   7
TORSDOF 1
ENDMDL
MODEL 4
REMARK VINA RESULT:      -4.1      2.344      3.711
REMARK  1 active torsions:
REMARK  status: ('A' for Active; 'I' for Inactive)
REMARK    1  A    between atoms: C4_4  and  C6_6 
ROOT
HETATM    1  C1  UNL     1     -32.107   8.726   3.770  1.00 20.00     0.135 A 
HETATM    2  C2  UNL     1     -32.813   8.821   4.948  1.00 20.00     0.136 A 
HETATM    3  C3  UNL     1     -32.995   6.651   3.403  1.00 20.00     0.144 A 
HETATM    4  C4  UNL     1     -33.701   6.745   4.582  1.00 20.00     0.069 A 
HETATM    5  N7  UNL     1     -32.184   7.639   2.976  1.00 20.00    -0.270 NA
HETATM    6  N8  UNL     1     -33.624   7.832   5.375  1.00 20.00    -0.261 NA
ENDROOT
BRANCH   4   7
HETATM    7  C6  UNL     1     -34.587   5.632   5.022  1.00 20.00     0.131 C 
HETATM    8  C5  UNL     1     -34.692   5.466   6.545  1.00 20.00     0.033 C 
HETATM    9 CL9  UNL     1     -34.043   4.080   4.298  1.00 20.00    -0.119 Cl
ENDBRANCH   4   7
TORSDOF 1
ENDMDL
MODEL 5
REMARK VINA RESULT:      -3.6      2.239      3.875
REMARK  1 active torsions:
REMARK  status: ('A' for Active; 'I' for Inactive)
REMARK    1  A    between atoms: C4_4  and  C6_6 
ROOT
HETATM    1  C1  UNL     1     -31.907   8.644   3.822  1.00 20.00     0.135 A 
HETATM    2  C2  UNL     1     -32.075   7.573   2.972  1.00 20.00     0.136 A 
HETATM    3  C3  UNL     1     -33.378   7.705   5.300  1.00 20.00     0.144 A 
HETATM    4  C4  UNL     1     -33.547   6.634   4.449  1.00 20.00     0.069 A 
HETATM    5  N7  UNL     1     -32.555   8.729   5.001  1.00 20.00    -0.270 NA
HETATM    6  N8  UNL     1     -32.898   6.548   3.272  1.00 20.00    -0.261 NA
ENDROOT
BRANCH   4   7
HETATM    7  C6  UNL     1     -34.466   5.519   4.813  1.00 20.00     0.131 C 
HETATM    8  C5  UNL     1     -35.907   5.695   4.316  1.00 20.00     0.033 C 
HETATM    9 CL9  UNL     1     -34.484   5.284   6.594  1.00 20.00    -0.119 Cl
ENDBRANCH   4   7
TORSDOF 1
ENDMDL
MODEL 6
REMARK VINA RESULT:      -3.6      1.669      1.952
REMARK  1 active torsions:
REMARK  status: ('A' for Active; 'I' for Inactive)
REMARK    1  A    between atoms: C4_4  and  C6_6 
ROOT
HETATM    1  C1  UNL     1     -34.527   6.485   6.690  1.00 20.00     0.135 A 
HETATM    2  C2  UNL     1     -33.784   7.462   6.068  1.00 20.00     0.136 A 
HETATM    3  C3  UNL     1     -34.482   5.231   4.778  1.00 20.00     0.144 A 
HETATM    4  C4  UNL     1     -33.739   6.210   4.155  1.00 20.00     0.069 A 
HETATM    5  N7  UNL     1     -34.890   5.351   6.056  1.00 20.00    -0.270 NA
HETATM    6  N8  UNL     1     -33.376   7.342   4.789  1.00 20.00    -0.261 NA
ENDROOT
BRANCH   4   7
HETATM    7  C6  UNL     1     -33.305   6.043   2.740  1.00 20.00     0.131 C 
HETATM    8  C5  UNL     1     -32.737   4.656   2.407  1.00 20.00     0.033 C 
HETATM    9 CL9  UNL     1     -32.089   7.294   2.310  1.00 20.00    -0.119 Cl
ENDBRANCH   4   7
TORSDOF 1
ENDMDL
MODEL 7
REMARK VINA RESULT:      -3.6     15.551     16.607
REMARK  1 active torsions:
REMARK  status: ('A' for Active; 'I' for Inactive)
REMARK    1  A    between atoms: C4_4  and  C6_6 
ROOT
HETATM    1  C1  UNL     1     -21.336  18.191   8.214  1.00 20.00     0.135 A 
HETATM    2  C2  UNL     1     -21.594  19.185   9.131  1.00 20.00     0.136 A 
HETATM    3  C3  UNL     1     -22.986  16.906   9.140  1.00 20.00     0.144 A 
HETATM    4  C4  UNL     1     -23.244  17.901  10.058  1.00 20.00     0.069 A 
HETATM    5  N7  UNL     1     -22.027  17.033   8.202  1.00 20.00    -0.270 NA
HETATM    6  N8  UNL     1     -22.554  19.058  10.070  1.00 20.00    -0.261 NA
ENDROOT
BRANCH   4   7
HETATM    7  C6  UNL     1     -24.312  17.725  11.082  1.00 20.00     0.131 C 
HETATM    8  C5  UNL     1     -24.151  18.607  12.328  1.00 20.00     0.033 C 
HETATM    9 CL9  UNL     1     -24.409  16.004  11.589  1.00 20.00    -0.119 Cl
ENDBRANCH   4   7
TORSDOF 1
ENDMDL
MODEL 8
REMARK VINA RESULT:      -3.6      1.443      2.311
REMARK  1 active torsions:
REMARK  status: ('A' for Active; 'I' for Inactive)
REMARK    1  A    between atoms: C4_4  and  C6_6 
ROOT
HETATM    1  C1  UNL     1     -34.514   6.523   6.689  1.00 20.00     0.135 A 
HETATM    2  C2  UNL     1     -34.784   5.361   6.003  1.00 20.00     0.136 A 
HETATM    3  C3  UNL     1     -33.471   7.374   4.841  1.00 20.00     0.144 A 
HETATM    4  C4  UNL     1     -33.740   6.211   4.154  1.00 20.00     0.069 A 
HETATM    5  N7  UNL     1     -33.852   7.551   6.121  1.00 20.00    -0.270 NA
HETATM    6  N8  UNL     1     -34.402   5.184   4.722  1.00 20.00    -0.261 NA
ENDROOT
BRANCH   4   7
HETATM    7  C6  UNL     1     -33.303   6.050   2.739  1.00 20.00     0.131 C 
HETATM    8  C5  UNL     1     -32.734   4.665   2.402  1.00 20.00     0.033 C 
HETATM    9 CL9  UNL     1     -32.084   7.303   2.320  1.00 20.00    -0.119 Cl
ENDBRANCH   4   7
TORSDOF 1
ENDMDL
MODEL 9
REMARK VINA RESULT:      -3.5     15.557     16.771
REMARK  1 active torsions:
REMARK  status: ('A' for Active; 'I' for Inactive)
REMARK    1  A    between atoms: C4_4  and  C6_6 
ROOT
HETATM    1  C1  UNL     1     -22.510  19.160   8.648  1.00 20.00     0.135 A 
HETATM    2  C2  UNL     1     -23.887  19.163   8.678  1.00 20.00     0.136 A 
HETATM    3  C3  UNL     1     -22.463  18.508  10.839  1.00 20.00     0.144 A 
HETATM    4  C4  UNL     1     -23.840  18.512  10.869  1.00 20.00     0.069 A 
HETATM    5  N7  UNL     1     -21.773  18.833   9.729  1.00 20.00    -0.270 NA
HETATM    6  N8  UNL     1     -24.577  18.838   9.789  1.00 20.00    -0.261 NA
ENDROOT
BRANCH   4   7
HETATM    7  C6  UNL     1     -24.570  18.148  12.116  1.00 20.00     0.131 C 
HETATM    8  C5  UNL     1     -25.020  16.682  12.186  1.00 20.00     0.033 C 
HETATM    9 CL9  UNL     1     -26.002  19.212  12.332  1.00 20.00    -0.119 Cl
ENDBRANCH   4   7
TORSDOF 1
ENDMDL
