MODEL 1
REMARK VINA RESULT:      -3.9      0.000      0.000
REMARK  1 active torsions:
REMARK  status: ('A' for Active; 'I' for Inactive)
REMARK    1  A    between atoms: C1_1  and  C5_5 
ROOT
HETATM    1  C2  UNL     1     -33.756   6.908   6.390  1.00 20.00     0.022 C 
HETATM    2  C3  UNL     1     -34.758   5.766   6.347  1.00 20.00     0.075 C 
HETATM    3  C4  UNL     1     -33.584   6.391   4.011  1.00 20.00     0.085 C 
HETATM    4  C5  UNL     1     -33.753   7.535   5.002  1.00 20.00     0.057 C 
HETATM    5  S7  UNL     1     -34.533   5.011   4.714  1.00 20.00    -0.168 SA
ENDROOT
BRANCH   4   6
HETATM    6  C1  UNL     1     -32.634   8.516   4.857  1.00 20.00     0.236 C 
HETATM    7  O6  UNL     1     -32.288   8.994   3.781  1.00 20.00    -0.306 OA
ENDBRANCH   4   6
TORSDOF 1
ENDMDL
MODEL 2
REMARK VINA RESULT:      -3.9      2.733      3.651
REMARK  1 active torsions:
REMARK  status: ('A' for Active; 'I' for Inactive)
REMARK    1  A    between atoms: C1_1  and  C5_5 
ROOT
HETATM    1  C2  UNL     1     -32.983   6.284   3.495  1.00 20.00     0.022 C 
HETATM    2  C3  UNL     1     -32.339   7.624   3.184  1.00 20.00     0.075 C 
HETATM    3  C4  UNL     1     -33.599   7.446   5.551  1.00 20.00     0.085 C 
HETATM    4  C5  UNL     1     -34.149   6.570   4.432  1.00 20.00     0.057 C 
HETATM    5  S7  UNL     1     -32.396   8.542   4.746  1.00 20.00    -0.168 SA
ENDROOT
BRANCH   4   6
HETATM    6  C1  UNL     1     -34.712   5.304   4.995  1.00 20.00     0.236 C 
HETATM    7  O6  UNL     1     -34.327   4.187   4.664  1.00 20.00    -0.306 OA
ENDBRANCH   4   6
TORSDOF 1
ENDMDL
MODEL 3
REMARK VINA RESULT:      -3.5      2.589      3.290
REMARK  1 active torsions:
REMARK  status: ('A' for Active; 'I' for Inactive)
REMARK    1  A    between atoms: C1_1  and  C5_5 
ROOT
HETATM    1  C2  UNL     1     -33.746   8.067   5.377  1.00 20.00     0.022 C 
HETATM    2  C3  UNL     1     -32.499   8.737   4.826  1.00 20.00     0.075 C 
HETATM    3  C4  UNL     1     -33.203   6.421   3.659  1.00 20.00     0.085 C 
HETATM    4  C5  UNL     1     -33.583   6.574   5.125  1.00 20.00     0.057 C 
HETATM    5  S7  UNL     1     -32.121   7.833   3.300  1.00 20.00    -0.168 SA
ENDROOT
BRANCH   4   6
HETATM    6  C1  UNL     1     -34.854   5.837   5.411  1.00 20.00     0.236 C 
HETATM    7  O6  UNL     1     -35.082   4.701   5.009  1.00 20.00    -0.306 OA
ENDBRANCH   4   6
TORSDOF 1
ENDMDL
MODEL 4
REMARK VINA RESULT:      -3.4      1.136      1.721
REMARK  1 active torsions:
REMARK  status: ('A' for Active; 'I' for Inactive)
REMARK    1  A    between atoms: C1_1  and  C5_5 
ROOT
HETATM    1  C2  UNL     1     -34.069   6.114   3.906  1.00 20.00     0.022 C 
HETATM    2  C3  UNL     1     -34.401   4.869   4.710  1.00 20.00     0.075 C 
HETATM    3  C4  UNL     1     -33.894   7.089   6.137  1.00 20.00     0.085 C 
HETATM    4  C5  UNL     1     -33.184   6.980   4.794  1.00 20.00     0.057 C 
HETATM    5  S7  UNL     1     -34.654   5.462   6.405  1.00 20.00    -0.168 SA
ENDROOT
BRANCH   4   6
HETATM    6  C1  UNL     1     -32.989   8.338   4.198  1.00 20.00     0.236 C 
HETATM    7  O6  UNL     1     -32.198   9.164   4.643  1.00 20.00    -0.306 OA
ENDBRANCH   4   6
TORSDOF 1
ENDMDL
MODEL 5
REMARK VINA RESULT:      -3.3     15.666     16.277
REMARK  1 active torsions:
REMARK  status: ('A' for Active; 'I' for Inactive)
REMARK    1  A    between atoms: C1_1  and  C5_5 
ROOT
HETATM    1  C2  UNL     1     -23.961  17.477  10.216  1.00 20.00     0.022 C 
HETATM    2  C3  UNL     1     -24.010  17.343  11.728  1.00 20.00     0.075 C 
HETATM    3  C4  UNL     1     -21.822  18.537  10.724  1.00 20.00     0.085 C 
HETATM    4  C5  UNL     1     -22.488  17.499   9.830  1.00 20.00     0.057 C 
HETATM    5  S7  UNL     1     -22.650  18.378  12.332  1.00 20.00    -0.168 SA
ENDROOT
BRANCH   4   6
HETATM    6  C1  UNL     1     -22.313  17.866   8.391  1.00 20.00     0.236 C 
HETATM    7  O6  UNL     1     -21.848  17.102   7.550  1.00 20.00    -0.306 OA
ENDBRANCH   4   6
TORSDOF 1
ENDMDL
MODEL 6
REMARK VINA RESULT:      -3.2      1.975      2.457
REMARK  1 active torsions:
REMARK  status: ('A' for Active; 'I' for Inactive)
REMARK    1  A    between atoms: C1_1  and  C5_5 
ROOT
HETATM    1  C2  UNL     1     -33.198   7.166   5.049  1.00 20.00     0.022 C 
HETATM    2  C3  UNL     1     -34.088   7.172   6.280  1.00 20.00     0.075 C 
HETATM    3  C4  UNL     1     -34.262   4.995   4.713  1.00 20.00     0.085 C 
HETATM    4  C5  UNL     1     -33.898   6.297   4.012  1.00 20.00     0.057 C 
HETATM    5  S7  UNL     1     -34.728   5.480   6.400  1.00 20.00    -0.168 SA
ENDROOT
BRANCH   4   6
HETATM    6  C1  UNL     1     -33.003   6.026   2.845  1.00 20.00     0.236 C 
HETATM    7  O6  UNL     1     -32.724   4.896   2.455  1.00 20.00    -0.306 OA
ENDBRANCH   4   6
TORSDOF 1
ENDMDL
MODEL 7
REMARK VINA RESULT:      -3.1     15.291     16.317
REMARK  1 active torsions:
REMARK  status: ('A' for Active; 'I' for Inactive)
REMARK    1  A    between atoms: C1_1  and  C5_5 
ROOT
HETATM    1  C2  UNL     1     -21.791  18.466  10.885  1.00 20.00     0.022 C 
HETATM    2  C3  UNL     1     -22.595  18.435  12.173  1.00 20.00     0.075 C 
HETATM    3  C4  UNL     1     -23.657  17.108  10.091  1.00 20.00     0.085 C 
HETATM    4  C5  UNL     1     -22.790  18.312   9.746  1.00 20.00     0.057 C 
HETATM    5  S7  UNL     1     -23.877  17.183  11.892  1.00 20.00    -0.168 SA
ENDROOT
BRANCH   4   6
HETATM    6  C1  UNL     1     -22.091  18.090   8.442  1.00 20.00     0.236 C 
HETATM    7  O6  UNL     1     -22.029  16.999   7.885  1.00 20.00    -0.306 OA
ENDBRANCH   4   6
TORSDOF 1
ENDMDL
MODEL 8
REMARK VINA RESULT:      -3.0     12.841     13.598
REMARK  1 active torsions:
REMARK  status: ('A' for Active; 'I' for Inactive)
REMARK    1  A    between atoms: C1_1  and  C5_5 
ROOT
HETATM    1  C2  UNL     1     -34.071  14.752  -4.223  1.00 20.00     0.022 C 
HETATM    2  C3  UNL     1     -33.094  15.778  -3.675  1.00 20.00     0.075 C 
HETATM    3  C4  UNL     1     -35.169  16.760  -5.072  1.00 20.00     0.085 C 
HETATM    4  C5  UNL     1     -34.693  15.369  -5.469  1.00 20.00     0.057 C 
HETATM    5  S7  UNL     1     -33.915  17.377  -3.913  1.00 20.00    -0.168 SA
ENDROOT
BRANCH   4   6
HETATM    6  C1  UNL     1     -35.842  14.547  -5.960  1.00 20.00     0.236 C 
HETATM    7  O6  UNL     1     -36.009  14.254  -7.139  1.00 20.00    -0.306 OA
ENDBRANCH   4   6
TORSDOF 1
ENDMDL
MODEL 9
REMARK VINA RESULT:      -3.0     12.968     13.547
REMARK  1 active torsions:
REMARK  status: ('A' for Active; 'I' for Inactive)
REMARK    1  A    between atoms: C1_1  and  C5_5 
ROOT
HETATM    1  C2  UNL     1     -33.087  16.881  -2.350  1.00 20.00     0.022 C 
HETATM    2  C3  UNL     1     -33.945  17.026  -3.595  1.00 20.00     0.075 C 
HETATM    3  C4  UNL     1     -32.675  19.249  -2.777  1.00 20.00     0.085 C 
HETATM    4  C5  UNL     1     -33.049  18.252  -1.688  1.00 20.00     0.057 C 
HETATM    5  S7  UNL     1     -33.512  18.650  -4.273  1.00 20.00    -0.168 SA
ENDROOT
BRANCH   4   6
HETATM    6  C1  UNL     1     -32.041  18.289  -0.583  1.00 20.00     0.236 C 
HETATM    7  O6  UNL     1     -30.892  18.694  -0.729  1.00 20.00    -0.306 OA
ENDBRANCH   4   6
TORSDOF 1
ENDMDL
