MODEL 1
REMARK VINA RESULT:      -3.9      0.000      0.000
REMARK  1 active torsions:
REMARK  status: ('A' for Active; 'I' for Inactive)
REMARK    1  A    between atoms: C1_1  and  C5_5 
ROOT
HETATM    1  C2  UNL     1     -33.500   7.422   5.724  1.00 20.00     0.022 C 
HETATM    2  C3  UNL     1     -32.763   8.553   5.028  1.00 20.00     0.075 C 
HETATM    3  C4  UNL     1     -33.220   6.360   3.544  1.00 20.00     0.085 C 
HETATM    4  C5  UNL     1     -34.238   6.653   4.636  1.00 20.00     0.057 C 
HETATM    5  S7  UNL     1     -32.162   7.835   3.475  1.00 20.00    -0.168 SA
ENDROOT
BRANCH   4   6
HETATM    6  C1  UNL     1     -34.810   5.386   5.189  1.00 20.00     0.236 C 
HETATM    7  O6  UNL     1     -34.487   4.270   4.795  1.00 20.00    -0.306 OA
ENDBRANCH   4   6
TORSDOF 1
ENDMDL
MODEL 2
REMARK VINA RESULT:      -3.9      2.707      3.617
REMARK  1 active torsions:
REMARK  status: ('A' for Active; 'I' for Inactive)
REMARK    1  A    between atoms: C1_1  and  C5_5 
ROOT
HETATM    1  C2  UNL     1     -33.658   6.023   3.949  1.00 20.00     0.022 C 
HETATM    2  C3  UNL     1     -34.652   5.087   4.612  1.00 20.00     0.075 C 
HETATM    3  C4  UNL     1     -33.716   7.086   6.146  1.00 20.00     0.085 C 
HETATM    4  C5  UNL     1     -33.793   7.368   4.652  1.00 20.00     0.057 C 
HETATM    5  S7  UNL     1     -34.587   5.509   6.375  1.00 20.00    -0.168 SA
ENDROOT
BRANCH   4   6
HETATM    6  C1  UNL     1     -32.698   8.293   4.224  1.00 20.00     0.236 C 
HETATM    7  O6  UNL     1     -32.191   9.128   4.965  1.00 20.00    -0.306 OA
ENDBRANCH   4   6
TORSDOF 1
ENDMDL
MODEL 3
REMARK VINA RESULT:      -3.7      2.643      3.317
REMARK  1 active torsions:
REMARK  status: ('A' for Active; 'I' for Inactive)
REMARK    1  A    between atoms: C1_1  and  C5_5 
ROOT
HETATM    1  C2  UNL     1     -34.252   6.941   6.444  1.00 20.00     0.022 C 
HETATM    2  C3  UNL     1     -34.512   5.445   6.472  1.00 20.00     0.075 C 
HETATM    3  C4  UNL     1     -33.792   6.467   4.093  1.00 20.00     0.085 C 
HETATM    4  C5  UNL     1     -33.251   7.185   5.321  1.00 20.00     0.057 C 
HETATM    5  S7  UNL     1     -34.545   4.943   4.730  1.00 20.00    -0.168 SA
ENDROOT
BRANCH   4   6
HETATM    6  C1  UNL     1     -33.104   8.652   5.063  1.00 20.00     0.236 C 
HETATM    7  O6  UNL     1     -32.150   9.141   4.468  1.00 20.00    -0.306 OA
ENDBRANCH   4   6
TORSDOF 1
ENDMDL
MODEL 4
REMARK VINA RESULT:      -3.6      1.020      1.053
REMARK  1 active torsions:
REMARK  status: ('A' for Active; 'I' for Inactive)
REMARK    1  A    between atoms: C1_1  and  C5_5 
ROOT
HETATM    1  C2  UNL     1     -32.957   8.078   5.365  1.00 20.00     0.022 C 
HETATM    2  C3  UNL     1     -32.421   8.642   4.061  1.00 20.00     0.075 C 
HETATM    3  C4  UNL     1     -33.402   6.143   3.946  1.00 20.00     0.085 C 
HETATM    4  C5  UNL     1     -34.025   7.058   4.989  1.00 20.00     0.057 C 
HETATM    5  S7  UNL     1     -32.355   7.225   2.931  1.00 20.00    -0.168 SA
ENDROOT
BRANCH   4   6
HETATM    6  C1  UNL     1     -34.453   6.283   6.195  1.00 20.00     0.236 C 
HETATM    7  O6  UNL     1     -34.755   5.095   6.163  1.00 20.00    -0.306 OA
ENDBRANCH   4   6
TORSDOF 1
ENDMDL
MODEL 5
REMARK VINA RESULT:      -3.3      0.935      1.685
REMARK  1 active torsions:
REMARK  status: ('A' for Active; 'I' for Inactive)
REMARK    1  A    between atoms: C1_1  and  C5_5 
ROOT
HETATM    1  C2  UNL     1     -33.302   6.523   3.502  1.00 20.00     0.022 C 
HETATM    2  C3  UNL     1     -32.140   7.482   3.310  1.00 20.00     0.075 C 
HETATM    3  C4  UNL     1     -33.689   7.925   5.461  1.00 20.00     0.085 C 
HETATM    4  C5  UNL     1     -33.586   6.480   4.998  1.00 20.00     0.057 C 
HETATM    5  S7  UNL     1     -32.441   8.823   4.494  1.00 20.00    -0.168 SA
ENDROOT
BRANCH   4   6
HETATM    6  C1  UNL     1     -34.858   5.739   5.266  1.00 20.00     0.236 C 
HETATM    7  O6  UNL     1     -35.054   4.582   4.909  1.00 20.00    -0.306 OA
ENDBRANCH   4   6
TORSDOF 1
ENDMDL
MODEL 6
REMARK VINA RESULT:      -3.3      1.987      2.876
REMARK  1 active torsions:
REMARK  status: ('A' for Active; 'I' for Inactive)
REMARK    1  A    between atoms: C1_1  and  C5_5 
ROOT
HETATM    1  C2  UNL     1     -34.125   4.869   4.777  1.00 20.00     0.022 C 
HETATM    2  C3  UNL     1     -34.844   5.341   6.028  1.00 20.00     0.075 C 
HETATM    3  C4  UNL     1     -33.339   7.179   4.774  1.00 20.00     0.085 C 
HETATM    4  C5  UNL     1     -33.943   6.096   3.893  1.00 20.00     0.057 C 
HETATM    5  S7  UNL     1     -34.126   6.965   6.396  1.00 20.00    -0.168 SA
ENDROOT
BRANCH   4   6
HETATM    6  C1  UNL     1     -33.044   5.779   2.740  1.00 20.00     0.236 C 
HETATM    7  O6  UNL     1     -32.705   4.639   2.440  1.00 20.00    -0.306 OA
ENDBRANCH   4   6
TORSDOF 1
ENDMDL
MODEL 7
REMARK VINA RESULT:      -3.3     15.925     16.698
REMARK  1 active torsions:
REMARK  status: ('A' for Active; 'I' for Inactive)
REMARK    1  A    between atoms: C1_1  and  C5_5 
ROOT
HETATM    1  C2  UNL     1     -22.103  18.454  11.066  1.00 20.00     0.022 C 
HETATM    2  C3  UNL     1     -22.935  18.340  12.331  1.00 20.00     0.075 C 
HETATM    3  C4  UNL     1     -24.267  18.034  10.018  1.00 20.00     0.085 C 
HETATM    4  C5  UNL     1     -22.805  17.611  10.008  1.00 20.00     0.057 C 
HETATM    5  S7  UNL     1     -24.657  18.354  11.762  1.00 20.00    -0.168 SA
ENDROOT
BRANCH   4   6
HETATM    6  C1  UNL     1     -22.189  17.841   8.665  1.00 20.00     0.236 C 
HETATM    7  O6  UNL     1     -22.010  16.949   7.842  1.00 20.00    -0.306 OA
ENDBRANCH   4   6
TORSDOF 1
ENDMDL
MODEL 8
REMARK VINA RESULT:      -2.9     13.059     13.650
REMARK  1 active torsions:
REMARK  status: ('A' for Active; 'I' for Inactive)
REMARK    1  A    between atoms: C1_1  and  C5_5 
ROOT
HETATM    1  C2  UNL     1     -33.069  17.076  -2.214  1.00 20.00     0.022 C 
HETATM    2  C3  UNL     1     -34.081  17.244  -3.334  1.00 20.00     0.075 C 
HETATM    3  C4  UNL     1     -33.955  19.252  -1.552  1.00 20.00     0.085 C 
HETATM    4  C5  UNL     1     -32.664  18.480  -1.782  1.00 20.00     0.057 C 
HETATM    5  S7  UNL     1     -35.093  18.666  -2.840  1.00 20.00    -0.168 SA
ENDROOT
BRANCH   4   6
HETATM    6  C1  UNL     1     -31.843  18.425  -0.532  1.00 20.00     0.236 C 
HETATM    7  O6  UNL     1     -30.623  18.549  -0.519  1.00 20.00    -0.306 OA
ENDBRANCH   4   6
TORSDOF 1
ENDMDL
MODEL 9
REMARK VINA RESULT:      -2.9     12.592     13.228
REMARK  1 active torsions:
REMARK  status: ('A' for Active; 'I' for Inactive)
REMARK    1  A    between atoms: C1_1  and  C5_5 
ROOT
HETATM    1  C2  UNL     1     -33.671  15.103  -3.815  1.00 20.00     0.022 C 
HETATM    2  C3  UNL     1     -33.863  14.963  -5.315  1.00 20.00     0.075 C 
HETATM    3  C4  UNL     1     -34.485  17.359  -4.270  1.00 20.00     0.085 C 
HETATM    4  C5  UNL     1     -33.395  16.578  -3.550  1.00 20.00     0.057 C 
HETATM    5  S7  UNL     1     -34.786  16.444  -5.809  1.00 20.00    -0.168 SA
ENDROOT
BRANCH   4   6
HETATM    6  C1  UNL     1     -33.417  16.857  -2.081  1.00 20.00     0.236 C 
HETATM    7  O6  UNL     1     -32.648  17.637  -1.529  1.00 20.00    -0.306 OA
ENDBRANCH   4   6
TORSDOF 1
ENDMDL
