MODEL 1
REMARK VINA RESULT:      -4.0      0.000      0.000
REMARK  4 active torsions:
REMARK  status: ('A' for Active; 'I' for Inactive)
REMARK    1  A    between atoms: C4_4  and  C6_6 
REMARK    2  A    between atoms: C4_4  and  O8_8 
REMARK    3  A    between atoms: C5_5  and  C6_6 
REMARK    4  A    between atoms: C7_7  and  O8_8 
ROOT
HETATM    1  C4  UNL     1     -33.158   6.458   3.528  1.00 20.00     0.173 C 
ENDROOT
BRANCH   1   2
HETATM    2  C6  UNL     1     -32.145   7.579   3.262  1.00 20.00     0.019 C 
HETATM    3  C1  UNL     1     -32.357   8.732   4.244  1.00 20.00     0.013 C 
BRANCH   2   4
HETATM    4  C5  UNL     1     -32.143   8.051   1.799  1.00 20.00     0.121 C 
HETATM    5 CL9  UNL     1     -32.905   9.643   1.563  1.00 20.00    -0.130 Cl
ENDBRANCH   2   4
ENDBRANCH   1   2
BRANCH   1   6
HETATM    6  O8  UNL     1     -34.237   6.927   4.325  1.00 20.00    -0.386 OA
BRANCH   6   7
HETATM    7  C7  UNL     1     -34.800   5.882   5.107  1.00 20.00     0.113 C 
HETATM    8  C2  UNL     1     -34.297   4.543   4.591  1.00 20.00     0.039 C 
HETATM    9  C3  UNL     1     -34.438   6.099   6.568  1.00 20.00     0.039 C 
ENDBRANCH   6   7
ENDBRANCH   1   6
TORSDOF 4
ENDMDL
MODEL 2
REMARK VINA RESULT:      -4.0      2.206      4.180
REMARK  4 active torsions:
REMARK  status: ('A' for Active; 'I' for Inactive)
REMARK    1  A    between atoms: C4_4  and  C6_6 
REMARK    2  A    between atoms: C4_4  and  O8_8 
REMARK    3  A    between atoms: C5_5  and  C6_6 
REMARK    4  A    between atoms: C7_7  and  O8_8 
ROOT
HETATM    1  C4  UNL     1     -33.957   7.578   5.687  1.00 20.00     0.173 C 
ENDROOT
BRANCH   1   2
HETATM    2  C6  UNL     1     -34.663   6.233   5.907  1.00 20.00     0.019 C 
HETATM    3  C1  UNL     1     -33.783   5.301   6.740  1.00 20.00     0.013 C 
BRANCH   2   4
HETATM    4  C5  UNL     1     -35.130   5.580   4.596  1.00 20.00     0.121 C 
HETATM    5 CL9  UNL     1     -34.007   4.343   3.978  1.00 20.00    -0.130 Cl
ENDBRANCH   2   4
ENDBRANCH   1   2
BRANCH   1   6
HETATM    6  O8  UNL     1     -34.076   7.999   4.335  1.00 20.00    -0.386 OA
BRANCH   6   7
HETATM    7  C7  UNL     1     -32.833   8.459   3.821  1.00 20.00     0.113 C 
HETATM    8  C2  UNL     1     -31.986   8.996   4.964  1.00 20.00     0.039 C 
HETATM    9  C3  UNL     1     -32.141   7.319   3.089  1.00 20.00     0.039 C 
ENDBRANCH   6   7
ENDBRANCH   1   6
TORSDOF 4
ENDMDL
MODEL 3
REMARK VINA RESULT:      -3.9      1.770      1.934
REMARK  4 active torsions:
REMARK  status: ('A' for Active; 'I' for Inactive)
REMARK    1  A    between atoms: C4_4  and  C6_6 
REMARK    2  A    between atoms: C4_4  and  O8_8 
REMARK    3  A    between atoms: C5_5  and  C6_6 
REMARK    4  A    between atoms: C7_7  and  O8_8 
ROOT
HETATM    1  C4  UNL     1     -34.018   7.765   4.824  1.00 20.00     0.173 C 
ENDROOT
BRANCH   1   2
HETATM    2  C6  UNL     1     -32.522   7.887   4.507  1.00 20.00     0.019 C 
HETATM    3  C1  UNL     1     -32.026   9.299   4.823  1.00 20.00     0.013 C 
BRANCH   2   4
HETATM    4  C5  UNL     1     -32.175   7.453   3.074  1.00 20.00     0.121 C 
HETATM    5 CL9  UNL     1     -32.699   5.796   2.686  1.00 20.00    -0.130 Cl
ENDBRANCH   2   4
ENDBRANCH   1   2
BRANCH   1   6
HETATM    6  O8  UNL     1     -34.221   7.229   6.124  1.00 20.00    -0.386 OA
BRANCH   6   7
HETATM    7  C7  UNL     1     -34.852   5.958   6.072  1.00 20.00     0.113 C 
HETATM    8  C2  UNL     1     -35.439   5.746   4.685  1.00 20.00     0.039 C 
HETATM    9  C3  UNL     1     -33.840   4.880   6.430  1.00 20.00     0.039 C 
ENDBRANCH   6   7
ENDBRANCH   1   6
TORSDOF 4
ENDMDL
MODEL 4
REMARK VINA RESULT:      -3.9      2.126      4.072
REMARK  4 active torsions:
REMARK  status: ('A' for Active; 'I' for Inactive)
REMARK    1  A    between atoms: C4_4  and  C6_6 
REMARK    2  A    between atoms: C4_4  and  O8_8 
REMARK    3  A    between atoms: C5_5  and  C6_6 
REMARK    4  A    between atoms: C7_7  and  O8_8 
ROOT
HETATM    1  C4  UNL     1     -34.179   7.393   6.008  1.00 20.00     0.173 C 
ENDROOT
BRANCH   1   2
HETATM    2  C6  UNL     1     -34.819   5.999   5.973  1.00 20.00     0.019 C 
HETATM    3  C1  UNL     1     -33.930   4.987   6.697  1.00 20.00     0.013 C 
BRANCH   2   4
HETATM    4  C5  UNL     1     -35.184   5.543   4.550  1.00 20.00     0.121 C 
HETATM    5 CL9  UNL     1     -33.921   4.555   3.774  1.00 20.00    -0.130 Cl
ENDBRANCH   2   4
ENDBRANCH   1   2
BRANCH   1   6
HETATM    6  O8  UNL     1     -33.904   7.859   4.694  1.00 20.00    -0.386 OA
BRANCH   6   7
HETATM    7  C7  UNL     1     -32.506   7.943   4.453  1.00 20.00     0.113 C 
HETATM    8  C2  UNL     1     -32.230   7.629   2.991  1.00 20.00     0.039 C 
HETATM    9  C3  UNL     1     -32.014   9.330   4.838  1.00 20.00     0.039 C 
ENDBRANCH   6   7
ENDBRANCH   1   6
TORSDOF 4
ENDMDL
MODEL 5
REMARK VINA RESULT:      -3.5      0.622      1.189
REMARK  4 active torsions:
REMARK  status: ('A' for Active; 'I' for Inactive)
REMARK    1  A    between atoms: C4_4  and  C6_6 
REMARK    2  A    between atoms: C4_4  and  O8_8 
REMARK    3  A    between atoms: C5_5  and  C6_6 
REMARK    4  A    between atoms: C7_7  and  O8_8 
ROOT
HETATM    1  C4  UNL     1     -32.901   6.470   3.417  1.00 20.00     0.173 C 
ENDROOT
BRANCH   1   2
HETATM    2  C6  UNL     1     -32.082   7.712   3.045  1.00 20.00     0.019 C 
HETATM    3  C1  UNL     1     -32.414   8.870   3.988  1.00 20.00     0.013 C 
BRANCH   2   4
HETATM    4  C5  UNL     1     -32.224   8.104   1.566  1.00 20.00     0.121 C 
HETATM    5 CL9  UNL     1     -32.894   9.736   1.322  1.00 20.00    -0.130 Cl
ENDBRANCH   2   4
ENDBRANCH   1   2
BRANCH   1   6
HETATM    6  O8  UNL     1     -33.514   6.626   4.689  1.00 20.00    -0.386 OA
BRANCH   6   7
HETATM    7  C7  UNL     1     -34.446   5.586   4.950  1.00 20.00     0.113 C 
HETATM    8  C2  UNL     1     -34.601   5.418   6.454  1.00 20.00     0.039 C 
HETATM    9  C3  UNL     1     -35.770   5.918   4.278  1.00 20.00     0.039 C 
ENDBRANCH   6   7
ENDBRANCH   1   6
TORSDOF 4
ENDMDL
MODEL 6
REMARK VINA RESULT:      -3.3      9.840     10.663
REMARK  4 active torsions:
REMARK  status: ('A' for Active; 'I' for Inactive)
REMARK    1  A    between atoms: C4_4  and  C6_6 
REMARK    2  A    between atoms: C4_4  and  O8_8 
REMARK    3  A    between atoms: C5_5  and  C6_6 
REMARK    4  A    between atoms: C7_7  and  O8_8 
ROOT
HETATM    1  C4  UNL     1     -40.365  14.036   6.895  1.00 20.00     0.173 C 
ENDROOT
BRANCH   1   2
HETATM    2  C6  UNL     1     -40.934  12.866   6.081  1.00 20.00     0.019 C 
HETATM    3  C1  UNL     1     -42.234  12.364   6.709  1.00 20.00     0.013 C 
BRANCH   2   4
HETATM    4  C5  UNL     1     -39.914  11.736   5.864  1.00 20.00     0.121 C 
HETATM    5 CL9  UNL     1     -39.180  11.740   4.242  1.00 20.00    -0.130 Cl
ENDBRANCH   2   4
ENDBRANCH   1   2
BRANCH   1   6
HETATM    6  O8  UNL     1     -40.066  13.633   8.224  1.00 20.00    -0.386 OA
BRANCH   6   7
HETATM    7  C7  UNL     1     -40.270  14.692   9.149  1.00 20.00     0.113 C 
HETATM    8  C2  UNL     1     -40.521  15.983   8.385  1.00 20.00     0.039 C 
HETATM    9  C3  UNL     1     -41.433  14.341  10.065  1.00 20.00     0.039 C 
ENDBRANCH   6   7
ENDBRANCH   1   6
TORSDOF 4
ENDMDL
MODEL 7
REMARK VINA RESULT:      -3.3     11.437     12.255
REMARK  4 active torsions:
REMARK  status: ('A' for Active; 'I' for Inactive)
REMARK    1  A    between atoms: C4_4  and  C6_6 
REMARK    2  A    between atoms: C4_4  and  O8_8 
REMARK    3  A    between atoms: C5_5  and  C6_6 
REMARK    4  A    between atoms: C7_7  and  O8_8 
ROOT
HETATM    1  C4  UNL     1     -32.979  17.436  -1.911  1.00 20.00     0.173 C 
ENDROOT
BRANCH   1   2
HETATM    2  C6  UNL     1     -33.758  17.984  -0.709  1.00 20.00     0.019 C 
HETATM    3  C1  UNL     1     -34.774  19.031  -1.165  1.00 20.00     0.013 C 
BRANCH   2   4
HETATM    4  C5  UNL     1     -32.842  18.506   0.410  1.00 20.00     0.121 C 
HETATM    5 CL9  UNL     1     -31.113  18.475  -0.012  1.00 20.00    -0.130 Cl
ENDBRANCH   2   4
ENDBRANCH   1   2
BRANCH   1   6
HETATM    6  O8  UNL     1     -33.539  16.212  -2.366  1.00 20.00    -0.386 OA
BRANCH   6   7
HETATM    7  C7  UNL     1     -33.481  16.105  -3.781  1.00 20.00     0.113 C 
HETATM    8  C2  UNL     1     -33.817  14.679  -4.190  1.00 20.00     0.039 C 
HETATM    9  C3  UNL     1     -34.439  17.112  -4.399  1.00 20.00     0.039 C 
ENDBRANCH   6   7
ENDBRANCH   1   6
TORSDOF 4
ENDMDL
MODEL 8
REMARK VINA RESULT:      -3.2      2.268      4.310
REMARK  4 active torsions:
REMARK  status: ('A' for Active; 'I' for Inactive)
REMARK    1  A    between atoms: C4_4  and  C6_6 
REMARK    2  A    between atoms: C4_4  and  O8_8 
REMARK    3  A    between atoms: C5_5  and  C6_6 
REMARK    4  A    between atoms: C7_7  and  O8_8 
ROOT
HETATM    1  C4  UNL     1     -33.467   5.780   3.783  1.00 20.00     0.173 C 
ENDROOT
BRANCH   1   2
HETATM    2  C6  UNL     1     -34.649   5.253   4.608  1.00 20.00     0.019 C 
HETATM    3  C1  UNL     1     -35.928   6.009   4.246  1.00 20.00     0.013 C 
BRANCH   2   4
HETATM    4  C5  UNL     1     -34.374   5.260   6.120  1.00 20.00     0.121 C 
HETATM    5 CL9  UNL     1     -34.502   6.874   6.860  1.00 20.00    -0.130 Cl
ENDBRANCH   2   4
ENDBRANCH   1   2
BRANCH   1   6
HETATM    6  O8  UNL     1     -32.775   6.804   4.483  1.00 20.00    -0.386 OA
BRANCH   6   7
HETATM    7  C7  UNL     1     -32.857   8.049   3.802  1.00 20.00     0.113 C 
HETATM    8  C2  UNL     1     -32.157   9.118   4.626  1.00 20.00     0.039 C 
HETATM    9  C3  UNL     1     -32.241   7.905   2.419  1.00 20.00     0.039 C 
ENDBRANCH   6   7
ENDBRANCH   1   6
TORSDOF 4
ENDMDL
MODEL 9
REMARK VINA RESULT:      -3.1      1.542      1.955
REMARK  4 active torsions:
REMARK  status: ('A' for Active; 'I' for Inactive)
REMARK    1  A    between atoms: C4_4  and  C6_6 
REMARK    2  A    between atoms: C4_4  and  O8_8 
REMARK    3  A    between atoms: C5_5  and  C6_6 
REMARK    4  A    between atoms: C7_7  and  O8_8 
ROOT
HETATM    1  C4  UNL     1     -33.298   6.333   3.609  1.00 20.00     0.173 C 
ENDROOT
BRANCH   1   2
HETATM    2  C6  UNL     1     -32.875   7.776   3.304  1.00 20.00     0.019 C 
HETATM    3  C1  UNL     1     -31.987   7.819   2.060  1.00 20.00     0.013 C 
BRANCH   2   4
HETATM    4  C5  UNL     1     -32.227   8.478   4.508  1.00 20.00     0.121 C 
HETATM    5 CL9  UNL     1     -33.385   8.904   5.792  1.00 20.00    -0.130 Cl
ENDBRANCH   2   4
ENDBRANCH   1   2
BRANCH   1   6
HETATM    6  O8  UNL     1     -34.612   6.291   4.146  1.00 20.00    -0.386 OA
BRANCH   6   7
HETATM    7  C7  UNL     1     -34.792   5.167   4.997  1.00 20.00     0.113 C 
HETATM    8  C2  UNL     1     -33.858   4.050   4.556  1.00 20.00     0.039 C 
HETATM    9  C3  UNL     1     -34.537   5.583   6.437  1.00 20.00     0.039 C 
ENDBRANCH   6   7
ENDBRANCH   1   6
TORSDOF 4
ENDMDL
