MODEL 1
REMARK VINA RESULT:      -4.4      0.000      0.000
REMARK  0 active torsions:
REMARK  status: ('A' for Active; 'I' for Inactive)
ROOT
HETATM    1  C1  UNL     1     -33.422  16.669  -2.645  1.00 20.00     0.088 C 
HETATM    2  C2  UNL     1     -33.026  18.057  -0.716  1.00 20.00    -0.046 C 
HETATM    3  C3  UNL     1     -33.728  17.092  -1.327  1.00 20.00     0.098 C 
HETATM    4  C4  UNL     1     -33.330  18.525   0.680  1.00 20.00     0.039 C 
HETATM    5  C5  UNL     1     -31.853  18.742  -1.359  1.00 20.00     0.202 C 
HETATM    6  C6  UNL     1     -32.047  18.545   1.510  1.00 20.00     0.030 C 
HETATM    7  C7  UNL     1     -30.924  19.263   0.765  1.00 20.00     0.168 C 
HETATM    8  N8  UNL     1     -33.177  16.317  -3.723  1.00 20.00    -0.192 NA
HETATM    9  O9  UNL     1     -30.704  18.655  -0.510  1.00 20.00    -0.387 OA
ENDROOT
TORSDOF 0
ENDMDL
MODEL 2
REMARK VINA RESULT:      -4.4     11.989     12.517
REMARK  0 active torsions:
REMARK  status: ('A' for Active; 'I' for Inactive)
ROOT
HETATM    1  C1  UNL     1     -32.780   8.930   3.056  1.00 20.00     0.088 C 
HETATM    2  C2  UNL     1     -33.218   7.356   4.826  1.00 20.00    -0.046 C 
HETATM    3  C3  UNL     1     -32.976   8.611   4.423  1.00 20.00     0.098 C 
HETATM    4  C4  UNL     1     -33.428   6.992   6.270  1.00 20.00     0.039 C 
HETATM    5  C5  UNL     1     -33.331   6.202   3.871  1.00 20.00     0.202 C 
HETATM    6  C6  UNL     1     -34.692   6.145   6.411  1.00 20.00     0.030 C 
HETATM    7  C7  UNL     1     -34.704   5.004   5.397  1.00 20.00     0.168 C 
HETATM    8  N8  UNL     1     -32.620   9.198   1.938  1.00 20.00    -0.192 NA
HETATM    9  O9  UNL     1     -34.572   5.516   4.069  1.00 20.00    -0.387 OA
ENDROOT
TORSDOF 0
ENDMDL
MODEL 3
REMARK VINA RESULT:      -4.2     12.354     12.863
REMARK  0 active torsions:
REMARK  status: ('A' for Active; 'I' for Inactive)
ROOT
HETATM    1  C1  UNL     1     -32.410   7.029   2.308  1.00 20.00     0.088 C 
HETATM    2  C2  UNL     1     -33.852   6.165   4.033  1.00 20.00    -0.046 C 
HETATM    3  C3  UNL     1     -33.073   5.960   2.962  1.00 20.00     0.098 C 
HETATM    4  C4  UNL     1     -34.567   5.050   4.744  1.00 20.00     0.039 C 
HETATM    5  C5  UNL     1     -34.061   7.524   4.640  1.00 20.00     0.202 C 
HETATM    6  C6  UNL     1     -34.307   5.144   6.247  1.00 20.00     0.030 C 
HETATM    7  C7  UNL     1     -34.550   6.562   6.757  1.00 20.00     0.168 C 
HETATM    8  N8  UNL     1     -31.863   7.899   1.768  1.00 20.00    -0.192 NA
HETATM    9  O9  UNL     1     -33.744   7.497   6.035  1.00 20.00    -0.387 OA
ENDROOT
TORSDOF 0
ENDMDL
MODEL 4
REMARK VINA RESULT:      -4.1      2.526      3.385
REMARK  0 active torsions:
REMARK  status: ('A' for Active; 'I' for Inactive)
ROOT
HETATM    1  C1  UNL     1     -33.820  15.109  -5.242  1.00 20.00     0.088 C 
HETATM    2  C2  UNL     1     -33.695  16.594  -3.349  1.00 20.00    -0.046 C 
HETATM    3  C3  UNL     1     -33.638  15.355  -3.858  1.00 20.00     0.098 C 
HETATM    4  C4  UNL     1     -33.507  16.882  -1.886  1.00 20.00     0.039 C 
HETATM    5  C5  UNL     1     -33.924  17.813  -4.199  1.00 20.00     0.202 C 
HETATM    6  C6  UNL     1     -32.488  18.007  -1.707  1.00 20.00     0.030 C 
HETATM    7  C7  UNL     1     -32.815  19.192  -2.612  1.00 20.00     0.168 C 
HETATM    8  N8  UNL     1     -33.967  14.900  -6.374  1.00 20.00    -0.192 NA
HETATM    9  O9  UNL     1     -32.884  18.772  -3.977  1.00 20.00    -0.387 OA
ENDROOT
TORSDOF 0
ENDMDL
MODEL 5
REMARK VINA RESULT:      -4.0     12.501     13.135
REMARK  0 active torsions:
REMARK  status: ('A' for Active; 'I' for Inactive)
ROOT
HETATM    1  C1  UNL     1     -32.166   8.889   4.673  1.00 20.00     0.088 C 
HETATM    2  C2  UNL     1     -33.638   6.987   4.536  1.00 20.00    -0.046 C 
HETATM    3  C3  UNL     1     -32.692   7.764   3.990  1.00 20.00     0.098 C 
HETATM    4  C4  UNL     1     -34.214   5.789   3.832  1.00 20.00     0.039 C 
HETATM    5  C5  UNL     1     -34.191   7.224   5.913  1.00 20.00     0.202 C 
HETATM    6  C6  UNL     1     -34.189   4.579   4.766  1.00 20.00     0.030 C 
HETATM    7  C7  UNL     1     -34.772   4.930   6.132  1.00 20.00     0.168 C 
HETATM    8  N8  UNL     1     -31.730   9.811   5.226  1.00 20.00    -0.192 NA
HETATM    9  O9  UNL     1     -34.071   6.037   6.705  1.00 20.00    -0.387 OA
ENDROOT
TORSDOF 0
ENDMDL
MODEL 6
REMARK VINA RESULT:      -3.9      3.215      4.548
REMARK  0 active torsions:
REMARK  status: ('A' for Active; 'I' for Inactive)
ROOT
HETATM    1  C1  UNL     1     -30.977  18.798   2.930  1.00 20.00     0.088 C 
HETATM    2  C2  UNL     1     -31.796  18.810   0.665  1.00 20.00    -0.046 C 
HETATM    3  C3  UNL     1     -30.794  18.624   1.535  1.00 20.00     0.098 C 
HETATM    4  C4  UNL     1     -31.629  18.632  -0.819  1.00 20.00     0.039 C 
HETATM    5  C5  UNL     1     -33.187  19.186   1.094  1.00 20.00     0.202 C 
HETATM    6  C6  UNL     1     -32.746  17.742  -1.363  1.00 20.00     0.030 C 
HETATM    7  C7  UNL     1     -34.112  18.212  -0.868  1.00 20.00     0.168 C 
HETATM    8  N8  UNL     1     -31.119  18.938   4.073  1.00 20.00    -0.192 NA
HETATM    9  O9  UNL     1     -34.136  18.256   0.561  1.00 20.00    -0.387 OA
ENDROOT
TORSDOF 0
ENDMDL
MODEL 7
REMARK VINA RESULT:      -3.9      3.375      5.259
REMARK  0 active torsions:
REMARK  status: ('A' for Active; 'I' for Inactive)
ROOT
HETATM    1  C1  UNL     1     -34.033  18.056  -1.386  1.00 20.00     0.088 C 
HETATM    2  C2  UNL     1     -33.588  16.616  -3.265  1.00 20.00    -0.046 C 
HETATM    3  C3  UNL     1     -33.457  16.895  -1.961  1.00 20.00     0.098 C 
HETATM    4  C4  UNL     1     -32.986  15.393  -3.900  1.00 20.00     0.039 C 
HETATM    5  C5  UNL     1     -34.372  17.484  -4.209  1.00 20.00     0.202 C 
HETATM    6  C6  UNL     1     -34.043  14.669  -4.733  1.00 20.00     0.030 C 
HETATM    7  C7  UNL     1     -34.776  15.641  -5.653  1.00 20.00     0.168 C 
HETATM    8  N8  UNL     1     -34.503  19.004  -0.908  1.00 20.00    -0.192 NA
HETATM    9  O9  UNL     1     -35.357  16.704  -4.895  1.00 20.00    -0.387 OA
ENDROOT
TORSDOF 0
ENDMDL
MODEL 8
REMARK VINA RESULT:      -3.7      3.651      5.770
REMARK  0 active torsions:
REMARK  status: ('A' for Active; 'I' for Inactive)
ROOT
HETATM    1  C1  UNL     1     -33.235  17.800  -2.540  1.00 20.00     0.088 C 
HETATM    2  C2  UNL     1     -33.820  15.926  -3.935  1.00 20.00    -0.046 C 
HETATM    3  C3  UNL     1     -33.290  16.408  -2.803  1.00 20.00     0.098 C 
HETATM    4  C4  UNL     1     -33.890  14.455  -4.239  1.00 20.00     0.039 C 
HETATM    5  C5  UNL     1     -34.419  16.808  -4.994  1.00 20.00     0.202 C 
HETATM    6  C6  UNL     1     -35.305  14.083  -4.678  1.00 20.00     0.030 C 
HETATM    7  C7  UNL     1     -35.815  15.041  -5.753  1.00 20.00     0.168 C 
HETATM    8  N8  UNL     1     -33.188  18.938  -2.317  1.00 20.00    -0.192 NA
HETATM    9  O9  UNL     1     -35.757  16.391  -5.286  1.00 20.00    -0.387 OA
ENDROOT
TORSDOF 0
ENDMDL
MODEL 9
REMARK VINA RESULT:      -3.6     12.102     12.859
REMARK  0 active torsions:
REMARK  status: ('A' for Active; 'I' for Inactive)
ROOT
HETATM    1  C1  UNL     1     -39.178  12.129   5.600  1.00 20.00     0.088 C 
HETATM    2  C2  UNL     1     -41.242  12.915   6.561  1.00 20.00    -0.046 C 
HETATM    3  C3  UNL     1     -40.587  12.082   5.740  1.00 20.00     0.098 C 
HETATM    4  C4  UNL     1     -42.736  12.887   6.727  1.00 20.00     0.039 C 
HETATM    5  C5  UNL     1     -40.541  13.936   7.413  1.00 20.00     0.202 C 
HETATM    6  C6  UNL     1     -43.092  12.856   8.213  1.00 20.00     0.030 C 
HETATM    7  C7  UNL     1     -42.327  13.931   8.981  1.00 20.00     0.168 C 
HETATM    8  N8  UNL     1     -38.024  12.161   5.482  1.00 20.00    -0.192 NA
HETATM    9  O9  UNL     1     -40.919  13.778   8.784  1.00 20.00    -0.387 OA
ENDROOT
TORSDOF 0
ENDMDL
