MODEL 1
REMARK VINA RESULT:      -4.3      0.000      0.000
REMARK  3 active torsions:
REMARK  status: ('A' for Active; 'I' for Inactive)
REMARK    1  A    between atoms: C1_1  and  C3_3 
REMARK       I    between atoms: C1_1  and  N9_9 
REMARK    2  A    between atoms: C7_7  and  C8_8 
REMARK    3  A    between atoms: C8_8  and  N9_9 
ROOT
HETATM    1  C1  UNL     1     -32.902   6.049   3.005  1.00 20.00     0.222 C 
HETATM    2  N9  UNL     1     -33.742   6.258   4.083  1.00 20.00    -0.361 N 
HETATM    3  O10 UNL     1     -32.725   4.989   2.415  1.00 20.00    -0.273 OA
HETATM    4  H25 UNL     1     -33.795   7.190   4.481  1.00 20.00     0.162 HD
ENDROOT
BRANCH   1   5
HETATM    5  C3  UNL     1     -32.181   7.249   2.570  1.00 20.00     0.082 A 
HETATM    6  C2  UNL     1     -32.327   8.525   3.356  1.00 20.00     0.019 A 
HETATM    7  C4  UNL     1     -32.966   8.413   1.998  1.00 20.00    -0.005 A 
HETATM    8  C5  UNL     1     -32.423   9.188   0.848  1.00 20.00     0.011 C 
ENDBRANCH   1   5
BRANCH   2   9
HETATM    9  C8  UNL     1     -34.547   5.212   4.671  1.00 20.00     0.122 C 
BRANCH   9  10
HETATM   10  C7  UNL     1     -34.790   5.432   6.159  1.00 20.00     0.015 C 
HETATM   11  C6  UNL     1     -34.250   6.767   6.652  1.00 20.00     0.006 C 
ENDBRANCH   9  10
ENDBRANCH   2   9
TORSDOF 3
ENDMDL
MODEL 2
REMARK VINA RESULT:      -4.2     11.890     12.429
REMARK  3 active torsions:
REMARK  status: ('A' for Active; 'I' for Inactive)
REMARK    1  A    between atoms: C1_1  and  C3_3 
REMARK       I    between atoms: C1_1  and  N9_9 
REMARK    2  A    between atoms: C7_7  and  C8_8 
REMARK    3  A    between atoms: C8_8  and  N9_9 
ROOT
HETATM    1  C1  UNL     1     -31.914  18.644  -0.630  1.00 20.00     0.222 C 
HETATM    2  N9  UNL     1     -32.635  18.904   0.520  1.00 20.00    -0.361 N 
HETATM    3  O10 UNL     1     -30.695  18.677  -0.749  1.00 20.00    -0.273 OA
HETATM    4  H25 UNL     1     -33.647  18.842   0.482  1.00 20.00     0.162 HD
ENDROOT
BRANCH   1   5
HETATM    5  C3  UNL     1     -32.745  18.297  -1.788  1.00 20.00     0.082 A 
HETATM    6  C2  UNL     1     -34.219  18.051  -1.593  1.00 20.00     0.019 A 
HETATM    7  C4  UNL     1     -33.306  16.893  -1.898  1.00 20.00    -0.005 A 
HETATM    8  C5  UNL     1     -33.372  16.215  -3.222  1.00 20.00     0.011 C 
ENDBRANCH   1   5
BRANCH   2   9
HETATM    9  C8  UNL     1     -32.014  19.263   1.775  1.00 20.00     0.122 C 
BRANCH   9  10
HETATM   10  C7  UNL     1     -31.062  18.186   2.282  1.00 20.00     0.015 C 
HETATM   11  C6  UNL     1     -29.764  18.760   2.833  1.00 20.00     0.006 C 
ENDBRANCH   9  10
ENDBRANCH   2   9
TORSDOF 3
ENDMDL
MODEL 3
REMARK VINA RESULT:      -4.0      1.910      4.802
REMARK  3 active torsions:
REMARK  status: ('A' for Active; 'I' for Inactive)
REMARK    1  A    between atoms: C1_1  and  C3_3 
REMARK       I    between atoms: C1_1  and  N9_9 
REMARK    2  A    between atoms: C7_7  and  C8_8 
REMARK    3  A    between atoms: C8_8  and  N9_9 
ROOT
HETATM    1  C1  UNL     1     -32.895   7.952   4.274  1.00 20.00     0.222 C 
HETATM    2  N9  UNL     1     -32.798   7.410   3.007  1.00 20.00    -0.361 N 
HETATM    3  O10 UNL     1     -32.157   8.800   4.762  1.00 20.00    -0.273 OA
HETATM    4  H25 UNL     1     -33.478   6.711   2.725  1.00 20.00     0.162 HD
ENDROOT
BRANCH   1   5
HETATM    5  C3  UNL     1     -34.012   7.423   5.065  1.00 20.00     0.082 A 
HETATM    6  C2  UNL     1     -33.999   7.587   6.562  1.00 20.00     0.019 A 
HETATM    7  C4  UNL     1     -33.775   6.224   5.962  1.00 20.00    -0.005 A 
HETATM    8  C5  UNL     1     -34.818   5.169   6.090  1.00 20.00     0.011 C 
ENDBRANCH   1   5
BRANCH   2   9
HETATM    9  C8  UNL     1     -31.772   7.791   2.062  1.00 20.00     0.122 C 
BRANCH   9  10
HETATM   10  C7  UNL     1     -32.351   8.402   0.791  1.00 20.00     0.015 C 
HETATM   11  C6  UNL     1     -32.912   9.799   1.013  1.00 20.00     0.006 C 
ENDBRANCH   9  10
ENDBRANCH   2   9
TORSDOF 3
ENDMDL
MODEL 4
REMARK VINA RESULT:      -4.0     11.808     12.541
REMARK  3 active torsions:
REMARK  status: ('A' for Active; 'I' for Inactive)
REMARK    1  A    between atoms: C1_1  and  C3_3 
REMARK       I    between atoms: C1_1  and  N9_9 
REMARK    2  A    between atoms: C7_7  and  C8_8 
REMARK    3  A    between atoms: C8_8  and  N9_9 
ROOT
HETATM    1  C1  UNL     1     -33.568  16.316  -3.429  1.00 20.00     0.222 C 
HETATM    2  N9  UNL     1     -34.667  16.823  -4.096  1.00 20.00    -0.361 N 
HETATM    3  O10 UNL     1     -32.749  15.519  -3.874  1.00 20.00    -0.273 OA
HETATM    4  H25 UNL     1     -35.269  17.479  -3.609  1.00 20.00     0.162 HD
ENDROOT
BRANCH   1   5
HETATM    5  C3  UNL     1     -33.417  16.819  -2.059  1.00 20.00     0.082 A 
HETATM    6  C2  UNL     1     -34.188  18.040  -1.632  1.00 20.00     0.019 A 
HETATM    7  C4  UNL     1     -32.699  18.135  -1.833  1.00 20.00    -0.005 A 
HETATM    8  C5  UNL     1     -31.793  18.301  -0.662  1.00 20.00     0.011 C 
ENDBRANCH   1   5
BRANCH   2   9
HETATM    9  C8  UNL     1     -35.001  16.462  -5.455  1.00 20.00     0.122 C 
BRANCH   9  10
HETATM   10  C7  UNL     1     -36.240  15.578  -5.534  1.00 20.00     0.015 C 
HETATM   11  C6  UNL     1     -35.960  14.135  -5.139  1.00 20.00     0.006 C 
ENDBRANCH   9  10
ENDBRANCH   2   9
TORSDOF 3
ENDMDL
MODEL 5
REMARK VINA RESULT:      -3.8     10.636     11.565
REMARK  3 active torsions:
REMARK  status: ('A' for Active; 'I' for Inactive)
REMARK    1  A    between atoms: C1_1  and  C3_3 
REMARK       I    between atoms: C1_1  and  N9_9 
REMARK    2  A    between atoms: C7_7  and  C8_8 
REMARK    3  A    between atoms: C8_8  and  N9_9 
ROOT
HETATM    1  C1  UNL     1     -40.545  14.223   7.895  1.00 20.00     0.222 C 
HETATM    2  N9  UNL     1     -39.942  13.847   6.710  1.00 20.00    -0.361 N 
HETATM    3  O10 UNL     1     -41.268  13.526   8.598  1.00 20.00    -0.273 OA
HETATM    4  H25 UNL     1     -39.365  14.526   6.223  1.00 20.00     0.162 HD
ENDROOT
BRANCH   1   5
HETATM    5  C3  UNL     1     -40.255  15.603   8.300  1.00 20.00     0.082 A 
HETATM    6  C2  UNL     1     -41.155  16.285   9.297  1.00 20.00     0.019 A 
HETATM    7  C4  UNL     1     -41.185  16.713   7.853  1.00 20.00    -0.005 A 
HETATM    8  C5  UNL     1     -40.632  18.036   7.452  1.00 20.00     0.011 C 
ENDBRANCH   1   5
BRANCH   2   9
HETATM    9  C8  UNL     1     -40.094  12.532   6.130  1.00 20.00     0.122 C 
BRANCH   9  10
HETATM   10  C7  UNL     1     -38.810  12.033   5.477  1.00 20.00     0.015 C 
HETATM   11  C6  UNL     1     -39.002  11.656   4.015  1.00 20.00     0.006 C 
ENDBRANCH   9  10
ENDBRANCH   2   9
TORSDOF 3
ENDMDL
MODEL 6
REMARK VINA RESULT:      -3.8      9.863     10.659
REMARK  3 active torsions:
REMARK  status: ('A' for Active; 'I' for Inactive)
REMARK    1  A    between atoms: C1_1  and  C3_3 
REMARK       I    between atoms: C1_1  and  N9_9 
REMARK    2  A    between atoms: C7_7  and  C8_8 
REMARK    3  A    between atoms: C8_8  and  N9_9 
ROOT
HETATM    1  C1  UNL     1     -40.887  13.809   6.249  1.00 20.00     0.222 C 
HETATM    2  N9  UNL     1     -40.125  14.385   7.247  1.00 20.00    -0.361 N 
HETATM    3  O10 UNL     1     -41.868  14.302   5.704  1.00 20.00    -0.273 OA
HETATM    4  H25 UNL     1     -39.334  13.866   7.615  1.00 20.00     0.162 HD
ENDROOT
BRANCH   1   5
HETATM    5  C3  UNL     1     -40.426  12.477   5.841  1.00 20.00     0.082 A 
HETATM    6  C2  UNL     1     -39.165  11.916   6.443  1.00 20.00     0.019 A 
HETATM    7  C4  UNL     1     -39.168  12.357   5.003  1.00 20.00    -0.005 A 
HETATM    8  C5  UNL     1     -39.092  11.349   3.910  1.00 20.00     0.011 C 
ENDBRANCH   1   5
BRANCH   2   9
HETATM    9  C8  UNL     1     -40.402  15.694   7.795  1.00 20.00     0.122 C 
BRANCH   9  10
HETATM   10  C7  UNL     1     -40.406  15.697   9.319  1.00 20.00     0.015 C 
HETATM   11  C6  UNL     1     -40.573  14.305   9.910  1.00 20.00     0.006 C 
ENDBRANCH   9  10
ENDBRANCH   2   9
TORSDOF 3
ENDMDL
MODEL 7
REMARK VINA RESULT:      -3.8      0.842      4.534
REMARK  3 active torsions:
REMARK  status: ('A' for Active; 'I' for Inactive)
REMARK    1  A    between atoms: C1_1  and  C3_3 
REMARK       I    between atoms: C1_1  and  N9_9 
REMARK    2  A    between atoms: C7_7  and  C8_8 
REMARK    3  A    between atoms: C8_8  and  N9_9 
ROOT
HETATM    1  C1  UNL     1     -33.221   5.759   3.246  1.00 20.00     0.222 C 
HETATM    2  N9  UNL     1     -32.926   7.096   3.430  1.00 20.00    -0.361 N 
HETATM    3  O10 UNL     1     -32.783   5.030   2.363  1.00 20.00    -0.273 OA
HETATM    4  H25 UNL     1     -33.361   7.586   4.205  1.00 20.00     0.162 HD
ENDROOT
BRANCH   1   5
HETATM    5  C3  UNL     1     -34.155   5.213   4.237  1.00 20.00     0.082 A 
HETATM    6  C2  UNL     1     -35.501   5.863   4.421  1.00 20.00     0.019 A 
HETATM    7  C4  UNL     1     -34.451   6.014   5.489  1.00 20.00    -0.005 A 
HETATM    8  C5  UNL     1     -34.610   5.324   6.799  1.00 20.00     0.011 C 
ENDBRANCH   1   5
BRANCH   2   9
HETATM    9  C8  UNL     1     -32.027   7.831   2.568  1.00 20.00     0.122 C 
BRANCH   9  10
HETATM   10  C7  UNL     1     -32.669   9.092   2.001  1.00 20.00     0.015 C 
HETATM   11  C6  UNL     1     -32.638   9.134   0.480  1.00 20.00     0.006 C 
ENDBRANCH   9  10
ENDBRANCH   2   9
TORSDOF 3
ENDMDL
MODEL 8
REMARK VINA RESULT:      -3.8     11.546     12.391
REMARK  3 active torsions:
REMARK  status: ('A' for Active; 'I' for Inactive)
REMARK    1  A    between atoms: C1_1  and  C3_3 
REMARK       I    between atoms: C1_1  and  N9_9 
REMARK    2  A    between atoms: C7_7  and  C8_8 
REMARK    3  A    between atoms: C8_8  and  N9_9 
ROOT
HETATM    1  C1  UNL     1     -33.972  17.783  -1.377  1.00 20.00     0.222 C 
HETATM    2  N9  UNL     1     -33.234  16.892  -2.132  1.00 20.00    -0.361 N 
HETATM    3  O10 UNL     1     -34.868  18.514  -1.782  1.00 20.00    -0.273 OA
HETATM    4  H25 UNL     1     -32.515  16.343  -1.670  1.00 20.00     0.162 HD
ENDROOT
BRANCH   1   5
HETATM    5  C3  UNL     1     -33.602  17.810   0.043  1.00 20.00     0.082 A 
HETATM    6  C2  UNL     1     -34.088  18.941   0.911  1.00 20.00     0.019 A 
HETATM    7  C4  UNL     1     -32.633  18.870   0.530  1.00 20.00    -0.005 A 
HETATM    8  C5  UNL     1     -31.606  18.529   1.554  1.00 20.00     0.011 C 
ENDBRANCH   1   5
BRANCH   2   9
HETATM    9  C8  UNL     1     -33.435  16.705  -3.552  1.00 20.00     0.122 C 
BRANCH   9  10
HETATM   10  C7  UNL     1     -33.030  15.311  -4.017  1.00 20.00     0.015 C 
HETATM   11  C6  UNL     1     -34.226  14.403  -4.266  1.00 20.00     0.006 C 
ENDBRANCH   9  10
ENDBRANCH   2   9
TORSDOF 3
ENDMDL
MODEL 9
REMARK VINA RESULT:      -3.7     10.291     11.531
REMARK  3 active torsions:
REMARK  status: ('A' for Active; 'I' for Inactive)
REMARK    1  A    between atoms: C1_1  and  C3_3 
REMARK       I    between atoms: C1_1  and  N9_9 
REMARK    2  A    between atoms: C7_7  and  C8_8 
REMARK    3  A    between atoms: C8_8  and  N9_9 
ROOT
HETATM    1  C1  UNL     1     -41.489  13.695   7.535  1.00 20.00     0.222 C 
HETATM    2  N9  UNL     1     -40.750  13.912   6.388  1.00 20.00    -0.361 N 
HETATM    3  O10 UNL     1     -42.172  12.709   7.786  1.00 20.00    -0.273 OA
HETATM    4  H25 UNL     1     -40.226  14.778   6.306  1.00 20.00     0.162 HD
ENDROOT
BRANCH   1   5
HETATM    5  C3  UNL     1     -41.407  14.785   8.513  1.00 20.00     0.082 A 
HETATM    6  C2  UNL     1     -40.410  15.895   8.300  1.00 20.00     0.019 A 
HETATM    7  C4  UNL     1     -40.180  14.890   9.398  1.00 20.00    -0.005 A 
HETATM    8  C5  UNL     1     -40.320  15.293  10.825  1.00 20.00     0.011 C 
ENDBRANCH   1   5
BRANCH   2   9
HETATM    9  C8  UNL     1     -40.689  12.965   5.298  1.00 20.00     0.122 C 
BRANCH   9  10
HETATM   10  C7  UNL     1     -39.485  12.037   5.401  1.00 20.00     0.015 C 
HETATM   11  C6  UNL     1     -38.932  11.637   4.040  1.00 20.00     0.006 C 
ENDBRANCH   9  10
ENDBRANCH   2   9
TORSDOF 3
ENDMDL
