MODEL 1
REMARK VINA RESULT:      -3.8      0.000      0.000
REMARK  6 active torsions:
REMARK  status: ('A' for Active; 'I' for Inactive)
REMARK    1  A    between atoms: C5_5  and  C8_8 
REMARK    2  A    between atoms: C6_6  and  C9_9 
REMARK    3  A    between atoms: C7_7  and  C10_10 
REMARK    4  A    between atoms: C8_8  and  N11_11 
REMARK    5  A    between atoms: C9_9  and  N11_11 
REMARK    6  A    between atoms: C10_10  and  N11_11 
ROOT
HETATM    1  C1  UNL     1     -34.454   5.834   6.592  1.00 20.00     0.012 C 
HETATM    2  C2  UNL     1     -34.147   6.909   6.155  1.00 20.00    -0.116 C 
HETATM    3  C5  UNL     1     -33.774   8.228   5.622  1.00 20.00     0.123 C 
ENDROOT
BRANCH   3   4
HETATM    4  C8  UNL     1     -32.523   8.159   4.752  1.00 20.00     0.284 C 
BRANCH   4   5
HETATM    5  N11 UNL     1     -32.869   7.850   3.365  1.00 20.00     0.089 N 
BRANCH   5   6
HETATM    6  C9  UNL     1     -32.152   6.659   2.912  1.00 20.00     0.272 C 
BRANCH   6   7
HETATM    7  C6  UNL     1     -33.092   5.568   2.415  1.00 20.00     0.026 C 
HETATM    8  C3  UNL     1     -33.542   4.628   3.524  1.00 20.00     0.007 C 
ENDBRANCH   6   7
ENDBRANCH   5   6
BRANCH   5   9
HETATM    9  C10 UNL     1     -32.568   8.988   2.497  1.00 20.00     0.272 C 
BRANCH   9  10
HETATM   10  C7  UNL     1     -32.135   8.554   1.102  1.00 20.00     0.026 C 
HETATM   11  C4  UNL     1     -32.891   9.283  -0.001  1.00 20.00     0.007 C 
ENDBRANCH   9  10
ENDBRANCH   5   9
ENDBRANCH   4   5
ENDBRANCH   3   4
TORSDOF 6
ENDMDL
MODEL 2
REMARK VINA RESULT:      -3.8      0.501      3.878
REMARK  6 active torsions:
REMARK  status: ('A' for Active; 'I' for Inactive)
REMARK    1  A    between atoms: C5_5  and  C8_8 
REMARK    2  A    between atoms: C6_6  and  C9_9 
REMARK    3  A    between atoms: C7_7  and  C10_10 
REMARK    4  A    between atoms: C8_8  and  N11_11 
REMARK    5  A    between atoms: C9_9  and  N11_11 
REMARK    6  A    between atoms: C10_10  and  N11_11 
ROOT
HETATM    1  C1  UNL     1     -34.423   4.643   4.615  1.00 20.00     0.012 C 
HETATM    2  C2  UNL     1     -33.777   5.038   3.683  1.00 20.00    -0.116 C 
HETATM    3  C5  UNL     1     -32.988   5.519   2.537  1.00 20.00     0.123 C 
ENDROOT
BRANCH   3   4
HETATM    4  C8  UNL     1     -32.059   6.664   2.926  1.00 20.00     0.284 C 
BRANCH   4   5
HETATM    5  N11 UNL     1     -32.824   7.843   3.329  1.00 20.00     0.089 N 
BRANCH   5   6
HETATM    6  C9  UNL     1     -32.554   8.962   2.426  1.00 20.00     0.272 C 
BRANCH   6   7
HETATM    7  C6  UNL     1     -32.134   8.499   1.036  1.00 20.00     0.026 C 
HETATM    8  C3  UNL     1     -32.945   9.155  -0.072  1.00 20.00     0.007 C 
ENDBRANCH   6   7
ENDBRANCH   5   6
BRANCH   5   9
HETATM    9  C10 UNL     1     -32.505   8.212   4.708  1.00 20.00     0.272 C 
BRANCH   9  10
HETATM   10  C7  UNL     1     -33.753   8.374   5.568  1.00 20.00     0.026 C 
HETATM   11  C4  UNL     1     -33.962   7.210   6.528  1.00 20.00     0.007 C 
ENDBRANCH   9  10
ENDBRANCH   5   9
ENDBRANCH   4   5
ENDBRANCH   3   4
TORSDOF 6
ENDMDL
MODEL 3
REMARK VINA RESULT:      -3.7      9.580     11.299
REMARK  6 active torsions:
REMARK  status: ('A' for Active; 'I' for Inactive)
REMARK    1  A    between atoms: C5_5  and  C8_8 
REMARK    2  A    between atoms: C6_6  and  C9_9 
REMARK    3  A    between atoms: C7_7  and  C10_10 
REMARK    4  A    between atoms: C8_8  and  N11_11 
REMARK    5  A    between atoms: C9_9  and  N11_11 
REMARK    6  A    between atoms: C10_10  and  N11_11 
ROOT
HETATM    1  C1  UNL     1     -38.910  11.629   3.694  1.00 20.00     0.012 C 
HETATM    2  C2  UNL     1     -39.241  11.823   4.832  1.00 20.00    -0.116 C 
HETATM    3  C5  UNL     1     -39.642  12.056   6.228  1.00 20.00     0.123 C 
ENDROOT
BRANCH   3   4
HETATM    4  C8  UNL     1     -40.224  13.451   6.429  1.00 20.00     0.284 C 
BRANCH   4   5
HETATM    5  N11 UNL     1     -41.505  13.387   7.130  1.00 20.00     0.089 N 
BRANCH   5   6
HETATM    6  C9  UNL     1     -42.610  13.608   6.198  1.00 20.00     0.272 C 
BRANCH   6   7
HETATM    7  C6  UNL     1     -42.168  14.335   4.934  1.00 20.00     0.026 C 
HETATM    8  C3  UNL     1     -42.742  15.741   4.832  1.00 20.00     0.007 C 
ENDBRANCH   6   7
ENDBRANCH   5   6
BRANCH   5   9
HETATM    9  C10 UNL     1     -41.545  14.370   8.212  1.00 20.00     0.272 C 
BRANCH   9  10
HETATM   10  C7  UNL     1     -40.364  15.332   8.167  1.00 20.00     0.026 C 
HETATM   11  C4  UNL     1     -40.791  16.779   7.956  1.00 20.00     0.007 C 
ENDBRANCH   9  10
ENDBRANCH   5   9
ENDBRANCH   4   5
ENDBRANCH   3   4
TORSDOF 6
ENDMDL
MODEL 4
REMARK VINA RESULT:      -3.7      0.669      3.062
REMARK  6 active torsions:
REMARK  status: ('A' for Active; 'I' for Inactive)
REMARK    1  A    between atoms: C5_5  and  C8_8 
REMARK    2  A    between atoms: C6_6  and  C9_9 
REMARK    3  A    between atoms: C7_7  and  C10_10 
REMARK    4  A    between atoms: C8_8  and  N11_11 
REMARK    5  A    between atoms: C9_9  and  N11_11 
REMARK    6  A    between atoms: C10_10  and  N11_11 
ROOT
HETATM    1  C1  UNL     1     -34.666   5.423   6.566  1.00 20.00     0.012 C 
HETATM    2  C2  UNL     1     -34.155   6.450   6.210  1.00 20.00    -0.116 C 
HETATM    3  C5  UNL     1     -33.525   7.708   5.779  1.00 20.00     0.123 C 
ENDROOT
BRANCH   3   4
HETATM    4  C8  UNL     1     -33.763   7.986   4.299  1.00 20.00     0.284 C 
BRANCH   4   5
HETATM    5  N11 UNL     1     -32.495   8.116   3.582  1.00 20.00     0.089 N 
BRANCH   5   6
HETATM    6  C9  UNL     1     -32.577   9.188   2.589  1.00 20.00     0.272 C 
BRANCH   6   7
HETATM    7  C6  UNL     1     -32.209   8.712   1.189  1.00 20.00     0.026 C 
HETATM    8  C3  UNL     1     -32.980   9.443   0.099  1.00 20.00     0.007 C 
ENDBRANCH   6   7
ENDBRANCH   5   6
BRANCH   5   9
HETATM    9  C10 UNL     1     -32.138   6.852   2.939  1.00 20.00     0.272 C 
BRANCH   9  10
HETATM   10  C7  UNL     1     -33.297   5.861   2.925  1.00 20.00     0.026 C 
HETATM   11  C4  UNL     1     -32.872   4.466   2.488  1.00 20.00     0.007 C 
ENDBRANCH   9  10
ENDBRANCH   5   9
ENDBRANCH   4   5
ENDBRANCH   3   4
TORSDOF 6
ENDMDL
MODEL 5
REMARK VINA RESULT:      -3.6     11.164     12.444
REMARK  6 active torsions:
REMARK  status: ('A' for Active; 'I' for Inactive)
REMARK    1  A    between atoms: C5_5  and  C8_8 
REMARK    2  A    between atoms: C6_6  and  C9_9 
REMARK    3  A    between atoms: C7_7  and  C10_10 
REMARK    4  A    between atoms: C8_8  and  N11_11 
REMARK    5  A    between atoms: C9_9  and  N11_11 
REMARK    6  A    between atoms: C10_10  and  N11_11 
ROOT
HETATM    1  C1  UNL     1     -30.952  18.869   0.431  1.00 20.00     0.012 C 
HETATM    2  C2  UNL     1     -31.816  18.468  -0.300  1.00 20.00    -0.116 C 
HETATM    3  C5  UNL     1     -32.878  17.974  -1.190  1.00 20.00     0.123 C 
ENDROOT
BRANCH   3   4
HETATM    4  C8  UNL     1     -32.844  18.659  -2.552  1.00 20.00     0.284 C 
BRANCH   4   5
HETATM    5  N11 UNL     1     -33.053  17.692  -3.629  1.00 20.00     0.089 N 
BRANCH   5   6
HETATM    6  C9  UNL     1     -34.080  18.170  -4.554  1.00 20.00     0.272 C 
BRANCH   6   7
HETATM    7  C6  UNL     1     -35.467  18.191  -3.922  1.00 20.00     0.026 C 
HETATM    8  C3  UNL     1     -36.536  17.603  -4.831  1.00 20.00     0.007 C 
ENDBRANCH   6   7
ENDBRANCH   5   6
BRANCH   5   9
HETATM    9  C10 UNL     1     -33.428  16.389  -3.080  1.00 20.00     0.272 C 
BRANCH   9  10
HETATM   10  C7  UNL     1     -33.134  15.246  -4.045  1.00 20.00     0.026 C 
HETATM   11  C4  UNL     1     -34.371  14.419  -4.370  1.00 20.00     0.007 C 
ENDBRANCH   9  10
ENDBRANCH   5   9
ENDBRANCH   4   5
ENDBRANCH   3   4
TORSDOF 6
ENDMDL
MODEL 6
REMARK VINA RESULT:      -3.5      9.473     11.118
REMARK  6 active torsions:
REMARK  status: ('A' for Active; 'I' for Inactive)
REMARK    1  A    between atoms: C5_5  and  C8_8 
REMARK    2  A    between atoms: C6_6  and  C9_9 
REMARK    3  A    between atoms: C7_7  and  C10_10 
REMARK    4  A    between atoms: C8_8  and  N11_11 
REMARK    5  A    between atoms: C9_9  and  N11_11 
REMARK    6  A    between atoms: C10_10  and  N11_11 
ROOT
HETATM    1  C1  UNL     1     -38.957  11.664   3.655  1.00 20.00     0.012 C 
HETATM    2  C2  UNL     1     -39.241  11.878   4.802  1.00 20.00    -0.116 C 
HETATM    3  C5  UNL     1     -39.583  12.141   6.209  1.00 20.00     0.123 C 
ENDROOT
BRANCH   3   4
HETATM    4  C8  UNL     1     -40.977  12.743   6.353  1.00 20.00     0.284 C 
BRANCH   4   5
HETATM    5  N11 UNL     1     -40.901  14.143   6.765  1.00 20.00     0.089 N 
BRANCH   5   6
HETATM    6  C9  UNL     1     -41.144  14.268   8.202  1.00 20.00     0.272 C 
BRANCH   6   7
HETATM    7  C6  UNL     1     -40.369  15.424   8.824  1.00 20.00     0.026 C 
HETATM    8  C3  UNL     1     -40.108  15.225  10.310  1.00 20.00     0.007 C 
ENDBRANCH   6   7
ENDBRANCH   5   6
BRANCH   5   9
HETATM    9  C10 UNL     1     -41.861  14.950   6.013  1.00 20.00     0.272 C 
BRANCH   9  10
HETATM   10  C7  UNL     1     -42.484  14.181   4.854  1.00 20.00     0.026 C 
HETATM   11  C4  UNL     1     -42.504  14.983   3.559  1.00 20.00     0.007 C 
ENDBRANCH   9  10
ENDBRANCH   5   9
ENDBRANCH   4   5
ENDBRANCH   3   4
TORSDOF 6
ENDMDL
MODEL 7
REMARK VINA RESULT:      -3.5     11.310     12.505
REMARK  6 active torsions:
REMARK  status: ('A' for Active; 'I' for Inactive)
REMARK    1  A    between atoms: C5_5  and  C8_8 
REMARK    2  A    between atoms: C6_6  and  C9_9 
REMARK    3  A    between atoms: C7_7  and  C10_10 
REMARK    4  A    between atoms: C8_8  and  N11_11 
REMARK    5  A    between atoms: C9_9  and  N11_11 
REMARK    6  A    between atoms: C10_10  and  N11_11 
ROOT
HETATM    1  C1  UNL     1     -33.706  17.750  -0.751  1.00 20.00     0.012 C 
HETATM    2  C2  UNL     1     -33.573  17.093  -1.748  1.00 20.00    -0.116 C 
HETATM    3  C5  UNL     1     -33.411  16.282  -2.965  1.00 20.00     0.123 C 
ENDROOT
BRANCH   3   4
HETATM    4  C8  UNL     1     -33.669  17.096  -4.229  1.00 20.00     0.284 C 
BRANCH   4   5
HETATM    5  N11 UNL     1     -34.938  16.712  -4.847  1.00 20.00     0.089 N 
BRANCH   5   6
HETATM    6  C9  UNL     1     -34.701  15.905  -6.043  1.00 20.00     0.272 C 
BRANCH   6   7
HETATM    7  C6  UNL     1     -35.692  14.755  -6.174  1.00 20.00     0.026 C 
HETATM    8  C3  UNL     1     -35.887  13.994  -4.871  1.00 20.00     0.007 C 
ENDBRANCH   6   7
ENDBRANCH   5   6
BRANCH   5   9
HETATM    9  C10 UNL     1     -35.724  17.899  -5.180  1.00 20.00     0.272 C 
BRANCH   9  10
HETATM   10  C7  UNL     1     -36.975  18.027  -4.318  1.00 20.00     0.026 C 
HETATM   11  C4  UNL     1     -36.728  18.809  -3.035  1.00 20.00     0.007 C 
ENDBRANCH   9  10
ENDBRANCH   5   9
ENDBRANCH   4   5
ENDBRANCH   3   4
TORSDOF 6
ENDMDL
MODEL 8
REMARK VINA RESULT:      -3.5      9.990     11.320
REMARK  6 active torsions:
REMARK  status: ('A' for Active; 'I' for Inactive)
REMARK    1  A    between atoms: C5_5  and  C8_8 
REMARK    2  A    between atoms: C6_6  and  C9_9 
REMARK    3  A    between atoms: C7_7  and  C10_10 
REMARK    4  A    between atoms: C8_8  and  N11_11 
REMARK    5  A    between atoms: C9_9  and  N11_11 
REMARK    6  A    between atoms: C10_10  and  N11_11 
ROOT
HETATM    1  C1  UNL     1     -40.988  17.527   8.138  1.00 20.00     0.012 C 
HETATM    2  C2  UNL     1     -40.675  16.370   8.066  1.00 20.00    -0.116 C 
HETATM    3  C5  UNL     1     -40.285  14.954   7.978  1.00 20.00     0.123 C 
ENDROOT
BRANCH   3   4
HETATM    4  C8  UNL     1     -41.488  14.024   8.097  1.00 20.00     0.284 C 
BRANCH   4   5
HETATM    5  N11 UNL     1     -41.629  13.197   6.899  1.00 20.00     0.089 N 
BRANCH   5   6
HETATM    6  C9  UNL     1     -40.391  13.209   6.120  1.00 20.00     0.272 C 
BRANCH   6   7
HETATM    7  C6  UNL     1     -39.885  11.806   5.811  1.00 20.00     0.026 C 
HETATM    8  C3  UNL     1     -39.170  11.720   4.470  1.00 20.00     0.007 C 
ENDBRANCH   6   7
ENDBRANCH   5   6
BRANCH   5   9
HETATM    9  C10 UNL     1     -42.749  13.665   6.084  1.00 20.00     0.272 C 
BRANCH   9  10
HETATM   10  C7  UNL     1     -42.289  14.447   4.860  1.00 20.00     0.026 C 
HETATM   11  C4  UNL     1     -42.692  15.915   4.913  1.00 20.00     0.007 C 
ENDBRANCH   9  10
ENDBRANCH   5   9
ENDBRANCH   4   5
ENDBRANCH   3   4
TORSDOF 6
ENDMDL
MODEL 9
REMARK VINA RESULT:      -3.4     11.349     12.562
REMARK  6 active torsions:
REMARK  status: ('A' for Active; 'I' for Inactive)
REMARK    1  A    between atoms: C5_5  and  C8_8 
REMARK    2  A    between atoms: C6_6  and  C9_9 
REMARK    3  A    between atoms: C7_7  and  C10_10 
REMARK    4  A    between atoms: C8_8  and  N11_11 
REMARK    5  A    between atoms: C9_9  and  N11_11 
REMARK    6  A    between atoms: C10_10  and  N11_11 
ROOT
HETATM    1  C1  UNL     1     -33.845  14.749  -4.904  1.00 20.00     0.012 C 
HETATM    2  C2  UNL     1     -33.598  15.446  -3.958  1.00 20.00    -0.116 C 
HETATM    3  C5  UNL     1     -33.293  16.295  -2.796  1.00 20.00     0.123 C 
ENDROOT
BRANCH   3   4
HETATM    4  C8  UNL     1     -33.344  17.779  -3.145  1.00 20.00     0.284 C 
BRANCH   4   5
HETATM    5  N11 UNL     1     -33.856  18.562  -2.022  1.00 20.00     0.089 N 
BRANCH   5   6
HETATM    6  C9  UNL     1     -33.692  17.827  -0.768  1.00 20.00     0.272 C 
BRANCH   6   7
HETATM    7  C6  UNL     1     -32.767  18.541   0.208  1.00 20.00     0.026 C 
HETATM    8  C3  UNL     1     -31.314  18.536  -0.246  1.00 20.00     0.007 C 
ENDBRANCH   6   7
ENDBRANCH   5   6
BRANCH   5   9
HETATM    9  C10 UNL     1     -35.263  18.901  -2.234  1.00 20.00     0.272 C 
BRANCH   9  10
HETATM   10  C7  UNL     1     -35.620  18.997  -3.713  1.00 20.00     0.026 C 
HETATM   11  C4  UNL     1     -36.899  18.247  -4.059  1.00 20.00     0.007 C 
ENDBRANCH   9  10
ENDBRANCH   5   9
ENDBRANCH   4   5
ENDBRANCH   3   4
TORSDOF 6
ENDMDL
