MODEL 1
REMARK VINA RESULT:      -3.7      0.000      0.000
REMARK  3 active torsions:
REMARK  status: ('A' for Active; 'I' for Inactive)
REMARK    1  A    between atoms: C2_2  and  C5_5 
REMARK    2  A    between atoms: C5_5  and  N7_7 
REMARK    3  A    between atoms: C6_6  and  N7_7 
ROOT
HETATM    1  C1  UNL     1     -33.553  16.669  -2.216  1.00 20.00     0.052 A 
HETATM    2  C2  UNL     1     -33.102  16.151  -3.554  1.00 20.00     0.055 A 
HETATM    3  C3  UNL     1     -33.768  17.505  -3.453  1.00 20.00     0.119 A 
HETATM    4 CL8  UNL     1     -35.417  17.735  -4.020  1.00 20.00    -0.101 Cl
HETATM    5 CL9  UNL     1     -32.755  18.933  -3.665  1.00 20.00    -0.101 Cl
ENDROOT
BRANCH   2   6
HETATM    6  C5  UNL     1     -33.774  14.964  -4.157  1.00 20.00     0.277 C 
BRANCH   6   7
HETATM    7  N7  UNL     1     -33.283  14.709  -5.484  1.00 20.00     0.083 N 
HETATM    8  H20 UNL     1     -33.096  13.708  -5.607  1.00 20.00     0.315 HD
BRANCH   7   9
HETATM    9  C6  UNL     1     -34.242  15.129  -6.506  1.00 20.00     0.265 C 
HETATM   10  C4  UNL     1     -35.636  14.775  -6.113  1.00 20.00     0.037 C 
ENDBRANCH   7   9
ENDBRANCH   6   7
ENDBRANCH   2   6
TORSDOF 3
ENDMDL
MODEL 2
REMARK VINA RESULT:      -3.6     12.889     13.625
REMARK  3 active torsions:
REMARK  status: ('A' for Active; 'I' for Inactive)
REMARK    1  A    between atoms: C2_2  and  C5_5 
REMARK    2  A    between atoms: C5_5  and  N7_7 
REMARK    3  A    between atoms: C6_6  and  N7_7 
ROOT
HETATM    1  C1  UNL     1     -35.472   6.190   4.487  1.00 20.00     0.052 A 
HETATM    2  C2  UNL     1     -34.059   6.704   4.507  1.00 20.00     0.055 A 
HETATM    3  C3  UNL     1     -34.371   5.329   5.054  1.00 20.00     0.119 A 
HETATM    4 CL8  UNL     1     -34.361   5.033   6.787  1.00 20.00    -0.101 Cl
HETATM    5 CL9  UNL     1     -33.849   3.935   4.107  1.00 20.00    -0.101 Cl
ENDROOT
BRANCH   2   6
HETATM    6  C5  UNL     1     -33.698   7.857   5.381  1.00 20.00     0.277 C 
BRANCH   6   7
HETATM    7  N7  UNL     1     -32.437   8.427   4.993  1.00 20.00     0.083 N 
HETATM    8  H20 UNL     1     -31.704   8.150   5.655  1.00 20.00     0.315 HD
BRANCH   7   9
HETATM    9  C6  UNL     1     -32.036   7.994   3.654  1.00 20.00     0.265 C 
HETATM   10  C4  UNL     1     -32.501   8.958   2.616  1.00 20.00     0.037 C 
ENDBRANCH   7   9
ENDBRANCH   6   7
ENDBRANCH   2   6
TORSDOF 3
ENDMDL
MODEL 3
REMARK VINA RESULT:      -3.6     11.920     12.634
REMARK  3 active torsions:
REMARK  status: ('A' for Active; 'I' for Inactive)
REMARK    1  A    between atoms: C2_2  and  C5_5 
REMARK    2  A    between atoms: C5_5  and  N7_7 
REMARK    3  A    between atoms: C6_6  and  N7_7 
ROOT
HETATM    1  C1  UNL     1     -34.009   6.515   5.982  1.00 20.00     0.052 A 
HETATM    2  C2  UNL     1     -33.852   7.536   4.888  1.00 20.00     0.055 A 
HETATM    3  C3  UNL     1     -34.410   6.167   4.570  1.00 20.00     0.119 A 
HETATM    4 CL8  UNL     1     -33.441   4.984   3.702  1.00 20.00    -0.101 Cl
HETATM    5 CL9  UNL     1     -36.134   6.050   4.212  1.00 20.00    -0.101 Cl
ENDROOT
BRANCH   2   6
HETATM    6  C5  UNL     1     -32.489   7.969   4.465  1.00 20.00     0.277 C 
BRANCH   6   7
HETATM    7  N7  UNL     1     -32.546   8.763   3.269  1.00 20.00     0.083 N 
HETATM    8  H20 UNL     1     -31.895   9.553   3.336  1.00 20.00     0.315 HD
BRANCH   7   9
HETATM    9  C6  UNL     1     -32.201   7.980   2.082  1.00 20.00     0.265 C 
HETATM   10  C4  UNL     1     -32.441   8.760   0.834  1.00 20.00     0.037 C 
ENDBRANCH   7   9
ENDBRANCH   6   7
ENDBRANCH   2   6
TORSDOF 3
ENDMDL
MODEL 4
REMARK VINA RESULT:      -3.5     17.964     18.647
REMARK  3 active torsions:
REMARK  status: ('A' for Active; 'I' for Inactive)
REMARK    1  A    between atoms: C2_2  and  C5_5 
REMARK    2  A    between atoms: C5_5  and  N7_7 
REMARK    3  A    between atoms: C6_6  and  N7_7 
ROOT
HETATM    1  C1  UNL     1     -21.410  19.246   9.889  1.00 20.00     0.052 A 
HETATM    2  C2  UNL     1     -22.025  18.002  10.470  1.00 20.00     0.055 A 
HETATM    3  C3  UNL     1     -22.464  18.499   9.111  1.00 20.00     0.119 A 
HETATM    4 CL8  UNL     1     -24.035  19.263   8.902  1.00 20.00    -0.101 Cl
HETATM    5 CL9  UNL     1     -21.945  17.581   7.697  1.00 20.00    -0.101 Cl
ENDROOT
BRANCH   2   6
HETATM    6  C5  UNL     1     -22.889  18.096  11.681  1.00 20.00     0.277 C 
BRANCH   6   7
HETATM    7  N7  UNL     1     -23.138  16.796  12.242  1.00 20.00     0.083 N 
HETATM    8  H20 UNL     1     -23.132  16.844  13.266  1.00 20.00     0.315 HD
BRANCH   7   9
HETATM    9  C6  UNL     1     -24.431  16.260  11.813  1.00 20.00     0.265 C 
HETATM   10  C4  UNL     1     -25.529  17.235  12.071  1.00 20.00     0.037 C 
ENDBRANCH   7   9
ENDBRANCH   6   7
ENDBRANCH   2   6
TORSDOF 3
ENDMDL
MODEL 5
REMARK VINA RESULT:      -3.4     12.627     13.438
REMARK  3 active torsions:
REMARK  status: ('A' for Active; 'I' for Inactive)
REMARK    1  A    between atoms: C2_2  and  C5_5 
REMARK    2  A    between atoms: C5_5  and  N7_7 
REMARK    3  A    between atoms: C6_6  and  N7_7 
ROOT
HETATM    1  C1  UNL     1     -34.073   4.283   4.324  1.00 20.00     0.052 A 
HETATM    2  C2  UNL     1     -33.272   5.549   4.182  1.00 20.00     0.055 A 
HETATM    3  C3  UNL     1     -34.625   5.581   4.857  1.00 20.00     0.119 A 
HETATM    4 CL8  UNL     1     -36.015   6.286   4.043  1.00 20.00    -0.101 Cl
HETATM    5 CL9  UNL     1     -34.660   5.801   6.607  1.00 20.00    -0.101 Cl
ENDROOT
BRANCH   2   6
HETATM    6  C5  UNL     1     -33.032   6.129   2.829  1.00 20.00     0.277 C 
BRANCH   6   7
HETATM    7  N7  UNL     1     -32.131   7.246   2.897  1.00 20.00     0.083 N 
HETATM    8  H20 UNL     1     -31.768   7.467   1.964  1.00 20.00     0.315 HD
BRANCH   7   9
HETATM    9  C6  UNL     1     -32.789   8.440   3.430  1.00 20.00     0.265 C 
HETATM   10  C4  UNL     1     -32.289   8.764   4.797  1.00 20.00     0.037 C 
ENDBRANCH   7   9
ENDBRANCH   6   7
ENDBRANCH   2   6
TORSDOF 3
ENDMDL
MODEL 6
REMARK VINA RESULT:      -3.3      1.448      1.979
REMARK  3 active torsions:
REMARK  status: ('A' for Active; 'I' for Inactive)
REMARK    1  A    between atoms: C2_2  and  C5_5 
REMARK    2  A    between atoms: C5_5  and  N7_7 
REMARK    3  A    between atoms: C6_6  and  N7_7 
ROOT
HETATM    1  C1  UNL     1     -33.246  18.222  -3.787  1.00 20.00     0.052 A 
HETATM    2  C2  UNL     1     -33.990  16.924  -3.939  1.00 20.00     0.055 A 
HETATM    3  C3  UNL     1     -34.257  17.812  -2.745  1.00 20.00     0.119 A 
HETATM    4 CL8  UNL     1     -33.667  17.367  -1.150  1.00 20.00    -0.101 Cl
HETATM    5 CL9  UNL     1     -35.789  18.684  -2.701  1.00 20.00    -0.101 Cl
ENDROOT
BRANCH   2   6
HETATM    6  C5  UNL     1     -33.257  15.630  -3.834  1.00 20.00     0.277 C 
BRANCH   6   7
HETATM    7  N7  UNL     1     -33.058  15.040  -5.129  1.00 20.00     0.083 N 
HETATM    8  H20 UNL     1     -32.783  14.057  -5.034  1.00 20.00     0.315 HD
BRANCH   7   9
HETATM    9  C6  UNL     1     -34.272  15.102  -5.944  1.00 20.00     0.265 C 
HETATM   10  C4  UNL     1     -33.953  15.450  -7.359  1.00 20.00     0.037 C 
ENDBRANCH   7   9
ENDBRANCH   6   7
ENDBRANCH   2   6
TORSDOF 3
ENDMDL
MODEL 7
REMARK VINA RESULT:      -3.2      2.433      4.355
REMARK  3 active torsions:
REMARK  status: ('A' for Active; 'I' for Inactive)
REMARK    1  A    between atoms: C2_2  and  C5_5 
REMARK    2  A    between atoms: C5_5  and  N7_7 
REMARK    3  A    between atoms: C6_6  and  N7_7 
ROOT
HETATM    1  C1  UNL     1     -32.962  14.730  -4.451  1.00 20.00     0.052 A 
HETATM    2  C2  UNL     1     -33.749  15.545  -3.462  1.00 20.00     0.055 A 
HETATM    3  C3  UNL     1     -34.403  15.068  -4.739  1.00 20.00     0.119 A 
HETATM    4 CL8  UNL     1     -34.745  16.195  -6.044  1.00 20.00    -0.101 Cl
HETATM    5 CL9  UNL     1     -35.590  13.769  -4.614  1.00 20.00    -0.101 Cl
ENDROOT
BRANCH   2   6
HETATM    6  C5  UNL     1     -33.393  16.973  -3.222  1.00 20.00     0.277 C 
BRANCH   6   7
HETATM    7  N7  UNL     1     -34.313  17.590  -2.307  1.00 20.00     0.083 N 
HETATM    8  H20 UNL     1     -35.167  17.027  -2.229  1.00 20.00     0.315 HD
BRANCH   7   9
HETATM    9  C6  UNL     1     -33.733  17.737  -0.972  1.00 20.00     0.265 C 
HETATM   10  C4  UNL     1     -32.302  18.148  -1.050  1.00 20.00     0.037 C 
ENDBRANCH   7   9
ENDBRANCH   6   7
ENDBRANCH   2   6
TORSDOF 3
ENDMDL
MODEL 8
REMARK VINA RESULT:      -3.2     11.941     12.882
REMARK  3 active torsions:
REMARK  status: ('A' for Active; 'I' for Inactive)
REMARK    1  A    between atoms: C2_2  and  C5_5 
REMARK    2  A    between atoms: C5_5  and  N7_7 
REMARK    3  A    between atoms: C6_6  and  N7_7 
ROOT
HETATM    1  C1  UNL     1     -42.935  13.076   6.531  1.00 20.00     0.052 A 
HETATM    2  C2  UNL     1     -41.442  13.141   6.703  1.00 20.00     0.055 A 
HETATM    3  C3  UNL     1     -42.161  14.222   5.928  1.00 20.00     0.119 A 
HETATM    4 CL8  UNL     1     -42.033  14.301   4.176  1.00 20.00    -0.101 Cl
HETATM    5 CL9  UNL     1     -42.317  15.807   6.686  1.00 20.00    -0.101 Cl
ENDROOT
BRANCH   2   6
HETATM    6  C5  UNL     1     -40.573  12.121   6.049  1.00 20.00     0.277 C 
BRANCH   6   7
HETATM    7  N7  UNL     1     -39.197  12.297   6.423  1.00 20.00     0.083 N 
HETATM    8  H20 UNL     1     -38.962  11.685   7.212  1.00 20.00     0.315 HD
BRANCH   7   9
HETATM    9  C6  UNL     1     -38.291  11.990   5.315  1.00 20.00     0.265 C 
HETATM   10  C4  UNL     1     -39.051  11.676   4.072  1.00 20.00     0.037 C 
ENDBRANCH   7   9
ENDBRANCH   6   7
ENDBRANCH   2   6
TORSDOF 3
ENDMDL
MODEL 9
REMARK VINA RESULT:      -3.2     13.602     14.604
REMARK  3 active torsions:
REMARK  status: ('A' for Active; 'I' for Inactive)
REMARK    1  A    between atoms: C2_2  and  C5_5 
REMARK    2  A    between atoms: C5_5  and  N7_7 
REMARK    3  A    between atoms: C6_6  and  N7_7 
ROOT
HETATM    1  C1  UNL     1     -40.984   5.895  -0.386  1.00 20.00     0.052 A 
HETATM    2  C2  UNL     1     -42.423   5.856  -0.822  1.00 20.00     0.055 A 
HETATM    3  C3  UNL     1     -42.080   5.918   0.649  1.00 20.00     0.119 A 
HETATM    4 CL8  UNL     1     -42.279   4.504   1.675  1.00 20.00    -0.101 Cl
HETATM    5 CL9  UNL     1     -42.379   7.437   1.495  1.00 20.00    -0.101 Cl
ENDROOT
BRANCH   2   6
HETATM    6  C5  UNL     1     -42.970   4.630  -1.471  1.00 20.00     0.277 C 
BRANCH   6   7
HETATM    7  N7  UNL     1     -41.986   4.007  -2.313  1.00 20.00     0.083 N 
HETATM    8  H20 UNL     1     -41.345   3.438  -1.750  1.00 20.00     0.315 HD
BRANCH   7   9
HETATM    9  C6  UNL     1     -42.604   3.143  -3.320  1.00 20.00     0.265 C 
HETATM   10  C4  UNL     1     -41.585   2.286  -3.992  1.00 20.00     0.037 C 
ENDBRANCH   7   9
ENDBRANCH   6   7
ENDBRANCH   2   6
TORSDOF 3
ENDMDL
