MODEL 1
REMARK VINA RESULT:      -4.4      0.000      0.000
REMARK  3 active torsions:
REMARK  status: ('A' for Active; 'I' for Inactive)
REMARK    1  A    between atoms: C2_2  and  C5_5 
REMARK    2  A    between atoms: C5_5  and  N7_7 
REMARK    3  A    between atoms: C6_6  and  N7_7 
ROOT
HETATM    1  C1  UNL     1     -34.687   5.662   6.568  1.00 20.00     0.052 A 
HETATM    2  C2  UNL     1     -33.619   6.407   5.815  1.00 20.00     0.055 A 
HETATM    3  C3  UNL     1     -34.583   5.510   5.070  1.00 20.00     0.119 A 
HETATM    4 CL8  UNL     1     -33.960   3.985   4.439  1.00 20.00    -0.101 Cl
HETATM    5 CL9  UNL     1     -35.860   6.200   4.080  1.00 20.00    -0.101 Cl
ENDROOT
BRANCH   2   6
HETATM    6  C5  UNL     1     -33.669   7.894   5.730  1.00 20.00     0.277 C 
BRANCH   6   7
HETATM    7  N7  UNL     1     -32.463   8.422   5.153  1.00 20.00     0.083 N 
HETATM    8  H20 UNL     1     -32.226   9.320   5.587  1.00 20.00     0.315 HD
BRANCH   7   9
HETATM    9  C6  UNL     1     -32.601   8.629   3.711  1.00 20.00     0.265 C 
HETATM   10  C4  UNL     1     -32.169   7.422   2.950  1.00 20.00     0.037 C 
ENDBRANCH   7   9
ENDBRANCH   6   7
ENDBRANCH   2   6
TORSDOF 3
ENDMDL
MODEL 2
REMARK VINA RESULT:      -4.2      2.139      3.717
REMARK  3 active torsions:
REMARK  status: ('A' for Active; 'I' for Inactive)
REMARK    1  A    between atoms: C2_2  and  C5_5 
REMARK    2  A    between atoms: C5_5  and  N7_7 
REMARK    3  A    between atoms: C6_6  and  N7_7 
ROOT
HETATM    1  C1  UNL     1     -31.668   7.891   4.046  1.00 20.00     0.052 A 
HETATM    2  C2  UNL     1     -33.116   8.257   3.862  1.00 20.00     0.055 A 
HETATM    3  C3  UNL     1     -32.410   7.418   2.820  1.00 20.00     0.119 A 
HETATM    4 CL8  UNL     1     -32.022   8.184   1.279  1.00 20.00    -0.101 Cl
HETATM    5 CL9  UNL     1     -32.752   5.701   2.673  1.00 20.00    -0.101 Cl
ENDROOT
BRANCH   2   6
HETATM    6  C5  UNL     1     -34.147   7.700   4.784  1.00 20.00     0.277 C 
BRANCH   6   7
HETATM    7  N7  UNL     1     -33.548   7.200   5.990  1.00 20.00     0.083 N 
HETATM    8  H20 UNL     1     -32.565   6.960   5.825  1.00 20.00     0.315 HD
BRANCH   7   9
HETATM    9  C6  UNL     1     -34.237   6.005   6.480  1.00 20.00     0.265 C 
HETATM   10  C4  UNL     1     -34.913   5.280   5.367  1.00 20.00     0.037 C 
ENDBRANCH   7   9
ENDBRANCH   6   7
ENDBRANCH   2   6
TORSDOF 3
ENDMDL
MODEL 3
REMARK VINA RESULT:      -3.8      1.274      1.529
REMARK  3 active torsions:
REMARK  status: ('A' for Active; 'I' for Inactive)
REMARK    1  A    between atoms: C2_2  and  C5_5 
REMARK    2  A    between atoms: C5_5  and  N7_7 
REMARK    3  A    between atoms: C6_6  and  N7_7 
ROOT
HETATM    1  C1  UNL     1     -34.362   7.405   6.612  1.00 20.00     0.052 A 
HETATM    2  C2  UNL     1     -33.250   7.212   5.617  1.00 20.00     0.055 A 
HETATM    3  C3  UNL     1     -34.359   6.188   5.719  1.00 20.00     0.119 A 
HETATM    4 CL8  UNL     1     -33.971   4.632   6.452  1.00 20.00    -0.101 Cl
HETATM    5 CL9  UNL     1     -35.590   6.078   4.470  1.00 20.00    -0.101 Cl
ENDROOT
BRANCH   2   6
HETATM    6  C5  UNL     1     -33.115   8.145   4.462  1.00 20.00     0.277 C 
BRANCH   6   7
HETATM    7  N7  UNL     1     -31.942   7.845   3.689  1.00 20.00     0.083 N 
HETATM    8  H20 UNL     1     -31.404   8.702   3.515  1.00 20.00     0.315 HD
BRANCH   7   9
HETATM    9  C6  UNL     1     -32.284   7.248   2.398  1.00 20.00     0.265 C 
HETATM   10  C4  UNL     1     -32.671   5.817   2.553  1.00 20.00     0.037 C 
ENDBRANCH   7   9
ENDBRANCH   6   7
ENDBRANCH   2   6
TORSDOF 3
ENDMDL
MODEL 4
REMARK VINA RESULT:      -3.7      1.849      2.340
REMARK  3 active torsions:
REMARK  status: ('A' for Active; 'I' for Inactive)
REMARK    1  A    between atoms: C2_2  and  C5_5 
REMARK    2  A    between atoms: C5_5  and  N7_7 
REMARK    3  A    between atoms: C6_6  and  N7_7 
ROOT
HETATM    1  C1  UNL     1     -34.455   7.980   4.831  1.00 20.00     0.052 A 
HETATM    2  C2  UNL     1     -32.990   7.776   5.105  1.00 20.00     0.055 A 
HETATM    3  C3  UNL     1     -33.921   6.585   5.043  1.00 20.00     0.119 A 
HETATM    4 CL8  UNL     1     -34.316   5.775   6.559  1.00 20.00    -0.101 Cl
HETATM    5 CL9  UNL     1     -33.886   5.496   3.664  1.00 20.00    -0.101 Cl
ENDROOT
BRANCH   2   6
HETATM    6  C5  UNL     1     -31.986   8.072   4.045  1.00 20.00     0.277 C 
BRANCH   6   7
HETATM    7  N7  UNL     1     -32.573   8.824   2.970  1.00 20.00     0.083 N 
HETATM    8  H20 UNL     1     -33.594   8.844   3.068  1.00 20.00     0.315 HD
BRANCH   7   9
HETATM    9  C6  UNL     1     -32.247   8.246   1.666  1.00 20.00     0.265 C 
HETATM   10  C4  UNL     1     -32.650   9.156   0.557  1.00 20.00     0.037 C 
ENDBRANCH   7   9
ENDBRANCH   6   7
ENDBRANCH   2   6
TORSDOF 3
ENDMDL
MODEL 5
REMARK VINA RESULT:      -3.4     12.590     13.225
REMARK  3 active torsions:
REMARK  status: ('A' for Active; 'I' for Inactive)
REMARK    1  A    between atoms: C2_2  and  C5_5 
REMARK    2  A    between atoms: C5_5  and  N7_7 
REMARK    3  A    between atoms: C6_6  and  N7_7 
ROOT
HETATM    1  C1  UNL     1     -32.540  18.453  -1.867  1.00 20.00     0.052 A 
HETATM    2  C2  UNL     1     -33.180  17.111  -2.099  1.00 20.00     0.055 A 
HETATM    3  C3  UNL     1     -33.882  18.147  -1.249  1.00 20.00     0.119 A 
HETATM    4 CL8  UNL     1     -33.941  17.873   0.492  1.00 20.00    -0.101 Cl
HETATM    5 CL9  UNL     1     -35.288  19.003  -1.864  1.00 20.00    -0.101 Cl
ENDROOT
BRANCH   2   6
HETATM    6  C5  UNL     1     -33.647  16.735  -3.463  1.00 20.00     0.277 C 
BRANCH   6   7
HETATM    7  N7  UNL     1     -32.850  15.670  -4.009  1.00 20.00     0.083 N 
HETATM    8  H20 UNL     1     -32.196  16.040  -4.707  1.00 20.00     0.315 HD
BRANCH   7   9
HETATM    9  C6  UNL     1     -33.679  14.649  -4.650  1.00 20.00     0.265 C 
HETATM   10  C4  UNL     1     -34.070  15.060  -6.028  1.00 20.00     0.037 C 
ENDBRANCH   7   9
ENDBRANCH   6   7
ENDBRANCH   2   6
TORSDOF 3
ENDMDL
MODEL 6
REMARK VINA RESULT:      -3.4     12.510     13.231
REMARK  3 active torsions:
REMARK  status: ('A' for Active; 'I' for Inactive)
REMARK    1  A    between atoms: C2_2  and  C5_5 
REMARK    2  A    between atoms: C5_5  and  N7_7 
REMARK    3  A    between atoms: C6_6  and  N7_7 
ROOT
HETATM    1  C1  UNL     1     -33.021  19.118  -1.859  1.00 20.00     0.052 A 
HETATM    2  C2  UNL     1     -32.583  17.680  -1.897  1.00 20.00     0.055 A 
HETATM    3  C3  UNL     1     -32.625  18.423  -0.580  1.00 20.00     0.119 A 
HETATM    4 CL8  UNL     1     -31.086  18.871   0.156  1.00 20.00    -0.101 Cl
HETATM    5 CL9  UNL     1     -33.883  18.083   0.598  1.00 20.00    -0.101 Cl
ENDROOT
BRANCH   2   6
HETATM    6  C5  UNL     1     -33.561  16.613  -2.253  1.00 20.00     0.277 C 
BRANCH   6   7
HETATM    7  N7  UNL     1     -34.385  17.014  -3.360  1.00 20.00     0.083 N 
HETATM    8  H20 UNL     1     -35.377  16.928  -3.113  1.00 20.00     0.315 HD
BRANCH   7   9
HETATM    9  C6  UNL     1     -34.134  16.193  -4.545  1.00 20.00     0.265 C 
HETATM   10  C4  UNL     1     -33.820  14.785  -4.169  1.00 20.00     0.037 C 
ENDBRANCH   7   9
ENDBRANCH   6   7
ENDBRANCH   2   6
TORSDOF 3
ENDMDL
MODEL 7
REMARK VINA RESULT:      -3.4     12.606     13.152
REMARK  3 active torsions:
REMARK  status: ('A' for Active; 'I' for Inactive)
REMARK    1  A    between atoms: C2_2  and  C5_5 
REMARK    2  A    between atoms: C5_5  and  N7_7 
REMARK    3  A    between atoms: C6_6  and  N7_7 
ROOT
HETATM    1  C1  UNL     1     -34.060  14.620  -4.151  1.00 20.00     0.052 A 
HETATM    2  C2  UNL     1     -33.504  16.013  -4.264  1.00 20.00     0.055 A 
HETATM    3  C3  UNL     1     -34.456  15.492  -5.318  1.00 20.00     0.119 A 
HETATM    4 CL8  UNL     1     -33.787  15.098  -6.901  1.00 20.00    -0.101 Cl
HETATM    5 CL9  UNL     1     -36.113  16.072  -5.390  1.00 20.00    -0.101 Cl
ENDROOT
BRANCH   2   6
HETATM    6  C5  UNL     1     -33.891  17.053  -3.268  1.00 20.00     0.277 C 
BRANCH   6   7
HETATM    7  N7  UNL     1     -33.694  16.583  -1.925  1.00 20.00     0.083 N 
HETATM    8  H20 UNL     1     -34.483  15.995  -1.636  1.00 20.00     0.315 HD
BRANCH   7   9
HETATM    9  C6  UNL     1     -33.575  17.691  -0.977  1.00 20.00     0.265 C 
HETATM   10  C4  UNL     1     -32.191  18.244  -0.966  1.00 20.00     0.037 C 
ENDBRANCH   7   9
ENDBRANCH   6   7
ENDBRANCH   2   6
TORSDOF 3
ENDMDL
MODEL 8
REMARK VINA RESULT:      -3.3     12.999     13.644
REMARK  3 active torsions:
REMARK  status: ('A' for Active; 'I' for Inactive)
REMARK    1  A    between atoms: C2_2  and  C5_5 
REMARK    2  A    between atoms: C5_5  and  N7_7 
REMARK    3  A    between atoms: C6_6  and  N7_7 
ROOT
HETATM    1  C1  UNL     1     -33.294  16.994  -2.076  1.00 20.00     0.052 A 
HETATM    2  C2  UNL     1     -33.821  16.154  -3.207  1.00 20.00     0.055 A 
HETATM    3  C3  UNL     1     -34.005  17.655  -3.231  1.00 20.00     0.119 A 
HETATM    4 CL8  UNL     1     -35.627  18.286  -2.945  1.00 20.00    -0.101 Cl
HETATM    5 CL9  UNL     1     -33.055  18.654  -4.321  1.00 20.00    -0.101 Cl
ENDROOT
BRANCH   2   6
HETATM    6  C5  UNL     1     -32.873  15.442  -4.110  1.00 20.00     0.277 C 
BRANCH   6   7
HETATM    7  N7  UNL     1     -33.556  14.466  -4.914  1.00 20.00     0.083 N 
HETATM    8  H20 UNL     1     -32.896  13.751  -5.239  1.00 20.00     0.315 HD
BRANCH   7   9
HETATM    9  C6  UNL     1     -34.187  15.077  -6.085  1.00 20.00     0.265 C 
HETATM   10  C4  UNL     1     -35.636  14.739  -6.153  1.00 20.00     0.037 C 
ENDBRANCH   7   9
ENDBRANCH   6   7
ENDBRANCH   2   6
TORSDOF 3
ENDMDL
MODEL 9
REMARK VINA RESULT:      -3.3      9.361     10.258
REMARK  3 active torsions:
REMARK  status: ('A' for Active; 'I' for Inactive)
REMARK    1  A    between atoms: C2_2  and  C5_5 
REMARK    2  A    between atoms: C5_5  and  N7_7 
REMARK    3  A    between atoms: C6_6  and  N7_7 
ROOT
HETATM    1  C1  UNL     1     -41.344  15.114   6.927  1.00 20.00     0.052 A 
HETATM    2  C2  UNL     1     -40.575  13.822   6.963  1.00 20.00     0.055 A 
HETATM    3  C3  UNL     1     -41.187  14.372   8.232  1.00 20.00     0.119 A 
HETATM    4 CL8  UNL     1     -40.095  15.054   9.438  1.00 20.00    -0.101 Cl
HETATM    5 CL9  UNL     1     -42.614  13.624   8.934  1.00 20.00    -0.101 Cl
ENDROOT
BRANCH   2   6
HETATM    6  C5  UNL     1     -41.109  12.618   6.265  1.00 20.00     0.277 C 
BRANCH   6   7
HETATM    7  N7  UNL     1     -40.096  11.609   6.121  1.00 20.00     0.083 N 
HETATM    8  H20 UNL     1     -39.786  11.284   7.044  1.00 20.00     0.315 HD
BRANCH   7   9
HETATM    9  C6  UNL     1     -38.930  12.115   5.396  1.00 20.00     0.265 C 
HETATM   10  C4  UNL     1     -38.934  11.651   3.980  1.00 20.00     0.037 C 
ENDBRANCH   7   9
ENDBRANCH   6   7
ENDBRANCH   2   6
TORSDOF 3
ENDMDL
