MODEL 1
REMARK VINA RESULT:      -4.7      0.000      0.000
REMARK  0 active torsions:
REMARK  status: ('A' for Active; 'I' for Inactive)
ROOT
HETATM    1  C1  UNL     1     -34.828   5.454   6.304  1.00 20.00     0.003 C 
HETATM    2  C2  UNL     1     -34.558   4.987   4.868  1.00 20.00     0.037 C 
HETATM    3  C3  UNL     1     -34.207   6.854   6.429  1.00 20.00     0.017 C 
HETATM    4  C4  UNL     1     -32.188   6.849   2.559  1.00 20.00     0.280 C 
HETATM    5  C5  UNL     1     -32.360   8.305   3.005  1.00 20.00     0.104 C 
HETATM    6  C6  UNL     1     -33.441   5.908   4.386  1.00 20.00     0.234 C 
HETATM    7  C7  UNL     1     -33.867   7.240   4.994  1.00 20.00     0.080 C 
HETATM    8  N8  UNL     1     -33.304   5.974   2.936  1.00 20.00     0.089 N 
HETATM    9  S9  UNL     1     -32.555   8.469   4.811  1.00 20.00    -0.160 SA
HETATM   10  H22 UNL     1     -34.167   6.332   2.526  1.00 20.00     0.316 HD
ENDROOT
TORSDOF 0
ENDMDL
MODEL 2
REMARK VINA RESULT:      -4.5      1.532      2.166
REMARK  0 active torsions:
REMARK  status: ('A' for Active; 'I' for Inactive)
ROOT
HETATM    1  C1  UNL     1     -34.882   5.504   6.373  1.00 20.00     0.003 C 
HETATM    2  C2  UNL     1     -34.191   6.871   6.460  1.00 20.00     0.037 C 
HETATM    3  C3  UNL     1     -34.501   4.911   5.007  1.00 20.00     0.017 C 
HETATM    4  C4  UNL     1     -32.530   8.481   3.449  1.00 20.00     0.280 C 
HETATM    5  C5  UNL     1     -32.015   7.270   2.663  1.00 20.00     0.104 C 
HETATM    6  C6  UNL     1     -33.831   7.193   5.012  1.00 20.00     0.234 C 
HETATM    7  C7  UNL     1     -33.390   5.825   4.502  1.00 20.00     0.080 C 
HETATM    8  N8  UNL     1     -32.791   8.204   4.867  1.00 20.00     0.089 N 
HETATM    9  S9  UNL     1     -33.169   5.859   2.709  1.00 20.00    -0.160 SA
HETATM   10  H22 UNL     1     -31.932   7.880   5.310  1.00 20.00     0.316 HD
ENDROOT
TORSDOF 0
ENDMDL
MODEL 3
REMARK VINA RESULT:      -4.3      1.952      3.792
REMARK  0 active torsions:
REMARK  status: ('A' for Active; 'I' for Inactive)
ROOT
HETATM    1  C1  UNL     1     -32.152   9.030   4.259  1.00 20.00     0.003 C 
HETATM    2  C2  UNL     1     -32.975   8.799   5.533  1.00 20.00     0.037 C 
HETATM    3  C3  UNL     1     -32.354   7.786   3.379  1.00 20.00     0.017 C 
HETATM    4  C4  UNL     1     -34.512   5.424   6.349  1.00 20.00     0.280 C 
HETATM    5  C5  UNL     1     -34.839   4.861   4.962  1.00 20.00     0.104 C 
HETATM    6  C6  UNL     1     -33.237   7.295   5.533  1.00 20.00     0.234 C 
HETATM    7  C7  UNL     1     -33.499   7.037   4.052  1.00 20.00     0.080 C 
HETATM    8  N8  UNL     1     -34.351   6.883   6.377  1.00 20.00     0.089 N 
HETATM    9  S9  UNL     1     -33.565   5.262   3.721  1.00 20.00    -0.160 SA
HETATM   10  H22 UNL     1     -35.211   7.323   6.050  1.00 20.00     0.316 HD
ENDROOT
TORSDOF 0
ENDMDL
MODEL 4
REMARK VINA RESULT:      -4.2      1.315      3.302
REMARK  0 active torsions:
REMARK  status: ('A' for Active; 'I' for Inactive)
ROOT
HETATM    1  C1  UNL     1     -32.116   8.656   3.450  1.00 20.00     0.003 C 
HETATM    2  C2  UNL     1     -32.435   7.252   2.921  1.00 20.00     0.037 C 
HETATM    3  C3  UNL     1     -32.666   8.714   4.884  1.00 20.00     0.017 C 
HETATM    4  C4  UNL     1     -34.757   4.884   4.771  1.00 20.00     0.280 C 
HETATM    5  C5  UNL     1     -34.506   5.247   6.238  1.00 20.00     0.104 C 
HETATM    6  C6  UNL     1     -33.516   6.739   3.869  1.00 20.00     0.234 C 
HETATM    7  C7  UNL     1     -33.014   7.266   5.209  1.00 20.00     0.080 C 
HETATM    8  N8  UNL     1     -33.677   5.290   3.863  1.00 20.00     0.089 N 
HETATM    9  S9  UNL     1     -34.269   7.038   6.489  1.00 20.00    -0.160 SA
HETATM   10  H22 UNL     1     -32.806   4.847   4.156  1.00 20.00     0.316 HD
ENDROOT
TORSDOF 0
ENDMDL
MODEL 5
REMARK VINA RESULT:      -4.0     16.284     17.010
REMARK  0 active torsions:
REMARK  status: ('A' for Active; 'I' for Inactive)
ROOT
HETATM    1  C1  UNL     1     -21.600  18.732   8.379  1.00 20.00     0.003 C 
HETATM    2  C2  UNL     1     -23.128  18.758   8.251  1.00 20.00     0.037 C 
HETATM    3  C3  UNL     1     -21.293  18.482   9.865  1.00 20.00     0.017 C 
HETATM    4  C4  UNL     1     -25.401  18.864  11.291  1.00 20.00     0.280 C 
HETATM    5  C5  UNL     1     -24.607  18.066  12.331  1.00 20.00     0.104 C 
HETATM    6  C6  UNL     1     -23.613  18.971   9.682  1.00 20.00     0.234 C 
HETATM    7  C7  UNL     1     -22.641  18.092  10.463  1.00 20.00     0.080 C 
HETATM    8  N8  UNL     1     -25.005  18.595   9.903  1.00 20.00     0.089 N 
HETATM    9  S9  UNL     1     -22.813  18.378  12.238  1.00 20.00    -0.160 SA
HETATM   10  H22 UNL     1     -25.128  17.602   9.704  1.00 20.00     0.316 HD
ENDROOT
TORSDOF 0
ENDMDL
MODEL 6
REMARK VINA RESULT:      -3.9     15.675     16.454
REMARK  0 active torsions:
REMARK  status: ('A' for Active; 'I' for Inactive)
ROOT
HETATM    1  C1  UNL     1     -22.004  18.341   7.918  1.00 20.00     0.003 C 
HETATM    2  C2  UNL     1     -21.838  17.366   9.092  1.00 20.00     0.037 C 
HETATM    3  C3  UNL     1     -23.235  19.203   8.241  1.00 20.00     0.017 C 
HETATM    4  C4  UNL     1     -24.515  16.948  11.752  1.00 20.00     0.280 C 
HETATM    5  C5  UNL     1     -25.123  18.352  11.838  1.00 20.00     0.104 C 
HETATM    6  C6  UNL     1     -23.194  17.400   9.791  1.00 20.00     0.234 C 
HETATM    7  C7  UNL     1     -23.542  18.882   9.699  1.00 20.00     0.080 C 
HETATM    8  N8  UNL     1     -23.169  16.916  11.166  1.00 20.00     0.089 N 
HETATM    9  S9  UNL     1     -25.252  19.164  10.211  1.00 20.00    -0.160 SA
HETATM   10  H22 UNL     1     -22.545  17.500  11.724  1.00 20.00     0.316 HD
ENDROOT
TORSDOF 0
ENDMDL
MODEL 7
REMARK VINA RESULT:      -3.7      1.764      3.012
REMARK  0 active torsions:
REMARK  status: ('A' for Active; 'I' for Inactive)
ROOT
HETATM    1  C1  UNL     1     -32.641   9.139   5.074  1.00 20.00     0.003 C 
HETATM    2  C2  UNL     1     -32.028   8.305   3.942  1.00 20.00     0.037 C 
HETATM    3  C3  UNL     1     -33.681   8.240   5.762  1.00 20.00     0.017 C 
HETATM    4  C4  UNL     1     -33.507   4.977   2.868  1.00 20.00     0.280 C 
HETATM    5  C5  UNL     1     -34.070   4.421   4.180  1.00 20.00     0.104 C 
HETATM    6  C6  UNL     1     -33.026   7.167   3.743  1.00 20.00     0.234 C 
HETATM    7  C7  UNL     1     -33.415   6.854   5.185  1.00 20.00     0.080 C 
HETATM    8  N8  UNL     1     -32.478   6.008   3.049  1.00 20.00     0.089 N 
HETATM    9  S9  UNL     1     -34.814   5.713   5.229  1.00 20.00    -0.160 SA
HETATM   10  H22 UNL     1     -31.704   5.619   3.588  1.00 20.00     0.316 HD
ENDROOT
TORSDOF 0
ENDMDL
MODEL 8
REMARK VINA RESULT:      -3.7      1.701      2.557
REMARK  0 active torsions:
REMARK  status: ('A' for Active; 'I' for Inactive)
ROOT
HETATM    1  C1  UNL     1     -33.640   4.375   3.162  1.00 20.00     0.003 C 
HETATM    2  C2  UNL     1     -32.955   5.630   2.605  1.00 20.00     0.037 C 
HETATM    3  C3  UNL     1     -34.224   4.769   4.528  1.00 20.00     0.017 C 
HETATM    4  C4  UNL     1     -32.381   8.721   4.734  1.00 20.00     0.280 C 
HETATM    5  C5  UNL     1     -33.590   8.708   5.675  1.00 20.00     0.104 C 
HETATM    6  C6  UNL     1     -32.785   6.528   3.827  1.00 20.00     0.234 C 
HETATM    7  C7  UNL     1     -34.100   6.288   4.561  1.00 20.00     0.080 C 
HETATM    8  N8  UNL     1     -32.571   7.934   3.509  1.00 20.00     0.089 N 
HETATM    9  S9  UNL     1     -34.049   7.026   6.209  1.00 20.00    -0.160 SA
HETATM   10  H22 UNL     1     -33.375   8.297   2.998  1.00 20.00     0.316 HD
ENDROOT
TORSDOF 0
ENDMDL
MODEL 9
REMARK VINA RESULT:      -3.6     12.536     13.682
REMARK  0 active torsions:
REMARK  status: ('A' for Active; 'I' for Inactive)
ROOT
HETATM    1  C1  UNL     1     -33.240  18.146  -2.204  1.00 20.00     0.003 C 
HETATM    2  C2  UNL     1     -33.435  18.668  -3.634  1.00 20.00     0.037 C 
HETATM    3  C3  UNL     1     -33.349  16.614  -2.283  1.00 20.00     0.017 C 
HETATM    4  C4  UNL     1     -34.636  16.421  -6.450  1.00 20.00     0.280 C 
HETATM    5  C5  UNL     1     -34.039  15.061  -6.071  1.00 20.00     0.104 C 
HETATM    6  C6  UNL     1     -34.078  17.494  -4.369  1.00 20.00     0.234 C 
HETATM    7  C7  UNL     1     -33.313  16.315  -3.778  1.00 20.00     0.080 C 
HETATM    8  N8  UNL     1     -33.963  17.564  -5.820  1.00 20.00     0.089 N 
HETATM    9  S9  UNL     1     -34.074  14.754  -4.274  1.00 20.00    -0.160 SA
HETATM   10  H22 UNL     1     -32.978  17.563  -6.087  1.00 20.00     0.316 HD
ENDROOT
TORSDOF 0
ENDMDL
