MODEL 1
REMARK VINA RESULT:      -4.1      0.000      0.000
REMARK  1 active torsions:
REMARK  status: ('A' for Active; 'I' for Inactive)
REMARK       I    between atoms: C1_1  and  N9_9 
REMARK    1  A    between atoms: C6_6  and  N9_9 
ROOT
HETATM    1  C2  UNL     1     -21.698  18.276   8.313  1.00 20.00     0.002 C 
HETATM    2  C3  UNL     1     -22.125  16.882   8.768  1.00 20.00     0.002 C 
HETATM    3  C4  UNL     1     -22.557  19.263   9.100  1.00 20.00     0.031 C 
HETATM    4  C5  UNL     1     -23.221  17.092   9.810  1.00 20.00     0.031 C 
HETATM    5  C6  UNL     1     -22.984  18.503  10.361  1.00 20.00     0.029 C 
HETATM    6  C8  UNL     1     -21.887  18.518  11.432  1.00 20.00     0.038 C 
ENDROOT
BRANCH   5   7
HETATM    7  N9  UNL     1     -24.199  19.055  10.916  1.00 20.00    -0.353 N 
HETATM    8  C1  UNL     1     -24.967  18.389  11.847  1.00 20.00     0.214 C 
HETATM    9  C7  UNL     1     -26.177  19.148  12.282  1.00 20.00     0.117 C 
HETATM   10  O10 UNL     1     -24.745  17.282  12.321  1.00 20.00    -0.274 OA
HETATM   11  H25 UNL     1     -24.499  19.971  10.607  1.00 20.00     0.163 HD
ENDBRANCH   5   7
TORSDOF 1
ENDMDL
MODEL 2
REMARK VINA RESULT:      -4.0     15.446     15.983
REMARK  1 active torsions:
REMARK  status: ('A' for Active; 'I' for Inactive)
REMARK       I    between atoms: C1_1  and  N9_9 
REMARK    1  A    between atoms: C6_6  and  N9_9 
ROOT
HETATM    1  C2  UNL     1     -31.902  19.263   0.113  1.00 20.00     0.002 C 
HETATM    2  C3  UNL     1     -33.053  18.889   1.046  1.00 20.00     0.002 C 
HETATM    3  C4  UNL     1     -32.037  18.363  -1.113  1.00 20.00     0.031 C 
HETATM    4  C5  UNL     1     -33.830  17.782   0.338  1.00 20.00     0.031 C 
HETATM    5  C6  UNL     1     -33.516  17.961  -1.151  1.00 20.00     0.029 C 
HETATM    6  C8  UNL     1     -34.384  19.052  -1.788  1.00 20.00     0.038 C 
ENDROOT
BRANCH   5   7
HETATM    7  N9  UNL     1     -33.700  16.723  -1.874  1.00 20.00    -0.353 N 
HETATM    8  C1  UNL     1     -33.460  16.602  -3.226  1.00 20.00     0.214 C 
HETATM    9  C7  UNL     1     -33.715  15.232  -3.763  1.00 20.00     0.117 C 
HETATM   10  O10 UNL     1     -33.071  17.484  -3.981  1.00 20.00    -0.274 OA
HETATM   11  H25 UNL     1     -34.020  15.908  -1.365  1.00 20.00     0.163 HD
ENDBRANCH   5   7
TORSDOF 1
ENDMDL
MODEL 3
REMARK VINA RESULT:      -4.0     14.679     15.121
REMARK  1 active torsions:
REMARK  status: ('A' for Active; 'I' for Inactive)
REMARK       I    between atoms: C1_1  and  N9_9 
REMARK    1  A    between atoms: C6_6  and  N9_9 
ROOT
HETATM    1  C2  UNL     1     -33.541  17.231  -3.205  1.00 20.00     0.002 C 
HETATM    2  C3  UNL     1     -33.016  18.633  -3.512  1.00 20.00     0.002 C 
HETATM    3  C4  UNL     1     -33.428  17.056  -1.693  1.00 20.00     0.031 C 
HETATM    4  C5  UNL     1     -32.612  19.239  -2.170  1.00 20.00     0.031 C 
HETATM    5  C6  UNL     1     -33.436  18.480  -1.124  1.00 20.00     0.029 C 
HETATM    6  C8  UNL     1     -34.859  19.037  -1.008  1.00 20.00     0.038 C 
ENDROOT
BRANCH   5   7
HETATM    7  N9  UNL     1     -32.799  18.526   0.173  1.00 20.00    -0.353 N 
HETATM    8  C1  UNL     1     -31.430  18.525   0.335  1.00 20.00     0.214 C 
HETATM    9  C7  UNL     1     -30.993  18.579   1.761  1.00 20.00     0.117 C 
HETATM   10  O10 UNL     1     -30.588  18.487  -0.554  1.00 20.00    -0.274 OA
HETATM   11  H25 UNL     1     -33.384  18.560   0.998  1.00 20.00     0.163 HD
ENDBRANCH   5   7
TORSDOF 1
ENDMDL
MODEL 4
REMARK VINA RESULT:      -3.9     17.965     18.981
REMARK  1 active torsions:
REMARK  status: ('A' for Active; 'I' for Inactive)
REMARK       I    between atoms: C1_1  and  N9_9 
REMARK    1  A    between atoms: C6_6  and  N9_9 
ROOT
HETATM    1  C2  UNL     1     -42.453  15.718   7.001  1.00 20.00     0.002 C 
HETATM    2  C3  UNL     1     -41.366  15.326   8.001  1.00 20.00     0.002 C 
HETATM    3  C4  UNL     1     -42.210  14.870   5.754  1.00 20.00     0.031 C 
HETATM    4  C5  UNL     1     -40.520  14.258   7.312  1.00 20.00     0.031 C 
HETATM    5  C6  UNL     1     -41.439  13.642   6.251  1.00 20.00     0.029 C 
HETATM    6  C8  UNL     1     -42.376  12.588   6.853  1.00 20.00     0.038 C 
ENDROOT
BRANCH   5   7
HETATM    7  N9  UNL     1     -40.671  13.043   5.183  1.00 20.00    -0.353 N 
HETATM    8  C1  UNL     1     -39.680  12.111   5.405  1.00 20.00     0.214 C 
HETATM    9  C7  UNL     1     -39.020  11.625   4.157  1.00 20.00     0.117 C 
HETATM   10  O10 UNL     1     -39.320  11.671   6.490  1.00 20.00    -0.274 OA
HETATM   11  H25 UNL     1     -40.870  13.320   4.230  1.00 20.00     0.163 HD
ENDBRANCH   5   7
TORSDOF 1
ENDMDL
MODEL 5
REMARK VINA RESULT:      -3.8     17.090     17.654
REMARK  1 active torsions:
REMARK  status: ('A' for Active; 'I' for Inactive)
REMARK       I    between atoms: C1_1  and  N9_9 
REMARK    1  A    between atoms: C6_6  and  N9_9 
ROOT
HETATM    1  C2  UNL     1     -33.513  17.960  -0.694  1.00 20.00     0.002 C 
HETATM    2  C3  UNL     1     -34.586  18.996  -1.028  1.00 20.00     0.002 C 
HETATM    3  C4  UNL     1     -33.527  16.948  -1.837  1.00 20.00     0.031 C 
HETATM    4  C5  UNL     1     -35.196  18.560  -2.358  1.00 20.00     0.031 C 
HETATM    5  C6  UNL     1     -34.119  17.703  -3.032  1.00 20.00     0.029 C 
HETATM    6  C8  UNL     1     -33.065  18.566  -3.736  1.00 20.00     0.038 C 
ENDROOT
BRANCH   5   7
HETATM    7  N9  UNL     1     -34.703  16.790  -3.988  1.00 20.00    -0.353 N 
HETATM    8  C1  UNL     1     -34.043  15.674  -4.456  1.00 20.00     0.214 C 
HETATM    9  C7  UNL     1     -34.836  14.872  -5.435  1.00 20.00     0.117 C 
HETATM   10  O10 UNL     1     -32.917  15.306  -4.146  1.00 20.00    -0.274 OA
HETATM   11  H25 UNL     1     -35.637  16.978  -4.329  1.00 20.00     0.163 HD
ENDBRANCH   5   7
TORSDOF 1
ENDMDL
MODEL 6
REMARK VINA RESULT:      -3.7     17.787     18.363
REMARK  1 active torsions:
REMARK  status: ('A' for Active; 'I' for Inactive)
REMARK       I    between atoms: C1_1  and  N9_9 
REMARK    1  A    between atoms: C6_6  and  N9_9 
ROOT
HETATM    1  C2  UNL     1     -32.814  18.740  -2.153  1.00 20.00     0.002 C 
HETATM    2  C3  UNL     1     -33.196  17.353  -1.638  1.00 20.00     0.002 C 
HETATM    3  C4  UNL     1     -32.956  18.684  -3.672  1.00 20.00     0.031 C 
HETATM    4  C5  UNL     1     -33.552  16.525  -2.871  1.00 20.00     0.031 C 
HETATM    5  C6  UNL     1     -33.952  17.549  -3.939  1.00 20.00     0.029 C 
HETATM    6  C8  UNL     1     -35.402  18.015  -3.766  1.00 20.00     0.038 C 
ENDROOT
BRANCH   5   7
HETATM    7  N9  UNL     1     -33.781  17.008  -5.268  1.00 20.00    -0.353 N 
HETATM    8  C1  UNL     1     -34.416  15.862  -5.697  1.00 20.00     0.214 C 
HETATM    9  C7  UNL     1     -34.095  15.488  -7.107  1.00 20.00     0.117 C 
HETATM   10  O10 UNL     1     -35.184  15.165  -5.047  1.00 20.00    -0.274 OA
HETATM   11  H25 UNL     1     -33.168  17.492  -5.912  1.00 20.00     0.163 HD
ENDBRANCH   5   7
TORSDOF 1
ENDMDL
MODEL 7
REMARK VINA RESULT:      -3.6     19.367     19.880
REMARK  1 active torsions:
REMARK  status: ('A' for Active; 'I' for Inactive)
REMARK       I    between atoms: C1_1  and  N9_9 
REMARK    1  A    between atoms: C6_6  and  N9_9 
ROOT
HETATM    1  C2  UNL     1     -35.264  15.896  -7.918  1.00 20.00     0.002 C 
HETATM    2  C3  UNL     1     -36.668  16.321  -7.492  1.00 20.00     0.002 C 
HETATM    3  C4  UNL     1     -34.404  15.943  -6.657  1.00 20.00     0.031 C 
HETATM    4  C5  UNL     1     -36.590  16.604  -5.993  1.00 20.00     0.031 C 
HETATM    5  C6  UNL     1     -35.391  15.791  -5.494  1.00 20.00     0.029 C 
HETATM    6  C8  UNL     1     -35.761  14.323  -5.253  1.00 20.00     0.038 C 
ENDROOT
BRANCH   5   7
HETATM    7  N9  UNL     1     -34.851  16.352  -4.277  1.00 20.00    -0.353 N 
HETATM    8  C1  UNL     1     -33.658  15.937  -3.725  1.00 20.00     0.214 C 
HETATM    9  C7  UNL     1     -33.294  16.656  -2.468  1.00 20.00     0.117 C 
HETATM   10  O10 UNL     1     -32.911  15.072  -4.165  1.00 20.00    -0.274 OA
HETATM   11  H25 UNL     1     -35.373  17.082  -3.808  1.00 20.00     0.163 HD
ENDBRANCH   5   7
TORSDOF 1
ENDMDL
MODEL 8
REMARK VINA RESULT:      -3.6     17.520     18.208
REMARK  1 active torsions:
REMARK  status: ('A' for Active; 'I' for Inactive)
REMARK       I    between atoms: C1_1  and  N9_9 
REMARK    1  A    between atoms: C6_6  and  N9_9 
ROOT
HETATM    1  C2  UNL     1     -40.984  16.660   8.541  1.00 20.00     0.002 C 
HETATM    2  C3  UNL     1     -40.758  15.872   9.831  1.00 20.00     0.002 C 
HETATM    3  C4  UNL     1     -40.568  15.735   7.399  1.00 20.00     0.031 C 
HETATM    4  C5  UNL     1     -40.218  14.508   9.406  1.00 20.00     0.031 C 
HETATM    5  C6  UNL     1     -40.702  14.317   7.964  1.00 20.00     0.029 C 
HETATM    6  C8  UNL     1     -42.151  13.819   7.913  1.00 20.00     0.038 C 
ENDROOT
BRANCH   5   7
HETATM    7  N9  UNL     1     -39.854  13.390   7.250  1.00 20.00    -0.353 N 
HETATM    8  C1  UNL     1     -40.063  13.048   5.931  1.00 20.00     0.214 C 
HETATM    9  C7  UNL     1     -39.064  12.075   5.396  1.00 20.00     0.117 C 
HETATM   10  O10 UNL     1     -40.955  13.461   5.201  1.00 20.00    -0.274 OA
HETATM   11  H25 UNL     1     -39.073  12.972   7.740  1.00 20.00     0.163 HD
ENDBRANCH   5   7
TORSDOF 1
ENDMDL
MODEL 9
REMARK VINA RESULT:      -3.5     16.565     16.982
REMARK  1 active torsions:
REMARK  status: ('A' for Active; 'I' for Inactive)
REMARK       I    between atoms: C1_1  and  N9_9 
REMARK    1  A    between atoms: C6_6  and  N9_9 
ROOT
HETATM    1  C2  UNL     1     -32.561  18.308   0.046  1.00 20.00     0.002 C 
HETATM    2  C3  UNL     1     -31.872  18.987  -1.136  1.00 20.00     0.002 C 
HETATM    3  C4  UNL     1     -33.976  17.974  -0.419  1.00 20.00     0.031 C 
HETATM    4  C5  UNL     1     -32.904  19.030  -2.261  1.00 20.00     0.031 C 
HETATM    5  C6  UNL     1     -33.886  17.896  -1.948  1.00 20.00     0.029 C 
HETATM    6  C8  UNL     1     -33.352  16.537  -2.416  1.00 20.00     0.038 C 
ENDROOT
BRANCH   5   7
HETATM    7  N9  UNL     1     -35.173  18.138  -2.559  1.00 20.00    -0.353 N 
HETATM    8  C1  UNL     1     -35.353  18.205  -3.924  1.00 20.00     0.214 C 
HETATM    9  C7  UNL     1     -36.766  18.463  -4.332  1.00 20.00     0.117 C 
HETATM   10  O10 UNL     1     -34.490  18.075  -4.782  1.00 20.00    -0.274 OA
HETATM   11  H25 UNL     1     -35.978  18.265  -1.958  1.00 20.00     0.163 HD
ENDBRANCH   5   7
TORSDOF 1
ENDMDL
