MODEL 1
REMARK VINA RESULT:      -3.9      0.000      0.000
REMARK  3 active torsions:
REMARK  status: ('A' for Active; 'I' for Inactive)
REMARK    1  A    between atoms: C1_1  and  C7_7 
REMARK       I    between atoms: C1_1  and  N9_9 
REMARK    2  A    between atoms: C4_4  and  C8_8 
REMARK    3  A    between atoms: C8_8  and  N9_9 
ROOT
HETATM    1  C1  UNL     1     -34.184  15.038  -4.654  1.00 20.00     0.219 C 
HETATM    2  C6  UNL     1     -34.439  17.526  -4.528  1.00 20.00     0.152 C 
HETATM    3  N9  UNL     1     -33.968  16.254  -3.994  1.00 20.00    -0.356 N 
HETATM    4  O10 UNL     1     -34.304  13.960  -4.068  1.00 20.00    -0.273 OA
ENDROOT
BRANCH   3   5
HETATM    5  C8  UNL     1     -33.255  16.338  -2.722  1.00 20.00     0.130 C 
BRANCH   5   6
HETATM    6  C4  UNL     1     -33.437  17.676  -2.091  1.00 20.00     0.004 A 
HETATM    7  C2  UNL     1     -33.728  17.788  -0.620  1.00 20.00     0.007 A 
HETATM    8  C3  UNL     1     -32.392  18.221  -1.157  1.00 20.00     0.007 A 
ENDBRANCH   5   6
ENDBRANCH   3   5
BRANCH   1   9
HETATM    9  C7  UNL     1     -34.263  15.104  -6.173  1.00 20.00     0.098 C 
HETATM   10  C5  UNL     1     -35.670  14.865  -6.697  1.00 20.00     0.014 C 
ENDBRANCH   1   9
TORSDOF 3
ENDMDL
MODEL 2
REMARK VINA RESULT:      -3.9      3.101      5.827
REMARK  3 active torsions:
REMARK  status: ('A' for Active; 'I' for Inactive)
REMARK    1  A    between atoms: C1_1  and  C7_7 
REMARK       I    between atoms: C1_1  and  N9_9 
REMARK    2  A    between atoms: C4_4  and  C8_8 
REMARK    3  A    between atoms: C8_8  and  N9_9 
ROOT
HETATM    1  C1  UNL     1     -31.716  18.659  -0.151  1.00 20.00     0.219 C 
HETATM    2  C6  UNL     1     -34.097  19.262  -0.632  1.00 20.00     0.152 C 
HETATM    3  N9  UNL     1     -32.804  18.720  -1.029  1.00 20.00    -0.356 N 
HETATM    4  O10 UNL     1     -30.541  18.729  -0.520  1.00 20.00    -0.273 OA
ENDROOT
BRANCH   3   5
HETATM    5  C8  UNL     1     -32.724  18.245  -2.408  1.00 20.00     0.130 C 
BRANCH   5   6
HETATM    6  C4  UNL     1     -33.663  17.110  -2.641  1.00 20.00     0.004 A 
HETATM    7  C2  UNL     1     -34.275  16.898  -3.998  1.00 20.00     0.007 A 
HETATM    8  C3  UNL     1     -33.240  15.937  -3.482  1.00 20.00     0.007 A 
ENDBRANCH   5   6
ENDBRANCH   3   5
BRANCH   1   9
HETATM    9  C7  UNL     1     -32.052  18.495   1.324  1.00 20.00     0.098 C 
HETATM   10  C5  UNL     1     -30.814  18.368   2.197  1.00 20.00     0.014 C 
ENDBRANCH   1   9
TORSDOF 3
ENDMDL
MODEL 3
REMARK VINA RESULT:      -3.9     11.100     11.982
REMARK  3 active torsions:
REMARK  status: ('A' for Active; 'I' for Inactive)
REMARK    1  A    between atoms: C1_1  and  C7_7 
REMARK       I    between atoms: C1_1  and  N9_9 
REMARK    2  A    between atoms: C4_4  and  C8_8 
REMARK    3  A    between atoms: C8_8  and  N9_9 
ROOT
HETATM    1  C1  UNL     1     -33.585   6.115   3.880  1.00 20.00     0.219 C 
HETATM    2  C6  UNL     1     -32.819   8.180   5.070  1.00 20.00     0.152 C 
HETATM    3  N9  UNL     1     -32.837   7.297   3.910  1.00 20.00    -0.356 N 
HETATM    4  O10 UNL     1     -33.257   5.120   3.228  1.00 20.00    -0.273 OA
ENDROOT
BRANCH   3   5
HETATM    5  C8  UNL     1     -32.018   7.733   2.782  1.00 20.00     0.130 C 
BRANCH   5   6
HETATM    6  C4  UNL     1     -32.865   8.256   1.673  1.00 20.00     0.004 A 
HETATM    7  C2  UNL     1     -32.845   9.720   1.327  1.00 20.00     0.007 A 
HETATM    8  C3  UNL     1     -32.232   8.718   0.389  1.00 20.00     0.007 A 
ENDBRANCH   5   6
ENDBRANCH   3   5
BRANCH   1   9
HETATM    9  C7  UNL     1     -34.862   6.107   4.708  1.00 20.00     0.098 C 
HETATM   10  C5  UNL     1     -34.719   5.321   6.000  1.00 20.00     0.014 C 
ENDBRANCH   1   9
TORSDOF 3
ENDMDL
MODEL 4
REMARK VINA RESULT:      -3.7     11.705     13.543
REMARK  3 active torsions:
REMARK  status: ('A' for Active; 'I' for Inactive)
REMARK    1  A    between atoms: C1_1  and  C7_7 
REMARK       I    between atoms: C1_1  and  N9_9 
REMARK    2  A    between atoms: C4_4  and  C8_8 
REMARK    3  A    between atoms: C8_8  and  N9_9 
ROOT
HETATM    1  C1  UNL     1     -40.788  14.500   7.718  1.00 20.00     0.219 C 
HETATM    2  C6  UNL     1     -42.549  12.788   7.232  1.00 20.00     0.152 C 
HETATM    3  N9  UNL     1     -41.367  13.556   6.862  1.00 20.00    -0.356 N 
HETATM    4  O10 UNL     1     -40.185  15.499   7.319  1.00 20.00    -0.273 OA
ENDROOT
BRANCH   3   5
HETATM    5  C8  UNL     1     -40.830  13.271   5.534  1.00 20.00     0.130 C 
BRANCH   5   6
HETATM    6  C4  UNL     1     -40.013  12.024   5.540  1.00 20.00     0.004 A 
HETATM    7  C2  UNL     1     -39.241  11.616   4.315  1.00 20.00     0.007 A 
HETATM    8  C3  UNL     1     -38.511  12.102   5.536  1.00 20.00     0.007 A 
ENDBRANCH   5   6
ENDBRANCH   3   5
BRANCH   1   9
HETATM    9  C7  UNL     1     -40.935  14.232   9.210  1.00 20.00     0.098 C 
HETATM   10  C5  UNL     1     -40.193  15.247  10.063  1.00 20.00     0.014 C 
ENDBRANCH   1   9
TORSDOF 3
ENDMDL
MODEL 5
REMARK VINA RESULT:      -3.7     11.615     12.297
REMARK  3 active torsions:
REMARK  status: ('A' for Active; 'I' for Inactive)
REMARK    1  A    between atoms: C1_1  and  C7_7 
REMARK       I    between atoms: C1_1  and  N9_9 
REMARK    2  A    between atoms: C4_4  and  C8_8 
REMARK    3  A    between atoms: C8_8  and  N9_9 
ROOT
HETATM    1  C1  UNL     1     -32.539   7.812   2.996  1.00 20.00     0.219 C 
HETATM    2  C6  UNL     1     -32.797   5.352   2.608  1.00 20.00     0.152 C 
HETATM    3  N9  UNL     1     -33.180   6.597   3.262  1.00 20.00    -0.356 N 
HETATM    4  O10 UNL     1     -32.428   8.718   3.826  1.00 20.00    -0.273 OA
ENDROOT
BRANCH   3   5
HETATM    5  C8  UNL     1     -34.282   6.486   4.215  1.00 20.00     0.130 C 
BRANCH   5   6
HETATM    6  C4  UNL     1     -33.781   6.149   5.578  1.00 20.00     0.004 A 
HETATM    7  C2  UNL     1     -34.337   6.852   6.786  1.00 20.00     0.007 A 
HETATM    8  C3  UNL     1     -34.661   5.403   6.545  1.00 20.00     0.007 A 
ENDBRANCH   5   6
ENDBRANCH   3   5
BRANCH   1   9
HETATM    9  C7  UNL     1     -31.966   7.977   1.595  1.00 20.00     0.098 C 
HETATM   10  C5  UNL     1     -32.604   9.125   0.832  1.00 20.00     0.014 C 
ENDBRANCH   1   9
TORSDOF 3
ENDMDL
MODEL 6
REMARK VINA RESULT:      -3.5     12.289     13.887
REMARK  3 active torsions:
REMARK  status: ('A' for Active; 'I' for Inactive)
REMARK    1  A    between atoms: C1_1  and  C7_7 
REMARK       I    between atoms: C1_1  and  N9_9 
REMARK    2  A    between atoms: C4_4  and  C8_8 
REMARK    3  A    between atoms: C8_8  and  N9_9 
ROOT
HETATM    1  C1  UNL     1     -42.552  12.887   7.450  1.00 20.00     0.219 C 
HETATM    2  C6  UNL     1     -40.449  14.186   7.850  1.00 20.00     0.152 C 
HETATM    3  N9  UNL     1     -41.326  13.390   7.001  1.00 20.00    -0.356 N 
HETATM    4  O10 UNL     1     -43.052  11.840   7.031  1.00 20.00    -0.273 OA
ENDROOT
BRANCH   3   5
HETATM    5  C8  UNL     1     -40.833  13.154   5.645  1.00 20.00     0.130 C 
BRANCH   5   6
HETATM    6  C4  UNL     1     -39.961  11.946   5.593  1.00 20.00     0.004 A 
HETATM    7  C2  UNL     1     -39.250  11.579   4.320  1.00 20.00     0.007 A 
HETATM    8  C3  UNL     1     -38.467  12.095   5.496  1.00 20.00     0.007 A 
ENDBRANCH   5   6
ENDBRANCH   3   5
BRANCH   1   9
HETATM    9  C7  UNL     1     -43.268  13.712   8.511  1.00 20.00     0.098 C 
HETATM   10  C5  UNL     1     -43.417  12.970   9.829  1.00 20.00     0.014 C 
ENDBRANCH   1   9
TORSDOF 3
ENDMDL
MODEL 7
REMARK VINA RESULT:      -3.5      1.602      1.921
REMARK  3 active torsions:
REMARK  status: ('A' for Active; 'I' for Inactive)
REMARK    1  A    between atoms: C1_1  and  C7_7 
REMARK       I    between atoms: C1_1  and  N9_9 
REMARK    2  A    between atoms: C4_4  and  C8_8 
REMARK    3  A    between atoms: C8_8  and  N9_9 
ROOT
HETATM    1  C1  UNL     1     -34.518  16.525  -5.571  1.00 20.00     0.219 C 
HETATM    2  C6  UNL     1     -32.976  15.371  -3.972  1.00 20.00     0.152 C 
HETATM    3  N9  UNL     1     -33.886  16.454  -4.325  1.00 20.00    -0.356 N 
HETATM    4  O10 UNL     1     -34.833  17.587  -6.114  1.00 20.00    -0.273 OA
ENDROOT
BRANCH   3   5
HETATM    5  C8  UNL     1     -34.089  17.460  -3.286  1.00 20.00     0.130 C 
BRANCH   5   6
HETATM    6  C4  UNL     1     -33.393  17.078  -2.024  1.00 20.00     0.004 A 
HETATM    7  C2  UNL     1     -32.468  18.050  -1.344  1.00 20.00     0.007 A 
HETATM    8  C3  UNL     1     -33.792  17.709  -0.718  1.00 20.00     0.007 A 
ENDBRANCH   5   6
ENDBRANCH   3   5
BRANCH   1   9
HETATM    9  C7  UNL     1     -34.814  15.195  -6.251  1.00 20.00     0.098 C 
HETATM   10  C5  UNL     1     -36.030  14.496  -5.667  1.00 20.00     0.014 C 
ENDBRANCH   1   9
TORSDOF 3
ENDMDL
MODEL 8
REMARK VINA RESULT:      -3.5      1.832      2.721
REMARK  3 active torsions:
REMARK  status: ('A' for Active; 'I' for Inactive)
REMARK    1  A    between atoms: C1_1  and  C7_7 
REMARK       I    between atoms: C1_1  and  N9_9 
REMARK    2  A    between atoms: C4_4  and  C8_8 
REMARK    3  A    between atoms: C8_8  and  N9_9 
ROOT
HETATM    1  C1  UNL     1     -34.620  15.105  -6.668  1.00 20.00     0.219 C 
HETATM    2  C6  UNL     1     -36.158  14.181  -4.921  1.00 20.00     0.152 C 
HETATM    3  N9  UNL     1     -34.851  14.651  -5.365  1.00 20.00    -0.356 N 
HETATM    4  O10 UNL     1     -33.532  15.004  -7.241  1.00 20.00    -0.273 OA
ENDROOT
BRANCH   3   5
HETATM    5  C8  UNL     1     -33.799  14.613  -4.352  1.00 20.00     0.130 C 
BRANCH   5   6
HETATM    6  C4  UNL     1     -33.302  15.983  -4.041  1.00 20.00     0.004 A 
HETATM    7  C2  UNL     1     -34.265  17.068  -3.645  1.00 20.00     0.007 A 
HETATM    8  C3  UNL     1     -33.321  16.493  -2.626  1.00 20.00     0.007 A 
ENDBRANCH   5   6
ENDBRANCH   3   5
BRANCH   1   9
HETATM    9  C7  UNL     1     -35.805  15.752  -7.373  1.00 20.00     0.098 C 
HETATM   10  C5  UNL     1     -35.992  17.210  -6.986  1.00 20.00     0.014 C 
ENDBRANCH   1   9
TORSDOF 3
ENDMDL
MODEL 9
REMARK VINA RESULT:      -3.5     11.454     12.784
REMARK  3 active torsions:
REMARK  status: ('A' for Active; 'I' for Inactive)
REMARK    1  A    between atoms: C1_1  and  C7_7 
REMARK       I    between atoms: C1_1  and  N9_9 
REMARK    2  A    between atoms: C4_4  and  C8_8 
REMARK    3  A    between atoms: C8_8  and  N9_9 
ROOT
HETATM    1  C1  UNL     1     -40.160  12.623   6.388  1.00 20.00     0.219 C 
HETATM    2  C6  UNL     1     -42.560  13.333   6.344  1.00 20.00     0.152 C 
HETATM    3  N9  UNL     1     -41.237  13.313   6.955  1.00 20.00    -0.356 N 
HETATM    4  O10 UNL     1     -39.243  12.132   7.052  1.00 20.00    -0.273 OA
ENDROOT
BRANCH   3   5
HETATM    5  C8  UNL     1     -41.116  14.064   8.202  1.00 20.00     0.130 C 
BRANCH   5   6
HETATM    6  C4  UNL     1     -40.357  15.331   7.996  1.00 20.00     0.004 A 
HETATM    7  C2  UNL     1     -41.008  16.504   7.317  1.00 20.00     0.007 A 
HETATM    8  C3  UNL     1     -40.705  16.560   8.788  1.00 20.00     0.007 A 
ENDBRANCH   5   6
ENDBRANCH   3   5
BRANCH   1   9
HETATM    9  C7  UNL     1     -40.164  12.502   4.871  1.00 20.00     0.098 C 
HETATM   10  C5  UNL     1     -38.985  11.702   4.343  1.00 20.00     0.014 C 
ENDBRANCH   1   9
TORSDOF 3
ENDMDL
