MODEL 1
REMARK VINA RESULT:      -3.8      0.000      0.000
REMARK  4 active torsions:
REMARK  status: ('A' for Active; 'I' for Inactive)
REMARK    1  A    between atoms: C1_1  and  C6_6 
REMARK       I    between atoms: C1_1  and  N10_10 
REMARK    2  A    between atoms: C7_7  and  C8_8 
REMARK    3  A    between atoms: C7_7  and  C9_9 
REMARK    4  A    between atoms: C8_8  and  N10_10 
ROOT
HETATM    1  C1  UNL     1     -34.030  16.982  -3.921  1.00 20.00     0.218 C 
HETATM    2  C5  UNL     1     -34.837  19.039  -2.708  1.00 20.00     0.152 C 
HETATM    3  N10 UNL     1     -34.102  17.767  -2.748  1.00 20.00    -0.356 N 
HETATM    4  O11 UNL     1     -34.563  17.282  -4.992  1.00 20.00    -0.273 OA
ENDROOT
BRANCH   3   5
HETATM    5  C8  UNL     1     -33.461  17.371  -1.526  1.00 20.00     0.125 C 
BRANCH   5   6
HETATM    6  C7  UNL     1     -32.182  18.160  -1.254  1.00 20.00     0.024 C 
BRANCH   6   7
HETATM    7  C9  UNL     1     -32.160  18.924   0.085  1.00 20.00    -0.021 C 
HETATM    8  C3  UNL     1     -30.949  18.480   0.911  1.00 20.00     0.009 C 
HETATM    9  C4  UNL     1     -33.440  18.721   0.896  1.00 20.00     0.009 C 
ENDBRANCH   6   7
ENDBRANCH   5   6
ENDBRANCH   3   5
BRANCH   1  10
HETATM   10  C6  UNL     1     -33.229  15.694  -3.793  1.00 20.00     0.098 C 
HETATM   11  C2  UNL     1     -34.017  14.468  -4.229  1.00 20.00     0.014 C 
ENDBRANCH   1  10
TORSDOF 4
ENDMDL
MODEL 2
REMARK VINA RESULT:      -3.8      2.515      5.135
REMARK  4 active torsions:
REMARK  status: ('A' for Active; 'I' for Inactive)
REMARK    1  A    between atoms: C1_1  and  C6_6 
REMARK       I    between atoms: C1_1  and  N10_10 
REMARK    2  A    between atoms: C7_7  and  C8_8 
REMARK    3  A    between atoms: C7_7  and  C9_9 
REMARK    4  A    between atoms: C8_8  and  N10_10 
ROOT
HETATM    1  C1  UNL     1     -32.628  18.840   0.792  1.00 20.00     0.218 C 
HETATM    2  C5  UNL     1     -34.819  19.058  -0.436  1.00 20.00     0.152 C 
HETATM    3  N10 UNL     1     -33.393  18.704  -0.388  1.00 20.00    -0.356 N 
HETATM    4  O11 UNL     1     -33.073  19.257   1.864  1.00 20.00    -0.273 OA
ENDROOT
BRANCH   3   5
HETATM    5  C8  UNL     1     -32.825  18.212  -1.612  1.00 20.00     0.125 C 
BRANCH   5   6
HETATM    6  C7  UNL     1     -33.397  16.856  -2.018  1.00 20.00     0.024 C 
BRANCH   6   7
HETATM    7  C9  UNL     1     -33.257  16.511  -3.514  1.00 20.00    -0.021 C 
HETATM    8  C3  UNL     1     -34.019  17.540  -4.354  1.00 20.00     0.009 C 
HETATM    9  C4  UNL     1     -33.761  15.105  -3.839  1.00 20.00     0.009 C 
ENDBRANCH   6   7
ENDBRANCH   5   6
ENDBRANCH   3   5
BRANCH   1  10
HETATM   10  C6  UNL     1     -31.168  18.430   0.672  1.00 20.00     0.098 C 
HETATM   11  C2  UNL     1     -30.456  18.391   2.016  1.00 20.00     0.014 C 
ENDBRANCH   1  10
TORSDOF 4
ENDMDL
MODEL 3
REMARK VINA RESULT:      -3.7      2.182      3.468
REMARK  4 active torsions:
REMARK  status: ('A' for Active; 'I' for Inactive)
REMARK    1  A    between atoms: C1_1  and  C6_6 
REMARK       I    between atoms: C1_1  and  N10_10 
REMARK    2  A    between atoms: C7_7  and  C8_8 
REMARK    3  A    between atoms: C7_7  and  C9_9 
REMARK    4  A    between atoms: C8_8  and  N10_10 
ROOT
HETATM    1  C1  UNL     1     -34.612  15.776  -6.185  1.00 20.00     0.218 C 
HETATM    2  C5  UNL     1     -33.910  14.394  -4.197  1.00 20.00     0.152 C 
HETATM    3  N10 UNL     1     -34.227  15.683  -4.828  1.00 20.00    -0.356 N 
HETATM    4  O11 UNL     1     -34.717  14.810  -6.945  1.00 20.00    -0.273 OA
ENDROOT
BRANCH   3   5
HETATM    5  C8  UNL     1     -34.121  16.840  -3.985  1.00 20.00     0.125 C 
BRANCH   5   6
HETATM    6  C7  UNL     1     -33.230  16.598  -2.770  1.00 20.00     0.024 C 
BRANCH   6   7
HETATM    7  C9  UNL     1     -33.586  17.433  -1.524  1.00 20.00    -0.021 C 
HETATM    8  C3  UNL     1     -34.627  18.494  -1.894  1.00 20.00     0.009 C 
HETATM    9  C4  UNL     1     -32.362  18.107  -0.902  1.00 20.00     0.009 C 
ENDBRANCH   6   7
ENDBRANCH   5   6
ENDBRANCH   3   5
BRANCH   1  10
HETATM   10  C6  UNL     1     -34.904  17.184  -6.683  1.00 20.00     0.098 C 
HETATM   11  C2  UNL     1     -34.094  17.549  -7.918  1.00 20.00     0.014 C 
ENDBRANCH   1  10
TORSDOF 4
ENDMDL
MODEL 4
REMARK VINA RESULT:      -3.6      2.265      3.618
REMARK  4 active torsions:
REMARK  status: ('A' for Active; 'I' for Inactive)
REMARK    1  A    between atoms: C1_1  and  C6_6 
REMARK       I    between atoms: C1_1  and  N10_10 
REMARK    2  A    between atoms: C7_7  and  C8_8 
REMARK    3  A    between atoms: C7_7  and  C9_9 
REMARK    4  A    between atoms: C8_8  and  N10_10 
ROOT
HETATM    1  C1  UNL     1     -35.572  15.380  -5.754  1.00 20.00     0.218 C 
HETATM    2  C5  UNL     1     -33.573  14.377  -4.590  1.00 20.00     0.152 C 
HETATM    3  N10 UNL     1     -34.482  15.499  -4.862  1.00 20.00    -0.356 N 
HETATM    4  O11 UNL     1     -35.856  14.349  -6.370  1.00 20.00    -0.273 OA
ENDROOT
BRANCH   3   5
HETATM    5  C8  UNL     1     -34.196  16.724  -4.169  1.00 20.00     0.125 C 
BRANCH   5   6
HETATM    6  C7  UNL     1     -33.299  16.511  -2.952  1.00 20.00     0.024 C 
BRANCH   6   7
HETATM    7  C9  UNL     1     -33.652  17.370  -1.723  1.00 20.00    -0.021 C 
HETATM    8  C3  UNL     1     -34.745  18.377  -2.095  1.00 20.00     0.009 C 
HETATM    9  C4  UNL     1     -32.439  18.111  -1.158  1.00 20.00     0.009 C 
ENDBRANCH   6   7
ENDBRANCH   5   6
ENDBRANCH   3   5
BRANCH   1  10
HETATM   10  C6  UNL     1     -36.414  16.636  -5.924  1.00 20.00     0.098 C 
HETATM   11  C2  UNL     1     -37.793  16.508  -5.293  1.00 20.00     0.014 C 
ENDBRANCH   1  10
TORSDOF 4
ENDMDL
MODEL 5
REMARK VINA RESULT:      -3.6     11.969     13.487
REMARK  4 active torsions:
REMARK  status: ('A' for Active; 'I' for Inactive)
REMARK    1  A    between atoms: C1_1  and  C6_6 
REMARK       I    between atoms: C1_1  and  N10_10 
REMARK    2  A    between atoms: C7_7  and  C8_8 
REMARK    3  A    between atoms: C7_7  and  C9_9 
REMARK    4  A    between atoms: C8_8  and  N10_10 
ROOT
HETATM    1  C1  UNL     1     -41.586  14.045   8.827  1.00 20.00     0.218 C 
HETATM    2  C5  UNL     1     -42.897  12.980   6.955  1.00 20.00     0.152 C 
HETATM    3  N10 UNL     1     -41.704  13.667   7.470  1.00 20.00    -0.356 N 
HETATM    4  O11 UNL     1     -42.450  13.839   9.683  1.00 20.00    -0.273 OA
ENDROOT
BRANCH   3   5
HETATM    5  C8  UNL     1     -40.667  13.931   6.513  1.00 20.00     0.125 C 
BRANCH   5   6
HETATM    6  C7  UNL     1     -40.779  13.049   5.272  1.00 20.00     0.024 C 
BRANCH   6   7
HETATM    7  C9  UNL     1     -39.810  11.850   5.233  1.00 20.00    -0.021 C 
HETATM    8  C3  UNL     1     -38.794  11.973   6.373  1.00 20.00     0.009 C 
HETATM    9  C4  UNL     1     -39.075  11.736   3.898  1.00 20.00     0.009 C 
ENDBRANCH   6   7
ENDBRANCH   5   6
ENDBRANCH   3   5
BRANCH   1  10
HETATM   10  C6  UNL     1     -40.288  14.748   9.195  1.00 20.00     0.098 C 
HETATM   11  C2  UNL     1     -40.302  15.302  10.612  1.00 20.00     0.014 C 
ENDBRANCH   1  10
TORSDOF 4
ENDMDL
MODEL 6
REMARK VINA RESULT:      -3.5     11.325     12.816
REMARK  4 active torsions:
REMARK  status: ('A' for Active; 'I' for Inactive)
REMARK    1  A    between atoms: C1_1  and  C6_6 
REMARK       I    between atoms: C1_1  and  N10_10 
REMARK    2  A    between atoms: C7_7  and  C8_8 
REMARK    3  A    between atoms: C7_7  and  C9_9 
REMARK    4  A    between atoms: C8_8  and  N10_10 
ROOT
HETATM    1  C1  UNL     1     -40.943  15.536   7.868  1.00 20.00     0.218 C 
HETATM    2  C5  UNL     1     -42.346  15.644   5.776  1.00 20.00     0.152 C 
HETATM    3  N10 UNL     1     -41.567  14.896   6.773  1.00 20.00    -0.356 N 
HETATM    4  O11 UNL     1     -40.993  16.750   8.084  1.00 20.00    -0.273 OA
ENDROOT
BRANCH   3   5
HETATM    5  C8  UNL     1     -41.478  13.478   6.568  1.00 20.00     0.125 C 
BRANCH   5   6
HETATM    6  C7  UNL     1     -40.872  13.120   5.213  1.00 20.00     0.024 C 
BRANCH   6   7
HETATM    7  C9  UNL     1     -39.912  11.914   5.226  1.00 20.00    -0.021 C 
HETATM    8  C3  UNL     1     -38.978  12.012   6.436  1.00 20.00     0.009 C 
HETATM    9  C4  UNL     1     -39.086  11.810   3.944  1.00 20.00     0.009 C 
ENDBRANCH   6   7
ENDBRANCH   5   6
ENDBRANCH   3   5
BRANCH   1  10
HETATM   10  C6  UNL     1     -40.175  14.617   8.807  1.00 20.00     0.098 C 
HETATM   11  C2  UNL     1     -40.885  14.409  10.136  1.00 20.00     0.014 C 
ENDBRANCH   1  10
TORSDOF 4
ENDMDL
MODEL 7
REMARK VINA RESULT:      -3.5      2.458      3.637
REMARK  4 active torsions:
REMARK  status: ('A' for Active; 'I' for Inactive)
REMARK    1  A    between atoms: C1_1  and  C6_6 
REMARK       I    between atoms: C1_1  and  N10_10 
REMARK    2  A    between atoms: C7_7  and  C8_8 
REMARK    3  A    between atoms: C7_7  and  C9_9 
REMARK    4  A    between atoms: C8_8  and  N10_10 
ROOT
HETATM    1  C1  UNL     1     -36.896  15.931  -5.546  1.00 20.00     0.218 C 
HETATM    2  C5  UNL     1     -37.105  18.355  -4.887  1.00 20.00     0.152 C 
HETATM    3  N10 UNL     1     -36.302  17.161  -5.185  1.00 20.00    -0.356 N 
HETATM    4  O11 UNL     1     -38.113  15.749  -5.642  1.00 20.00    -0.273 OA
ENDROOT
BRANCH   3   5
HETATM    5  C8  UNL     1     -34.878  17.320  -5.087  1.00 20.00     0.125 C 
BRANCH   5   6
HETATM    6  C7  UNL     1     -34.452  17.985  -3.781  1.00 20.00     0.024 C 
BRANCH   6   7
HETATM    7  C9  UNL     1     -33.327  17.261  -3.016  1.00 20.00    -0.021 C 
HETATM    8  C3  UNL     1     -33.158  15.843  -3.570  1.00 20.00     0.009 C 
HETATM    9  C4  UNL     1     -33.590  17.198  -1.511  1.00 20.00     0.009 C 
ENDBRANCH   6   7
ENDBRANCH   5   6
ENDBRANCH   3   5
BRANCH   1  10
HETATM   10  C6  UNL     1     -35.923  14.794  -5.821  1.00 20.00     0.098 C 
HETATM   11  C2  UNL     1     -35.934  13.734  -4.729  1.00 20.00     0.014 C 
ENDBRANCH   1  10
TORSDOF 4
ENDMDL
MODEL 8
REMARK VINA RESULT:      -3.5      2.976      4.754
REMARK  4 active torsions:
REMARK  status: ('A' for Active; 'I' for Inactive)
REMARK    1  A    between atoms: C1_1  and  C6_6 
REMARK       I    between atoms: C1_1  and  N10_10 
REMARK    2  A    between atoms: C7_7  and  C8_8 
REMARK    3  A    between atoms: C7_7  and  C9_9 
REMARK    4  A    between atoms: C8_8  and  N10_10 
ROOT
HETATM    1  C1  UNL     1     -34.141  14.841  -4.411  1.00 20.00     0.218 C 
HETATM    2  C5  UNL     1     -35.884  14.623  -6.219  1.00 20.00     0.152 C 
HETATM    3  N10 UNL     1     -34.815  15.365  -5.537  1.00 20.00    -0.356 N 
HETATM    4  O11 UNL     1     -34.381  13.740  -3.909  1.00 20.00    -0.273 OA
ENDROOT
BRANCH   3   5
HETATM    5  C8  UNL     1     -34.496  16.654  -6.084  1.00 20.00     0.125 C 
BRANCH   5   6
HETATM    6  C7  UNL     1     -35.711  17.575  -6.155  1.00 20.00     0.024 C 
BRANCH   6   7
HETATM    7  C9  UNL     1     -35.680  18.773  -5.185  1.00 20.00    -0.021 C 
HETATM    8  C3  UNL     1     -34.230  19.210  -4.952  1.00 20.00     0.009 C 
HETATM    9  C4  UNL     1     -36.344  18.458  -3.845  1.00 20.00     0.009 C 
ENDBRANCH   6   7
ENDBRANCH   5   6
ENDBRANCH   3   5
BRANCH   1  10
HETATM   10  C6  UNL     1     -33.061  15.737  -3.824  1.00 20.00     0.098 C 
HETATM   11  C2  UNL     1     -33.504  16.429  -2.544  1.00 20.00     0.014 C 
ENDBRANCH   1  10
TORSDOF 4
ENDMDL
MODEL 9
REMARK VINA RESULT:      -3.5      2.001      5.000
REMARK  4 active torsions:
REMARK  status: ('A' for Active; 'I' for Inactive)
REMARK    1  A    between atoms: C1_1  and  C6_6 
REMARK       I    between atoms: C1_1  and  N10_10 
REMARK    2  A    between atoms: C7_7  and  C8_8 
REMARK    3  A    between atoms: C7_7  and  C9_9 
REMARK    4  A    between atoms: C8_8  and  N10_10 
ROOT
HETATM    1  C1  UNL     1     -32.929  18.472  -2.148  1.00 20.00     0.218 C 
HETATM    2  C5  UNL     1     -32.888  19.263  -4.541  1.00 20.00     0.152 C 
HETATM    3  N10 UNL     1     -33.457  18.449  -3.459  1.00 20.00    -0.356 N 
HETATM    4  O11 UNL     1     -31.966  19.160  -1.799  1.00 20.00    -0.273 OA
ENDROOT
BRANCH   3   5
HETATM    5  C8  UNL     1     -34.581  17.628  -3.812  1.00 20.00     0.125 C 
BRANCH   5   6
HETATM    6  C7  UNL     1     -34.500  17.112  -5.247  1.00 20.00     0.024 C 
BRANCH   6   7
HETATM    7  C9  UNL     1     -34.515  15.577  -5.389  1.00 20.00    -0.021 C 
HETATM    8  C3  UNL     1     -33.618  14.951  -4.317  1.00 20.00     0.009 C 
HETATM    9  C4  UNL     1     -34.062  15.113  -6.774  1.00 20.00     0.009 C 
ENDBRANCH   6   7
ENDBRANCH   5   6
ENDBRANCH   3   5
BRANCH   1  10
HETATM   10  C6  UNL     1     -33.634  17.569  -1.146  1.00 20.00     0.098 C 
HETATM   11  C2  UNL     1     -33.700  18.177   0.247  1.00 20.00     0.014 C 
ENDBRANCH   1  10
TORSDOF 4
ENDMDL
