MODEL 1
REMARK VINA RESULT:      -4.4      0.000      0.000
REMARK  4 active torsions:
REMARK  status: ('A' for Active; 'I' for Inactive)
REMARK    1  A    between atoms: C1_1  and  C7_7 
REMARK    2  A    between atoms: C1_1  and  O10_10 
REMARK    3  A    between atoms: C4_4  and  C7_7 
REMARK    4  A    between atoms: C8_8  and  O10_10 
ROOT
HETATM    1  C1  UNL     1     -32.932   8.361   4.817  1.00 20.00     0.259 C 
HETATM    2  O9  UNL     1     -31.984   9.087   5.081  1.00 20.00    -0.265 OA
ENDROOT
BRANCH   1   3
HETATM    3  C7  UNL     1     -33.886   7.771   5.830  1.00 20.00     0.115 C 
BRANCH   3   4
HETATM    4  C4  UNL     1     -33.884   6.252   5.799  1.00 20.00    -0.005 A 
HETATM    5  C2  UNL     1     -34.839   5.477   6.664  1.00 20.00     0.005 A 
HETATM    6  C3  UNL     1     -35.030   5.507   5.173  1.00 20.00     0.005 A 
ENDBRANCH   3   4
ENDBRANCH   1   3
BRANCH   1   7
HETATM    7  O10 UNL     1     -33.303   7.948   3.568  1.00 20.00    -0.317 OA
BRANCH   7   8
HETATM    8  C8  UNL     1     -32.266   7.349   2.785  1.00 20.00     0.123 C 
HETATM    9  C5  UNL     1     -32.615   5.892   2.523  1.00 20.00     0.040 C 
HETATM   10  C6  UNL     1     -32.098   8.133   1.491  1.00 20.00     0.040 C 
ENDBRANCH   7   8
ENDBRANCH   1   7
TORSDOF 4
ENDMDL
MODEL 2
REMARK VINA RESULT:      -4.3      1.348      2.617
REMARK  4 active torsions:
REMARK  status: ('A' for Active; 'I' for Inactive)
REMARK    1  A    between atoms: C1_1  and  C7_7 
REMARK    2  A    between atoms: C1_1  and  O10_10 
REMARK    3  A    between atoms: C4_4  and  C7_7 
REMARK    4  A    between atoms: C8_8  and  O10_10 
ROOT
HETATM    1  C1  UNL     1     -33.340   5.401   3.282  1.00 20.00     0.259 C 
HETATM    2  O9  UNL     1     -32.707   4.804   2.423  1.00 20.00    -0.265 OA
ENDROOT
BRANCH   1   3
HETATM    3  C7  UNL     1     -34.130   4.750   4.393  1.00 20.00     0.115 C 
BRANCH   3   4
HETATM    4  C4  UNL     1     -34.797   5.774   5.296  1.00 20.00    -0.005 A 
HETATM    5  C2  UNL     1     -35.033   5.463   6.748  1.00 20.00     0.005 A 
HETATM    6  C3  UNL     1     -33.999   6.482   6.355  1.00 20.00     0.005 A 
ENDBRANCH   3   4
ENDBRANCH   1   3
BRANCH   1   7
HETATM    7  O10 UNL     1     -33.453   6.759   3.397  1.00 20.00    -0.317 OA
BRANCH   7   8
HETATM    8  C8  UNL     1     -32.234   7.493   3.243  1.00 20.00     0.123 C 
HETATM    9  C5  UNL     1     -32.171   8.069   1.837  1.00 20.00     0.040 C 
HETATM   10  C6  UNL     1     -32.167   8.581   4.305  1.00 20.00     0.040 C 
ENDBRANCH   7   8
ENDBRANCH   1   7
TORSDOF 4
ENDMDL
MODEL 3
REMARK VINA RESULT:      -4.2      0.642      1.297
REMARK  4 active torsions:
REMARK  status: ('A' for Active; 'I' for Inactive)
REMARK    1  A    between atoms: C1_1  and  C7_7 
REMARK    2  A    between atoms: C1_1  and  O10_10 
REMARK    3  A    between atoms: C4_4  and  C7_7 
REMARK    4  A    between atoms: C8_8  and  O10_10 
ROOT
HETATM    1  C1  UNL     1     -32.543   8.372   4.699  1.00 20.00     0.259 C 
HETATM    2  O9  UNL     1     -32.078   9.420   5.125  1.00 20.00    -0.265 OA
ENDROOT
BRANCH   1   3
HETATM    3  C7  UNL     1     -33.897   7.809   5.061  1.00 20.00     0.115 C 
BRANCH   3   4
HETATM    4  C4  UNL     1     -33.786   6.535   5.882  1.00 20.00    -0.005 A 
HETATM    5  C2  UNL     1     -34.956   6.054   6.695  1.00 20.00     0.005 A 
HETATM    6  C3  UNL     1     -34.533   5.299   5.465  1.00 20.00     0.005 A 
ENDBRANCH   3   4
ENDBRANCH   1   3
BRANCH   1   7
HETATM    7  O10 UNL     1     -31.929   7.519   3.825  1.00 20.00    -0.317 OA
BRANCH   7   8
HETATM    8  C8  UNL     1     -32.675   7.207   2.644  1.00 20.00     0.123 C 
HETATM    9  C5  UNL     1     -32.077   7.954   1.462  1.00 20.00     0.040 C 
HETATM   10  C6  UNL     1     -32.663   5.701   2.428  1.00 20.00     0.040 C 
ENDBRANCH   7   8
ENDBRANCH   1   7
TORSDOF 4
ENDMDL
MODEL 4
REMARK VINA RESULT:      -4.2      1.073      4.130
REMARK  4 active torsions:
REMARK  status: ('A' for Active; 'I' for Inactive)
REMARK    1  A    between atoms: C1_1  and  C7_7 
REMARK    2  A    between atoms: C1_1  and  O10_10 
REMARK    3  A    between atoms: C4_4  and  C7_7 
REMARK    4  A    between atoms: C8_8  and  O10_10 
ROOT
HETATM    1  C1  UNL     1     -32.693   8.366   4.359  1.00 20.00     0.259 C 
HETATM    2  O9  UNL     1     -32.198   9.230   5.069  1.00 20.00    -0.265 OA
ENDROOT
BRANCH   1   3
HETATM    3  C7  UNL     1     -32.003   7.693   3.196  1.00 20.00     0.115 C 
BRANCH   3   4
HETATM    4  C4  UNL     1     -32.704   7.973   1.877  1.00 20.00    -0.005 A 
HETATM    5  C2  UNL     1     -32.817   9.381   1.364  1.00 20.00     0.005 A 
HETATM    6  C3  UNL     1     -31.909   8.401   0.675  1.00 20.00     0.005 A 
ENDBRANCH   3   4
ENDBRANCH   1   3
BRANCH   1   7
HETATM    7  O10 UNL     1     -33.953   7.851   4.483  1.00 20.00    -0.317 OA
BRANCH   7   8
HETATM    8  C8  UNL     1     -34.033   6.562   5.101  1.00 20.00     0.123 C 
HETATM    9  C5  UNL     1     -34.207   6.737   6.602  1.00 20.00     0.040 C 
HETATM   10  C6  UNL     1     -35.184   5.782   4.483  1.00 20.00     0.040 C 
ENDBRANCH   7   8
ENDBRANCH   1   7
TORSDOF 4
ENDMDL
MODEL 5
REMARK VINA RESULT:      -4.0      9.321     10.647
REMARK  4 active torsions:
REMARK  status: ('A' for Active; 'I' for Inactive)
REMARK    1  A    between atoms: C1_1  and  C7_7 
REMARK    2  A    between atoms: C1_1  and  O10_10 
REMARK    3  A    between atoms: C4_4  and  C7_7 
REMARK    4  A    between atoms: C8_8  and  O10_10 
ROOT
HETATM    1  C1  UNL     1     -41.748  13.165   6.697  1.00 20.00     0.259 C 
HETATM    2  O9  UNL     1     -42.295  12.195   7.202  1.00 20.00    -0.265 OA
ENDROOT
BRANCH   1   3
HETATM    3  C7  UNL     1     -40.896  13.133   5.449  1.00 20.00     0.115 C 
BRANCH   3   4
HETATM    4  C4  UNL     1     -39.979  11.922   5.414  1.00 20.00    -0.005 A 
HETATM    5  C2  UNL     1     -39.070  11.695   4.239  1.00 20.00     0.005 A 
HETATM    6  C3  UNL     1     -38.494  12.093   5.570  1.00 20.00     0.005 A 
ENDBRANCH   3   4
ENDBRANCH   1   3
BRANCH   1   7
HETATM    7  O10 UNL     1     -41.803  14.449   7.161  1.00 20.00    -0.317 OA
BRANCH   7   8
HETATM    8  C8  UNL     1     -40.556  15.001   7.595  1.00 20.00     0.123 C 
HETATM    9  C5  UNL     1     -40.646  16.520   7.571  1.00 20.00     0.040 C 
HETATM   10  C6  UNL     1     -40.232  14.475   8.985  1.00 20.00     0.040 C 
ENDBRANCH   7   8
ENDBRANCH   1   7
TORSDOF 4
ENDMDL
MODEL 6
REMARK VINA RESULT:      -3.9      1.175      4.430
REMARK  4 active torsions:
REMARK  status: ('A' for Active; 'I' for Inactive)
REMARK    1  A    between atoms: C1_1  and  C7_7 
REMARK    2  A    between atoms: C1_1  and  O10_10 
REMARK    3  A    between atoms: C4_4  and  C7_7 
REMARK    4  A    between atoms: C8_8  and  O10_10 
ROOT
HETATM    1  C1  UNL     1     -32.483   7.738   3.728  1.00 20.00     0.259 C 
HETATM    2  O9  UNL     1     -32.165   8.804   4.235  1.00 20.00    -0.265 OA
ENDROOT
BRANCH   1   3
HETATM    3  C7  UNL     1     -32.414   7.421   2.252  1.00 20.00     0.115 C 
BRANCH   3   4
HETATM    4  C4  UNL     1     -32.022   8.633   1.425  1.00 20.00    -0.005 A 
HETATM    5  C2  UNL     1     -32.616   8.841   0.059  1.00 20.00     0.005 A 
HETATM    6  C3  UNL     1     -33.009   9.743   1.196  1.00 20.00     0.005 A 
ENDBRANCH   3   4
ENDBRANCH   1   3
BRANCH   1   7
HETATM    7  O10 UNL     1     -32.958   6.643   4.393  1.00 20.00    -0.317 OA
BRANCH   7   8
HETATM    8  C8  UNL     1     -34.262   6.788   4.965  1.00 20.00     0.123 C 
HETATM    9  C5  UNL     1     -35.109   5.580   4.594  1.00 20.00     0.040 C 
HETATM   10  C6  UNL     1     -34.133   6.947   6.473  1.00 20.00     0.040 C 
ENDBRANCH   7   8
ENDBRANCH   1   7
TORSDOF 4
ENDMDL
MODEL 7
REMARK VINA RESULT:      -3.8     11.576     12.846
REMARK  4 active torsions:
REMARK  status: ('A' for Active; 'I' for Inactive)
REMARK    1  A    between atoms: C1_1  and  C7_7 
REMARK    2  A    between atoms: C1_1  and  O10_10 
REMARK    3  A    between atoms: C4_4  and  C7_7 
REMARK    4  A    between atoms: C8_8  and  O10_10 
ROOT
HETATM    1  C1  UNL     1     -33.875  14.653  -4.503  1.00 20.00     0.259 C 
HETATM    2  O9  UNL     1     -34.432  13.745  -3.903  1.00 20.00    -0.265 OA
ENDROOT
BRANCH   1   3
HETATM    3  C7  UNL     1     -32.988  15.700  -3.871  1.00 20.00     0.115 C 
BRANCH   3   4
HETATM    4  C4  UNL     1     -33.631  16.331  -2.648  1.00 20.00    -0.005 A 
HETATM    5  C2  UNL     1     -32.926  17.431  -1.905  1.00 20.00     0.005 A 
HETATM    6  C3  UNL     1     -34.158  17.737  -2.711  1.00 20.00     0.005 A 
ENDBRANCH   3   4
ENDBRANCH   1   3
BRANCH   1   7
HETATM    7  O10 UNL     1     -33.948  14.889  -5.847  1.00 20.00    -0.317 OA
BRANCH   7   8
HETATM    8  C8  UNL     1     -34.607  16.103  -6.224  1.00 20.00     0.123 C 
HETATM    9  C5  UNL     1     -34.290  16.413  -7.679  1.00 20.00     0.040 C 
HETATM   10  C6  UNL     1     -36.103  15.956  -5.988  1.00 20.00     0.040 C 
ENDBRANCH   7   8
ENDBRANCH   1   7
TORSDOF 4
ENDMDL
MODEL 8
REMARK VINA RESULT:      -3.7      9.114     10.161
REMARK  4 active torsions:
REMARK  status: ('A' for Active; 'I' for Inactive)
REMARK    1  A    between atoms: C1_1  and  C7_7 
REMARK    2  A    between atoms: C1_1  and  O10_10 
REMARK    3  A    between atoms: C4_4  and  C7_7 
REMARK    4  A    between atoms: C8_8  and  O10_10 
ROOT
HETATM    1  C1  UNL     1     -41.448  13.084   6.293  1.00 20.00     0.259 C 
HETATM    2  O9  UNL     1     -42.011  12.180   6.894  1.00 20.00    -0.265 OA
ENDROOT
BRANCH   1   3
HETATM    3  C7  UNL     1     -41.553  14.553   6.630  1.00 20.00     0.115 C 
BRANCH   3   4
HETATM    4  C4  UNL     1     -40.389  15.028   7.484  1.00 20.00    -0.005 A 
HETATM    5  C2  UNL     1     -40.619  16.014   8.595  1.00 20.00     0.005 A 
HETATM    6  C3  UNL     1     -40.272  14.586   8.916  1.00 20.00     0.005 A 
ENDBRANCH   3   4
ENDBRANCH   1   3
BRANCH   1   7
HETATM    7  O10 UNL     1     -40.625  12.936   5.212  1.00 20.00    -0.317 OA
BRANCH   7   8
HETATM    8  C8  UNL     1     -39.725  11.825   5.270  1.00 20.00     0.123 C 
HETATM    9  C5  UNL     1     -39.082  11.629   3.905  1.00 20.00     0.040 C 
HETATM   10  C6  UNL     1     -38.688  12.076   6.355  1.00 20.00     0.040 C 
ENDBRANCH   7   8
ENDBRANCH   1   7
TORSDOF 4
ENDMDL
MODEL 9
REMARK VINA RESULT:      -3.6     11.617     12.655
REMARK  4 active torsions:
REMARK  status: ('A' for Active; 'I' for Inactive)
REMARK    1  A    between atoms: C1_1  and  C7_7 
REMARK    2  A    between atoms: C1_1  and  O10_10 
REMARK    3  A    between atoms: C4_4  and  C7_7 
REMARK    4  A    between atoms: C8_8  and  O10_10 
ROOT
HETATM    1  C1  UNL     1     -32.857  17.970  -2.178  1.00 20.00     0.259 C 
HETATM    2  O9  UNL     1     -33.043  18.920  -2.924  1.00 20.00    -0.265 OA
ENDROOT
BRANCH   1   3
HETATM    3  C7  UNL     1     -33.503  16.611  -2.319  1.00 20.00     0.115 C 
BRANCH   3   4
HETATM    4  C4  UNL     1     -33.186  15.964  -3.656  1.00 20.00    -0.005 A 
HETATM    5  C2  UNL     1     -33.898  14.708  -4.077  1.00 20.00     0.005 A 
HETATM    6  C3  UNL     1     -34.189  16.008  -4.775  1.00 20.00     0.005 A 
ENDBRANCH   3   4
ENDBRANCH   1   3
BRANCH   1   7
HETATM    7  O10 UNL     1     -32.035  17.957  -1.086  1.00 20.00    -0.317 OA
BRANCH   7   8
HETATM    8  C8  UNL     1     -32.266  18.997  -0.129  1.00 20.00     0.123 C 
HETATM    9  C5  UNL     1     -33.452  18.618   0.745  1.00 20.00     0.040 C 
HETATM   10  C6  UNL     1     -31.003  19.213   0.691  1.00 20.00     0.040 C 
ENDBRANCH   7   8
ENDBRANCH   1   7
TORSDOF 4
ENDMDL
