MODEL 1
REMARK VINA RESULT:      -4.6      0.000      0.000
REMARK  2 active torsions:
REMARK  status: ('A' for Active; 'I' for Inactive)
REMARK    1  A    between atoms: C1_1  and  C3_3 
REMARK       I    between atoms: C1_1  and  N9_9 
REMARK    2  A    between atoms: C8_8  and  N9_9 
ROOT
HETATM    1  C1  UNL     1     -33.288   5.918   3.576  1.00 20.00     0.222 C 
HETATM    2  N9  UNL     1     -33.267   7.209   4.067  1.00 20.00    -0.357 N 
HETATM    3  O10 UNL     1     -32.483   5.423   2.795  1.00 20.00    -0.273 OA
HETATM    4  H25 UNL     1     -33.998   7.493   4.712  1.00 20.00     0.162 HD
ENDROOT
BRANCH   1   5
HETATM    5  C3  UNL     1     -34.404   5.107   4.074  1.00 20.00     0.082 A 
HETATM    6  C2  UNL     1     -35.663   5.791   4.544  1.00 20.00     0.019 A 
HETATM    7  C4  UNL     1     -34.770   5.106   5.540  1.00 20.00    -0.005 A 
HETATM    8  C5  UNL     1     -34.019   5.910   6.545  1.00 20.00     0.011 C 
ENDBRANCH   1   5
BRANCH   2   9
HETATM    9  C8  UNL     1     -32.253   8.175   3.709  1.00 20.00     0.076 C 
HETATM   10  C6  UNL     1     -32.078   9.161   4.854  1.00 20.00     0.032 C 
HETATM   11  C7  UNL     1     -32.672   8.874   2.424  1.00 20.00     0.032 C 
ENDBRANCH   2   9
TORSDOF 2
ENDMDL
MODEL 2
REMARK VINA RESULT:      -4.3     12.047     12.955
REMARK  2 active torsions:
REMARK  status: ('A' for Active; 'I' for Inactive)
REMARK    1  A    between atoms: C1_1  and  C3_3 
REMARK       I    between atoms: C1_1  and  N9_9 
REMARK    2  A    between atoms: C8_8  and  N9_9 
ROOT
HETATM    1  C1  UNL     1     -33.481  17.773  -2.076  1.00 20.00     0.222 C 
HETATM    2  N9  UNL     1     -33.697  16.501  -2.573  1.00 20.00    -0.357 N 
HETATM    3  O10 UNL     1     -33.135  18.756  -2.721  1.00 20.00    -0.273 OA
HETATM    4  H25 UNL     1     -33.985  15.773  -1.926  1.00 20.00     0.162 HD
ENDROOT
BRANCH   1   5
HETATM    5  C3  UNL     1     -33.707  17.897  -0.633  1.00 20.00     0.082 A 
HETATM    6  C2  UNL     1     -33.673  19.263   0.006  1.00 20.00     0.019 A 
HETATM    7  C4  UNL     1     -32.580  18.274   0.300  1.00 20.00    -0.005 A 
HETATM    8  C5  UNL     1     -31.196  18.526  -0.190  1.00 20.00     0.011 C 
ENDBRANCH   1   5
BRANCH   2   9
HETATM    9  C8  UNL     1     -33.535  16.159  -3.968  1.00 20.00     0.076 C 
HETATM   10  C6  UNL     1     -34.744  16.659  -4.746  1.00 20.00     0.032 C 
HETATM   11  C7  UNL     1     -33.373  14.651  -4.089  1.00 20.00     0.032 C 
ENDBRANCH   2   9
TORSDOF 2
ENDMDL
MODEL 3
REMARK VINA RESULT:      -4.3     11.933     13.184
REMARK  2 active torsions:
REMARK  status: ('A' for Active; 'I' for Inactive)
REMARK    1  A    between atoms: C1_1  and  C3_3 
REMARK       I    between atoms: C1_1  and  N9_9 
REMARK    2  A    between atoms: C8_8  and  N9_9 
ROOT
HETATM    1  C1  UNL     1     -33.484  15.912  -3.619  1.00 20.00     0.222 C 
HETATM    2  N9  UNL     1     -34.784  15.938  -4.087  1.00 20.00    -0.357 N 
HETATM    3  O10 UNL     1     -32.556  15.260  -4.085  1.00 20.00    -0.273 OA
HETATM    4  H25 UNL     1     -35.459  16.526  -3.607  1.00 20.00     0.162 HD
ENDROOT
BRANCH   1   5
HETATM    5  C3  UNL     1     -33.252  16.768  -2.451  1.00 20.00     0.082 A 
HETATM    6  C2  UNL     1     -34.297  17.782  -2.058  1.00 20.00     0.019 A 
HETATM    7  C4  UNL     1     -32.979  18.245  -2.613  1.00 20.00    -0.005 A 
HETATM    8  C5  UNL     1     -32.922  18.899  -3.951  1.00 20.00     0.011 C 
ENDBRANCH   1   5
BRANCH   2   9
HETATM    9  C8  UNL     1     -35.229  15.172  -5.229  1.00 20.00     0.076 C 
HETATM   10  C6  UNL     1     -36.246  15.990  -6.012  1.00 20.00     0.032 C 
HETATM   11  C7  UNL     1     -35.820  13.858  -4.740  1.00 20.00     0.032 C 
ENDBRANCH   2   9
TORSDOF 2
ENDMDL
MODEL 4
REMARK VINA RESULT:      -4.2     10.792     11.559
REMARK  2 active torsions:
REMARK  status: ('A' for Active; 'I' for Inactive)
REMARK    1  A    between atoms: C1_1  and  C3_3 
REMARK       I    between atoms: C1_1  and  N9_9 
REMARK    2  A    between atoms: C8_8  and  N9_9 
ROOT
HETATM    1  C1  UNL     1     -40.649  14.119   8.080  1.00 20.00     0.222 C 
HETATM    2  N9  UNL     1     -39.864  13.818   6.984  1.00 20.00    -0.357 N 
HETATM    3  O10 UNL     1     -41.643  13.507   8.453  1.00 20.00    -0.273 OA
HETATM    4  H25 UNL     1     -39.063  14.410   6.786  1.00 20.00     0.162 HD
ENDROOT
BRANCH   1   5
HETATM    5  C3  UNL     1     -40.199  15.294   8.833  1.00 20.00     0.082 A 
HETATM    6  C2  UNL     1     -41.158  15.982   9.772  1.00 20.00     0.019 A 
HETATM    7  C4  UNL     1     -40.726  16.672   8.509  1.00 20.00    -0.005 A 
HETATM    8  C5  UNL     1     -41.709  16.909   7.415  1.00 20.00     0.011 C 
ENDBRANCH   1   5
BRANCH   2   9
HETATM    9  C8  UNL     1     -40.126  12.700   6.106  1.00 20.00     0.076 C 
HETATM   10  C6  UNL     1     -38.803  12.130   5.617  1.00 20.00     0.032 C 
HETATM   11  C7  UNL     1     -40.996  13.174   4.951  1.00 20.00     0.032 C 
ENDBRANCH   2   9
TORSDOF 2
ENDMDL
MODEL 5
REMARK VINA RESULT:      -4.1     12.233     13.632
REMARK  2 active torsions:
REMARK  status: ('A' for Active; 'I' for Inactive)
REMARK    1  A    between atoms: C1_1  and  C3_3 
REMARK       I    between atoms: C1_1  and  N9_9 
REMARK    2  A    between atoms: C8_8  and  N9_9 
ROOT
HETATM    1  C1  UNL     1     -34.934  16.478  -5.479  1.00 20.00     0.222 C 
HETATM    2  N9  UNL     1     -36.197  16.243  -4.971  1.00 20.00    -0.357 N 
HETATM    3  O10 UNL     1     -34.576  17.464  -6.113  1.00 20.00    -0.273 OA
HETATM    4  H25 UNL     1     -36.360  15.380  -4.461  1.00 20.00     0.162 HD
ENDROOT
BRANCH   1   5
HETATM    5  C3  UNL     1     -33.969  15.409  -5.200  1.00 20.00     0.082 A 
HETATM    6  C2  UNL     1     -34.279  14.396  -4.127  1.00 20.00     0.019 A 
HETATM    7  C4  UNL     1     -33.177  15.395  -3.914  1.00 20.00    -0.005 A 
HETATM    8  C5  UNL     1     -33.323  16.458  -2.880  1.00 20.00     0.011 C 
ENDBRANCH   1   5
BRANCH   2   9
HETATM    9  C8  UNL     1     -37.297  17.168  -5.129  1.00 20.00     0.076 C 
HETATM   10  C6  UNL     1     -37.250  18.194  -4.006  1.00 20.00     0.032 C 
HETATM   11  C7  UNL     1     -38.602  16.386  -5.122  1.00 20.00     0.032 C 
ENDBRANCH   2   9
TORSDOF 2
ENDMDL
MODEL 6
REMARK VINA RESULT:      -4.1     10.067     10.717
REMARK  2 active torsions:
REMARK  status: ('A' for Active; 'I' for Inactive)
REMARK    1  A    between atoms: C1_1  and  C3_3 
REMARK       I    between atoms: C1_1  and  N9_9 
REMARK    2  A    between atoms: C8_8  and  N9_9 
ROOT
HETATM    1  C1  UNL     1     -41.789  12.931   6.162  1.00 20.00     0.222 C 
HETATM    2  N9  UNL     1     -40.754  12.822   5.254  1.00 20.00    -0.357 N 
HETATM    3  O10 UNL     1     -41.992  12.200   7.125  1.00 20.00    -0.273 OA
HETATM    4  H25 UNL     1     -40.701  13.498   4.498  1.00 20.00     0.162 HD
ENDROOT
BRANCH   1   5
HETATM    5  C3  UNL     1     -42.700  14.050   5.899  1.00 20.00     0.082 A 
HETATM    6  C2  UNL     1     -42.268  15.150   4.962  1.00 20.00     0.019 A 
HETATM    7  C4  UNL     1     -42.406  15.432   6.431  1.00 20.00    -0.005 A 
HETATM    8  C5  UNL     1     -41.197  15.726   7.251  1.00 20.00     0.011 C 
ENDBRANCH   1   5
BRANCH   2   9
HETATM    9  C8  UNL     1     -39.741  11.793   5.330  1.00 20.00     0.076 C 
HETATM   10  C6  UNL     1     -38.741  12.158   6.417  1.00 20.00     0.032 C 
HETATM   11  C7  UNL     1     -39.070  11.662   3.970  1.00 20.00     0.032 C 
ENDBRANCH   2   9
TORSDOF 2
ENDMDL
MODEL 7
REMARK VINA RESULT:      -4.0      1.647      2.053
REMARK  2 active torsions:
REMARK  status: ('A' for Active; 'I' for Inactive)
REMARK    1  A    between atoms: C1_1  and  C3_3 
REMARK       I    between atoms: C1_1  and  N9_9 
REMARK    2  A    between atoms: C8_8  and  N9_9 
ROOT
HETATM    1  C1  UNL     1     -33.569   7.185   5.215  1.00 20.00     0.222 C 
HETATM    2  N9  UNL     1     -33.379   7.367   3.859  1.00 20.00    -0.357 N 
HETATM    3  O10 UNL     1     -32.849   7.603   6.114  1.00 20.00    -0.273 OA
HETATM    4  H25 UNL     1     -34.056   6.965   3.217  1.00 20.00     0.162 HD
ENDROOT
BRANCH   1   5
HETATM    5  C3  UNL     1     -34.768   6.409   5.552  1.00 20.00     0.082 A 
HETATM    6  C2  UNL     1     -34.662   5.279   6.546  1.00 20.00     0.019 A 
HETATM    7  C4  UNL     1     -34.919   4.976   5.096  1.00 20.00    -0.005 A 
HETATM    8  C5  UNL     1     -33.877   4.289   4.283  1.00 20.00     0.011 C 
ENDBRANCH   1   5
BRANCH   2   9
HETATM    9  C8  UNL     1     -32.264   8.104   3.309  1.00 20.00     0.076 C 
HETATM   10  C6  UNL     1     -32.528   9.594   3.464  1.00 20.00     0.032 C 
HETATM   11  C7  UNL     1     -32.087   7.712   1.849  1.00 20.00     0.032 C 
ENDBRANCH   2   9
TORSDOF 2
ENDMDL
MODEL 8
REMARK VINA RESULT:      -4.0     11.999     12.616
REMARK  2 active torsions:
REMARK  status: ('A' for Active; 'I' for Inactive)
REMARK    1  A    between atoms: C1_1  and  C3_3 
REMARK       I    between atoms: C1_1  and  N9_9 
REMARK    2  A    between atoms: C8_8  and  N9_9 
ROOT
HETATM    1  C1  UNL     1     -33.523  16.533  -3.285  1.00 20.00     0.222 C 
HETATM    2  N9  UNL     1     -33.627  16.682  -1.915  1.00 20.00    -0.357 N 
HETATM    3  O10 UNL     1     -33.289  17.420  -4.097  1.00 20.00    -0.273 OA
HETATM    4  H25 UNL     1     -33.826  15.859  -1.353  1.00 20.00     0.162 HD
ENDROOT
BRANCH   1   5
HETATM    5  C3  UNL     1     -33.720  15.157  -3.753  1.00 20.00     0.082 A 
HETATM    6  C2  UNL     1     -33.383  14.807  -5.181  1.00 20.00     0.019 A 
HETATM    7  C4  UNL     1     -34.818  14.820  -4.734  1.00 20.00    -0.005 A 
HETATM    8  C5  UNL     1     -35.755  15.852  -5.261  1.00 20.00     0.011 C 
ENDBRANCH   1   5
BRANCH   2   9
HETATM    9  C8  UNL     1     -33.466  17.951  -1.243  1.00 20.00     0.076 C 
HETATM   10  C6  UNL     1     -31.984  18.287  -1.164  1.00 20.00     0.032 C 
HETATM   11  C7  UNL     1     -34.096  17.861   0.139  1.00 20.00     0.032 C 
ENDBRANCH   2   9
TORSDOF 2
ENDMDL
MODEL 9
REMARK VINA RESULT:      -4.0      9.435     10.116
REMARK  2 active torsions:
REMARK  status: ('A' for Active; 'I' for Inactive)
REMARK    1  A    between atoms: C1_1  and  C3_3 
REMARK       I    between atoms: C1_1  and  N9_9 
REMARK    2  A    between atoms: C8_8  and  N9_9 
ROOT
HETATM    1  C1  UNL     1     -40.519  12.534   6.788  1.00 20.00     0.222 C 
HETATM    2  N9  UNL     1     -39.933  13.648   7.357  1.00 20.00    -0.357 N 
HETATM    3  O10 UNL     1     -41.715  12.265   6.778  1.00 20.00    -0.273 OA
HETATM    4  H25 UNL     1     -38.925  13.750   7.292  1.00 20.00     0.162 HD
ENDROOT
BRANCH   1   5
HETATM    5  C3  UNL     1     -39.568  11.620   6.145  1.00 20.00     0.082 A 
HETATM    6  C2  UNL     1     -38.238  12.152   5.672  1.00 20.00     0.019 A 
HETATM    7  C4  UNL     1     -39.271  11.722   4.668  1.00 20.00    -0.005 A 
HETATM    8  C5  UNL     1     -39.928  12.735   3.794  1.00 20.00     0.011 C 
ENDBRANCH   1   5
BRANCH   2   9
HETATM    9  C8  UNL     1     -40.687  14.677   8.037  1.00 20.00     0.076 C 
HETATM   10  C6  UNL     1     -40.342  16.029   7.432  1.00 20.00     0.032 C 
HETATM   11  C7  UNL     1     -40.359  14.625   9.523  1.00 20.00     0.032 C 
ENDBRANCH   2   9
TORSDOF 2
ENDMDL
