MODEL 1
REMARK VINA RESULT:      -4.3      0.000      0.000
REMARK  3 active torsions:
REMARK  status: ('A' for Active; 'I' for Inactive)
REMARK    1  A    between atoms: C5_5  and  S11_11 
REMARK    2  A    between atoms: C8_8  and  C9_9 
REMARK    3  A    between atoms: C8_8  and  S11_11 
ROOT
HETATM    1  C1  UNL     1     -34.434   5.361   5.079  1.00 20.00     0.128 C 
HETATM    2  C2  UNL     1     -34.581   5.965   6.453  1.00 20.00     0.079 C 
HETATM    3  C3  UNL     1     -33.731   6.288   4.119  1.00 20.00     0.093 C 
HETATM    4  C4  UNL     1     -33.668   7.184   6.356  1.00 20.00     0.023 C 
HETATM    5  C5  UNL     1     -33.771   7.604   4.892  1.00 20.00     0.054 C 
HETATM    6  O10 UNL     1     -34.839   4.245   4.778  1.00 20.00    -0.298 OA
ENDROOT
BRANCH   5   7
HETATM    7  S11 UNL     1     -32.442   8.731   4.397  1.00 20.00    -0.164 SA
BRANCH   7   8
HETATM    8  C8  UNL     1     -31.984   7.913   2.854  1.00 20.00     0.078 C 
BRANCH   8   9
HETATM    9  C9  UNL     1     -32.650   8.478   1.587  1.00 20.00    -0.013 C 
HETATM   10  C6  UNL     1     -32.963   9.972   1.699  1.00 20.00     0.010 C 
HETATM   11  C7  UNL     1     -31.844   8.191   0.318  1.00 20.00     0.010 C 
ENDBRANCH   8   9
ENDBRANCH   7   8
ENDBRANCH   5   7
TORSDOF 3
ENDMDL
MODEL 2
REMARK VINA RESULT:      -4.1     11.671     12.725
REMARK  3 active torsions:
REMARK  status: ('A' for Active; 'I' for Inactive)
REMARK    1  A    between atoms: C5_5  and  S11_11 
REMARK    2  A    between atoms: C8_8  and  C9_9 
REMARK    3  A    between atoms: C8_8  and  S11_11 
ROOT
HETATM    1  C1  UNL     1     -34.488  15.286  -5.749  1.00 20.00     0.128 C 
HETATM    2  C2  UNL     1     -33.930  14.553  -4.556  1.00 20.00     0.079 C 
HETATM    3  C3  UNL     1     -34.452  16.783  -5.568  1.00 20.00     0.093 C 
HETATM    4  C4  UNL     1     -33.281  15.687  -3.767  1.00 20.00     0.023 C 
HETATM    5  C5  UNL     1     -34.163  16.896  -4.072  1.00 20.00     0.054 C 
HETATM    6  O10 UNL     1     -34.919  14.730  -6.750  1.00 20.00    -0.298 OA
ENDROOT
BRANCH   5   7
HETATM    7  S11 UNL     1     -33.364  18.465  -3.645  1.00 20.00    -0.164 SA
BRANCH   7   8
HETATM    8  C8  UNL     1     -34.036  18.641  -1.979  1.00 20.00     0.078 C 
BRANCH   8   9
HETATM    9  C9  UNL     1     -33.220  17.961  -0.864  1.00 20.00    -0.013 C 
HETATM   10  C6  UNL     1     -31.768  18.441  -0.818  1.00 20.00     0.010 C 
HETATM   11  C7  UNL     1     -33.874  18.095   0.512  1.00 20.00     0.010 C 
ENDBRANCH   8   9
ENDBRANCH   7   8
ENDBRANCH   5   7
TORSDOF 3
ENDMDL
MODEL 3
REMARK VINA RESULT:      -4.1     11.546     12.265
REMARK  3 active torsions:
REMARK  status: ('A' for Active; 'I' for Inactive)
REMARK    1  A    between atoms: C5_5  and  S11_11 
REMARK    2  A    between atoms: C8_8  and  C9_9 
REMARK    3  A    between atoms: C8_8  and  S11_11 
ROOT
HETATM    1  C1  UNL     1     -31.981  18.881   1.628  1.00 20.00     0.128 C 
HETATM    2  C2  UNL     1     -30.869  18.770   0.616  1.00 20.00     0.079 C 
HETATM    3  C3  UNL     1     -33.345  18.867   0.984  1.00 20.00     0.093 C 
HETATM    4  C4  UNL     1     -31.635  18.390  -0.648  1.00 20.00     0.023 C 
HETATM    5  C5  UNL     1     -32.983  19.088  -0.484  1.00 20.00     0.054 C 
HETATM    6  O10 UNL     1     -31.797  18.971   2.835  1.00 20.00    -0.298 OA
ENDROOT
BRANCH   5   7
HETATM    7  S11 UNL     1     -34.246  18.434  -1.606  1.00 20.00    -0.164 SA
BRANCH   7   8
HETATM    8  C8  UNL     1     -33.429  16.879  -2.021  1.00 20.00     0.078 C 
BRANCH   8   9
HETATM    9  C9  UNL     1     -33.326  16.570  -3.525  1.00 20.00    -0.013 C 
HETATM   10  C6  UNL     1     -33.657  15.112  -3.853  1.00 20.00     0.010 C 
HETATM   11  C7  UNL     1     -34.167  17.518  -4.383  1.00 20.00     0.010 C 
ENDBRANCH   8   9
ENDBRANCH   7   8
ENDBRANCH   5   7
TORSDOF 3
ENDMDL
MODEL 4
REMARK VINA RESULT:      -4.1     11.548     12.590
REMARK  3 active torsions:
REMARK  status: ('A' for Active; 'I' for Inactive)
REMARK    1  A    between atoms: C5_5  and  S11_11 
REMARK    2  A    between atoms: C8_8  and  C9_9 
REMARK    3  A    between atoms: C8_8  and  S11_11 
ROOT
HETATM    1  C1  UNL     1     -33.659  15.175  -4.250  1.00 20.00     0.128 C 
HETATM    2  C2  UNL     1     -34.419  15.775  -5.405  1.00 20.00     0.079 C 
HETATM    3  C3  UNL     1     -33.398  16.179  -3.155  1.00 20.00     0.093 C 
HETATM    4  C4  UNL     1     -34.863  17.114  -4.825  1.00 20.00     0.023 C 
HETATM    5  C5  UNL     1     -33.737  17.488  -3.864  1.00 20.00     0.054 C 
HETATM    6  O10 UNL     1     -33.298  14.006  -4.204  1.00 20.00    -0.298 OA
ENDROOT
BRANCH   5   7
HETATM    7  S11 UNL     1     -34.220  18.792  -2.702  1.00 20.00    -0.164 SA
BRANCH   7   8
HETATM    8  C8  UNL     1     -32.588  19.119  -2.003  1.00 20.00     0.078 C 
BRANCH   8   9
HETATM    9  C9  UNL     1     -32.486  18.973  -0.474  1.00 20.00    -0.013 C 
HETATM   10  C6  UNL     1     -33.597  18.099   0.112  1.00 20.00     0.010 C 
HETATM   11  C7  UNL     1     -31.113  18.474  -0.018  1.00 20.00     0.010 C 
ENDBRANCH   8   9
ENDBRANCH   7   8
ENDBRANCH   5   7
TORSDOF 3
ENDMDL
MODEL 5
REMARK VINA RESULT:      -3.9     11.881     12.607
REMARK  3 active torsions:
REMARK  status: ('A' for Active; 'I' for Inactive)
REMARK    1  A    between atoms: C5_5  and  S11_11 
REMARK    2  A    between atoms: C8_8  and  C9_9 
REMARK    3  A    between atoms: C8_8  and  S11_11 
ROOT
HETATM    1  C1  UNL     1     -31.769  18.564  -0.550  1.00 20.00     0.128 C 
HETATM    2  C2  UNL     1     -32.789  18.557   0.560  1.00 20.00     0.079 C 
HETATM    3  C3  UNL     1     -32.405  18.423  -1.912  1.00 20.00     0.093 C 
HETATM    4  C4  UNL     1     -34.095  18.702  -0.215  1.00 20.00     0.023 C 
HETATM    5  C5  UNL     1     -33.819  17.987  -1.536  1.00 20.00     0.054 C 
HETATM    6  O10 UNL     1     -30.563  18.673  -0.368  1.00 20.00    -0.298 OA
ENDROOT
BRANCH   5   7
HETATM    7  S11 UNL     1     -35.029  18.405  -2.819  1.00 20.00    -0.164 SA
BRANCH   7   8
HETATM    8  C8  UNL     1     -34.123  17.754  -4.237  1.00 20.00     0.078 C 
BRANCH   8   9
HETATM    9  C9  UNL     1     -34.351  16.261  -4.535  1.00 20.00    -0.013 C 
HETATM   10  C6  UNL     1     -34.567  15.983  -6.025  1.00 20.00     0.010 C 
HETATM   11  C7  UNL     1     -33.238  15.370  -3.978  1.00 20.00     0.010 C 
ENDBRANCH   8   9
ENDBRANCH   7   8
ENDBRANCH   5   7
TORSDOF 3
ENDMDL
MODEL 6
REMARK VINA RESULT:      -3.8     11.967     13.473
REMARK  3 active torsions:
REMARK  status: ('A' for Active; 'I' for Inactive)
REMARK    1  A    between atoms: C5_5  and  S11_11 
REMARK    2  A    between atoms: C8_8  and  C9_9 
REMARK    3  A    between atoms: C8_8  and  S11_11 
ROOT
HETATM    1  C1  UNL     1     -35.957  15.421  -6.524  1.00 20.00     0.128 C 
HETATM    2  C2  UNL     1     -37.110  16.031  -5.768  1.00 20.00     0.079 C 
HETATM    3  C3  UNL     1     -34.731  16.300  -6.504  1.00 20.00     0.093 C 
HETATM    4  C4  UNL     1     -36.430  17.186  -5.039  1.00 20.00     0.023 C 
HETATM    5  C5  UNL     1     -35.316  17.615  -5.992  1.00 20.00     0.054 C 
HETATM    6  O10 UNL     1     -36.009  14.336  -7.088  1.00 20.00    -0.298 OA
ENDROOT
BRANCH   5   7
HETATM    7  S11 UNL     1     -34.069  18.650  -5.181  1.00 20.00    -0.164 SA
BRANCH   7   8
HETATM    8  C8  UNL     1     -34.483  18.246  -3.471  1.00 20.00     0.078 C 
BRANCH   8   9
HETATM    9  C9  UNL     1     -33.427  17.419  -2.716  1.00 20.00    -0.013 C 
HETATM   10  C6  UNL     1     -33.650  17.418  -1.202  1.00 20.00     0.010 C 
HETATM   11  C7  UNL     1     -33.310  15.988  -3.243  1.00 20.00     0.010 C 
ENDBRANCH   8   9
ENDBRANCH   7   8
ENDBRANCH   5   7
TORSDOF 3
ENDMDL
MODEL 7
REMARK VINA RESULT:      -3.6     11.789     12.887
REMARK  3 active torsions:
REMARK  status: ('A' for Active; 'I' for Inactive)
REMARK    1  A    between atoms: C5_5  and  S11_11 
REMARK    2  A    between atoms: C8_8  and  C9_9 
REMARK    3  A    between atoms: C8_8  and  S11_11 
ROOT
HETATM    1  C1  UNL     1     -34.312  18.144  -1.896  1.00 20.00     0.128 C 
HETATM    2  C2  UNL     1     -33.321  17.009  -1.962  1.00 20.00     0.079 C 
HETATM    3  C3  UNL     1     -34.854  18.508  -3.257  1.00 20.00     0.093 C 
HETATM    4  C4  UNL     1     -33.513  16.508  -3.390  1.00 20.00     0.023 C 
HETATM    5  C5  UNL     1     -33.883  17.766  -4.173  1.00 20.00     0.054 C 
HETATM    6  O10 UNL     1     -34.640  18.704  -0.859  1.00 20.00    -0.298 OA
ENDROOT
BRANCH   5   7
HETATM    7  S11 UNL     1     -34.615  17.391  -5.787  1.00 20.00    -0.164 SA
BRANCH   7   8
HETATM    8  C8  UNL     1     -34.500  15.591  -5.700  1.00 20.00     0.078 C 
BRANCH   8   9
HETATM    9  C9  UNL     1     -35.847  14.846  -5.689  1.00 20.00    -0.013 C 
HETATM   10  C6  UNL     1     -35.889  13.717  -4.656  1.00 20.00     0.010 C 
HETATM   11  C7  UNL     1     -37.041  15.785  -5.508  1.00 20.00     0.010 C 
ENDBRANCH   8   9
ENDBRANCH   7   8
ENDBRANCH   5   7
TORSDOF 3
ENDMDL
MODEL 8
REMARK VINA RESULT:      -3.6     10.195     11.003
REMARK  3 active torsions:
REMARK  status: ('A' for Active; 'I' for Inactive)
REMARK    1  A    between atoms: C5_5  and  S11_11 
REMARK    2  A    between atoms: C8_8  and  C9_9 
REMARK    3  A    between atoms: C8_8  and  S11_11 
ROOT
HETATM    1  C1  UNL     1     -40.561  15.269   9.367  1.00 20.00     0.128 C 
HETATM    2  C2  UNL     1     -40.478  16.225   8.204  1.00 20.00     0.079 C 
HETATM    3  C3  UNL     1     -41.297  14.000   9.013  1.00 20.00     0.093 C 
HETATM    4  C4  UNL     1     -40.941  15.347   7.045  1.00 20.00     0.023 C 
HETATM    5  C5  UNL     1     -41.945  14.392   7.686  1.00 20.00     0.054 C 
HETATM    6  O10 UNL     1     -40.085  15.496  10.471  1.00 20.00    -0.298 OA
ENDROOT
BRANCH   5   7
HETATM    7  S11 UNL     1     -42.298  12.952   6.645  1.00 20.00    -0.164 SA
BRANCH   7   8
HETATM    8  C8  UNL     1     -40.921  13.134   5.493  1.00 20.00     0.078 C 
BRANCH   8   9
HETATM    9  C9  UNL     1     -39.918  11.967   5.476  1.00 20.00    -0.013 C 
HETATM   10  C6  UNL     1     -39.238  11.791   4.116  1.00 20.00     0.010 C 
HETATM   11  C7  UNL     1     -38.873  12.070   6.589  1.00 20.00     0.010 C 
ENDBRANCH   8   9
ENDBRANCH   7   8
ENDBRANCH   5   7
TORSDOF 3
ENDMDL
MODEL 9
REMARK VINA RESULT:      -3.5      9.741     10.623
REMARK  3 active torsions:
REMARK  status: ('A' for Active; 'I' for Inactive)
REMARK    1  A    between atoms: C5_5  and  S11_11 
REMARK    2  A    between atoms: C8_8  and  C9_9 
REMARK    3  A    between atoms: C8_8  and  S11_11 
ROOT
HETATM    1  C1  UNL     1     -39.660  12.341   4.456  1.00 20.00     0.128 C 
HETATM    2  C2  UNL     1     -38.812  11.852   5.602  1.00 20.00     0.079 C 
HETATM    3  C3  UNL     1     -40.946  12.974   4.926  1.00 20.00     0.093 C 
HETATM    4  C4  UNL     1     -39.511  12.487   6.801  1.00 20.00     0.023 C 
HETATM    5  C5  UNL     1     -40.980  12.531   6.387  1.00 20.00     0.054 C 
HETATM    6  O10 UNL     1     -39.341  12.236   3.279  1.00 20.00    -0.298 OA
ENDROOT
BRANCH   5   7
HETATM    7  S11 UNL     1     -41.960  13.652   7.420  1.00 20.00    -0.164 SA
BRANCH   7   8
HETATM    8  C8  UNL     1     -41.341  15.211   6.754  1.00 20.00     0.078 C 
BRANCH   8   9
HETATM    9  C9  UNL     1     -40.399  15.997   7.683  1.00 20.00    -0.013 C 
HETATM   10  C6  UNL     1     -40.807  17.464   7.834  1.00 20.00     0.010 C 
HETATM   11  C7  UNL     1     -40.238  15.340   9.055  1.00 20.00     0.010 C 
ENDBRANCH   8   9
ENDBRANCH   7   8
ENDBRANCH   5   7
TORSDOF 3
ENDMDL
