MODEL 1
REMARK VINA RESULT:      -4.7      0.000      0.000
REMARK  3 active torsions:
REMARK  status: ('A' for Active; 'I' for Inactive)
REMARK    1  A    between atoms: C5_5  and  C9_9 
REMARK    2  A    between atoms: C6_6  and  C10_10 
REMARK    3  A    between atoms: C6_6  and  O11_11 
ROOT
HETATM    1  C1  UNL     1     -34.676   6.213   6.890  1.00 20.00     0.003 C 
HETATM    2  C2  UNL     1     -33.762   7.405   6.621  1.00 20.00     0.005 C 
HETATM    3  C3  UNL     1     -34.382   5.050   5.942  1.00 20.00     0.038 C 
HETATM    4  C4  UNL     1     -33.541   6.701   4.201  1.00 20.00     0.042 C 
HETATM    5  C5  UNL     1     -33.843   7.865   5.161  1.00 20.00    -0.012 C 
HETATM    6  C6  UNL     1     -34.416   5.463   4.461  1.00 20.00     0.058 C 
ENDROOT
BRANCH   6   7
HETATM    7  C10 UNL     1     -33.988   4.296   3.570  1.00 20.00     0.033 C 
HETATM    8  C8  UNL     1     -32.973   4.720   2.561  1.00 20.00     0.008 C 
ENDBRANCH   6   7
BRANCH   6   9
HETATM    9  O11 UNL     1     -35.773   5.785   4.136  1.00 20.00    -0.390 OA
HETATM   10  H31 UNL     1     -36.042   5.155   3.452  1.00 20.00     0.210 HD
ENDBRANCH   6   9
BRANCH   5  11
HETATM   11  C9  UNL     1     -32.890   9.032   4.910  1.00 20.00     0.000 C 
HETATM   12  C7  UNL     1     -32.223   8.923   3.579  1.00 20.00     0.005 C 
ENDBRANCH   5  11
TORSDOF 3
ENDMDL
MODEL 2
REMARK VINA RESULT:      -4.1      9.792     10.676
REMARK  3 active torsions:
REMARK  status: ('A' for Active; 'I' for Inactive)
REMARK    1  A    between atoms: C5_5  and  C9_9 
REMARK    2  A    between atoms: C6_6  and  C10_10 
REMARK    3  A    between atoms: C6_6  and  O11_11 
ROOT
HETATM    1  C1  UNL     1     -41.519  14.736   7.595  1.00 20.00     0.003 C 
HETATM    2  C2  UNL     1     -41.956  15.428   6.308  1.00 20.00     0.005 C 
HETATM    3  C3  UNL     1     -40.379  13.749   7.347  1.00 20.00     0.038 C 
HETATM    4  C4  UNL     1     -41.200  13.425   4.962  1.00 20.00     0.042 C 
HETATM    5  C5  UNL     1     -42.345  14.418   5.223  1.00 20.00    -0.012 C 
HETATM    6  C6  UNL     1     -40.702  12.730   6.241  1.00 20.00     0.058 C 
ENDROOT
BRANCH   6   7
HETATM    7  C10 UNL     1     -39.482  11.855   5.947  1.00 20.00     0.033 C 
HETATM    8  C8  UNL     1     -39.189  11.797   4.484  1.00 20.00     0.008 C 
ENDBRANCH   6   7
BRANCH   6   9
HETATM    9  O11 UNL     1     -41.742  11.877   6.733  1.00 20.00    -0.390 OA
HETATM   10  H31 UNL     1     -42.038  12.269   7.567  1.00 20.00     0.210 HD
ENDBRANCH   6   9
BRANCH   5  11
HETATM   11  C9  UNL     1     -42.741  15.136   3.934  1.00 20.00     0.000 C 
HETATM   12  C7  UNL     1     -42.897  16.605   4.148  1.00 20.00     0.005 C 
ENDBRANCH   5  11
TORSDOF 3
ENDMDL
MODEL 3
REMARK VINA RESULT:      -4.1     12.159     13.284
REMARK  3 active torsions:
REMARK  status: ('A' for Active; 'I' for Inactive)
REMARK    1  A    between atoms: C5_5  and  C9_9 
REMARK    2  A    between atoms: C6_6  and  C10_10 
REMARK    3  A    between atoms: C6_6  and  O11_11 
ROOT
HETATM    1  C1  UNL     1     -34.025  17.930  -4.973  1.00 20.00     0.003 C 
HETATM    2  C2  UNL     1     -33.939  18.371  -3.515  1.00 20.00     0.005 C 
HETATM    3  C3  UNL     1     -34.619  16.527  -5.104  1.00 20.00     0.038 C 
HETATM    4  C4  UNL     1     -33.745  15.957  -2.786  1.00 20.00     0.042 C 
HETATM    5  C5  UNL     1     -33.149  17.370  -2.664  1.00 20.00    -0.012 C 
HETATM    6  C6  UNL     1     -33.886  15.485  -4.244  1.00 20.00     0.058 C 
ENDROOT
BRANCH   6   7
HETATM    7  C10 UNL     1     -34.600  14.135  -4.314  1.00 20.00     0.033 C 
HETATM    8  C8  UNL     1     -35.875  14.228  -5.084  1.00 20.00     0.008 C 
ENDBRANCH   6   7
BRANCH   6   9
HETATM    9  O11 UNL     1     -32.576  15.315  -4.798  1.00 20.00    -0.390 OA
HETATM   10  H31 UNL     1     -31.954  15.541  -4.091  1.00 20.00     0.210 HD
ENDBRANCH   6   9
BRANCH   5  11
HETATM   11  C9  UNL     1     -33.111  17.815  -1.204  1.00 20.00     0.000 C 
HETATM   12  C7  UNL     1     -31.811  18.462  -0.858  1.00 20.00     0.005 C 
ENDBRANCH   5  11
TORSDOF 3
ENDMDL
MODEL 4
REMARK VINA RESULT:      -4.0      9.547     10.913
REMARK  3 active torsions:
REMARK  status: ('A' for Active; 'I' for Inactive)
REMARK    1  A    between atoms: C5_5  and  C9_9 
REMARK    2  A    between atoms: C6_6  and  C10_10 
REMARK    3  A    between atoms: C6_6  and  O11_11 
ROOT
HETATM    1  C1  UNL     1     -42.372  13.962   5.419  1.00 20.00     0.003 C 
HETATM    2  C2  UNL     1     -41.054  13.377   4.923  1.00 20.00     0.005 C 
HETATM    3  C3  UNL     1     -42.170  14.845   6.651  1.00 20.00     0.038 C 
HETATM    4  C4  UNL     1     -40.111  13.488   7.267  1.00 20.00     0.042 C 
HETATM    5  C5  UNL     1     -40.324  12.603   6.027  1.00 20.00    -0.012 C 
HETATM    6  C6  UNL     1     -41.411  14.130   7.781  1.00 20.00     0.058 C 
ENDROOT
BRANCH   6   7
HETATM    7  C10 UNL     1     -41.125  15.097   8.930  1.00 20.00     0.033 C 
HETATM    8  C8  UNL     1     -40.648  16.420   8.428  1.00 20.00     0.008 C 
ENDBRANCH   6   7
BRANCH   6   9
HETATM    9  O11 UNL     1     -42.265  13.096   8.284  1.00 20.00    -0.390 OA
HETATM   10  H31 UNL     1     -41.997  12.282   7.831  1.00 20.00     0.210 HD
ENDBRANCH   6   9
BRANCH   5  11
HETATM   11  C9  UNL     1     -38.990  12.062   5.515  1.00 20.00     0.000 C 
HETATM   12  C7  UNL     1     -39.070  11.670   4.077  1.00 20.00     0.005 C 
ENDBRANCH   5  11
TORSDOF 3
ENDMDL
MODEL 5
REMARK VINA RESULT:      -3.9      9.621     10.495
REMARK  3 active torsions:
REMARK  status: ('A' for Active; 'I' for Inactive)
REMARK    1  A    between atoms: C5_5  and  C9_9 
REMARK    2  A    between atoms: C6_6  and  C10_10 
REMARK    3  A    between atoms: C6_6  and  O11_11 
ROOT
HETATM    1  C1  UNL     1     -43.135  13.424   6.995  1.00 20.00     0.003 C 
HETATM    2  C2  UNL     1     -42.505  14.432   7.952  1.00 20.00     0.005 C 
HETATM    3  C3  UNL     1     -42.155  12.312   6.621  1.00 20.00     0.038 C 
HETATM    4  C4  UNL     1     -40.216  13.910   7.010  1.00 20.00     0.042 C 
HETATM    5  C5  UNL     1     -41.210  15.023   7.382  1.00 20.00    -0.012 C 
HETATM    6  C6  UNL     1     -40.822  12.849   6.075  1.00 20.00     0.058 C 
ENDROOT
BRANCH   6   7
HETATM    7  C10 UNL     1     -39.838  11.702   5.841  1.00 20.00     0.033 C 
HETATM    8  C8  UNL     1     -39.240  11.761   4.475  1.00 20.00     0.008 C 
ENDBRANCH   6   7
BRANCH   6   9
HETATM    9  O11 UNL     1     -41.092  13.457   4.806  1.00 20.00    -0.390 OA
HETATM   10  H31 UNL     1     -41.255  14.395   4.987  1.00 20.00     0.210 HD
ENDBRANCH   6   9
BRANCH   5  11
HETATM   11  C9  UNL     1     -40.580  15.999   8.375  1.00 20.00     0.000 C 
HETATM   12  C7  UNL     1     -40.128  15.305   9.618  1.00 20.00     0.005 C 
ENDBRANCH   5  11
TORSDOF 3
ENDMDL
MODEL 6
REMARK VINA RESULT:      -3.8      1.986      3.969
REMARK  3 active torsions:
REMARK  status: ('A' for Active; 'I' for Inactive)
REMARK    1  A    between atoms: C5_5  and  C9_9 
REMARK    2  A    between atoms: C6_6  and  C10_10 
REMARK    3  A    between atoms: C6_6  and  O11_11 
ROOT
HETATM    1  C1  UNL     1     -32.865   8.908   5.104  1.00 20.00     0.003 C 
HETATM    2  C2  UNL     1     -33.894   7.813   5.365  1.00 20.00     0.005 C 
HETATM    3  C3  UNL     1     -32.619   9.107   3.608  1.00 20.00     0.038 C 
HETATM    4  C4  UNL     1     -33.254   6.680   3.196  1.00 20.00     0.042 C 
HETATM    5  C5  UNL     1     -33.496   6.488   4.703  1.00 20.00    -0.012 C 
HETATM    6  C6  UNL     1     -32.248   7.802   2.885  1.00 20.00     0.058 C 
ENDROOT
BRANCH   6   7
HETATM    7  C10 UNL     1     -32.143   8.037   1.377  1.00 20.00     0.033 C 
HETATM    8  C8  UNL     1     -32.751   9.341   0.981  1.00 20.00     0.008 C 
ENDBRANCH   6   7
BRANCH   6   9
HETATM    9  O11 UNL     1     -30.956   7.402   3.355  1.00 20.00    -0.390 OA
HETATM   10  H31 UNL     1     -31.079   7.126   4.275  1.00 20.00     0.210 HD
ENDBRANCH   6   9
BRANCH   5  11
HETATM   11  C9  UNL     1     -34.562   5.422   4.946  1.00 20.00     0.000 C 
HETATM   12  C7  UNL     1     -34.811   5.215   6.404  1.00 20.00     0.005 C 
ENDBRANCH   5  11
TORSDOF 3
ENDMDL
MODEL 7
REMARK VINA RESULT:      -3.8      9.892     11.193
REMARK  3 active torsions:
REMARK  status: ('A' for Active; 'I' for Inactive)
REMARK    1  A    between atoms: C5_5  and  C9_9 
REMARK    2  A    between atoms: C6_6  and  C10_10 
REMARK    3  A    between atoms: C6_6  and  O11_11 
ROOT
HETATM    1  C1  UNL     1     -42.897  13.045   7.964  1.00 20.00     0.003 C 
HETATM    2  C2  UNL     1     -42.332  12.683   6.593  1.00 20.00     0.005 C 
HETATM    3  C3  UNL     1     -42.444  14.435   8.412  1.00 20.00     0.038 C 
HETATM    4  C4  UNL     1     -40.340  14.185   7.007  1.00 20.00     0.042 C 
HETATM    5  C5  UNL     1     -40.803  12.787   6.564  1.00 20.00    -0.012 C 
HETATM    6  C6  UNL     1     -40.917  14.608   8.370  1.00 20.00     0.058 C 
ENDROOT
BRANCH   6   7
HETATM    7  C10 UNL     1     -40.531  16.050   8.702  1.00 20.00     0.033 C 
HETATM    8  C8  UNL     1     -40.722  16.952   7.528  1.00 20.00     0.008 C 
ENDBRANCH   6   7
BRANCH   6   9
HETATM    9  O11 UNL     1     -40.361  13.764   9.384  1.00 20.00    -0.390 OA
HETATM   10  H31 UNL     1     -39.562  13.373   9.000  1.00 20.00     0.210 HD
ENDBRANCH   6   9
BRANCH   5  11
HETATM   11  C9  UNL     1     -40.267  12.458   5.172  1.00 20.00     0.000 C 
HETATM   12  C7  UNL     1     -38.836  12.032   5.219  1.00 20.00     0.005 C 
ENDBRANCH   5  11
TORSDOF 3
ENDMDL
MODEL 8
REMARK VINA RESULT:      -3.8     12.468     13.954
REMARK  3 active torsions:
REMARK  status: ('A' for Active; 'I' for Inactive)
REMARK    1  A    between atoms: C5_5  and  C9_9 
REMARK    2  A    between atoms: C6_6  and  C10_10 
REMARK    3  A    between atoms: C6_6  and  O11_11 
ROOT
HETATM    1  C1  UNL     1     -33.688  14.505  -4.740  1.00 20.00     0.003 C 
HETATM    2  C2  UNL     1     -32.957  15.423  -3.765  1.00 20.00     0.005 C 
HETATM    3  C3  UNL     1     -34.229  15.277  -5.944  1.00 20.00     0.038 C 
HETATM    4  C4  UNL     1     -34.385  17.372  -4.513  1.00 20.00     0.042 C 
HETATM    5  C5  UNL     1     -33.843  16.587  -3.306  1.00 20.00    -0.012 C 
HETATM    6  C6  UNL     1     -35.099  16.479  -5.542  1.00 20.00     0.058 C 
ENDROOT
BRANCH   6   7
HETATM    7  C10 UNL     1     -35.502  17.285  -6.777  1.00 20.00     0.033 C 
HETATM    8  C8  UNL     1     -34.330  17.561  -7.659  1.00 20.00     0.008 C 
ENDBRANCH   6   7
BRANCH   6   9
HETATM    9  O11 UNL     1     -36.296  15.964  -4.948  1.00 20.00    -0.390 OA
HETATM   10  H31 UNL     1     -37.011  16.550  -5.233  1.00 20.00     0.210 HD
ENDBRANCH   6   9
BRANCH   5  11
HETATM   11  C9  UNL     1     -33.074  17.510  -2.363  1.00 20.00     0.000 C 
HETATM   12  C7  UNL     1     -33.696  17.553  -1.006  1.00 20.00     0.005 C 
ENDBRANCH   5  11
TORSDOF 3
ENDMDL
MODEL 9
REMARK VINA RESULT:      -3.8     12.713     13.682
REMARK  3 active torsions:
REMARK  status: ('A' for Active; 'I' for Inactive)
REMARK    1  A    between atoms: C5_5  and  C9_9 
REMARK    2  A    between atoms: C6_6  and  C10_10 
REMARK    3  A    between atoms: C6_6  and  O11_11 
ROOT
HETATM    1  C1  UNL     1     -35.299  19.263  -2.967  1.00 20.00     0.003 C 
HETATM    2  C2  UNL     1     -34.682  19.048  -1.588  1.00 20.00     0.005 C 
HETATM    3  C3  UNL     1     -35.355  17.963  -3.769  1.00 20.00     0.038 C 
HETATM    4  C4  UNL     1     -33.341  17.099  -2.481  1.00 20.00     0.042 C 
HETATM    5  C5  UNL     1     -33.290  18.411  -1.681  1.00 20.00    -0.012 C 
HETATM    6  C6  UNL     1     -33.990  17.261  -3.866  1.00 20.00     0.058 C 
ENDROOT
BRANCH   6   7
HETATM    7  C10 UNL     1     -34.132  15.908  -4.565  1.00 20.00     0.033 C 
HETATM    8  C8  UNL     1     -33.037  14.972  -4.175  1.00 20.00     0.008 C 
ENDBRANCH   6   7
BRANCH   6   9
HETATM    9  O11 UNL     1     -33.142  18.083  -4.677  1.00 20.00    -0.390 OA
HETATM   10  H31 UNL     1     -32.634  17.476  -5.235  1.00 20.00     0.210 HD
ENDBRANCH   6   9
BRANCH   5  11
HETATM   11  C9  UNL     1     -32.713  18.172  -0.288  1.00 20.00     0.000 C 
HETATM   12  C7  UNL     1     -31.267  18.539  -0.219  1.00 20.00     0.005 C 
ENDBRANCH   5  11
TORSDOF 3
ENDMDL
