MODEL 1
REMARK VINA RESULT:      -3.9      0.000      0.000
REMARK  3 active torsions:
REMARK  status: ('A' for Active; 'I' for Inactive)
REMARK    1  A    between atoms: C5_5  and  C9_9 
REMARK    2  A    between atoms: C6_6  and  C10_10 
REMARK    3  A    between atoms: C10_10  and  O11_11 
ROOT
HETATM    1  C1  UNL     1     -33.802  14.514  -4.788  1.00 20.00     0.001 C 
HETATM    2  C2  UNL     1     -33.119  15.466  -3.811  1.00 20.00     0.005 C 
HETATM    3  C3  UNL     1     -34.142  15.206  -6.106  1.00 20.00     0.007 C 
HETATM    4  C4  UNL     1     -34.286  17.425  -4.903  1.00 20.00     0.011 C 
HETATM    5  C5  UNL     1     -33.950  16.734  -3.572  1.00 20.00    -0.014 C 
HETATM    6  C6  UNL     1     -34.962  16.489  -5.918  1.00 20.00     0.014 C 
ENDROOT
BRANCH   6   7
HETATM    7  C10 UNL     1     -36.411  16.183  -5.530  1.00 20.00     0.118 C 
HETATM    8  C8  UNL     1     -37.173  17.448  -5.180  1.00 20.00     0.040 C 
BRANCH   7   9
HETATM    9  O11 UNL     1     -37.048  15.529  -6.619  1.00 20.00    -0.396 OA
HETATM   10  H31 UNL     1     -36.389  15.460  -7.329  1.00 20.00     0.210 HD
ENDBRANCH   7   9
ENDBRANCH   6   7
BRANCH   5  11
HETATM   11  C9  UNL     1     -33.209  17.694  -2.642  1.00 20.00     0.000 C 
HETATM   12  C7  UNL     1     -33.564  17.457  -1.211  1.00 20.00     0.005 C 
ENDBRANCH   5  11
TORSDOF 3
ENDMDL
MODEL 2
REMARK VINA RESULT:      -3.9     12.235     13.417
REMARK  3 active torsions:
REMARK  status: ('A' for Active; 'I' for Inactive)
REMARK    1  A    between atoms: C5_5  and  C9_9 
REMARK    2  A    between atoms: C6_6  and  C10_10 
REMARK    3  A    between atoms: C10_10  and  O11_11 
ROOT
HETATM    1  C1  UNL     1     -32.732   5.234   3.100  1.00 20.00     0.001 C 
HETATM    2  C2  UNL     1     -32.306   6.659   2.757  1.00 20.00     0.005 C 
HETATM    3  C3  UNL     1     -34.229   5.146   3.387  1.00 20.00     0.007 C 
HETATM    4  C4  UNL     1     -34.229   7.564   4.127  1.00 20.00     0.011 C 
HETATM    5  C5  UNL     1     -32.722   7.658   3.846  1.00 20.00    -0.014 C 
HETATM    6  C6  UNL     1     -34.696   6.138   4.462  1.00 20.00     0.014 C 
ENDROOT
BRANCH   6   7
HETATM    7  C10 UNL     1     -34.248   5.708   5.861  1.00 20.00     0.118 C 
HETATM    8  C8  UNL     1     -34.222   6.882   6.822  1.00 20.00     0.040 C 
BRANCH   7   9
HETATM    9  O11 UNL     1     -35.145   4.717   6.344  1.00 20.00    -0.396 OA
HETATM   10  H31 UNL     1     -34.608   3.941   6.574  1.00 20.00     0.210 HD
ENDBRANCH   7   9
ENDBRANCH   6   7
BRANCH   5  11
HETATM   11  C9  UNL     1     -32.339   9.082   3.442  1.00 20.00     0.000 C 
HETATM   12  C7  UNL     1     -32.754   9.385   2.040  1.00 20.00     0.005 C 
ENDBRANCH   5  11
TORSDOF 3
ENDMDL
MODEL 3
REMARK VINA RESULT:      -3.7      1.734      2.992
REMARK  3 active torsions:
REMARK  status: ('A' for Active; 'I' for Inactive)
REMARK    1  A    between atoms: C5_5  and  C9_9 
REMARK    2  A    between atoms: C6_6  and  C10_10 
REMARK    3  A    between atoms: C10_10  and  O11_11 
ROOT
HETATM    1  C1  UNL     1     -33.323  16.049  -3.176  1.00 20.00     0.001 C 
HETATM    2  C2  UNL     1     -33.436  17.380  -3.915  1.00 20.00     0.005 C 
HETATM    3  C3  UNL     1     -33.160  14.879  -4.142  1.00 20.00     0.007 C 
HETATM    4  C4  UNL     1     -34.389  16.182  -5.927  1.00 20.00     0.011 C 
HETATM    5  C5  UNL     1     -34.562  17.361  -4.957  1.00 20.00    -0.014 C 
HETATM    6  C6  UNL     1     -34.257  14.826  -5.214  1.00 20.00     0.014 C 
ENDROOT
BRANCH   6   7
HETATM    7  C10 UNL     1     -35.593  14.356  -4.634  1.00 20.00     0.118 C 
HETATM    8  C8  UNL     1     -36.760  14.785  -5.505  1.00 20.00     0.040 C 
BRANCH   7   9
HETATM    9  O11 UNL     1     -35.573  12.940  -4.526  1.00 20.00    -0.396 OA
HETATM   10  H31 UNL     1     -34.883  12.717  -3.881  1.00 20.00     0.210 HD
ENDBRANCH   7   9
ENDBRANCH   6   7
BRANCH   5  11
HETATM   11  C9  UNL     1     -34.606  18.683  -5.723  1.00 20.00     0.000 C 
HETATM   12  C7  UNL     1     -34.482  18.470  -7.195  1.00 20.00     0.005 C 
ENDBRANCH   5  11
TORSDOF 3
ENDMDL
MODEL 4
REMARK VINA RESULT:      -3.7     11.389     12.546
REMARK  3 active torsions:
REMARK  status: ('A' for Active; 'I' for Inactive)
REMARK    1  A    between atoms: C5_5  and  C9_9 
REMARK    2  A    between atoms: C6_6  and  C10_10 
REMARK    3  A    between atoms: C10_10  and  O11_11 
ROOT
HETATM    1  C1  UNL     1     -33.473   5.514   2.683  1.00 20.00     0.001 C 
HETATM    2  C2  UNL     1     -33.901   5.646   4.142  1.00 20.00     0.005 C 
HETATM    3  C3  UNL     1     -32.120   6.174   2.429  1.00 20.00     0.007 C 
HETATM    4  C4  UNL     1     -32.536   7.764   4.350  1.00 20.00     0.011 C 
HETATM    5  C5  UNL     1     -33.901   7.108   4.607  1.00 20.00    -0.014 C 
HETATM    6  C6  UNL     1     -32.067   7.636   2.892  1.00 20.00     0.014 C 
ENDROOT
BRANCH   6   7
HETATM    7  C10 UNL     1     -32.859   8.554   1.958  1.00 20.00     0.118 C 
HETATM    8  C8  UNL     1     -32.921   9.973   2.493  1.00 20.00     0.040 C 
BRANCH   7   9
HETATM    9  O11 UNL     1     -32.238   8.554   0.680  1.00 20.00    -0.396 OA
HETATM   10  H31 UNL     1     -32.867   8.962   0.063  1.00 20.00     0.210 HD
ENDBRANCH   7   9
ENDBRANCH   6   7
BRANCH   5  11
HETATM   11  C9  UNL     1     -34.270   7.200   6.088  1.00 20.00     0.000 C 
HETATM   12  C7  UNL     1     -34.603   5.860   6.655  1.00 20.00     0.005 C 
ENDBRANCH   5  11
TORSDOF 3
ENDMDL
MODEL 5
REMARK VINA RESULT:      -3.6     12.224     13.906
REMARK  3 active torsions:
REMARK  status: ('A' for Active; 'I' for Inactive)
REMARK    1  A    between atoms: C5_5  and  C9_9 
REMARK    2  A    between atoms: C6_6  and  C10_10 
REMARK    3  A    between atoms: C10_10  and  O11_11 
ROOT
HETATM    1  C1  UNL     1     -42.313  14.255   5.354  1.00 20.00     0.001 C 
HETATM    2  C2  UNL     1     -41.178  13.287   5.029  1.00 20.00     0.005 C 
HETATM    3  C3  UNL     1     -41.865  15.345   6.324  1.00 20.00     0.007 C 
HETATM    4  C4  UNL     1     -40.113  13.785   7.268  1.00 20.00     0.011 C 
HETATM    5  C5  UNL     1     -40.563  12.681   6.298  1.00 20.00    -0.014 C 
HETATM    6  C6  UNL     1     -41.229  14.787   7.605  1.00 20.00     0.014 C 
ENDROOT
BRANCH   6   7
HETATM    7  C10 UNL     1     -42.278  14.177   8.538  1.00 20.00     0.118 C 
HETATM    8  C8  UNL     1     -41.737  14.005   9.946  1.00 20.00     0.040 C 
BRANCH   7   9
HETATM    9  O11 UNL     1     -43.416  15.026   8.565  1.00 20.00    -0.396 OA
HETATM   10  H31 UNL     1     -43.906  14.813   9.375  1.00 20.00     0.210 HD
ENDBRANCH   7   9
ENDBRANCH   6   7
BRANCH   5  11
HETATM   11  C9  UNL     1     -39.389  11.769   5.942  1.00 20.00     0.000 C 
HETATM   12  C7  UNL     1     -39.127  11.759   4.472  1.00 20.00     0.005 C 
ENDBRANCH   5  11
TORSDOF 3
ENDMDL
MODEL 6
REMARK VINA RESULT:      -3.4      1.979      3.484
REMARK  3 active torsions:
REMARK  status: ('A' for Active; 'I' for Inactive)
REMARK    1  A    between atoms: C5_5  and  C9_9 
REMARK    2  A    between atoms: C6_6  and  C10_10 
REMARK    3  A    between atoms: C10_10  and  O11_11 
ROOT
HETATM    1  C1  UNL     1     -34.294  16.218  -7.680  1.00 20.00     0.001 C 
HETATM    2  C2  UNL     1     -34.891  17.589  -7.373  1.00 20.00     0.005 C 
HETATM    3  C3  UNL     1     -34.957  15.117  -6.856  1.00 20.00     0.007 C 
HETATM    4  C4  UNL     1     -35.511  16.799  -5.052  1.00 20.00     0.011 C 
HETATM    5  C5  UNL     1     -34.841  17.911  -5.874  1.00 20.00    -0.014 C 
HETATM    6  C6  UNL     1     -34.943  15.401  -5.348  1.00 20.00     0.014 C 
ENDROOT
BRANCH   6   7
HETATM    7  C10 UNL     1     -33.546  15.218  -4.750  1.00 20.00     0.118 C 
HETATM    8  C8  UNL     1     -33.446  15.839  -3.369  1.00 20.00     0.040 C 
BRANCH   7   9
HETATM    9  O11 UNL     1     -33.262  13.828  -4.669  1.00 20.00    -0.396 OA
HETATM   10  H31 UNL     1     -32.700  13.702  -3.887  1.00 20.00     0.210 HD
ENDBRANCH   7   9
ENDBRANCH   6   7
BRANCH   5  11
HETATM   11  C9  UNL     1     -35.504  19.260  -5.593  1.00 20.00     0.000 C 
HETATM   12  C7  UNL     1     -36.533  19.152  -4.516  1.00 20.00     0.005 C 
ENDBRANCH   5  11
TORSDOF 3
ENDMDL
MODEL 7
REMARK VINA RESULT:      -3.4      1.192      2.597
REMARK  3 active torsions:
REMARK  status: ('A' for Active; 'I' for Inactive)
REMARK    1  A    between atoms: C5_5  and  C9_9 
REMARK    2  A    between atoms: C6_6  and  C10_10 
REMARK    3  A    between atoms: C10_10  and  O11_11 
ROOT
HETATM    1  C1  UNL     1     -36.122  17.759  -5.116  1.00 20.00     0.001 C 
HETATM    2  C2  UNL     1     -35.030  17.590  -4.063  1.00 20.00     0.005 C 
HETATM    3  C3  UNL     1     -36.889  16.459  -5.347  1.00 20.00     0.007 C 
HETATM    4  C4  UNL     1     -34.857  15.134  -4.637  1.00 20.00     0.011 C 
HETATM    5  C5  UNL     1     -34.077  16.438  -4.408  1.00 20.00    -0.014 C 
HETATM    6  C6  UNL     1     -35.976  15.273  -5.682  1.00 20.00     0.014 C 
ENDROOT
BRANCH   6   7
HETATM    7  C10 UNL     1     -35.417  15.372  -7.103  1.00 20.00     0.118 C 
HETATM    8  C8  UNL     1     -33.915  15.151  -7.127  1.00 20.00     0.040 C 
BRANCH   7   9
HETATM    9  O11 UNL     1     -36.055  14.397  -7.916  1.00 20.00    -0.396 OA
HETATM   10  H31 UNL     1     -36.108  14.769  -8.811  1.00 20.00     0.210 HD
ENDBRANCH   7   9
ENDBRANCH   6   7
BRANCH   5  11
HETATM   11  C9  UNL     1     -33.036  16.254  -3.303  1.00 20.00     0.000 C 
HETATM   12  C7  UNL     1     -33.414  16.995  -2.064  1.00 20.00     0.005 C 
ENDBRANCH   5  11
TORSDOF 3
ENDMDL
MODEL 8
REMARK VINA RESULT:      -3.4      1.816      3.327
REMARK  3 active torsions:
REMARK  status: ('A' for Active; 'I' for Inactive)
REMARK    1  A    between atoms: C5_5  and  C9_9 
REMARK    2  A    between atoms: C6_6  and  C10_10 
REMARK    3  A    between atoms: C10_10  and  O11_11 
ROOT
HETATM    1  C1  UNL     1     -33.675  16.896  -2.225  1.00 20.00     0.001 C 
HETATM    2  C2  UNL     1     -34.518  18.097  -2.641  1.00 20.00     0.005 C 
HETATM    3  C3  UNL     1     -32.803  16.393  -3.372  1.00 20.00     0.007 C 
HETATM    4  C4  UNL     1     -34.477  17.294  -5.039  1.00 20.00     0.011 C 
HETATM    5  C5  UNL     1     -35.362  17.798  -3.888  1.00 20.00    -0.014 C 
HETATM    6  C6  UNL     1     -33.601  16.093  -4.648  1.00 20.00     0.014 C 
ENDROOT
BRANCH   6   7
HETATM    7  C10 UNL     1     -34.426  14.810  -4.512  1.00 20.00     0.118 C 
HETATM    8  C8  UNL     1     -35.472  14.702  -5.606  1.00 20.00     0.040 C 
BRANCH   7   9
HETATM    9  O11 UNL     1     -33.550  13.694  -4.579  1.00 20.00    -0.396 OA
HETATM   10  H31 UNL     1     -33.949  13.061  -5.198  1.00 20.00     0.210 HD
ENDBRANCH   7   9
ENDBRANCH   6   7
BRANCH   5  11
HETATM   11  C9  UNL     1     -36.143  19.040  -4.317  1.00 20.00     0.000 C 
HETATM   12  C7  UNL     1     -37.327  18.683  -5.153  1.00 20.00     0.005 C 
ENDBRANCH   5  11
TORSDOF 3
ENDMDL
MODEL 9
REMARK VINA RESULT:      -3.3      1.313      2.713
REMARK  3 active torsions:
REMARK  status: ('A' for Active; 'I' for Inactive)
REMARK    1  A    between atoms: C5_5  and  C9_9 
REMARK    2  A    between atoms: C6_6  and  C10_10 
REMARK    3  A    between atoms: C10_10  and  O11_11 
ROOT
HETATM    1  C1  UNL     1     -34.055  18.568  -5.975  1.00 20.00     0.001 C 
HETATM    2  C2  UNL     1     -33.572  19.071  -4.617  1.00 20.00     0.005 C 
HETATM    3  C3  UNL     1     -35.233  17.607  -5.834  1.00 20.00     0.007 C 
HETATM    4  C4  UNL     1     -34.424  16.954  -3.529  1.00 20.00     0.011 C 
HETATM    5  C5  UNL     1     -33.233  17.915  -3.666  1.00 20.00    -0.014 C 
HETATM    6  C6  UNL     1     -34.946  16.439  -4.880  1.00 20.00     0.014 C 
ENDROOT
BRANCH   6   7
HETATM    7  C10 UNL     1     -33.992  15.418  -5.506  1.00 20.00     0.118 C 
HETATM    8  C8  UNL     1     -33.408  14.488  -4.458  1.00 20.00     0.040 C 
BRANCH   7   9
HETATM    9  O11 UNL     1     -34.704  14.659  -6.473  1.00 20.00    -0.396 OA
HETATM   10  H31 UNL     1     -34.995  13.845  -6.032  1.00 20.00     0.210 HD
ENDBRANCH   7   9
ENDBRANCH   6   7
BRANCH   5  11
HETATM   11  C9  UNL     1     -32.817  18.452  -2.297  1.00 20.00     0.000 C 
HETATM   12  C7  UNL     1     -33.441  17.671  -1.188  1.00 20.00     0.005 C 
ENDBRANCH   5  11
TORSDOF 3
ENDMDL
