MODEL 1
REMARK VINA RESULT:      -4.5      0.000      0.000
REMARK  2 active torsions:
REMARK  status: ('A' for Active; 'I' for Inactive)
REMARK    1  A    between atoms: C8_8  and  C12_12 
REMARK    2  A    between atoms: C11_11  and  N13_13 
ROOT
HETATM    1  C1  UNL     1     -31.060  18.432   1.029  1.00 20.00     0.013 C 
HETATM    2  C2  UNL     1     -32.224  18.638   0.820  1.00 20.00    -0.087 C 
HETATM    3  C11 UNL     1     -33.645  18.893   0.570  1.00 20.00     0.364 C 
ENDROOT
BRANCH   3   4
HETATM    4  N13 UNL     1     -34.076  18.243  -0.672  1.00 20.00     0.099 N 
HETATM    5  C6  UNL     1     -34.912  19.172  -1.444  1.00 20.00     0.273 C 
HETATM    6  C3  UNL     1     -35.511  18.609  -2.736  1.00 20.00     0.031 C 
HETATM    7  C4  UNL     1     -34.482  18.455  -3.852  1.00 20.00     0.007 C 
HETATM    8  C8  UNL     1     -33.671  17.154  -3.814  1.00 20.00    -0.010 C 
HETATM    9  C5  UNL     1     -33.295  16.651  -2.413  1.00 20.00     0.035 C 
HETATM   10  C7  UNL     1     -32.909  17.736  -1.407  1.00 20.00     0.274 C 
BRANCH   8  11
HETATM   11  C12 UNL     1     -34.390  16.038  -4.581  1.00 20.00    -0.019 C 
HETATM   12  C9  UNL     1     -34.553  16.423  -6.047  1.00 20.00     0.010 C 
HETATM   13  C10 UNL     1     -33.627  14.726  -4.446  1.00 20.00     0.010 C 
ENDBRANCH   8  11
ENDBRANCH   3   4
TORSDOF 2
ENDMDL
MODEL 2
REMARK VINA RESULT:      -4.4      1.654      5.155
REMARK  2 active torsions:
REMARK  status: ('A' for Active; 'I' for Inactive)
REMARK    1  A    between atoms: C8_8  and  C12_12 
REMARK    2  A    between atoms: C11_11  and  N13_13 
ROOT
HETATM    1  C1  UNL     1     -35.934  14.013  -4.916  1.00 20.00     0.013 C 
HETATM    2  C2  UNL     1     -35.135  14.847  -5.244  1.00 20.00    -0.087 C 
HETATM    3  C11 UNL     1     -34.160  15.862  -5.651  1.00 20.00     0.364 C 
ENDROOT
BRANCH   3   4
HETATM    4  N13 UNL     1     -33.911  16.807  -4.557  1.00 20.00     0.099 N 
HETATM    5  C6  UNL     1     -34.974  17.820  -4.537  1.00 20.00     0.273 C 
HETATM    6  C3  UNL     1     -34.811  18.932  -3.497  1.00 20.00     0.031 C 
HETATM    7  C4  UNL     1     -35.097  18.463  -2.073  1.00 20.00     0.007 C 
HETATM    8  C8  UNL     1     -33.914  17.798  -1.358  1.00 20.00    -0.010 C 
HETATM    9  C5  UNL     1     -33.019  16.918  -2.241  1.00 20.00     0.035 C 
HETATM   10  C7  UNL     1     -33.751  16.081  -3.291  1.00 20.00     0.274 C 
BRANCH   8  11
HETATM   11  C12 UNL     1     -33.052  18.842  -0.639  1.00 20.00    -0.019 C 
HETATM   12  C9  UNL     1     -33.530  19.026   0.798  1.00 20.00     0.010 C 
HETATM   13  C10 UNL     1     -31.584  18.433  -0.674  1.00 20.00     0.010 C 
ENDBRANCH   8  11
ENDBRANCH   3   4
TORSDOF 2
ENDMDL
MODEL 3
REMARK VINA RESULT:      -4.3      1.348      2.848
REMARK  2 active torsions:
REMARK  status: ('A' for Active; 'I' for Inactive)
REMARK    1  A    between atoms: C8_8  and  C12_12 
REMARK    2  A    between atoms: C11_11  and  N13_13 
ROOT
HETATM    1  C1  UNL     1     -31.307  18.496  -0.384  1.00 20.00     0.013 C 
HETATM    2  C2  UNL     1     -32.398  18.496  -0.887  1.00 20.00    -0.087 C 
HETATM    3  C11 UNL     1     -33.730  18.500  -1.497  1.00 20.00     0.364 C 
ENDROOT
BRANCH   3   4
HETATM    4  N13 UNL     1     -33.702  17.838  -2.806  1.00 20.00     0.099 N 
HETATM    5  C6  UNL     1     -33.327  16.430  -2.632  1.00 20.00     0.273 C 
HETATM    6  C3  UNL     1     -33.174  15.620  -3.923  1.00 20.00     0.031 C 
HETATM    7  C4  UNL     1     -34.511  15.284  -4.578  1.00 20.00     0.007 C 
HETATM    8  C8  UNL     1     -35.084  16.379  -5.485  1.00 20.00    -0.010 C 
HETATM    9  C5  UNL     1     -34.858  17.820  -5.006  1.00 20.00     0.035 C 
HETATM   10  C7  UNL     1     -34.983  18.037  -3.497  1.00 20.00     0.274 C 
BRANCH   8  11
HETATM   11  C12 UNL     1     -34.560  16.232  -6.919  1.00 20.00    -0.019 C 
HETATM   12  C9  UNL     1     -35.560  15.457  -7.771  1.00 20.00     0.010 C 
HETATM   13  C10 UNL     1     -34.278  17.602  -7.524  1.00 20.00     0.010 C 
ENDBRANCH   8  11
ENDBRANCH   3   4
TORSDOF 2
ENDMDL
MODEL 4
REMARK VINA RESULT:      -4.3     10.729     12.724
REMARK  2 active torsions:
REMARK  status: ('A' for Active; 'I' for Inactive)
REMARK    1  A    between atoms: C8_8  and  C12_12 
REMARK    2  A    between atoms: C11_11  and  N13_13 
ROOT
HETATM    1  C1  UNL     1     -38.972  11.687   3.835  1.00 20.00     0.013 C 
HETATM    2  C2  UNL     1     -39.353  11.935   4.946  1.00 20.00    -0.087 C 
HETATM    3  C11 UNL     1     -39.814  12.233   6.304  1.00 20.00     0.364 C 
ENDROOT
BRANCH   3   4
HETATM    4  N13 UNL     1     -40.350  13.597   6.381  1.00 20.00     0.099 N 
HETATM    5  C6  UNL     1     -41.640  13.654   5.682  1.00 20.00     0.273 C 
HETATM    6  C3  UNL     1     -42.291  15.037   5.603  1.00 20.00     0.031 C 
HETATM    7  C4  UNL     1     -42.883  15.494   6.934  1.00 20.00     0.007 C 
HETATM    8  C8  UNL     1     -41.889  16.159   7.893  1.00 20.00    -0.010 C 
HETATM    9  C5  UNL     1     -40.476  15.559   7.901  1.00 20.00     0.035 C 
HETATM   10  C7  UNL     1     -40.409  14.035   7.782  1.00 20.00     0.274 C 
BRANCH   8  11
HETATM   11  C12 UNL     1     -41.800  17.667   7.631  1.00 20.00    -0.019 C 
HETATM   12  C9  UNL     1     -42.056  18.444   8.919  1.00 20.00     0.010 C 
HETATM   13  C10 UNL     1     -40.441  18.024   7.043  1.00 20.00     0.010 C 
ENDBRANCH   8  11
ENDBRANCH   3   4
TORSDOF 2
ENDMDL
MODEL 5
REMARK VINA RESULT:      -4.2      1.395      2.112
REMARK  2 active torsions:
REMARK  status: ('A' for Active; 'I' for Inactive)
REMARK    1  A    between atoms: C8_8  and  C12_12 
REMARK    2  A    between atoms: C11_11  and  N13_13 
ROOT
HETATM    1  C1  UNL     1     -33.949  18.691   0.801  1.00 20.00     0.013 C 
HETATM    2  C2  UNL     1     -33.391  18.268  -0.175  1.00 20.00    -0.087 C 
HETATM    3  C11 UNL     1     -32.705  17.752  -1.362  1.00 20.00     0.364 C 
ENDROOT
BRANCH   3   4
HETATM    4  N13 UNL     1     -33.674  17.286  -2.359  1.00 20.00     0.099 N 
HETATM    5  C6  UNL     1     -34.353  18.443  -2.956  1.00 20.00     0.273 C 
HETATM    6  C3  UNL     1     -35.460  18.116  -3.963  1.00 20.00     0.031 C 
HETATM    7  C4  UNL     1     -34.920  17.619  -5.302  1.00 20.00     0.007 C 
HETATM    8  C8  UNL     1     -34.602  16.120  -5.359  1.00 20.00    -0.010 C 
HETATM    9  C5  UNL     1     -34.010  15.520  -4.075  1.00 20.00     0.035 C 
HETATM   10  C7  UNL     1     -33.011  16.411  -3.335  1.00 20.00     0.274 C 
BRANCH   8  11
HETATM   11  C12 UNL     1     -35.839  15.314  -5.773  1.00 20.00    -0.019 C 
HETATM   12  C9  UNL     1     -35.844  15.091  -7.282  1.00 20.00     0.010 C 
HETATM   13  C10 UNL     1     -35.880  13.985  -5.028  1.00 20.00     0.010 C 
ENDBRANCH   8  11
ENDBRANCH   3   4
TORSDOF 2
ENDMDL
MODEL 6
REMARK VINA RESULT:      -4.2      2.299      5.834
REMARK  2 active torsions:
REMARK  status: ('A' for Active; 'I' for Inactive)
REMARK    1  A    between atoms: C8_8  and  C12_12 
REMARK    2  A    between atoms: C11_11  and  N13_13 
ROOT
HETATM    1  C1  UNL     1     -38.672  17.374  -6.447  1.00 20.00     0.013 C 
HETATM    2  C2  UNL     1     -37.622  16.793  -6.481  1.00 20.00    -0.087 C 
HETATM    3  C11 UNL     1     -36.341  16.083  -6.528  1.00 20.00     0.364 C 
ENDROOT
BRANCH   3   4
HETATM    4  N13 UNL     1     -35.641  16.192  -5.244  1.00 20.00     0.099 N 
HETATM    5  C6  UNL     1     -34.770  15.024  -5.063  1.00 20.00     0.273 C 
HETATM    6  C3  UNL     1     -34.028  14.951  -3.725  1.00 20.00     0.031 C 
HETATM    7  C4  UNL     1     -32.876  15.947  -3.626  1.00 20.00     0.007 C 
HETATM    8  C8  UNL     1     -33.275  17.359  -3.181  1.00 20.00    -0.010 C 
HETATM    9  C5  UNL     1     -34.622  17.866  -3.716  1.00 20.00     0.035 C 
HETATM   10  C7  UNL     1     -34.941  17.481  -5.161  1.00 20.00     0.274 C 
BRANCH   8  11
HETATM   11  C12 UNL     1     -33.257  17.476  -1.652  1.00 20.00    -0.019 C 
HETATM   12  C9  UNL     1     -31.991  18.190  -1.190  1.00 20.00     0.010 C 
HETATM   13  C10 UNL     1     -34.502  18.208  -1.162  1.00 20.00     0.010 C 
ENDBRANCH   8  11
ENDBRANCH   3   4
TORSDOF 2
ENDMDL
MODEL 7
REMARK VINA RESULT:      -4.0      1.814      5.544
REMARK  2 active torsions:
REMARK  status: ('A' for Active; 'I' for Inactive)
REMARK    1  A    between atoms: C8_8  and  C12_12 
REMARK    2  A    between atoms: C11_11  and  N13_13 
ROOT
HETATM    1  C1  UNL     1     -38.454  17.897  -5.023  1.00 20.00     0.013 C 
HETATM    2  C2  UNL     1     -37.253  17.899  -5.059  1.00 20.00    -0.087 C 
HETATM    3  C11 UNL     1     -35.789  17.904  -5.109  1.00 20.00     0.364 C 
ENDROOT
BRANCH   3   4
HETATM    4  N13 UNL     1     -35.225  17.752  -3.764  1.00 20.00     0.099 N 
HETATM    5  C6  UNL     1     -33.980  16.978  -3.842  1.00 20.00     0.273 C 
HETATM    6  C3  UNL     1     -33.309  16.663  -2.502  1.00 20.00     0.031 C 
HETATM    7  C4  UNL     1     -32.628  17.877  -1.876  1.00 20.00     0.007 C 
HETATM    8  C8  UNL     1     -33.549  18.787  -1.054  1.00 20.00    -0.010 C 
HETATM    9  C5  UNL     1     -34.970  18.963  -1.609  1.00 20.00     0.035 C 
HETATM   10  C7  UNL     1     -35.073  19.069  -3.131  1.00 20.00     0.274 C 
BRANCH   8  11
HETATM   11  C12 UNL     1     -33.626  18.315   0.403  1.00 20.00    -0.019 C 
HETATM   12  C9  UNL     1     -32.285  18.524   1.098  1.00 20.00     0.010 C 
HETATM   13  C10 UNL     1     -34.740  19.050   1.140  1.00 20.00     0.010 C 
ENDBRANCH   8  11
ENDBRANCH   3   4
TORSDOF 2
ENDMDL
MODEL 8
REMARK VINA RESULT:      -3.9     12.017     13.247
REMARK  2 active torsions:
REMARK  status: ('A' for Active; 'I' for Inactive)
REMARK    1  A    between atoms: C8_8  and  C12_12 
REMARK    2  A    between atoms: C11_11  and  N13_13 
ROOT
HETATM    1  C1  UNL     1     -40.885  16.284  11.477  1.00 20.00     0.013 C 
HETATM    2  C2  UNL     1     -41.743  15.857  10.754  1.00 20.00    -0.087 C 
HETATM    3  C11 UNL     1     -42.794  15.340   9.873  1.00 20.00     0.364 C 
ENDROOT
BRANCH   3   4
HETATM    4  N13 UNL     1     -42.247  14.347   8.942  1.00 20.00     0.099 N 
HETATM    5  C6  UNL     1     -43.345  13.728   8.190  1.00 20.00     0.273 C 
HETATM    6  C3  UNL     1     -42.941  12.606   7.229  1.00 20.00     0.031 C 
HETATM    7  C4  UNL     1     -42.240  13.119   5.974  1.00 20.00     0.007 C 
HETATM    8  C8  UNL     1     -40.733  13.358   6.123  1.00 20.00    -0.010 C 
HETATM    9  C5  UNL     1     -40.284  13.920   7.479  1.00 20.00     0.035 C 
HETATM   10  C7  UNL     1     -41.214  14.964   8.098  1.00 20.00     0.274 C 
BRANCH   8  11
HETATM   11  C12 UNL     1     -39.942  12.081   5.813  1.00 20.00    -0.019 C 
HETATM   12  C9  UNL     1     -39.622  12.005   4.324  1.00 20.00     0.010 C 
HETATM   13  C10 UNL     1     -38.666  12.033   6.646  1.00 20.00     0.010 C 
ENDBRANCH   8  11
ENDBRANCH   3   4
TORSDOF 2
ENDMDL
MODEL 9
REMARK VINA RESULT:      -3.9     11.887     14.155
REMARK  2 active torsions:
REMARK  status: ('A' for Active; 'I' for Inactive)
REMARK    1  A    between atoms: C8_8  and  C12_12 
REMARK    2  A    between atoms: C11_11  and  N13_13 
ROOT
HETATM    1  C1  UNL     1     -39.497  11.763   5.680  1.00 20.00     0.013 C 
HETATM    2  C2  UNL     1     -40.331  12.617   5.557  1.00 20.00    -0.087 C 
HETATM    3  C11 UNL     1     -41.351  13.657   5.401  1.00 20.00     0.364 C 
ENDROOT
BRANCH   3   4
HETATM    4  N13 UNL     1     -41.636  14.300   6.688  1.00 20.00     0.099 N 
HETATM    5  C6  UNL     1     -42.310  13.342   7.573  1.00 20.00     0.273 C 
HETATM    6  C3  UNL     1     -42.748  13.891   8.935  1.00 20.00     0.031 C 
HETATM    7  C4  UNL     1     -41.581  14.106   9.894  1.00 20.00     0.007 C 
HETATM    8  C8  UNL     1     -40.847  15.443   9.737  1.00 20.00    -0.010 C 
HETATM    9  C5  UNL     1     -40.695  15.947   8.294  1.00 20.00     0.035 C 
HETATM   10  C7  UNL     1     -40.403  14.870   7.249  1.00 20.00     0.274 C 
BRANCH   8  11
HETATM   11  C12 UNL     1     -41.504  16.533  10.591  1.00 20.00    -0.019 C 
HETATM   12  C9  UNL     1     -40.790  16.657  11.933  1.00 20.00     0.010 C 
HETATM   13  C10 UNL     1     -41.499  17.864   9.849  1.00 20.00     0.010 C 
ENDBRANCH   8  11
ENDBRANCH   3   4
TORSDOF 2
ENDMDL
