MODEL 1
REMARK VINA RESULT:      -4.7      0.000      0.000
REMARK  3 active torsions:
REMARK  status: ('A' for Active; 'I' for Inactive)
REMARK    1  A    between atoms: C5_5  and  C8_8 
REMARK    2  A    between atoms: C6_6  and  C9_9 
REMARK    3  A    between atoms: C9_9  and  C10_10 
ROOT
HETATM    1  C1  UNL     1     -33.196   5.952   2.674  1.00 20.00     0.001 C 
HETATM    2  C2  UNL     1     -33.626   5.736   4.123  1.00 20.00     0.005 C 
HETATM    3  C3  UNL     1     -32.005   6.902   2.575  1.00 20.00     0.005 C 
HETATM    4  C4  UNL     1     -32.710   8.011   4.736  1.00 20.00     0.009 C 
HETATM    5  C5  UNL     1     -33.914   7.060   4.838  1.00 20.00    -0.014 C 
HETATM    6  C6  UNL     1     -32.241   8.239   3.290  1.00 20.00    -0.013 C 
ENDROOT
BRANCH   6   7
HETATM    7  C9  UNL     1     -33.212   9.133   2.514  1.00 20.00     0.020 C 
BRANCH   7   8
HETATM    8  C10 UNL     1     -32.600   9.726   1.254  1.00 20.00     0.115 C 
HETATM    9 CL11 UNL     1     -33.035   8.799  -0.201  1.00 20.00    -0.130 Cl
ENDBRANCH   7   8
ENDBRANCH   6   7
BRANCH   5  10
HETATM   10  C8  UNL     1     -34.276   6.812   6.303  1.00 20.00     0.000 C 
HETATM   11  C7  UNL     1     -34.617   5.379   6.551  1.00 20.00     0.005 C 
ENDBRANCH   5  10
TORSDOF 3
ENDMDL
MODEL 2
REMARK VINA RESULT:      -3.9     11.197     12.211
REMARK  3 active torsions:
REMARK  status: ('A' for Active; 'I' for Inactive)
REMARK    1  A    between atoms: C5_5  and  C8_8 
REMARK    2  A    between atoms: C6_6  and  C9_9 
REMARK    3  A    between atoms: C9_9  and  C10_10 
ROOT
HETATM    1  C1  UNL     1     -33.376  18.812  -4.110  1.00 20.00     0.001 C 
HETATM    2  C2  UNL     1     -32.750  19.229  -2.782  1.00 20.00     0.005 C 
HETATM    3  C3  UNL     1     -34.534  17.837  -3.907  1.00 20.00     0.005 C 
HETATM    4  C4  UNL     1     -33.483  17.042  -1.748  1.00 20.00     0.009 C 
HETATM    5  C5  UNL     1     -32.313  18.018  -1.951  1.00 20.00    -0.014 C 
HETATM    6  C6  UNL     1     -34.147  16.612  -3.066  1.00 20.00    -0.013 C 
ENDROOT
BRANCH   6   7
HETATM    7  C9  UNL     1     -33.267  15.639  -3.854  1.00 20.00     0.020 C 
BRANCH   7   8
HETATM    8  C10 UNL     1     -34.064  14.703  -4.749  1.00 20.00     0.115 C 
HETATM    9 CL11 UNL     1     -33.847  15.078  -6.474  1.00 20.00    -0.130 Cl
ENDBRANCH   7   8
ENDBRANCH   6   7
BRANCH   5  10
HETATM   10  C8  UNL     1     -31.752  18.467  -0.601  1.00 20.00     0.000 C 
HETATM   11  C7  UNL     1     -32.764  18.334   0.488  1.00 20.00     0.005 C 
ENDBRANCH   5  10
TORSDOF 3
ENDMDL
MODEL 3
REMARK VINA RESULT:      -3.8     11.392     12.550
REMARK  3 active torsions:
REMARK  status: ('A' for Active; 'I' for Inactive)
REMARK    1  A    between atoms: C5_5  and  C8_8 
REMARK    2  A    between atoms: C6_6  and  C9_9 
REMARK    3  A    between atoms: C9_9  and  C10_10 
ROOT
HETATM    1  C1  UNL     1     -34.561  18.581  -4.205  1.00 20.00     0.001 C 
HETATM    2  C2  UNL     1     -34.660  17.306  -5.039  1.00 20.00     0.005 C 
HETATM    3  C3  UNL     1     -33.221  18.678  -3.479  1.00 20.00     0.005 C 
HETATM    4  C4  UNL     1     -33.044  16.154  -3.474  1.00 20.00     0.009 C 
HETATM    5  C5  UNL     1     -34.395  16.051  -4.200  1.00 20.00    -0.014 C 
HETATM    6  C6  UNL     1     -32.904  17.435  -2.635  1.00 20.00    -0.013 C 
ENDROOT
BRANCH   6   7
HETATM    7  C9  UNL     1     -33.758  17.379  -1.366  1.00 20.00     0.020 C 
BRANCH   7   8
HETATM    8  C10 UNL     1     -33.207  18.234  -0.237  1.00 20.00     0.115 C 
HETATM    9 CL11 UNL     1     -31.439  18.403  -0.324  1.00 20.00    -0.130 Cl
ENDBRANCH   7   8
ENDBRANCH   6   7
BRANCH   5  10
HETATM   10  C8  UNL     1     -34.436  14.800  -5.077  1.00 20.00     0.000 C 
HETATM   11  C7  UNL     1     -34.080  15.109  -6.494  1.00 20.00     0.005 C 
ENDBRANCH   5  10
TORSDOF 3
ENDMDL
MODEL 4
REMARK VINA RESULT:      -3.7     10.283     11.411
REMARK  3 active torsions:
REMARK  status: ('A' for Active; 'I' for Inactive)
REMARK    1  A    between atoms: C5_5  and  C8_8 
REMARK    2  A    between atoms: C6_6  and  C9_9 
REMARK    3  A    between atoms: C9_9  and  C10_10 
ROOT
HETATM    1  C1  UNL     1     -42.339  14.198   5.259  1.00 20.00     0.001 C 
HETATM    2  C2  UNL     1     -41.147  13.312   4.909  1.00 20.00     0.005 C 
HETATM    3  C3  UNL     1     -41.993  15.204   6.354  1.00 20.00     0.005 C 
HETATM    4  C4  UNL     1     -40.227  13.626   7.243  1.00 20.00     0.009 C 
HETATM    5  C5  UNL     1     -40.575  12.608   6.146  1.00 20.00    -0.014 C 
HETATM    6  C6  UNL     1     -41.403  14.546   7.609  1.00 20.00    -0.013 C 
ENDROOT
BRANCH   6   7
HETATM    7  C9  UNL     1     -42.472  13.806   8.417  1.00 20.00     0.020 C 
BRANCH   7   8
HETATM    8  C10 UNL     1     -42.550  14.263   9.865  1.00 20.00     0.115 C 
HETATM    9 CL11 UNL     1     -41.004  14.051  10.719  1.00 20.00    -0.130 Cl
ENDBRANCH   7   8
ENDBRANCH   6   7
BRANCH   5  10
HETATM   10  C8  UNL     1     -39.344  11.782   5.772  1.00 20.00     0.000 C 
HETATM   11  C7  UNL     1     -39.144  11.728   4.294  1.00 20.00     0.005 C 
ENDBRANCH   5  10
TORSDOF 3
ENDMDL
MODEL 5
REMARK VINA RESULT:      -3.5     10.309     11.270
REMARK  3 active torsions:
REMARK  status: ('A' for Active; 'I' for Inactive)
REMARK    1  A    between atoms: C5_5  and  C8_8 
REMARK    2  A    between atoms: C6_6  and  C9_9 
REMARK    3  A    between atoms: C9_9  and  C10_10 
ROOT
HETATM    1  C1  UNL     1     -42.925  15.262   5.708  1.00 20.00     0.001 C 
HETATM    2  C2  UNL     1     -42.345  15.991   6.917  1.00 20.00     0.005 C 
HETATM    3  C3  UNL     1     -43.028  13.758   5.952  1.00 20.00     0.005 C 
HETATM    4  C4  UNL     1     -41.104  13.894   7.589  1.00 20.00     0.009 C 
HETATM    5  C5  UNL     1     -40.994  15.407   7.343  1.00 20.00    -0.014 C 
HETATM    6  C6  UNL     1     -41.699  13.129   6.396  1.00 20.00    -0.013 C 
ENDROOT
BRANCH   6   7
HETATM    7  C9  UNL     1     -40.706  13.026   5.235  1.00 20.00     0.020 C 
BRANCH   7   8
HETATM    8  C10 UNL     1     -39.732  11.868   5.384  1.00 20.00     0.115 C 
HETATM    9 CL11 UNL     1     -38.783  11.596   3.904  1.00 20.00    -0.130 Cl
ENDBRANCH   7   8
ENDBRANCH   6   7
BRANCH   5  10
HETATM   10  C8  UNL     1     -40.473  16.115   8.594  1.00 20.00     0.000 C 
HETATM   11  C7  UNL     1     -40.177  15.148   9.692  1.00 20.00     0.005 C 
ENDBRANCH   5  10
TORSDOF 3
ENDMDL
MODEL 6
REMARK VINA RESULT:      -3.5     11.288     12.542
REMARK  3 active torsions:
REMARK  status: ('A' for Active; 'I' for Inactive)
REMARK    1  A    between atoms: C5_5  and  C8_8 
REMARK    2  A    between atoms: C6_6  and  C9_9 
REMARK    3  A    between atoms: C9_9  and  C10_10 
ROOT
HETATM    1  C1  UNL     1     -34.180  14.764  -4.873  1.00 20.00     0.001 C 
HETATM    2  C2  UNL     1     -33.329  15.372  -3.761  1.00 20.00     0.005 C 
HETATM    3  C3  UNL     1     -34.344  15.727  -6.047  1.00 20.00     0.005 C 
HETATM    4  C4  UNL     1     -34.040  17.689  -4.479  1.00 20.00     0.009 C 
HETATM    5  C5  UNL     1     -33.879  16.724  -3.293  1.00 20.00    -0.014 C 
HETATM    6  C6  UNL     1     -34.880  17.103  -5.625  1.00 20.00    -0.013 C 
ENDROOT
BRANCH   6   7
HETATM    7  C9  UNL     1     -36.368  17.046  -5.267  1.00 20.00     0.020 C 
BRANCH   7   8
HETATM    8  C10 UNL     1     -36.941  18.400  -4.880  1.00 20.00     0.115 C 
HETATM    9 CL11 UNL     1     -37.215  18.536  -3.128  1.00 20.00    -0.130 Cl
ENDBRANCH   7   8
ENDBRANCH   6   7
BRANCH   5  10
HETATM   10  C8  UNL     1     -32.968  17.334  -2.228  1.00 20.00     0.000 C 
HETATM   11  C7  UNL     1     -33.705  17.594  -0.955  1.00 20.00     0.005 C 
ENDBRANCH   5  10
TORSDOF 3
ENDMDL
MODEL 7
REMARK VINA RESULT:      -3.5      2.639      4.927
REMARK  3 active torsions:
REMARK  status: ('A' for Active; 'I' for Inactive)
REMARK    1  A    between atoms: C5_5  and  C8_8 
REMARK    2  A    between atoms: C6_6  and  C9_9 
REMARK    3  A    between atoms: C9_9  and  C10_10 
ROOT
HETATM    1  C1  UNL     1     -33.156   9.043   4.716  1.00 20.00     0.001 C 
HETATM    2  C2  UNL     1     -32.444   9.240   3.380  1.00 20.00     0.005 C 
HETATM    3  C3  UNL     1     -32.867   7.668   5.313  1.00 20.00     0.005 C 
HETATM    4  C4  UNL     1     -32.484   6.742   2.990  1.00 20.00     0.009 C 
HETATM    5  C5  UNL     1     -32.778   8.124   2.384  1.00 20.00    -0.014 C 
HETATM    6  C6  UNL     1     -33.174   6.516   4.345  1.00 20.00    -0.013 C 
ENDROOT
BRANCH   6   7
HETATM    7  C9  UNL     1     -34.681   6.298   4.184  1.00 20.00     0.020 C 
BRANCH   7   8
HETATM    8  C10 UNL     1     -35.218   5.175   5.058  1.00 20.00     0.115 C 
HETATM    9 CL11 UNL     1     -34.514   5.201   6.691  1.00 20.00    -0.130 Cl
ENDBRANCH   7   8
ENDBRANCH   6   7
BRANCH   5  10
HETATM   10  C8  UNL     1     -31.999   8.314   1.083  1.00 20.00     0.000 C 
HETATM   11  C7  UNL     1     -32.650   9.319   0.192  1.00 20.00     0.005 C 
ENDBRANCH   5  10
TORSDOF 3
ENDMDL
MODEL 8
REMARK VINA RESULT:      -3.5     10.476     11.665
REMARK  3 active torsions:
REMARK  status: ('A' for Active; 'I' for Inactive)
REMARK    1  A    between atoms: C5_5  and  C8_8 
REMARK    2  A    between atoms: C6_6  and  C9_9 
REMARK    3  A    between atoms: C9_9  and  C10_10 
ROOT
HETATM    1  C1  UNL     1     -42.819  13.073   7.966  1.00 20.00     0.001 C 
HETATM    2  C2  UNL     1     -42.219  12.507   6.682  1.00 20.00     0.005 C 
HETATM    3  C3  UNL     1     -42.548  14.570   8.103  1.00 20.00     0.005 C 
HETATM    4  C4  UNL     1     -40.455  14.318   6.706  1.00 20.00     0.009 C 
HETATM    5  C5  UNL     1     -40.720  12.810   6.569  1.00 20.00    -0.014 C 
HETATM    6  C6  UNL     1     -41.059  14.925   7.982  1.00 20.00    -0.013 C 
ENDROOT
BRANCH   6   7
HETATM    7  C9  UNL     1     -40.276  14.514   9.232  1.00 20.00     0.020 C 
BRANCH   7   8
HETATM    8  C10 UNL     1     -40.916  14.997  10.524  1.00 20.00     0.115 C 
HETATM    9 CL11 UNL     1     -41.510  13.651  11.522  1.00 20.00    -0.130 Cl
ENDBRANCH   7   8
ENDBRANCH   6   7
BRANCH   5  10
HETATM   10  C8  UNL     1     -40.166  12.288   5.243  1.00 20.00     0.000 C 
HETATM   11  C7  UNL     1     -38.692  12.060   5.313  1.00 20.00     0.005 C 
ENDBRANCH   5  10
TORSDOF 3
ENDMDL
MODEL 9
REMARK VINA RESULT:      -3.4     11.420     12.633
REMARK  3 active torsions:
REMARK  status: ('A' for Active; 'I' for Inactive)
REMARK    1  A    between atoms: C5_5  and  C8_8 
REMARK    2  A    between atoms: C6_6  and  C9_9 
REMARK    3  A    between atoms: C9_9  and  C10_10 
ROOT
HETATM    1  C1  UNL     1     -34.176  14.815  -4.915  1.00 20.00     0.001 C 
HETATM    2  C2  UNL     1     -33.319  15.389  -3.789  1.00 20.00     0.005 C 
HETATM    3  C3  UNL     1     -34.356  15.817  -6.053  1.00 20.00     0.005 C 
HETATM    4  C4  UNL     1     -34.052  17.725  -4.420  1.00 20.00     0.009 C 
HETATM    5  C5  UNL     1     -33.874  16.721  -3.270  1.00 20.00    -0.014 C 
HETATM    6  C6  UNL     1     -34.897  17.174  -5.579  1.00 20.00    -0.013 C 
ENDROOT
BRANCH   6   7
HETATM    7  C9  UNL     1     -36.382  17.094  -5.211  1.00 20.00     0.020 C 
BRANCH   7   8
HETATM    8  C10 UNL     1     -37.242  16.510  -6.320  1.00 20.00     0.115 C 
HETATM    9 CL11 UNL     1     -37.190  17.497  -7.799  1.00 20.00    -0.130 Cl
ENDBRANCH   7   8
ENDBRANCH   6   7
BRANCH   5  10
HETATM   10  C8  UNL     1     -32.958  17.300  -2.192  1.00 20.00     0.000 C 
HETATM   11  C7  UNL     1     -33.704  17.590  -0.932  1.00 20.00     0.005 C 
ENDBRANCH   5  10
TORSDOF 3
ENDMDL
