MODEL 1
REMARK VINA RESULT:      -4.8      0.000      0.000
REMARK  3 active torsions:
REMARK  status: ('A' for Active; 'I' for Inactive)
REMARK    1  A    between atoms: C5_5  and  C8_8 
REMARK    2  A    between atoms: C6_6  and  C9_9 
REMARK    3  A    between atoms: C9_9  and  C10_10 
ROOT
HETATM    1  C1  UNL     1     -33.231   8.757   5.385  1.00 20.00     0.001 C 
HETATM    2  C2  UNL     1     -33.941   7.447   5.715  1.00 20.00     0.005 C 
HETATM    3  C3  UNL     1     -31.946   8.518   4.594  1.00 20.00     0.005 C 
HETATM    4  C4  UNL     1     -32.917   6.375   3.667  1.00 20.00     0.009 C 
HETATM    5  C5  UNL     1     -34.213   6.612   4.457  1.00 20.00    -0.014 C 
HETATM    6  C6  UNL     1     -32.167   7.673   3.332  1.00 20.00    -0.013 C 
ENDROOT
BRANCH   6   7
HETATM    7  C9  UNL     1     -32.874   8.470   2.233  1.00 20.00     0.020 C 
BRANCH   7   8
HETATM    8  C10 UNL     1     -32.168   8.391   0.889  1.00 20.00     0.115 C 
HETATM    9 CL11 UNL     1     -33.120   9.137  -0.415  1.00 20.00    -0.130 Cl
ENDBRANCH   7   8
ENDBRANCH   6   7
BRANCH   5  10
HETATM   10  C8  UNL     1     -34.867   5.281   4.829  1.00 20.00     0.000 C 
HETATM   11  C7  UNL     1     -34.784   5.018   6.297  1.00 20.00     0.005 C 
ENDBRANCH   5  10
TORSDOF 3
ENDMDL
MODEL 2
REMARK VINA RESULT:      -4.2     11.247     11.936
REMARK  3 active torsions:
REMARK  status: ('A' for Active; 'I' for Inactive)
REMARK    1  A    between atoms: C5_5  and  C8_8 
REMARK    2  A    between atoms: C6_6  and  C9_9 
REMARK    3  A    between atoms: C9_9  and  C10_10 
ROOT
HETATM    1  C1  UNL     1     -34.380  18.514   0.569  1.00 20.00     0.001 C 
HETATM    2  C2  UNL     1     -33.048  18.972   1.157  1.00 20.00     0.005 C 
HETATM    3  C3  UNL     1     -34.516  18.913  -0.899  1.00 20.00     0.005 C 
HETATM    4  C4  UNL     1     -31.999  18.873  -1.140  1.00 20.00     0.009 C 
HETATM    5  C5  UNL     1     -31.856  18.467   0.334  1.00 20.00    -0.014 C 
HETATM    6  C6  UNL     1     -33.337  18.442  -1.761  1.00 20.00    -0.013 C 
ENDROOT
BRANCH   6   7
HETATM    7  C9  UNL     1     -33.386  16.932  -2.010  1.00 20.00     0.020 C 
BRANCH   7   8
HETATM    8  C10 UNL     1     -33.321  16.568  -3.485  1.00 20.00     0.115 C 
HETATM    9 CL11 UNL     1     -33.789  14.877  -3.780  1.00 20.00    -0.130 Cl
ENDBRANCH   7   8
ENDBRANCH   6   7
BRANCH   5  10
HETATM   10  C8  UNL     1     -30.543  18.995   0.912  1.00 20.00     0.000 C 
HETATM   11  C7  UNL     1     -30.321  18.508   2.306  1.00 20.00     0.005 C 
ENDBRANCH   5  10
TORSDOF 3
ENDMDL
MODEL 3
REMARK VINA RESULT:      -4.2     11.038     12.342
REMARK  3 active torsions:
REMARK  status: ('A' for Active; 'I' for Inactive)
REMARK    1  A    between atoms: C5_5  and  C8_8 
REMARK    2  A    between atoms: C6_6  and  C9_9 
REMARK    3  A    between atoms: C9_9  and  C10_10 
ROOT
HETATM    1  C1  UNL     1     -34.742  18.629  -3.794  1.00 20.00     0.001 C 
HETATM    2  C2  UNL     1     -34.481  17.220  -4.320  1.00 20.00     0.005 C 
HETATM    3  C3  UNL     1     -34.879  18.647  -2.273  1.00 20.00     0.005 C 
HETATM    4  C4  UNL     1     -33.405  16.597  -2.118  1.00 20.00     0.009 C 
HETATM    5  C5  UNL     1     -33.261  16.577  -3.647  1.00 20.00    -0.014 C 
HETATM    6  C6  UNL     1     -33.686  18.000  -1.556  1.00 20.00    -0.013 C 
ENDROOT
BRANCH   6   7
HETATM    7  C9  UNL     1     -32.442  18.891  -1.606  1.00 20.00     0.020 C 
BRANCH   7   8
HETATM    8  C10 UNL     1     -31.476  18.634  -0.461  1.00 20.00     0.115 C 
HETATM    9 CL11 UNL     1     -32.311  18.510   1.105  1.00 20.00    -0.130 Cl
ENDBRANCH   7   8
ENDBRANCH   6   7
BRANCH   5  10
HETATM   10  C8  UNL     1     -33.066  15.145  -4.149  1.00 20.00     0.000 C 
HETATM   11  C7  UNL     1     -34.352  14.386  -4.161  1.00 20.00     0.005 C 
ENDBRANCH   5  10
TORSDOF 3
ENDMDL
MODEL 4
REMARK VINA RESULT:      -4.1     11.224     12.033
REMARK  3 active torsions:
REMARK  status: ('A' for Active; 'I' for Inactive)
REMARK    1  A    between atoms: C5_5  and  C8_8 
REMARK    2  A    between atoms: C6_6  and  C9_9 
REMARK    3  A    between atoms: C9_9  and  C10_10 
ROOT
HETATM    1  C1  UNL     1     -35.069  18.934  -1.472  1.00 20.00     0.001 C 
HETATM    2  C2  UNL     1     -34.318  19.258  -0.184  1.00 20.00     0.005 C 
HETATM    3  C3  UNL     1     -34.136  18.914  -2.680  1.00 20.00     0.005 C 
HETATM    4  C4  UNL     1     -32.203  18.290  -1.174  1.00 20.00     0.009 C 
HETATM    5  C5  UNL     1     -33.138  18.305   0.044  1.00 20.00    -0.014 C 
HETATM    6  C6  UNL     1     -32.931  17.983  -2.493  1.00 20.00    -0.013 C 
ENDROOT
BRANCH   6   7
HETATM    7  C9  UNL     1     -33.334  16.509  -2.588  1.00 20.00     0.020 C 
BRANCH   7   8
HETATM    8  C10 UNL     1     -33.688  16.077  -4.003  1.00 20.00     0.115 C 
HETATM    9 CL11 UNL     1     -34.100  14.349  -4.093  1.00 20.00    -0.130 Cl
ENDBRANCH   7   8
ENDBRANCH   6   7
BRANCH   5  10
HETATM   10  C8  UNL     1     -32.369  18.695   1.306  1.00 20.00     0.000 C 
HETATM   11  C7  UNL     1     -30.908  18.419   1.169  1.00 20.00     0.005 C 
ENDBRANCH   5  10
TORSDOF 3
ENDMDL
MODEL 5
REMARK VINA RESULT:      -4.1      2.025      3.615
REMARK  3 active torsions:
REMARK  status: ('A' for Active; 'I' for Inactive)
REMARK    1  A    between atoms: C5_5  and  C8_8 
REMARK    2  A    between atoms: C6_6  and  C9_9 
REMARK    3  A    between atoms: C9_9  and  C10_10 
ROOT
HETATM    1  C1  UNL     1     -34.442   5.341   6.622  1.00 20.00     0.001 C 
HETATM    2  C2  UNL     1     -34.138   6.830   6.759  1.00 20.00     0.005 C 
HETATM    3  C3  UNL     1     -35.279   5.047   5.379  1.00 20.00     0.005 C 
HETATM    4  C4  UNL     1     -34.320   7.097   4.251  1.00 20.00     0.009 C 
HETATM    5  C5  UNL     1     -33.473   7.395   5.497  1.00 20.00    -0.014 C 
HETATM    6  C6  UNL     1     -34.659   5.607   4.092  1.00 20.00    -0.013 C 
ENDROOT
BRANCH   6   7
HETATM    7  C9  UNL     1     -33.440   4.792   3.649  1.00 20.00     0.020 C 
BRANCH   7   8
HETATM    8  C10 UNL     1     -32.908   5.206   2.287  1.00 20.00     0.115 C 
HETATM    9 CL11 UNL     1     -32.053   6.765   2.346  1.00 20.00    -0.130 Cl
ENDBRANCH   7   8
ENDBRANCH   6   7
BRANCH   5  10
HETATM   10  C8  UNL     1     -33.241   8.900   5.642  1.00 20.00     0.000 C 
HETATM   11  C7  UNL     1     -32.099   9.364   4.798  1.00 20.00     0.005 C 
ENDBRANCH   5  10
TORSDOF 3
ENDMDL
MODEL 6
REMARK VINA RESULT:      -4.0     11.180     12.092
REMARK  3 active torsions:
REMARK  status: ('A' for Active; 'I' for Inactive)
REMARK    1  A    between atoms: C5_5  and  C8_8 
REMARK    2  A    between atoms: C6_6  and  C9_9 
REMARK    3  A    between atoms: C9_9  and  C10_10 
ROOT
HETATM    1  C1  UNL     1     -35.282  18.447  -3.093  1.00 20.00     0.001 C 
HETATM    2  C2  UNL     1     -34.864  18.864  -1.685  1.00 20.00     0.005 C 
HETATM    3  C3  UNL     1     -34.073  18.111  -3.964  1.00 20.00     0.005 C 
HETATM    4  C4  UNL     1     -32.763  17.474  -1.898  1.00 20.00     0.009 C 
HETATM    5  C5  UNL     1     -33.976  17.806  -1.017  1.00 20.00    -0.014 C 
HETATM    6  C6  UNL     1     -33.147  17.066  -3.329  1.00 20.00    -0.013 C 
ENDROOT
BRANCH   6   7
HETATM    7  C9  UNL     1     -33.760  15.664  -3.373  1.00 20.00     0.020 C 
BRANCH   7   8
HETATM    8  C10 UNL     1     -33.162  14.785  -4.461  1.00 20.00     0.115 C 
HETATM    9 CL11 UNL     1     -33.962  15.025  -6.032  1.00 20.00    -0.130 Cl
ENDBRANCH   7   8
ENDBRANCH   6   7
BRANCH   5  10
HETATM   10  C8  UNL     1     -33.523  18.282   0.364  1.00 20.00     0.000 C 
HETATM   11  C7  UNL     1     -32.069  18.620   0.380  1.00 20.00     0.005 C 
ENDBRANCH   5  10
TORSDOF 3
ENDMDL
MODEL 7
REMARK VINA RESULT:      -3.9      9.538     10.735
REMARK  3 active torsions:
REMARK  status: ('A' for Active; 'I' for Inactive)
REMARK    1  A    between atoms: C5_5  and  C8_8 
REMARK    2  A    between atoms: C6_6  and  C9_9 
REMARK    3  A    between atoms: C9_9  and  C10_10 
ROOT
HETATM    1  C1  UNL     1     -42.909  13.033   7.748  1.00 20.00     0.001 C 
HETATM    2  C2  UNL     1     -42.251  14.052   8.673  1.00 20.00     0.005 C 
HETATM    3  C3  UNL     1     -42.601  13.321   6.280  1.00 20.00     0.005 C 
HETATM    4  C4  UNL     1     -40.436  14.439   6.957  1.00 20.00     0.009 C 
HETATM    5  C5  UNL     1     -40.739  14.148   8.434  1.00 20.00    -0.014 C 
HETATM    6  C6  UNL     1     -41.098  13.440   5.995  1.00 20.00    -0.013 C 
ENDROOT
BRANCH   6   7
HETATM    7  C9  UNL     1     -40.405  12.075   6.029  1.00 20.00     0.020 C 
BRANCH   7   8
HETATM    8  C10 UNL     1     -38.977  12.117   5.507  1.00 20.00     0.115 C 
HETATM    9 CL11 UNL     1     -38.878  11.675   3.788  1.00 20.00    -0.130 Cl
ENDBRANCH   7   8
ENDBRANCH   6   7
BRANCH   5  10
HETATM   10  C8  UNL     1     -40.121  15.221   9.330  1.00 20.00     0.000 C 
HETATM   11  C7  UNL     1     -40.465  15.003  10.767  1.00 20.00     0.005 C 
ENDBRANCH   5  10
TORSDOF 3
ENDMDL
MODEL 8
REMARK VINA RESULT:      -3.8     10.160     11.345
REMARK  3 active torsions:
REMARK  status: ('A' for Active; 'I' for Inactive)
REMARK    1  A    between atoms: C5_5  and  C8_8 
REMARK    2  A    between atoms: C6_6  and  C9_9 
REMARK    3  A    between atoms: C9_9  and  C10_10 
ROOT
HETATM    1  C1  UNL     1     -42.226  14.556   4.754  1.00 20.00     0.001 C 
HETATM    2  C2  UNL     1     -41.177  13.455   4.627  1.00 20.00     0.005 C 
HETATM    3  C3  UNL     1     -43.417  14.106   5.597  1.00 20.00     0.005 C 
HETATM    4  C4  UNL     1     -41.924  12.488   6.840  1.00 20.00     0.009 C 
HETATM    5  C5  UNL     1     -40.722  12.939   5.998  1.00 20.00    -0.014 C 
HETATM    6  C6  UNL     1     -43.009  13.568   6.974  1.00 20.00    -0.013 C 
ENDROOT
BRANCH   6   7
HETATM    7  C9  UNL     1     -42.575  14.694   7.917  1.00 20.00     0.020 C 
BRANCH   7   8
HETATM    8  C10 UNL     1     -41.866  14.189   9.164  1.00 20.00     0.115 C 
HETATM    9 CL11 UNL     1     -40.152  14.661   9.199  1.00 20.00    -0.130 Cl
ENDBRANCH   7   8
ENDBRANCH   6   7
BRANCH   5  10
HETATM   10  C8  UNL     1     -39.720  11.796   5.835  1.00 20.00     0.000 C 
HETATM   11  C7  UNL     1     -39.211  11.706   4.434  1.00 20.00     0.005 C 
ENDBRANCH   5  10
TORSDOF 3
ENDMDL
MODEL 9
REMARK VINA RESULT:      -3.7     11.136     12.762
REMARK  3 active torsions:
REMARK  status: ('A' for Active; 'I' for Inactive)
REMARK    1  A    between atoms: C5_5  and  C8_8 
REMARK    2  A    between atoms: C6_6  and  C9_9 
REMARK    3  A    between atoms: C9_9  and  C10_10 
ROOT
HETATM    1  C1  UNL     1     -34.365  14.403  -4.355  1.00 20.00     0.001 C 
HETATM    2  C2  UNL     1     -35.255  15.211  -5.296  1.00 20.00     0.005 C 
HETATM    3  C3  UNL     1     -33.014  15.080  -4.137  1.00 20.00     0.005 C 
HETATM    4  C4  UNL     1     -34.069  17.332  -4.596  1.00 20.00     0.009 C 
HETATM    5  C5  UNL     1     -35.431  16.657  -4.813  1.00 20.00    -0.014 C 
HETATM    6  C6  UNL     1     -33.140  16.535  -3.666  1.00 20.00    -0.013 C 
ENDROOT
BRANCH   6   7
HETATM    7  C9  UNL     1     -33.590  16.621  -2.205  1.00 20.00     0.020 C 
BRANCH   7   8
HETATM    8  C10 UNL     1     -33.476  18.023  -1.627  1.00 20.00     0.115 C 
HETATM    9 CL11 UNL     1     -31.905  18.296  -0.838  1.00 20.00    -0.130 Cl
ENDBRANCH   7   8
ENDBRANCH   6   7
BRANCH   5  10
HETATM   10  C8  UNL     1     -36.274  17.455  -5.809  1.00 20.00     0.000 C 
HETATM   11  C7  UNL     1     -36.554  16.668  -7.047  1.00 20.00     0.005 C 
ENDBRANCH   5  10
TORSDOF 3
ENDMDL
