MODEL 1
REMARK VINA RESULT:      -4.4      0.000      0.000
REMARK  1 active torsions:
REMARK  status: ('A' for Active; 'I' for Inactive)
REMARK    1  A    between atoms: C6_6  and  C9_9 
ROOT
HETATM    1  C1  UNL     1     -32.119  18.502  -0.932  1.00 20.00     0.085 C 
HETATM    2  C2  UNL     1     -33.892  19.263  -3.300  1.00 20.00     0.003 C 
HETATM    3  C3  UNL     1     -33.237  18.044  -3.952  1.00 20.00     0.005 C 
HETATM    4  C4  UNL     1     -34.355  19.022  -1.857  1.00 20.00     0.041 C 
HETATM    5  C5  UNL     1     -33.482  16.633  -1.848  1.00 20.00     0.045 C 
HETATM    6  C6  UNL     1     -33.758  16.732  -3.364  1.00 20.00    -0.012 C 
HETATM    7  C7  UNL     1     -33.491  17.993  -1.119  1.00 20.00     0.125 C 
HETATM    8  N10 UNL     1     -31.039  18.903  -0.785  1.00 20.00    -0.195 NA
HETATM    9 CL11 UNL     1     -34.137  17.769   0.546  1.00 20.00    -0.103 Cl
ENDROOT
BRANCH   6  10
HETATM   10  C9  UNL     1     -33.174  15.527  -4.100  1.00 20.00     0.000 C 
HETATM   11  C8  UNL     1     -34.153  14.403  -4.179  1.00 20.00     0.005 C 
ENDBRANCH   6  10
TORSDOF 1
ENDMDL
MODEL 2
REMARK VINA RESULT:      -4.2      3.877      5.446
REMARK  1 active torsions:
REMARK  status: ('A' for Active; 'I' for Inactive)
REMARK    1  A    between atoms: C6_6  and  C9_9 
ROOT
HETATM    1  C1  UNL     1     -34.306  15.528  -7.133  1.00 20.00     0.085 C 
HETATM    2  C2  UNL     1     -35.327  13.926  -4.740  1.00 20.00     0.003 C 
HETATM    3  C3  UNL     1     -34.094  14.511  -4.050  1.00 20.00     0.005 C 
HETATM    4  C4  UNL     1     -36.126  14.949  -5.558  1.00 20.00     0.041 C 
HETATM    5  C5  UNL     1     -34.500  16.829  -5.020  1.00 20.00     0.045 C 
HETATM    6  C6  UNL     1     -34.265  15.999  -3.740  1.00 20.00    -0.012 C 
HETATM    7  C7  UNL     1     -35.249  16.067  -6.134  1.00 20.00     0.125 C 
HETATM    8  N10 UNL     1     -33.564  15.104  -7.918  1.00 20.00    -0.195 NA
HETATM    9 CL11 UNL     1     -36.288  17.219  -7.046  1.00 20.00    -0.103 Cl
ENDROOT
BRANCH   6  10
HETATM   10  C9  UNL     1     -33.071  16.540  -2.955  1.00 20.00     0.000 C 
HETATM   11  C8  UNL     1     -33.494  17.141  -1.656  1.00 20.00     0.005 C 
ENDBRANCH   6  10
TORSDOF 1
ENDMDL
MODEL 3
REMARK VINA RESULT:      -4.0      3.846      4.943
REMARK  1 active torsions:
REMARK  status: ('A' for Active; 'I' for Inactive)
REMARK    1  A    between atoms: C6_6  and  C9_9 
ROOT
HETATM    1  C1  UNL     1     -35.965  15.616  -5.557  1.00 20.00     0.085 C 
HETATM    2  C2  UNL     1     -35.185  18.521  -5.021  1.00 20.00     0.003 C 
HETATM    3  C3  UNL     1     -34.971  18.012  -3.595  1.00 20.00     0.005 C 
HETATM    4  C4  UNL     1     -34.596  17.605  -6.102  1.00 20.00     0.041 C 
HETATM    5  C5  UNL     1     -33.785  15.906  -4.393  1.00 20.00     0.045 C 
HETATM    6  C6  UNL     1     -33.714  17.149  -3.479  1.00 20.00    -0.012 C 
HETATM    7  C7  UNL     1     -34.588  16.129  -5.692  1.00 20.00     0.125 C 
HETATM    8  N10 UNL     1     -37.048  15.214  -5.451  1.00 20.00    -0.195 NA
HETATM    9 CL11 UNL     1     -33.855  15.154  -7.016  1.00 20.00    -0.103 Cl
ENDROOT
BRANCH   6  10
HETATM   10  C9  UNL     1     -33.457  16.741  -2.029  1.00 20.00     0.000 C 
HETATM   11  C8  UNL     1     -33.803  17.839  -1.079  1.00 20.00     0.005 C 
ENDBRANCH   6  10
TORSDOF 1
ENDMDL
MODEL 4
REMARK VINA RESULT:      -3.9     11.661     12.360
REMARK  1 active torsions:
REMARK  status: ('A' for Active; 'I' for Inactive)
REMARK    1  A    between atoms: C6_6  and  C9_9 
ROOT
HETATM    1  C1  UNL     1     -40.905  15.671   7.536  1.00 20.00     0.085 C 
HETATM    2  C2  UNL     1     -42.475  13.892   5.612  1.00 20.00     0.003 C 
HETATM    3  C3  UNL     1     -41.081  13.493   5.127  1.00 20.00     0.005 C 
HETATM    4  C4  UNL     1     -42.615  13.927   7.141  1.00 20.00     0.041 C 
HETATM    5  C5  UNL     1     -40.179  13.291   7.499  1.00 20.00     0.045 C 
HETATM    6  C6  UNL     1     -40.361  12.594   6.134  1.00 20.00    -0.012 C 
HETATM    7  C7  UNL     1     -41.305  14.286   7.850  1.00 20.00     0.125 C 
HETATM    8  N10 UNL     1     -40.590  16.761   7.289  1.00 20.00    -0.195 NA
HETATM    9 CL11 UNL     1     -41.577  14.271   9.629  1.00 20.00    -0.103 Cl
ENDROOT
BRANCH   6  10
HETATM   10  C9  UNL     1     -39.017  12.117   5.585  1.00 20.00     0.000 C 
HETATM   11  C8  UNL     1     -39.124  11.691   4.159  1.00 20.00     0.005 C 
ENDBRANCH   6  10
TORSDOF 1
ENDMDL
MODEL 5
REMARK VINA RESULT:      -3.8     12.276     13.324
REMARK  1 active torsions:
REMARK  status: ('A' for Active; 'I' for Inactive)
REMARK    1  A    between atoms: C6_6  and  C9_9 
ROOT
HETATM    1  C1  UNL     1     -42.278  12.344   6.943  1.00 20.00     0.085 C 
HETATM    2  C2  UNL     1     -42.487  14.979   5.411  1.00 20.00     0.003 C 
HETATM    3  C3  UNL     1     -42.258  15.593   6.793  1.00 20.00     0.005 C 
HETATM    4  C4  UNL     1     -41.547  13.809   5.088  1.00 20.00     0.041 C 
HETATM    5  C5  UNL     1     -40.411  13.936   7.360  1.00 20.00     0.045 C 
HETATM    6  C6  UNL     1     -40.812  15.424   7.261  1.00 20.00    -0.012 C 
HETATM    7  C7  UNL     1     -41.120  13.026   6.334  1.00 20.00     0.125 C 
HETATM    8  N10 UNL     1     -43.189  11.808   7.422  1.00 20.00    -0.195 NA
HETATM    9 CL11 UNL     1     -40.004  11.702   5.843  1.00 20.00    -0.103 Cl
ENDROOT
BRANCH   6  10
HETATM   10  C9  UNL     1     -40.576  16.137   8.592  1.00 20.00     0.000 C 
HETATM   11  C8  UNL     1     -40.146  15.184   9.658  1.00 20.00     0.005 C 
ENDBRANCH   6  10
TORSDOF 1
ENDMDL
MODEL 6
REMARK VINA RESULT:      -3.8      3.429      4.951
REMARK  1 active torsions:
REMARK  status: ('A' for Active; 'I' for Inactive)
REMARK    1  A    between atoms: C6_6  and  C9_9 
ROOT
HETATM    1  C1  UNL     1     -34.626  16.612  -6.564  1.00 20.00     0.085 C 
HETATM    2  C2  UNL     1     -33.758  14.386  -4.661  1.00 20.00     0.003 C 
HETATM    3  C3  UNL     1     -32.960  15.509  -3.998  1.00 20.00     0.005 C 
HETATM    4  C4  UNL     1     -35.201  14.773  -5.012  1.00 20.00     0.041 C 
HETATM    5  C5  UNL     1     -34.903  17.146  -4.149  1.00 20.00     0.045 C 
HETATM    6  C6  UNL     1     -33.862  16.474  -3.228  1.00 20.00    -0.012 C 
HETATM    7  C7  UNL     1     -35.357  16.263  -5.331  1.00 20.00     0.125 C 
HETATM    8  N10 UNL     1     -34.050  16.886  -7.534  1.00 20.00    -0.195 NA
HETATM    9 CL11 UNL     1     -37.085  16.609  -5.699  1.00 20.00    -0.103 Cl
ENDROOT
BRANCH   6  10
HETATM   10  C9  UNL     1     -33.039  17.524  -2.483  1.00 20.00     0.000 C 
HETATM   11  C8  UNL     1     -33.514  17.702  -1.079  1.00 20.00     0.005 C 
ENDBRANCH   6  10
TORSDOF 1
ENDMDL
MODEL 7
REMARK VINA RESULT:      -3.7      3.006      3.659
REMARK  1 active torsions:
REMARK  status: ('A' for Active; 'I' for Inactive)
REMARK    1  A    between atoms: C6_6  and  C9_9 
ROOT
HETATM    1  C1  UNL     1     -35.774  18.471  -3.816  1.00 20.00     0.085 C 
HETATM    2  C2  UNL     1     -33.074  17.877  -2.517  1.00 20.00     0.003 C 
HETATM    3  C3  UNL     1     -33.540  16.425  -2.631  1.00 20.00     0.005 C 
HETATM    4  C4  UNL     1     -33.310  18.707  -3.786  1.00 20.00     0.041 C 
HETATM    5  C5  UNL     1     -34.407  16.761  -5.000  1.00 20.00     0.045 C 
HETATM    6  C6  UNL     1     -33.499  15.923  -4.075  1.00 20.00    -0.012 C 
HETATM    7  C7  UNL     1     -34.533  18.241  -4.582  1.00 20.00     0.125 C 
HETATM    8  N10 UNL     1     -36.749  18.652  -3.214  1.00 20.00    -0.195 NA
HETATM    9 CL11 UNL     1     -34.699  19.261  -6.056  1.00 20.00    -0.103 Cl
ENDROOT
BRANCH   6  10
HETATM   10  C9  UNL     1     -33.863  14.442  -4.155  1.00 20.00     0.000 C 
HETATM   11  C8  UNL     1     -35.219  14.240  -4.747  1.00 20.00     0.005 C 
ENDBRANCH   6  10
TORSDOF 1
ENDMDL
MODEL 8
REMARK VINA RESULT:      -3.6     11.772     13.088
REMARK  1 active torsions:
REMARK  status: ('A' for Active; 'I' for Inactive)
REMARK    1  A    between atoms: C6_6  and  C9_9 
ROOT
HETATM    1  C1  UNL     1     -35.649   6.052   4.312  1.00 20.00     0.085 C 
HETATM    2  C2  UNL     1     -33.141   5.142   2.824  1.00 20.00     0.003 C 
HETATM    3  C3  UNL     1     -32.962   6.641   2.576  1.00 20.00     0.005 C 
HETATM    4  C4  UNL     1     -33.519   4.793   4.270  1.00 20.00     0.041 C 
HETATM    5  C5  UNL     1     -33.562   7.235   4.977  1.00 20.00     0.045 C 
HETATM    6  C6  UNL     1     -32.527   7.382   3.841  1.00 20.00    -0.012 C 
HETATM    7  C7  UNL     1     -34.330   5.896   4.956  1.00 20.00     0.125 C 
HETATM    8  N10 UNL     1     -36.685   6.175   3.805  1.00 20.00    -0.195 NA
HETATM    9 CL11 UNL     1     -34.693   5.395   6.646  1.00 20.00    -0.103 Cl
ENDROOT
BRANCH   6  10
HETATM   10  C9  UNL     1     -32.248   8.855   3.550  1.00 20.00     0.000 C 
HETATM   11  C8  UNL     1     -32.689   9.238   2.176  1.00 20.00     0.005 C 
ENDBRANCH   6  10
TORSDOF 1
ENDMDL
MODEL 9
REMARK VINA RESULT:      -3.5     11.955     12.730
REMARK  1 active torsions:
REMARK  status: ('A' for Active; 'I' for Inactive)
REMARK    1  A    between atoms: C6_6  and  C9_9 
ROOT
HETATM    1  C1  UNL     1     -42.836  12.552   7.056  1.00 20.00     0.085 C 
HETATM    2  C2  UNL     1     -40.347  14.063   7.981  1.00 20.00     0.003 C 
HETATM    3  C3  UNL     1     -39.613  12.872   7.363  1.00 20.00     0.005 C 
HETATM    4  C4  UNL     1     -41.477  14.620   7.105  1.00 20.00     0.041 C 
HETATM    5  C5  UNL     1     -41.102  12.869   5.298  1.00 20.00     0.045 C 
HETATM    6  C6  UNL     1     -39.655  12.906   5.835  1.00 20.00    -0.012 C 
HETATM    7  C7  UNL     1     -42.132  13.549   6.226  1.00 20.00     0.125 C 
HETATM    8  N10 UNL     1     -43.389  11.768   7.709  1.00 20.00    -0.195 NA
HETATM    9 CL11 UNL     1     -43.417  14.314   5.225  1.00 20.00    -0.103 Cl
ENDROOT
BRANCH   6  10
HETATM   10  C9  UNL     1     -38.826  11.772   5.234  1.00 20.00     0.000 C 
HETATM   11  C8  UNL     1     -38.906  11.761   3.744  1.00 20.00     0.005 C 
ENDBRANCH   6  10
TORSDOF 1
ENDMDL
