MODEL 1
REMARK VINA RESULT:      -4.5      0.000      0.000
REMARK  3 active torsions:
REMARK  status: ('A' for Active; 'I' for Inactive)
REMARK    1  A    between atoms: C1_1  and  C6_6 
REMARK    2  A    between atoms: C1_1  and  C10_10 
REMARK    3  A    between atoms: C7_7  and  C11_11 
ROOT
HETATM    1  C2  UNL     1     -34.126  18.629   0.906  1.00 20.00     0.001 C 
HETATM    2  C3  UNL     1     -34.151  18.703  -0.618  1.00 20.00     0.012 C 
HETATM    3  C4  UNL     1     -32.845  19.234   1.478  1.00 20.00     0.005 C 
HETATM    4  C5  UNL     1     -31.625  18.672  -0.664  1.00 20.00     0.016 C 
HETATM    5  C6  UNL     1     -32.907  18.061  -1.221  1.00 20.00     0.055 C 
HETATM    6  C7  UNL     1     -31.592  18.591   0.869  1.00 20.00    -0.014 C 
ENDROOT
BRANCH   5   7
HETATM    7  C1  UNL     1     -32.932  18.325  -2.714  1.00 20.00     0.130 C 
HETATM    8  O12 UNL     1     -32.303  19.262  -3.203  1.00 20.00    -0.298 OA
BRANCH   7   9
HETATM    9  C10 UNL     1     -33.771  17.373  -3.547  1.00 20.00     0.074 C 
HETATM   10  C8  UNL     1     -33.230  15.955  -3.538  1.00 20.00     0.013 C 
ENDBRANCH   7   9
ENDBRANCH   5   7
BRANCH   6  11
HETATM   11  C11 UNL     1     -30.327  19.250   1.418  1.00 20.00     0.000 C 
HETATM   12  C9  UNL     1     -29.971  18.722   2.768  1.00 20.00     0.005 C 
ENDBRANCH   6  11
TORSDOF 3
ENDMDL
MODEL 2
REMARK VINA RESULT:      -4.5     11.875     12.777
REMARK  3 active torsions:
REMARK  status: ('A' for Active; 'I' for Inactive)
REMARK    1  A    between atoms: C1_1  and  C6_6 
REMARK    2  A    between atoms: C1_1  and  C10_10 
REMARK    3  A    between atoms: C7_7  and  C11_11 
ROOT
HETATM    1  C2  UNL     1     -32.527   8.825   4.562  1.00 20.00     0.001 C 
HETATM    2  C3  UNL     1     -33.409   7.612   4.850  1.00 20.00     0.012 C 
HETATM    3  C4  UNL     1     -32.467   9.133   3.067  1.00 20.00     0.005 C 
HETATM    4  C5  UNL     1     -32.912   6.700   2.547  1.00 20.00     0.016 C 
HETATM    5  C6  UNL     1     -32.960   6.401   4.042  1.00 20.00     0.055 C 
HETATM    6  C7  UNL     1     -32.018   7.913   2.252  1.00 20.00    -0.014 C 
ENDROOT
BRANCH   5   7
HETATM    7  C1  UNL     1     -33.981   5.301   4.259  1.00 20.00     0.130 C 
HETATM    8  O12 UNL     1     -33.873   4.214   3.692  1.00 20.00    -0.298 OA
BRANCH   7   9
HETATM    9  C10 UNL     1     -35.123   5.624   5.205  1.00 20.00     0.074 C 
HETATM   10  C8  UNL     1     -34.771   5.363   6.658  1.00 20.00     0.013 C 
ENDBRANCH   7   9
ENDBRANCH   5   7
BRANCH   6  11
HETATM   11  C11 UNL     1     -32.018   8.233   0.758  1.00 20.00     0.000 C 
HETATM   12  C9  UNL     1     -32.769   9.490   0.463  1.00 20.00     0.005 C 
ENDBRANCH   6  11
TORSDOF 3
ENDMDL
MODEL 3
REMARK VINA RESULT:      -4.4      1.665      5.496
REMARK  3 active torsions:
REMARK  status: ('A' for Active; 'I' for Inactive)
REMARK    1  A    between atoms: C1_1  and  C6_6 
REMARK    2  A    between atoms: C1_1  and  C10_10 
REMARK    3  A    between atoms: C7_7  and  C11_11 
ROOT
HETATM    1  C2  UNL     1     -34.345  18.557  -4.303  1.00 20.00     0.001 C 
HETATM    2  C3  UNL     1     -34.012  18.836  -2.839  1.00 20.00     0.012 C 
HETATM    3  C4  UNL     1     -34.715  17.092  -4.526  1.00 20.00     0.005 C 
HETATM    4  C5  UNL     1     -33.296  16.432  -2.541  1.00 20.00     0.016 C 
HETATM    5  C6  UNL     1     -32.924  17.896  -2.334  1.00 20.00     0.055 C 
HETATM    6  C7  UNL     1     -33.622  16.145  -4.014  1.00 20.00    -0.014 C 
ENDROOT
BRANCH   5   7
HETATM    7  C1  UNL     1     -32.776  18.127  -0.843  1.00 20.00     0.130 C 
HETATM    8  O12 UNL     1     -33.713  17.921  -0.072  1.00 20.00    -0.298 OA
BRANCH   7   9
HETATM    9  C10 UNL     1     -31.419  18.620  -0.374  1.00 20.00     0.074 C 
HETATM   10  C8  UNL     1     -31.220  18.451   1.121  1.00 20.00     0.013 C 
ENDBRANCH   7   9
ENDBRANCH   5   7
BRANCH   6  11
HETATM   11  C11 UNL     1     -34.040  14.687  -4.201  1.00 20.00     0.000 C 
HETATM   12  C9  UNL     1     -35.199  14.561  -5.134  1.00 20.00     0.005 C 
ENDBRANCH   6  11
TORSDOF 3
ENDMDL
MODEL 4
REMARK VINA RESULT:      -4.3     11.610     12.289
REMARK  3 active torsions:
REMARK  status: ('A' for Active; 'I' for Inactive)
REMARK    1  A    between atoms: C1_1  and  C6_6 
REMARK    2  A    between atoms: C1_1  and  C10_10 
REMARK    3  A    between atoms: C7_7  and  C11_11 
ROOT
HETATM    1  C2  UNL     1     -33.305   8.576   6.157  1.00 20.00     0.001 C 
HETATM    2  C3  UNL     1     -32.592   8.764   4.820  1.00 20.00     0.012 C 
HETATM    3  C4  UNL     1     -33.654   7.110   6.406  1.00 20.00     0.005 C 
HETATM    4  C5  UNL     1     -33.748   6.709   3.912  1.00 20.00     0.016 C 
HETATM    5  C6  UNL     1     -33.408   8.177   3.674  1.00 20.00     0.055 C 
HETATM    6  C7  UNL     1     -34.473   6.517   5.251  1.00 20.00    -0.014 C 
ENDROOT
BRANCH   5   7
HETATM    7  C1  UNL     1     -32.561   8.256   2.420  1.00 20.00     0.130 C 
HETATM    8  O12 UNL     1     -31.797   7.342   2.111  1.00 20.00    -0.298 OA
BRANCH   7   9
HETATM    9  C10 UNL     1     -32.714   9.516   1.587  1.00 20.00     0.074 C 
HETATM   10  C8  UNL     1     -32.786   9.228   0.098  1.00 20.00     0.013 C 
ENDBRANCH   7   9
ENDBRANCH   5   7
BRANCH   6  11
HETATM   11  C11 UNL     1     -34.764   5.038   5.501  1.00 20.00     0.000 C 
HETATM   12  C9  UNL     1     -34.031   4.161   4.539  1.00 20.00     0.005 C 
ENDBRANCH   6  11
TORSDOF 3
ENDMDL
MODEL 5
REMARK VINA RESULT:      -4.2     12.210     13.018
REMARK  3 active torsions:
REMARK  status: ('A' for Active; 'I' for Inactive)
REMARK    1  A    between atoms: C1_1  and  C6_6 
REMARK    2  A    between atoms: C1_1  and  C10_10 
REMARK    3  A    between atoms: C7_7  and  C11_11 
ROOT
HETATM    1  C2  UNL     1     -34.587   6.473   6.605  1.00 20.00     0.001 C 
HETATM    2  C3  UNL     1     -33.654   7.601   6.171  1.00 20.00     0.012 C 
HETATM    3  C4  UNL     1     -34.273   5.170   5.870  1.00 20.00     0.005 C 
HETATM    4  C5  UNL     1     -33.355   6.492   3.921  1.00 20.00     0.016 C 
HETATM    5  C6  UNL     1     -33.681   7.786   4.658  1.00 20.00     0.055 C 
HETATM    6  C7  UNL     1     -34.297   5.357   4.347  1.00 20.00    -0.014 C 
ENDROOT
BRANCH   5   7
HETATM    7  C1  UNL     1     -32.613   8.801   4.301  1.00 20.00     0.130 C 
HETATM    8  O12 UNL     1     -32.162   9.572   5.148  1.00 20.00    -0.298 OA
BRANCH   7   9
HETATM    9  C10 UNL     1     -32.148   8.804   2.857  1.00 20.00     0.074 C 
HETATM   10  C8  UNL     1     -33.017   9.671   1.964  1.00 20.00     0.013 C 
ENDBRANCH   7   9
ENDBRANCH   5   7
BRANCH   6  11
HETATM   11  C11 UNL     1     -33.928   4.054   3.640  1.00 20.00     0.000 C 
HETATM   12  C9  UNL     1     -32.960   4.285   2.527  1.00 20.00     0.005 C 
ENDBRANCH   6  11
TORSDOF 3
ENDMDL
MODEL 6
REMARK VINA RESULT:      -4.2      2.181      3.753
REMARK  3 active torsions:
REMARK  status: ('A' for Active; 'I' for Inactive)
REMARK    1  A    between atoms: C1_1  and  C6_6 
REMARK    2  A    between atoms: C1_1  and  C10_10 
REMARK    3  A    between atoms: C7_7  and  C11_11 
ROOT
HETATM    1  C2  UNL     1     -34.482  19.076  -3.803  1.00 20.00     0.001 C 
HETATM    2  C3  UNL     1     -34.040  17.847  -4.594  1.00 20.00     0.012 C 
HETATM    3  C4  UNL     1     -33.724  19.197  -2.483  1.00 20.00     0.005 C 
HETATM    4  C5  UNL     1     -33.393  16.692  -2.442  1.00 20.00     0.016 C 
HETATM    5  C6  UNL     1     -34.161  16.580  -3.755  1.00 20.00     0.055 C 
HETATM    6  C7  UNL     1     -33.842  17.921  -1.639  1.00 20.00    -0.014 C 
ENDROOT
BRANCH   5   7
HETATM    7  C1  UNL     1     -33.550  15.443  -4.551  1.00 20.00     0.130 C 
HETATM    8  O12 UNL     1     -32.520  14.886  -4.173  1.00 20.00    -0.298 OA
BRANCH   7   9
HETATM    9  C10 UNL     1     -34.280  15.047  -5.821  1.00 20.00     0.074 C 
HETATM   10  C8  UNL     1     -35.706  14.598  -5.560  1.00 20.00     0.013 C 
ENDBRANCH   7   9
ENDBRANCH   5   7
BRANCH   6  11
HETATM   11  C11 UNL     1     -33.032  18.050  -0.351  1.00 20.00     0.000 C 
HETATM   12  C9  UNL     1     -31.633  18.499  -0.620  1.00 20.00     0.005 C 
ENDBRANCH   6  11
TORSDOF 3
ENDMDL
MODEL 7
REMARK VINA RESULT:      -4.1     10.895     11.926
REMARK  3 active torsions:
REMARK  status: ('A' for Active; 'I' for Inactive)
REMARK    1  A    between atoms: C1_1  and  C6_6 
REMARK    2  A    between atoms: C1_1  and  C10_10 
REMARK    3  A    between atoms: C7_7  and  C11_11 
ROOT
HETATM    1  C2  UNL     1     -42.875  15.010   5.621  1.00 20.00     0.001 C 
HETATM    2  C3  UNL     1     -41.862  13.901   5.345  1.00 20.00     0.012 C 
HETATM    3  C4  UNL     1     -42.216  16.221   6.279  1.00 20.00     0.005 C 
HETATM    4  C5  UNL     1     -40.438  14.719   7.264  1.00 20.00     0.016 C 
HETATM    5  C6  UNL     1     -41.109  13.515   6.612  1.00 20.00     0.055 C 
HETATM    6  C7  UNL     1     -41.455  15.833   7.553  1.00 20.00    -0.014 C 
ENDROOT
BRANCH   5   7
HETATM    7  C1  UNL     1     -40.020  12.537   6.218  1.00 20.00     0.130 C 
HETATM    8  O12 UNL     1     -39.225  12.103   7.052  1.00 20.00    -0.298 OA
BRANCH   7   9
HETATM    9  C10 UNL     1     -39.975  12.139   4.754  1.00 20.00     0.074 C 
HETATM   10  C8  UNL     1     -38.608  11.635   4.327  1.00 20.00     0.013 C 
ENDBRANCH   7   9
ENDBRANCH   5   7
BRANCH   6  11
HETATM   11  C11 UNL     1     -40.763  17.052   8.160  1.00 20.00     0.000 C 
HETATM   12  C9  UNL     1     -40.511  18.110   7.137  1.00 20.00     0.005 C 
ENDBRANCH   6  11
TORSDOF 3
ENDMDL
MODEL 8
REMARK VINA RESULT:      -4.0     11.834     12.657
REMARK  3 active torsions:
REMARK  status: ('A' for Active; 'I' for Inactive)
REMARK    1  A    between atoms: C1_1  and  C6_6 
REMARK    2  A    between atoms: C1_1  and  C10_10 
REMARK    3  A    between atoms: C7_7  and  C11_11 
ROOT
HETATM    1  C2  UNL     1     -33.121   4.613   2.830  1.00 20.00     0.001 C 
HETATM    2  C3  UNL     1     -32.866   5.995   2.233  1.00 20.00     0.012 C 
HETATM    3  C4  UNL     1     -34.118   4.676   3.987  1.00 20.00     0.005 C 
HETATM    4  C5  UNL     1     -33.423   7.061   4.454  1.00 20.00     0.016 C 
HETATM    5  C6  UNL     1     -32.425   6.984   3.304  1.00 20.00     0.055 C 
HETATM    6  C7  UNL     1     -33.676   5.675   5.064  1.00 20.00    -0.014 C 
ENDROOT
BRANCH   5   7
HETATM    7  C1  UNL     1     -32.356   8.356   2.661  1.00 20.00     0.130 C 
HETATM    8  O12 UNL     1     -32.523   9.377   3.326  1.00 20.00    -0.298 OA
BRANCH   7   9
HETATM    9  C10 UNL     1     -32.074   8.383   1.170  1.00 20.00     0.074 C 
HETATM   10  C8  UNL     1     -32.794   9.513   0.459  1.00 20.00     0.013 C 
ENDBRANCH   7   9
ENDBRANCH   5   7
BRANCH   6  11
HETATM   11  C11 UNL     1     -34.715   5.757   6.181  1.00 20.00     0.000 C 
HETATM   12  C9  UNL     1     -34.523   6.973   7.026  1.00 20.00     0.005 C 
ENDBRANCH   6  11
TORSDOF 3
ENDMDL
MODEL 9
REMARK VINA RESULT:      -4.0     10.823     11.769
REMARK  3 active torsions:
REMARK  status: ('A' for Active; 'I' for Inactive)
REMARK    1  A    between atoms: C1_1  and  C6_6 
REMARK    2  A    between atoms: C1_1  and  C10_10 
REMARK    3  A    between atoms: C7_7  and  C11_11 
ROOT
HETATM    1  C2  UNL     1     -41.537  14.557   7.486  1.00 20.00     0.001 C 
HETATM    2  C3  UNL     1     -41.978  15.273   6.211  1.00 20.00     0.012 C 
HETATM    3  C4  UNL     1     -40.351  13.629   7.227  1.00 20.00     0.005 C 
HETATM    4  C5  UNL     1     -41.088  13.358   4.825  1.00 20.00     0.016 C 
HETATM    5  C6  UNL     1     -42.274  14.277   5.096  1.00 20.00     0.055 C 
HETATM    6  C7  UNL     1     -40.647  12.629   6.102  1.00 20.00    -0.014 C 
ENDROOT
BRANCH   5   7
HETATM    7  C1  UNL     1     -42.540  15.071   3.832  1.00 20.00     0.130 C 
HETATM    8  O12 UNL     1     -42.347  14.578   2.721  1.00 20.00    -0.298 OA
BRANCH   7   9
HETATM    9  C10 UNL     1     -43.051  16.487   4.025  1.00 20.00     0.074 C 
HETATM   10  C8  UNL     1     -42.435  17.470   3.047  1.00 20.00     0.013 C 
ENDBRANCH   7   9
ENDBRANCH   5   7
BRANCH   6  11
HETATM   11  C11 UNL     1     -39.428  11.750   5.829  1.00 20.00     0.000 C 
HETATM   12  C9  UNL     1     -39.103  11.693   4.372  1.00 20.00     0.005 C 
ENDBRANCH   6  11
TORSDOF 3
ENDMDL
