MODEL 1
REMARK VINA RESULT:      -4.4      0.000      0.000
REMARK  4 active torsions:
REMARK  status: ('A' for Active; 'I' for Inactive)
REMARK    1  A    between atoms: C1_1  and  C6_6 
REMARK    2  A    between atoms: C1_1  and  C11_11 
REMARK    3  A    between atoms: C7_7  and  C12_12 
REMARK    4  A    between atoms: C11_11  and  C13_13 
ROOT
HETATM    1  C2  UNL     1     -34.048  14.640  -3.898  1.00 20.00     0.001 C 
HETATM    2  C3  UNL     1     -32.969  15.721  -3.862  1.00 20.00     0.012 C 
HETATM    3  C4  UNL     1     -34.928  14.754  -5.138  1.00 20.00     0.005 C 
HETATM    4  C5  UNL     1     -34.472  17.237  -5.250  1.00 20.00     0.016 C 
HETATM    5  C6  UNL     1     -33.516  17.129  -4.064  1.00 20.00     0.056 C 
HETATM    6  C7  UNL     1     -35.556  16.148  -5.253  1.00 20.00    -0.014 C 
ENDROOT
BRANCH   5   7
HETATM    7  C1  UNL     1     -34.243  17.620  -2.821  1.00 20.00     0.131 C 
HETATM    8  O14 UNL     1     -35.293  18.253  -2.912  1.00 20.00    -0.298 OA
BRANCH   7   9
HETATM    9  C11 UNL     1     -33.616  17.244  -1.488  1.00 20.00     0.082 C 
BRANCH   9  10
HETATM   10  C13 UNL     1     -33.096  18.446  -0.685  1.00 20.00    -0.016 C 
HETATM   11  C9  UNL     1     -31.569  18.429  -0.581  1.00 20.00     0.010 C 
HETATM   12  C10 UNL     1     -33.708  18.445   0.717  1.00 20.00     0.010 C 
ENDBRANCH   9  10
ENDBRANCH   7   9
ENDBRANCH   5   7
BRANCH   6  13
HETATM   13  C12 UNL     1     -36.415  16.249  -6.513  1.00 20.00     0.000 C 
HETATM   14  C8  UNL     1     -35.878  15.399  -7.616  1.00 20.00     0.005 C 
ENDBRANCH   6  13
TORSDOF 4
ENDMDL
MODEL 2
REMARK VINA RESULT:      -4.2     11.554     13.520
REMARK  4 active torsions:
REMARK  status: ('A' for Active; 'I' for Inactive)
REMARK    1  A    between atoms: C1_1  and  C6_6 
REMARK    2  A    between atoms: C1_1  and  C11_11 
REMARK    3  A    between atoms: C7_7  and  C12_12 
REMARK    4  A    between atoms: C11_11  and  C13_13 
ROOT
HETATM    1  C2  UNL     1     -42.138  14.632   4.722  1.00 20.00     0.001 C 
HETATM    2  C3  UNL     1     -43.417  14.132   5.391  1.00 20.00     0.012 C 
HETATM    3  C4  UNL     1     -41.065  13.550   4.661  1.00 20.00     0.005 C 
HETATM    4  C5  UNL     1     -42.039  12.450   6.717  1.00 20.00     0.016 C 
HETATM    5  C6  UNL     1     -43.174  13.472   6.743  1.00 20.00     0.056 C 
HETATM    6  C7  UNL     1     -40.761  12.985   6.053  1.00 20.00    -0.014 C 
ENDROOT
BRANCH   5   7
HETATM    7  C1  UNL     1     -42.857  14.507   7.811  1.00 20.00     0.131 C 
HETATM    8  O14 UNL     1     -43.056  15.704   7.610  1.00 20.00    -0.298 OA
BRANCH   7   9
HETATM    9  C11 UNL     1     -42.328  13.967   9.130  1.00 20.00     0.082 C 
BRANCH   9  10
HETATM   10  C13 UNL     1     -41.308  14.890   9.815  1.00 20.00    -0.016 C 
HETATM   11  C9  UNL     1     -40.053  15.071   8.956  1.00 20.00     0.010 C 
HETATM   12  C10 UNL     1     -40.919  14.320  11.180  1.00 20.00     0.010 C 
ENDBRANCH   9  10
ENDBRANCH   7   9
ENDBRANCH   5   7
BRANCH   6  13
HETATM   13  C12 UNL     1     -39.701  11.887   5.968  1.00 20.00     0.000 C 
HETATM   14  C8  UNL     1     -39.142  11.766   4.589  1.00 20.00     0.005 C 
ENDBRANCH   6  13
TORSDOF 4
ENDMDL
MODEL 3
REMARK VINA RESULT:      -4.1      1.521      5.661
REMARK  4 active torsions:
REMARK  status: ('A' for Active; 'I' for Inactive)
REMARK    1  A    between atoms: C1_1  and  C6_6 
REMARK    2  A    between atoms: C1_1  and  C11_11 
REMARK    3  A    between atoms: C7_7  and  C12_12 
REMARK    4  A    between atoms: C11_11  and  C13_13 
ROOT
HETATM    1  C2  UNL     1     -35.566  18.919  -2.278  1.00 20.00     0.001 C 
HETATM    2  C3  UNL     1     -34.713  19.153  -3.524  1.00 20.00     0.012 C 
HETATM    3  C4  UNL     1     -34.763  19.099  -0.994  1.00 20.00     0.005 C 
HETATM    4  C5  UNL     1     -32.645  18.452  -2.212  1.00 20.00     0.016 C 
HETATM    5  C6  UNL     1     -33.415  18.353  -3.527  1.00 20.00     0.056 C 
HETATM    6  C7  UNL     1     -33.524  18.197  -0.977  1.00 20.00    -0.014 C 
ENDROOT
BRANCH   5   7
HETATM    7  C1  UNL     1     -33.677  16.882  -3.815  1.00 20.00     0.131 C 
HETATM    8  O14 UNL     1     -33.075  16.002  -3.203  1.00 20.00    -0.298 OA
BRANCH   7   9
HETATM    9  C11 UNL     1     -34.742  16.585  -4.858  1.00 20.00     0.082 C 
BRANCH   9  10
HETATM   10  C13 UNL     1     -34.585  15.212  -5.531  1.00 20.00    -0.016 C 
HETATM   11  C9  UNL     1     -34.103  15.351  -6.978  1.00 20.00     0.010 C 
HETATM   12  C10 UNL     1     -35.917  14.459  -5.502  1.00 20.00     0.010 C 
ENDBRANCH   9  10
ENDBRANCH   7   9
ENDBRANCH   5   7
BRANCH   6  13
HETATM   13  C12 UNL     1     -32.721  18.409   0.306  1.00 20.00     0.000 C 
HETATM   14  C8  UNL     1     -31.267  18.587   0.023  1.00 20.00     0.005 C 
ENDBRANCH   6  13
TORSDOF 4
ENDMDL
MODEL 4
REMARK VINA RESULT:      -4.1     11.525     13.528
REMARK  4 active torsions:
REMARK  status: ('A' for Active; 'I' for Inactive)
REMARK    1  A    between atoms: C1_1  and  C6_6 
REMARK    2  A    between atoms: C1_1  and  C11_11 
REMARK    3  A    between atoms: C7_7  and  C12_12 
REMARK    4  A    between atoms: C11_11  and  C13_13 
ROOT
HETATM    1  C2  UNL     1     -42.151  14.627   5.222  1.00 20.00     0.001 C 
HETATM    2  C3  UNL     1     -43.416  14.062   5.867  1.00 20.00     0.012 C 
HETATM    3  C4  UNL     1     -41.140  13.534   4.893  1.00 20.00     0.005 C 
HETATM    4  C5  UNL     1     -42.055  12.107   6.767  1.00 20.00     0.016 C 
HETATM    5  C6  UNL     1     -43.133  13.150   7.056  1.00 20.00     0.056 C 
HETATM    6  C7  UNL     1     -40.789  12.705   6.134  1.00 20.00    -0.014 C 
ENDROOT
BRANCH   5   7
HETATM    7  C1  UNL     1     -42.704  13.953   8.274  1.00 20.00     0.131 C 
HETATM    8  O14 UNL     1     -42.194  13.400   9.248  1.00 20.00    -0.298 OA
BRANCH   7   9
HETATM    9  C11 UNL     1     -42.905  15.457   8.189  1.00 20.00     0.082 C 
BRANCH   9  10
HETATM   10  C13 UNL     1     -41.758  16.273   8.804  1.00 20.00    -0.016 C 
HETATM   11  C9  UNL     1     -42.074  17.771   8.802  1.00 20.00     0.010 C 
HETATM   12  C10 UNL     1     -40.462  16.019   8.031  1.00 20.00     0.010 C 
ENDBRANCH   9  10
ENDBRANCH   7   9
ENDBRANCH   5   7
BRANCH   6  13
HETATM   13  C12 UNL     1     -39.794  11.601   5.779  1.00 20.00     0.000 C 
HETATM   14  C8  UNL     1     -39.261  11.763   4.394  1.00 20.00     0.005 C 
ENDBRANCH   6  13
TORSDOF 4
ENDMDL
MODEL 5
REMARK VINA RESULT:      -4.0     11.380     14.288
REMARK  4 active torsions:
REMARK  status: ('A' for Active; 'I' for Inactive)
REMARK    1  A    between atoms: C1_1  and  C6_6 
REMARK    2  A    between atoms: C1_1  and  C11_11 
REMARK    3  A    between atoms: C7_7  and  C12_12 
REMARK    4  A    between atoms: C11_11  and  C13_13 
ROOT
HETATM    1  C2  UNL     1     -42.930  15.512   7.917  1.00 20.00     0.001 C 
HETATM    2  C3  UNL     1     -41.745  15.678   6.966  1.00 20.00     0.012 C 
HETATM    3  C4  UNL     1     -42.485  15.420   9.373  1.00 20.00     0.005 C 
HETATM    4  C5  UNL     1     -40.258  14.473   8.646  1.00 20.00     0.016 C 
HETATM    5  C6  UNL     1     -40.649  14.640   7.179  1.00 20.00     0.056 C 
HETATM    6  C7  UNL     1     -41.467  14.292   9.576  1.00 20.00    -0.014 C 
ENDROOT
BRANCH   5   7
HETATM    7  C1  UNL     1     -41.068  13.281   6.640  1.00 20.00     0.131 C 
HETATM    8  O14 UNL     1     -41.746  12.513   7.321  1.00 20.00    -0.298 OA
BRANCH   7   9
HETATM    9  C11 UNL     1     -40.635  12.963   5.218  1.00 20.00     0.082 C 
BRANCH   9  10
HETATM   10  C13 UNL     1     -39.601  11.830   5.122  1.00 20.00    -0.016 C 
HETATM   11  C9  UNL     1     -38.448  12.043   6.107  1.00 20.00     0.010 C 
HETATM   12  C10 UNL     1     -39.051  11.742   3.697  1.00 20.00     0.010 C 
ENDBRANCH   9  10
ENDBRANCH   7   9
ENDBRANCH   5   7
BRANCH   6  13
HETATM   13  C12 UNL     1     -41.016  14.231  11.036  1.00 20.00     0.000 C 
HETATM   14  C8  UNL     1     -40.414  15.522  11.481  1.00 20.00     0.005 C 
ENDBRANCH   6  13
TORSDOF 4
ENDMDL
MODEL 6
REMARK VINA RESULT:      -4.0     11.029     13.205
REMARK  4 active torsions:
REMARK  status: ('A' for Active; 'I' for Inactive)
REMARK    1  A    between atoms: C1_1  and  C6_6 
REMARK    2  A    between atoms: C1_1  and  C11_11 
REMARK    3  A    between atoms: C7_7  and  C12_12 
REMARK    4  A    between atoms: C11_11  and  C13_13 
ROOT
HETATM    1  C2  UNL     1     -40.396  14.684   8.511  1.00 20.00     0.001 C 
HETATM    2  C3  UNL     1     -41.706  13.919   8.330  1.00 20.00     0.012 C 
HETATM    3  C4  UNL     1     -40.593  16.191   8.385  1.00 20.00     0.005 C 
HETATM    4  C5  UNL     1     -42.588  15.818   6.880  1.00 20.00     0.016 C 
HETATM    5  C6  UNL     1     -42.463  14.307   7.064  1.00 20.00     0.056 C 
HETATM    6  C7  UNL     1     -41.254  16.560   7.052  1.00 20.00    -0.014 C 
ENDROOT
BRANCH   5   7
HETATM    7  C1  UNL     1     -41.794  13.731   5.826  1.00 20.00     0.131 C 
HETATM    8  O14 UNL     1     -41.865  14.309   4.742  1.00 20.00    -0.298 OA
BRANCH   7   9
HETATM    9  C11 UNL     1     -41.015  12.441   6.026  1.00 20.00     0.082 C 
BRANCH   9  10
HETATM   10  C13 UNL     1     -39.558  12.515   5.542  1.00 20.00    -0.016 C 
HETATM   11  C9  UNL     1     -39.340  11.659   4.291  1.00 20.00     0.010 C 
HETATM   12  C10 UNL     1     -38.613  12.052   6.653  1.00 20.00     0.010 C 
ENDBRANCH   9  10
ENDBRANCH   7   9
ENDBRANCH   5   7
BRANCH   6  13
HETATM   13  C12 UNL     1     -41.463  18.071   6.956  1.00 20.00     0.000 C 
HETATM   14  C8  UNL     1     -40.175  18.793   6.740  1.00 20.00     0.005 C 
ENDBRANCH   6  13
TORSDOF 4
ENDMDL
MODEL 7
REMARK VINA RESULT:      -3.8      1.891      3.999
REMARK  4 active torsions:
REMARK  status: ('A' for Active; 'I' for Inactive)
REMARK    1  A    between atoms: C1_1  and  C6_6 
REMARK    2  A    between atoms: C1_1  and  C11_11 
REMARK    3  A    between atoms: C7_7  and  C12_12 
REMARK    4  A    between atoms: C11_11  and  C13_13 
ROOT
HETATM    1  C2  UNL     1     -33.437  16.718  -2.435  1.00 20.00     0.001 C 
HETATM    2  C3  UNL     1     -33.345  18.173  -2.892  1.00 20.00     0.012 C 
HETATM    3  C4  UNL     1     -33.298  15.744  -3.600  1.00 20.00     0.005 C 
HETATM    4  C5  UNL     1     -34.219  17.485  -5.183  1.00 20.00     0.016 C 
HETATM    5  C6  UNL     1     -34.282  18.505  -4.047  1.00 20.00     0.056 C 
HETATM    6  C7  UNL     1     -34.330  16.032  -4.696  1.00 20.00    -0.014 C 
ENDROOT
BRANCH   5   7
HETATM    7  C1  UNL     1     -35.725  18.601  -3.574  1.00 20.00     0.131 C 
HETATM    8  O14 UNL     1     -35.992  18.705  -2.378  1.00 20.00    -0.298 OA
BRANCH   7   9
HETATM    9  C11 UNL     1     -36.787  18.601  -4.662  1.00 20.00     0.082 C 
BRANCH   9  10
HETATM   10  C13 UNL     1     -37.883  17.544  -4.460  1.00 20.00    -0.016 C 
HETATM   11  C9  UNL     1     -37.863  16.498  -5.578  1.00 20.00     0.010 C 
HETATM   12  C10 UNL     1     -39.257  18.216  -4.408  1.00 20.00     0.010 C 
ENDBRANCH   9  10
ENDBRANCH   7   9
ENDBRANCH   5   7
BRANCH   6  13
HETATM   13  C12 UNL     1     -34.160  15.061  -5.864  1.00 20.00     0.000 C 
HETATM   14  C8  UNL     1     -34.404  15.728  -7.176  1.00 20.00     0.005 C 
ENDBRANCH   6  13
TORSDOF 4
ENDMDL
MODEL 8
REMARK VINA RESULT:      -3.8     24.352     25.768
REMARK  4 active torsions:
REMARK  status: ('A' for Active; 'I' for Inactive)
REMARK    1  A    between atoms: C1_1  and  C6_6 
REMARK    2  A    between atoms: C1_1  and  C11_11 
REMARK    3  A    between atoms: C7_7  and  C12_12 
REMARK    4  A    between atoms: C11_11  and  C13_13 
ROOT
HETATM    1  C2  UNL     1     -27.454  -0.501  10.304  1.00 20.00     0.001 C 
HETATM    2  C3  UNL     1     -27.013  -0.337  11.758  1.00 20.00     0.012 C 
HETATM    3  C4  UNL     1     -28.289  -1.761  10.100  1.00 20.00     0.005 C 
HETATM    4  C5  UNL     1     -27.127  -2.864  12.054  1.00 20.00     0.016 C 
HETATM    5  C6  UNL     1     -26.344  -1.581  12.331  1.00 20.00     0.056 C 
HETATM    6  C7  UNL     1     -27.544  -3.010  10.583  1.00 20.00    -0.014 C 
ENDROOT
BRANCH   5   7
HETATM    7  C1  UNL     1     -24.938  -1.753  11.779  1.00 20.00     0.131 C 
HETATM    8  O14 UNL     1     -24.101  -0.858  11.891  1.00 20.00    -0.298 OA
BRANCH   7   9
HETATM    9  C11 UNL     1     -24.633  -3.095  11.132  1.00 20.00     0.082 C 
BRANCH   9  10
HETATM   10  C13 UNL     1     -23.381  -3.084  10.241  1.00 20.00    -0.016 C 
HETATM   11  C9  UNL     1     -23.742  -3.294   8.768  1.00 20.00     0.010 C 
HETATM   12  C10 UNL     1     -22.407  -4.174  10.693  1.00 20.00     0.010 C 
ENDBRANCH   9  10
ENDBRANCH   7   9
ENDBRANCH   5   7
BRANCH   6  13
HETATM   13  C12 UNL     1     -28.405  -4.258  10.391  1.00 20.00     0.000 C 
HETATM   14  C8  UNL     1     -29.629  -4.220  11.245  1.00 20.00     0.005 C 
ENDBRANCH   6  13
TORSDOF 4
ENDMDL
MODEL 9
REMARK VINA RESULT:      -3.7      2.090      5.379
REMARK  4 active torsions:
REMARK  status: ('A' for Active; 'I' for Inactive)
REMARK    1  A    between atoms: C1_1  and  C6_6 
REMARK    2  A    between atoms: C1_1  and  C11_11 
REMARK    3  A    between atoms: C7_7  and  C12_12 
REMARK    4  A    between atoms: C11_11  and  C13_13 
ROOT
HETATM    1  C2  UNL     1     -34.758  18.187  -5.819  1.00 20.00     0.001 C 
HETATM    2  C3  UNL     1     -34.591  17.062  -6.840  1.00 20.00     0.012 C 
HETATM    3  C4  UNL     1     -33.890  17.971  -4.585  1.00 20.00     0.005 C 
HETATM    4  C5  UNL     1     -33.967  15.472  -4.951  1.00 20.00     0.016 C 
HETATM    5  C6  UNL     1     -34.762  15.671  -6.240  1.00 20.00     0.056 C 
HETATM    6  C7  UNL     1     -34.166  16.609  -3.937  1.00 20.00    -0.014 C 
ENDROOT
BRANCH   5   7
HETATM    7  C1  UNL     1     -36.225  15.375  -5.947  1.00 20.00     0.131 C 
HETATM    8  O14 UNL     1     -36.554  14.357  -5.339  1.00 20.00    -0.298 OA
BRANCH   7   9
HETATM    9  C11 UNL     1     -37.225  16.422  -6.411  1.00 20.00     0.082 C 
BRANCH   9  10
HETATM   10  C13 UNL     1     -38.407  16.620  -5.449  1.00 20.00    -0.016 C 
HETATM   11  C9  UNL     1     -39.671  17.049  -6.199  1.00 20.00     0.010 C 
HETATM   12  C10 UNL     1     -38.053  17.669  -4.393  1.00 20.00     0.010 C 
ENDBRANCH   9  10
ENDBRANCH   7   9
ENDBRANCH   5   7
BRANCH   6  13
HETATM   13  C12 UNL     1     -33.270  16.403  -2.716  1.00 20.00     0.000 C 
HETATM   14  C8  UNL     1     -33.648  17.313  -1.595  1.00 20.00     0.005 C 
ENDBRANCH   6  13
TORSDOF 4
ENDMDL
