MODEL 1
REMARK VINA RESULT:      -4.5      0.000      0.000
REMARK  3 active torsions:
REMARK  status: ('A' for Active; 'I' for Inactive)
REMARK    1  A    between atoms: C1_1  and  C9_9 
REMARK    2  A    between atoms: C6_6  and  C9_9 
REMARK    3  A    between atoms: C7_7  and  C10_10 
ROOT
HETATM    1  C2  UNL     1     -33.716   5.049   3.585  1.00 20.00     0.001 C 
HETATM    2  C3  UNL     1     -32.909   6.055   2.769  1.00 20.00     0.005 C 
HETATM    3  C4  UNL     1     -34.948   5.693   4.215  1.00 20.00     0.005 C 
HETATM    4  C5  UNL     1     -33.772   7.932   4.226  1.00 20.00     0.009 C 
HETATM    5  C6  UNL     1     -32.527   7.288   3.596  1.00 20.00    -0.008 C 
HETATM    6  C7  UNL     1     -34.617   6.942   5.044  1.00 20.00    -0.014 C 
ENDROOT
BRANCH   5   7
HETATM    7  C9  UNL     1     -31.778   8.304   2.733  1.00 20.00     0.074 C 
BRANCH   7   8
HETATM    8  C1  UNL     1     -32.234   8.280   1.299  1.00 20.00     0.231 C 
HETATM    9  O11 UNL     1     -32.606   9.258   0.661  1.00 20.00    -0.307 OA
ENDBRANCH   7   8
ENDBRANCH   5   7
BRANCH   6  10
HETATM   10  C10 UNL     1     -33.942   6.579   6.369  1.00 20.00     0.000 C 
HETATM   11  C8  UNL     1     -34.321   5.207   6.820  1.00 20.00     0.005 C 
ENDBRANCH   6  10
TORSDOF 3
ENDMDL
MODEL 2
REMARK VINA RESULT:      -4.3      2.511      4.610
REMARK  3 active torsions:
REMARK  status: ('A' for Active; 'I' for Inactive)
REMARK    1  A    between atoms: C1_1  and  C9_9 
REMARK    2  A    between atoms: C6_6  and  C9_9 
REMARK    3  A    between atoms: C7_7  and  C10_10 
ROOT
HETATM    1  C2  UNL     1     -33.103   6.170   2.567  1.00 20.00     0.001 C 
HETATM    2  C3  UNL     1     -33.510   6.057   4.034  1.00 20.00     0.005 C 
HETATM    3  C4  UNL     1     -31.898   7.089   2.384  1.00 20.00     0.005 C 
HETATM    4  C5  UNL     1     -32.544   8.352   4.478  1.00 20.00     0.009 C 
HETATM    5  C6  UNL     1     -33.762   7.432   4.665  1.00 20.00    -0.008 C 
HETATM    6  C7  UNL     1     -32.099   8.475   3.013  1.00 20.00    -0.014 C 
ENDROOT
BRANCH   5   7
HETATM    7  C9  UNL     1     -34.102   7.288   6.149  1.00 20.00     0.074 C 
BRANCH   7   8
HETATM    8  C1  UNL     1     -34.735   5.960   6.462  1.00 20.00     0.231 C 
HETATM    9  O11 UNL     1     -34.125   4.942   6.771  1.00 20.00    -0.307 OA
ENDBRANCH   7   8
ENDBRANCH   5   7
BRANCH   6  10
HETATM   10  C10 UNL     1     -33.068   9.333   2.195  1.00 20.00     0.000 C 
HETATM   11  C8  UNL     1     -32.680   9.377   0.755  1.00 20.00     0.005 C 
ENDBRANCH   6  10
TORSDOF 3
ENDMDL
MODEL 3
REMARK VINA RESULT:      -4.2     11.879     12.861
REMARK  3 active torsions:
REMARK  status: ('A' for Active; 'I' for Inactive)
REMARK    1  A    between atoms: C1_1  and  C9_9 
REMARK    2  A    between atoms: C6_6  and  C9_9 
REMARK    3  A    between atoms: C7_7  and  C10_10 
ROOT
HETATM    1  C2  UNL     1     -34.382  18.590  -4.325  1.00 20.00     0.001 C 
HETATM    2  C3  UNL     1     -34.515  17.332  -5.179  1.00 20.00     0.005 C 
HETATM    3  C4  UNL     1     -33.090  18.589  -3.514  1.00 20.00     0.005 C 
HETATM    4  C5  UNL     1     -33.085  16.060  -3.527  1.00 20.00     0.009 C 
HETATM    5  C6  UNL     1     -34.390  16.055  -4.340  1.00 20.00    -0.008 C 
HETATM    6  C7  UNL     1     -32.913  17.321  -2.666  1.00 20.00    -0.014 C 
ENDROOT
BRANCH   5   7
HETATM    7  C9  UNL     1     -34.460  14.816  -5.232  1.00 20.00     0.074 C 
BRANCH   7   8
HETATM    8  C1  UNL     1     -35.807  14.659  -5.885  1.00 20.00     0.231 C 
HETATM    9  O11 UNL     1     -35.994  14.271  -7.033  1.00 20.00    -0.307 OA
ENDBRANCH   7   8
ENDBRANCH   5   7
BRANCH   6  10
HETATM   10  C10 UNL     1     -33.851  17.315  -1.456  1.00 20.00     0.000 C 
HETATM   11  C8  UNL     1     -33.319  18.160  -0.346  1.00 20.00     0.005 C 
ENDBRANCH   6  10
TORSDOF 3
ENDMDL
MODEL 4
REMARK VINA RESULT:      -3.9     11.272     13.318
REMARK  3 active torsions:
REMARK  status: ('A' for Active; 'I' for Inactive)
REMARK    1  A    between atoms: C1_1  and  C9_9 
REMARK    2  A    between atoms: C6_6  and  C9_9 
REMARK    3  A    between atoms: C7_7  and  C10_10 
ROOT
HETATM    1  C2  UNL     1     -33.280  17.906  -2.552  1.00 20.00     0.001 C 
HETATM    2  C3  UNL     1     -33.386  16.392  -2.720  1.00 20.00     0.005 C 
HETATM    3  C4  UNL     1     -34.539  18.618  -3.040  1.00 20.00     0.005 C 
HETATM    4  C5  UNL     1     -34.989  16.718  -4.649  1.00 20.00     0.009 C 
HETATM    5  C6  UNL     1     -33.720  15.999  -4.164  1.00 20.00    -0.008 C 
HETATM    6  C7  UNL     1     -34.921  18.244  -4.480  1.00 20.00    -0.014 C 
ENDROOT
BRANCH   5   7
HETATM    7  C9  UNL     1     -33.884  14.484  -4.284  1.00 20.00     0.074 C 
BRANCH   7   8
HETATM    8  C1  UNL     1     -35.283  14.092  -4.677  1.00 20.00     0.231 C 
HETATM    9  O11 UNL     1     -35.838  13.046  -4.360  1.00 20.00    -0.307 OA
ENDBRANCH   7   8
ENDBRANCH   5   7
BRANCH   6  10
HETATM   10  C10 UNL     1     -33.978  18.887  -5.501  1.00 20.00     0.000 C 
HETATM   11  C8  UNL     1     -34.325  18.486  -6.896  1.00 20.00     0.005 C 
ENDBRANCH   6  10
TORSDOF 3
ENDMDL
MODEL 5
REMARK VINA RESULT:      -3.9     11.899     13.269
REMARK  3 active torsions:
REMARK  status: ('A' for Active; 'I' for Inactive)
REMARK    1  A    between atoms: C1_1  and  C9_9 
REMARK    2  A    between atoms: C6_6  and  C9_9 
REMARK    3  A    between atoms: C7_7  and  C10_10 
ROOT
HETATM    1  C2  UNL     1     -33.950  16.366  -3.736  1.00 20.00     0.001 C 
HETATM    2  C3  UNL     1     -33.176  16.683  -2.459  1.00 20.00     0.005 C 
HETATM    3  C4  UNL     1     -34.195  17.618  -4.573  1.00 20.00     0.005 C 
HETATM    4  C5  UNL     1     -34.105  19.034  -2.479  1.00 20.00     0.009 C 
HETATM    5  C6  UNL     1     -33.862  17.776  -1.631  1.00 20.00    -0.008 C 
HETATM    6  C7  UNL     1     -34.869  18.748  -3.781  1.00 20.00    -0.014 C 
ENDROOT
BRANCH   5   7
HETATM    7  C9  UNL     1     -33.030  18.116  -0.394  1.00 20.00     0.074 C 
BRANCH   7   8
HETATM    8  C1  UNL     1     -31.814  18.935  -0.733  1.00 20.00     0.231 C 
HETATM    9  O11 UNL     1     -30.659  18.632  -0.455  1.00 20.00    -0.307 OA
ENDBRANCH   7   8
ENDBRANCH   5   7
BRANCH   6  10
HETATM   10  C10 UNL     1     -36.348  18.451  -3.518  1.00 20.00     0.000 C 
HETATM   11  C8  UNL     1     -37.060  18.064  -4.771  1.00 20.00     0.005 C 
ENDBRANCH   6  10
TORSDOF 3
ENDMDL
MODEL 6
REMARK VINA RESULT:      -3.7     11.678     13.119
REMARK  3 active torsions:
REMARK  status: ('A' for Active; 'I' for Inactive)
REMARK    1  A    between atoms: C1_1  and  C9_9 
REMARK    2  A    between atoms: C6_6  and  C9_9 
REMARK    3  A    between atoms: C7_7  and  C10_10 
ROOT
HETATM    1  C2  UNL     1     -34.193  14.820  -4.853  1.00 20.00     0.001 C 
HETATM    2  C3  UNL     1     -33.322  15.335  -3.710  1.00 20.00     0.005 C 
HETATM    3  C4  UNL     1     -34.401  15.883  -5.928  1.00 20.00     0.005 C 
HETATM    4  C5  UNL     1     -34.084  17.697  -4.194  1.00 20.00     0.009 C 
HETATM    5  C6  UNL     1     -33.878  16.630  -3.106  1.00 20.00    -0.008 C 
HETATM    6  C7  UNL     1     -34.945  17.206  -5.368  1.00 20.00    -0.014 C 
ENDROOT
BRANCH   5   7
HETATM    7  C9  UNL     1     -32.949  17.155  -2.011  1.00 20.00     0.074 C 
BRANCH   7   8
HETATM    8  C1  UNL     1     -32.785  18.649  -2.070  1.00 20.00     0.231 C 
HETATM    9  O11 UNL     1     -31.782  19.263  -1.724  1.00 20.00    -0.307 OA
ENDBRANCH   7   8
ENDBRANCH   5   7
BRANCH   6  10
HETATM   10  C10 UNL     1     -36.421  17.092  -4.980  1.00 20.00     0.000 C 
HETATM   11  C8  UNL     1     -37.239  16.532  -6.096  1.00 20.00     0.005 C 
ENDBRANCH   6  10
TORSDOF 3
ENDMDL
MODEL 7
REMARK VINA RESULT:      -3.6      2.442      4.472
REMARK  3 active torsions:
REMARK  status: ('A' for Active; 'I' for Inactive)
REMARK    1  A    between atoms: C1_1  and  C9_9 
REMARK    2  A    between atoms: C6_6  and  C9_9 
REMARK    3  A    between atoms: C7_7  and  C10_10 
ROOT
HETATM    1  C2  UNL     1     -31.971   9.025   4.718  1.00 20.00     0.001 C 
HETATM    2  C3  UNL     1     -32.906   8.531   5.819  1.00 20.00     0.005 C 
HETATM    3  C4  UNL     1     -32.655   9.025   3.354  1.00 20.00     0.005 C 
HETATM    4  C5  UNL     1     -34.182   7.160   4.120  1.00 20.00     0.009 C 
HETATM    5  C6  UNL     1     -33.494   7.152   5.495  1.00 20.00    -0.008 C 
HETATM    6  C7  UNL     1     -33.272   7.666   2.990  1.00 20.00    -0.014 C 
ENDROOT
BRANCH   5   7
HETATM    7  C9  UNL     1     -34.475   6.717   6.583  1.00 20.00     0.074 C 
BRANCH   7   8
HETATM    8  C1  UNL     1     -34.832   5.259   6.478  1.00 20.00     0.231 C 
HETATM    9  O11 UNL     1     -34.451   4.500   5.594  1.00 20.00    -0.307 OA
ENDBRANCH   7   8
ENDBRANCH   5   7
BRANCH   6  10
HETATM   10  C10 UNL     1     -32.199   6.638   2.622  1.00 20.00     0.000 C 
HETATM   11  C8  UNL     1     -32.762   5.258   2.555  1.00 20.00     0.005 C 
ENDBRANCH   6  10
TORSDOF 3
ENDMDL
MODEL 8
REMARK VINA RESULT:      -3.6     11.731     13.147
REMARK  3 active torsions:
REMARK  status: ('A' for Active; 'I' for Inactive)
REMARK    1  A    between atoms: C1_1  and  C9_9 
REMARK    2  A    between atoms: C6_6  and  C9_9 
REMARK    3  A    between atoms: C7_7  and  C10_10 
ROOT
HETATM    1  C2  UNL     1     -33.022  15.805  -3.398  1.00 20.00     0.001 C 
HETATM    2  C3  UNL     1     -33.985  15.583  -4.561  1.00 20.00     0.005 C 
HETATM    3  C4  UNL     1     -33.655  16.649  -2.294  1.00 20.00     0.005 C 
HETATM    4  C5  UNL     1     -35.161  17.751  -4.002  1.00 20.00     0.009 C 
HETATM    5  C6  UNL     1     -34.524  16.907  -5.118  1.00 20.00    -0.008 C 
HETATM    6  C7  UNL     1     -34.223  17.980  -2.807  1.00 20.00    -0.014 C 
ENDROOT
BRANCH   5   7
HETATM    7  C9  UNL     1     -35.534  16.648  -6.236  1.00 20.00     0.074 C 
BRANCH   7   8
HETATM    8  C1  UNL     1     -36.109  15.258  -6.175  1.00 20.00     0.231 C 
HETATM    9  O11 UNL     1     -35.974  14.401  -7.041  1.00 20.00    -0.307 OA
ENDBRANCH   7   8
ENDBRANCH   5   7
BRANCH   6  10
HETATM   10  C10 UNL     1     -33.111  18.978  -3.141  1.00 20.00     0.000 C 
HETATM   11  C8  UNL     1     -32.254  19.263  -1.953  1.00 20.00     0.005 C 
ENDBRANCH   6  10
TORSDOF 3
ENDMDL
MODEL 9
REMARK VINA RESULT:      -3.6      9.819     10.911
REMARK  3 active torsions:
REMARK  status: ('A' for Active; 'I' for Inactive)
REMARK    1  A    between atoms: C1_1  and  C9_9 
REMARK    2  A    between atoms: C6_6  and  C9_9 
REMARK    3  A    between atoms: C7_7  and  C10_10 
ROOT
HETATM    1  C2  UNL     1     -42.902  13.053   8.178  1.00 20.00     0.001 C 
HETATM    2  C3  UNL     1     -42.378  12.687   6.793  1.00 20.00     0.005 C 
HETATM    3  C4  UNL     1     -42.690  14.532   8.490  1.00 20.00     0.005 C 
HETATM    4  C5  UNL     1     -40.701  14.575   6.928  1.00 20.00     0.009 C 
HETATM    5  C6  UNL     1     -40.907  13.084   6.614  1.00 20.00    -0.008 C 
HETATM    6  C7  UNL     1     -41.232  14.981   8.311  1.00 20.00    -0.014 C 
ENDROOT
BRANCH   5   7
HETATM    7  C9  UNL     1     -40.432  12.764   5.197  1.00 20.00     0.074 C 
BRANCH   7   8
HETATM    8  C1  UNL     1     -39.265  11.815   5.187  1.00 20.00     0.231 C 
HETATM    9  O11 UNL     1     -38.085  12.147   5.201  1.00 20.00    -0.307 OA
ENDBRANCH   7   8
ENDBRANCH   5   7
BRANCH   6  10
HETATM   10  C10 UNL     1     -40.337  14.459   9.439  1.00 20.00     0.000 C 
HETATM   11  C8  UNL     1     -40.735  15.026  10.761  1.00 20.00     0.005 C 
ENDBRANCH   6  10
TORSDOF 3
ENDMDL
