MODEL 1
REMARK VINA RESULT:      -4.6      0.000      0.000
REMARK  3 active torsions:
REMARK  status: ('A' for Active; 'I' for Inactive)
REMARK    1  A    between atoms: C1_1  and  C9_9 
REMARK    2  A    between atoms: C6_6  and  C9_9 
REMARK    3  A    between atoms: C7_7  and  C10_10 
ROOT
HETATM    1  C2  UNL     1     -32.631   8.709   5.045  1.00 20.00     0.001 C 
HETATM    2  C3  UNL     1     -32.457   8.884   3.540  1.00 20.00     0.005 C 
HETATM    3  C4  UNL     1     -33.711   7.681   5.371  1.00 20.00     0.005 C 
HETATM    4  C5  UNL     1     -33.266   6.518   3.172  1.00 20.00     0.009 C 
HETATM    5  C6  UNL     1     -32.175   7.547   2.844  1.00 20.00    -0.008 C 
HETATM    6  C7  UNL     1     -33.438   6.336   4.687  1.00 20.00    -0.014 C 
ENDROOT
BRANCH   5   7
HETATM    7  C9  UNL     1     -32.054   7.741   1.332  1.00 20.00     0.074 C 
BRANCH   7   8
HETATM    8  C1  UNL     1     -32.509   9.105   0.892  1.00 20.00     0.231 C 
HETATM    9  O11 UNL     1     -33.206   9.334  -0.090  1.00 20.00    -0.307 OA
ENDBRANCH   7   8
ENDBRANCH   5   7
BRANCH   6  10
HETATM   10  C10 UNL     1     -34.557   5.341   4.987  1.00 20.00     0.000 C 
HETATM   11  C8  UNL     1     -34.895   5.311   6.441  1.00 20.00     0.005 C 
ENDBRANCH   6  10
TORSDOF 3
ENDMDL
MODEL 2
REMARK VINA RESULT:      -4.3     11.421     12.093
REMARK  3 active torsions:
REMARK  status: ('A' for Active; 'I' for Inactive)
REMARK    1  A    between atoms: C1_1  and  C9_9 
REMARK    2  A    between atoms: C6_6  and  C9_9 
REMARK    3  A    between atoms: C7_7  and  C10_10 
ROOT
HETATM    1  C2  UNL     1     -34.186  18.622   0.948  1.00 20.00     0.001 C 
HETATM    2  C3  UNL     1     -32.886  19.263   1.426  1.00 20.00     0.005 C 
HETATM    3  C4  UNL     1     -34.229  18.506  -0.574  1.00 20.00     0.005 C 
HETATM    4  C5  UNL     1     -31.705  18.403  -0.636  1.00 20.00     0.009 C 
HETATM    5  C6  UNL     1     -31.658  18.514   0.894  1.00 20.00    -0.008 C 
HETATM    6  C7  UNL     1     -33.010  17.752  -1.119  1.00 20.00    -0.014 C 
ENDROOT
BRANCH   5   7
HETATM    7  C9  UNL     1     -30.370  19.202   1.345  1.00 20.00     0.074 C 
BRANCH   7   8
HETATM    8  C1  UNL     1     -30.061  18.946   2.795  1.00 20.00     0.231 C 
HETATM    9  O11 UNL     1     -29.047  18.398   3.214  1.00 20.00    -0.307 OA
ENDBRANCH   7   8
ENDBRANCH   5   7
BRANCH   6  10
HETATM   10  C10 UNL     1     -33.050  17.693  -2.644  1.00 20.00     0.000 C 
HETATM   11  C8  UNL     1     -33.338  16.314  -3.137  1.00 20.00     0.005 C 
ENDBRANCH   6  10
TORSDOF 3
ENDMDL
MODEL 3
REMARK VINA RESULT:      -4.2     10.619     11.918
REMARK  3 active torsions:
REMARK  status: ('A' for Active; 'I' for Inactive)
REMARK    1  A    between atoms: C1_1  and  C9_9 
REMARK    2  A    between atoms: C6_6  and  C9_9 
REMARK    3  A    between atoms: C7_7  and  C10_10 
ROOT
HETATM    1  C2  UNL     1     -34.436  18.223  -4.715  1.00 20.00     0.001 C 
HETATM    2  C3  UNL     1     -34.752  16.731  -4.761  1.00 20.00     0.005 C 
HETATM    3  C4  UNL     1     -34.128  18.690  -3.295  1.00 20.00     0.005 C 
HETATM    4  C5  UNL     1     -33.326  16.367  -2.707  1.00 20.00     0.009 C 
HETATM    5  C6  UNL     1     -33.628  15.895  -4.136  1.00 20.00    -0.008 C 
HETATM    6  C7  UNL     1     -33.001  17.866  -2.660  1.00 20.00    -0.014 C 
ENDROOT
BRANCH   5   7
HETATM    7  C9  UNL     1     -33.990  14.410  -4.149  1.00 20.00     0.074 C 
BRANCH   7   8
HETATM    8  C1  UNL     1     -35.340  14.155  -4.761  1.00 20.00     0.231 C 
HETATM    9  O11 UNL     1     -36.088  13.230  -4.462  1.00 20.00    -0.307 OA
ENDBRANCH   7   8
ENDBRANCH   5   7
BRANCH   6  10
HETATM   10  C10 UNL     1     -32.747  18.318  -1.224  1.00 20.00     0.000 C 
HETATM   11  C8  UNL     1     -33.855  17.906  -0.311  1.00 20.00     0.005 C 
ENDBRANCH   6  10
TORSDOF 3
ENDMDL
MODEL 4
REMARK VINA RESULT:      -4.2     11.239     12.324
REMARK  3 active torsions:
REMARK  status: ('A' for Active; 'I' for Inactive)
REMARK    1  A    between atoms: C1_1  and  C9_9 
REMARK    2  A    between atoms: C6_6  and  C9_9 
REMARK    3  A    between atoms: C7_7  and  C10_10 
ROOT
HETATM    1  C2  UNL     1     -34.994  18.619  -3.604  1.00 20.00     0.001 C 
HETATM    2  C3  UNL     1     -34.190  19.031  -2.374  1.00 20.00     0.005 C 
HETATM    3  C4  UNL     1     -34.302  17.503  -4.382  1.00 20.00     0.005 C 
HETATM    4  C5  UNL     1     -33.192  16.712  -2.254  1.00 20.00     0.009 C 
HETATM    5  C6  UNL     1     -33.890  17.830  -1.467  1.00 20.00    -0.008 C 
HETATM    6  C7  UNL     1     -34.003  16.292  -3.488  1.00 20.00    -0.014 C 
ENDROOT
BRANCH   5   7
HETATM    7  C9  UNL     1     -33.043  18.258  -0.270  1.00 20.00     0.074 C 
BRANCH   7   8
HETATM    8  C1  UNL     1     -31.807  19.009  -0.682  1.00 20.00     0.231 C 
HETATM    9  O11 UNL     1     -30.655  18.653  -0.455  1.00 20.00    -0.307 OA
ENDBRANCH   7   8
ENDBRANCH   5   7
BRANCH   6  10
HETATM   10  C10 UNL     1     -33.266  15.211  -4.275  1.00 20.00     0.000 C 
HETATM   11  C8  UNL     1     -33.912  14.952  -5.596  1.00 20.00     0.005 C 
ENDBRANCH   6  10
TORSDOF 3
ENDMDL
MODEL 5
REMARK VINA RESULT:      -4.1      2.401      4.539
REMARK  3 active torsions:
REMARK  status: ('A' for Active; 'I' for Inactive)
REMARK    1  A    between atoms: C1_1  and  C9_9 
REMARK    2  A    between atoms: C6_6  and  C9_9 
REMARK    3  A    between atoms: C7_7  and  C10_10 
ROOT
HETATM    1  C2  UNL     1     -32.855   8.920   5.553  1.00 20.00     0.001 C 
HETATM    2  C3  UNL     1     -33.433   7.588   6.021  1.00 20.00     0.005 C 
HETATM    3  C4  UNL     1     -32.040   8.761   4.272  1.00 20.00     0.005 C 
HETATM    4  C5  UNL     1     -33.436   6.753   3.636  1.00 20.00     0.009 C 
HETATM    5  C6  UNL     1     -34.261   6.914   4.921  1.00 20.00    -0.008 C 
HETATM    6  C7  UNL     1     -32.859   8.094   3.160  1.00 20.00    -0.014 C 
ENDROOT
BRANCH   5   7
HETATM    7  C9  UNL     1     -34.788   5.560   5.396  1.00 20.00     0.074 C 
BRANCH   7   8
HETATM    8  C1  UNL     1     -34.392   4.437   4.476  1.00 20.00     0.231 C 
HETATM    9  O11 UNL     1     -33.641   3.514   4.772  1.00 20.00    -0.307 OA
ENDBRANCH   7   8
ENDBRANCH   5   7
BRANCH   6  10
HETATM   10  C10 UNL     1     -32.009   7.900   1.907  1.00 20.00     0.000 C 
HETATM   11  C8  UNL     1     -32.443   8.801   0.799  1.00 20.00     0.005 C 
ENDBRANCH   6  10
TORSDOF 3
ENDMDL
MODEL 6
REMARK VINA RESULT:      -4.1      1.143      2.220
REMARK  3 active torsions:
REMARK  status: ('A' for Active; 'I' for Inactive)
REMARK    1  A    between atoms: C1_1  and  C9_9 
REMARK    2  A    between atoms: C6_6  and  C9_9 
REMARK    3  A    between atoms: C7_7  and  C10_10 
ROOT
HETATM    1  C2  UNL     1     -33.208   4.902   2.606  1.00 20.00     0.001 C 
HETATM    2  C3  UNL     1     -32.425   6.205   2.475  1.00 20.00     0.005 C 
HETATM    3  C4  UNL     1     -33.644   4.650   4.047  1.00 20.00     0.005 C 
HETATM    4  C5  UNL     1     -33.648   7.140   4.479  1.00 20.00     0.009 C 
HETATM    5  C6  UNL     1     -33.215   7.398   3.029  1.00 20.00    -0.008 C 
HETATM    6  C7  UNL     1     -34.442   5.833   4.612  1.00 20.00    -0.014 C 
ENDROOT
BRANCH   5   7
HETATM    7  C9  UNL     1     -32.391   8.682   2.932  1.00 20.00     0.074 C 
BRANCH   7   8
HETATM    8  C1  UNL     1     -32.890   9.601   1.851  1.00 20.00     0.231 C 
HETATM    9  O11 UNL     1     -32.638   9.488   0.657  1.00 20.00    -0.307 OA
ENDBRANCH   7   8
ENDBRANCH   5   7
BRANCH   6  10
HETATM   10  C10 UNL     1     -34.822   5.579   6.069  1.00 20.00     0.000 C 
HETATM   11  C8  UNL     1     -34.434   6.721   6.949  1.00 20.00     0.005 C 
ENDBRANCH   6  10
TORSDOF 3
ENDMDL
MODEL 7
REMARK VINA RESULT:      -3.9      9.969     11.165
REMARK  3 active torsions:
REMARK  status: ('A' for Active; 'I' for Inactive)
REMARK    1  A    between atoms: C1_1  and  C9_9 
REMARK    2  A    between atoms: C6_6  and  C9_9 
REMARK    3  A    between atoms: C7_7  and  C10_10 
ROOT
HETATM    1  C2  UNL     1     -42.180  14.353   5.359  1.00 20.00     0.001 C 
HETATM    2  C3  UNL     1     -41.610  15.224   6.474  1.00 20.00     0.005 C 
HETATM    3  C4  UNL     1     -41.160  13.331   4.865  1.00 20.00     0.005 C 
HETATM    4  C5  UNL     1     -40.043  13.354   7.132  1.00 20.00     0.009 C 
HETATM    5  C6  UNL     1     -41.072  14.377   7.634  1.00 20.00    -0.008 C 
HETATM    6  C7  UNL     1     -40.617  12.471   6.014  1.00 20.00    -0.014 C 
ENDROOT
BRANCH   5   7
HETATM    7  C9  UNL     1     -40.462  15.269   8.715  1.00 20.00     0.074 C 
BRANCH   7   8
HETATM    8  C1  UNL     1     -40.454  14.607  10.066  1.00 20.00     0.231 C 
HETATM    9  O11 UNL     1     -41.151  13.651  10.388  1.00 20.00    -0.307 OA
ENDBRANCH   7   8
ENDBRANCH   5   7
BRANCH   6  10
HETATM   10  C10 UNL     1     -39.562  11.493   5.504  1.00 20.00     0.000 C 
HETATM   11  C8  UNL     1     -39.137  11.816   4.109  1.00 20.00     0.005 C 
ENDBRANCH   6  10
TORSDOF 3
ENDMDL
MODEL 8
REMARK VINA RESULT:      -3.9      1.285      2.453
REMARK  3 active torsions:
REMARK  status: ('A' for Active; 'I' for Inactive)
REMARK    1  A    between atoms: C1_1  and  C9_9 
REMARK    2  A    between atoms: C6_6  and  C9_9 
REMARK    3  A    between atoms: C7_7  and  C10_10 
ROOT
HETATM    1  C2  UNL     1     -34.316   6.904   6.560  1.00 20.00     0.001 C 
HETATM    2  C3  UNL     1     -33.936   8.175   5.808  1.00 20.00     0.005 C 
HETATM    3  C4  UNL     1     -34.655   5.763   5.603  1.00 20.00     0.005 C 
HETATM    4  C5  UNL     1     -33.137   6.780   3.858  1.00 20.00     0.009 C 
HETATM    5  C6  UNL     1     -32.789   7.925   4.819  1.00 20.00    -0.008 C 
HETATM    6  C7  UNL     1     -33.514   5.498   4.613  1.00 20.00    -0.014 C 
ENDROOT
BRANCH   5   7
HETATM    7  C9  UNL     1     -32.460   9.200   4.043  1.00 20.00     0.074 C 
BRANCH   7   8
HETATM    8  C1  UNL     1     -32.510   8.993   2.554  1.00 20.00     0.231 C 
HETATM    9  O11 UNL     1     -32.944   9.803   1.743  1.00 20.00    -0.307 OA
ENDBRANCH   7   8
ENDBRANCH   5   7
BRANCH   6  10
HETATM   10  C10 UNL     1     -33.896   4.389   3.636  1.00 20.00     0.000 C 
HETATM   11  C8  UNL     1     -33.203   4.547   2.322  1.00 20.00     0.005 C 
ENDBRANCH   6  10
TORSDOF 3
ENDMDL
MODEL 9
REMARK VINA RESULT:      -3.8     11.291     13.059
REMARK  3 active torsions:
REMARK  status: ('A' for Active; 'I' for Inactive)
REMARK    1  A    between atoms: C1_1  and  C9_9 
REMARK    2  A    between atoms: C6_6  and  C9_9 
REMARK    3  A    between atoms: C7_7  and  C10_10 
ROOT
HETATM    1  C2  UNL     1     -33.476  15.836  -3.596  1.00 20.00     0.001 C 
HETATM    2  C3  UNL     1     -33.300  16.683  -2.339  1.00 20.00     0.005 C 
HETATM    3  C4  UNL     1     -34.520  16.434  -4.536  1.00 20.00     0.005 C 
HETATM    4  C5  UNL     1     -34.019  18.737  -3.624  1.00 20.00     0.009 C 
HETATM    5  C6  UNL     1     -32.964  18.140  -2.682  1.00 20.00    -0.008 C 
HETATM    6  C7  UNL     1     -34.193  17.889  -4.893  1.00 20.00    -0.014 C 
ENDROOT
BRANCH   5   7
HETATM    7  C9  UNL     1     -32.841  18.979  -1.410  1.00 20.00     0.074 C 
BRANCH   7   8
HETATM    8  C1  UNL     1     -31.805  18.435  -0.464  1.00 20.00     0.231 C 
HETATM    9  O11 UNL     1     -30.617  18.737  -0.469  1.00 20.00    -0.307 OA
ENDBRANCH   7   8
ENDBRANCH   5   7
BRANCH   6  10
HETATM   10  C10 UNL     1     -35.277  18.480  -5.791  1.00 20.00     0.000 C 
HETATM   11  C8  UNL     1     -36.641  18.031  -5.381  1.00 20.00     0.005 C 
ENDBRANCH   6  10
TORSDOF 3
ENDMDL
