MODEL 1
REMARK VINA RESULT:      -4.8      0.000      0.000
REMARK  1 active torsions:
REMARK  status: ('A' for Active; 'I' for Inactive)
REMARK    1  A    between atoms: C8_8  and  C10_10 
ROOT
HETATM    1  C1  UNL     1     -32.664   9.429   1.098  1.00 20.00     0.088 C 
HETATM    2  C2  UNL     1     -32.747   8.175   3.152  1.00 20.00    -0.070 C 
HETATM    3  C3  UNL     1     -32.936   9.323   2.485  1.00 20.00     0.096 C 
HETATM    4  C4  UNL     1     -32.237   6.926   2.485  1.00 20.00     0.035 C 
HETATM    5  C5  UNL     1     -33.051   8.035   4.622  1.00 20.00     0.039 C 
HETATM    6  C6  UNL     1     -33.181   5.752   2.740  1.00 20.00     0.005 C 
HETATM    7  C7  UNL     1     -33.466   5.564   4.233  1.00 20.00     0.005 C 
HETATM    8  C8  UNL     1     -34.006   6.855   4.872  1.00 20.00    -0.011 C 
HETATM    9  N11 UNL     1     -32.443   9.524  -0.037  1.00 20.00    -0.192 NA
ENDROOT
BRANCH   8  10
HETATM   10  C10 UNL     1     -34.237   6.658   6.369  1.00 20.00     0.000 C 
HETATM   11  C9  UNL     1     -34.692   5.270   6.678  1.00 20.00     0.005 C 
ENDBRANCH   8  10
TORSDOF 1
ENDMDL
MODEL 2
REMARK VINA RESULT:      -4.8     11.210     12.334
REMARK  1 active torsions:
REMARK  status: ('A' for Active; 'I' for Inactive)
REMARK    1  A    between atoms: C8_8  and  C10_10 
ROOT
HETATM    1  C1  UNL     1     -33.794  15.127  -5.343  1.00 20.00     0.088 C 
HETATM    2  C2  UNL     1     -33.765  16.584  -3.426  1.00 20.00    -0.070 C 
HETATM    3  C3  UNL     1     -33.596  15.366  -3.960  1.00 20.00     0.096 C 
HETATM    4  C4  UNL     1     -34.172  17.778  -4.247  1.00 20.00     0.035 C 
HETATM    5  C5  UNL     1     -33.538  16.863  -1.962  1.00 20.00     0.039 C 
HETATM    6  C6  UNL     1     -33.186  18.929  -4.055  1.00 20.00     0.005 C 
HETATM    7  C7  UNL     1     -32.977  19.259  -2.575  1.00 20.00     0.005 C 
HETATM    8  C8  UNL     1     -32.541  18.020  -1.775  1.00 20.00    -0.011 C 
HETATM    9  N11 UNL     1     -33.955  14.923  -6.473  1.00 20.00    -0.192 NA
ENDROOT
BRANCH   8  10
HETATM   10  C10 UNL     1     -32.385  18.362  -0.294  1.00 20.00     0.000 C 
HETATM   11  C9  UNL     1     -30.952  18.544   0.082  1.00 20.00     0.005 C 
ENDBRANCH   8  10
TORSDOF 1
ENDMDL
MODEL 3
REMARK VINA RESULT:      -4.2     11.327     12.861
REMARK  1 active torsions:
REMARK  status: ('A' for Active; 'I' for Inactive)
REMARK    1  A    between atoms: C8_8  and  C10_10 
ROOT
HETATM    1  C1  UNL     1     -31.798  18.822  -1.123  1.00 20.00     0.088 C 
HETATM    2  C2  UNL     1     -33.631  18.116  -2.517  1.00 20.00    -0.070 C 
HETATM    3  C3  UNL     1     -32.898  19.099  -1.972  1.00 20.00     0.096 C 
HETATM    4  C4  UNL     1     -33.342  16.661  -2.270  1.00 20.00     0.035 C 
HETATM    5  C5  UNL     1     -34.791  18.390  -3.440  1.00 20.00     0.039 C 
HETATM    6  C6  UNL     1     -33.180  15.909  -3.592  1.00 20.00     0.005 C 
HETATM    7  C7  UNL     1     -34.371  16.137  -4.526  1.00 20.00     0.005 C 
HETATM    8  C8  UNL     1     -34.620  17.636  -4.770  1.00 20.00    -0.011 C 
HETATM    9  N11 UNL     1     -30.897  18.603  -0.426  1.00 20.00    -0.192 NA
ENDROOT
BRANCH   8  10
HETATM   10  C10 UNL     1     -35.841  17.840  -5.665  1.00 20.00     0.000 C 
HETATM   11  C9  UNL     1     -36.780  16.681  -5.589  1.00 20.00     0.005 C 
ENDBRANCH   8  10
TORSDOF 1
ENDMDL
MODEL 4
REMARK VINA RESULT:      -4.1     11.089     12.601
REMARK  1 active torsions:
REMARK  status: ('A' for Active; 'I' for Inactive)
REMARK    1  A    between atoms: C8_8  and  C10_10 
ROOT
HETATM    1  C1  UNL     1     -35.950  15.343  -7.303  1.00 20.00     0.088 C 
HETATM    2  C2  UNL     1     -34.560  16.448  -5.676  1.00 20.00    -0.070 C 
HETATM    3  C3  UNL     1     -35.569  16.487  -6.559  1.00 20.00     0.096 C 
HETATM    4  C4  UNL     1     -33.765  15.198  -5.413  1.00 20.00     0.035 C 
HETATM    5  C5  UNL     1     -34.153  17.648  -4.859  1.00 20.00     0.039 C 
HETATM    6  C6  UNL     1     -33.755  14.867  -3.921  1.00 20.00     0.005 C 
HETATM    7  C7  UNL     1     -33.300  16.060  -3.076  1.00 20.00     0.005 C 
HETATM    8  C8  UNL     1     -34.150  17.310  -3.359  1.00 20.00    -0.011 C 
HETATM    9  N11 UNL     1     -36.267  14.411  -7.917  1.00 20.00    -0.192 NA
ENDROOT
BRANCH   8  10
HETATM   10  C10 UNL     1     -33.648  18.499  -2.541  1.00 20.00     0.000 C 
HETATM   11  C9  UNL     1     -32.669  18.075  -1.496  1.00 20.00     0.005 C 
ENDBRANCH   8  10
TORSDOF 1
ENDMDL
MODEL 5
REMARK VINA RESULT:      -4.0     11.463     12.544
REMARK  1 active torsions:
REMARK  status: ('A' for Active; 'I' for Inactive)
REMARK    1  A    between atoms: C8_8  and  C10_10 
ROOT
HETATM    1  C1  UNL     1     -37.243  16.739  -6.322  1.00 20.00     0.088 C 
HETATM    2  C2  UNL     1     -35.219  17.044  -5.053  1.00 20.00    -0.070 C 
HETATM    3  C3  UNL     1     -36.492  17.382  -5.307  1.00 20.00     0.096 C 
HETATM    4  C4  UNL     1     -34.500  15.967  -5.820  1.00 20.00     0.035 C 
HETATM    5  C5  UNL     1     -34.411  17.701  -3.963  1.00 20.00     0.039 C 
HETATM    6  C6  UNL     1     -33.913  14.925  -4.868  1.00 20.00     0.005 C 
HETATM    7  C7  UNL     1     -33.050  15.569  -3.780  1.00 20.00     0.005 C 
HETATM    8  C8  UNL     1     -33.828  16.647  -3.006  1.00 20.00    -0.011 C 
HETATM    9  N11 UNL     1     -37.864  16.217  -7.152  1.00 20.00    -0.192 NA
ENDROOT
BRANCH   8  10
HETATM   10  C10 UNL     1     -32.932  17.308  -1.959  1.00 20.00     0.000 C 
HETATM   11  C9  UNL     1     -33.712  17.743  -0.762  1.00 20.00     0.005 C 
ENDBRANCH   8  10
TORSDOF 1
ENDMDL
MODEL 6
REMARK VINA RESULT:      -4.0     11.288     12.888
REMARK  1 active torsions:
REMARK  status: ('A' for Active; 'I' for Inactive)
REMARK    1  A    between atoms: C8_8  and  C10_10 
ROOT
HETATM    1  C1  UNL     1     -33.564  18.131  -0.666  1.00 20.00     0.088 C 
HETATM    2  C2  UNL     1     -33.453  17.150  -2.862  1.00 20.00    -0.070 C 
HETATM    3  C3  UNL     1     -33.542  17.009  -1.531  1.00 20.00     0.096 C 
HETATM    4  C4  UNL     1     -33.370  18.496  -3.529  1.00 20.00     0.035 C 
HETATM    5  C5  UNL     1     -33.450  15.970  -3.801  1.00 20.00     0.039 C 
HETATM    6  C6  UNL     1     -34.456  18.640  -4.594  1.00 20.00     0.005 C 
HETATM    7  C7  UNL     1     -34.440  17.474  -5.586  1.00 20.00     0.005 C 
HETATM    8  C8  UNL     1     -34.549  16.119  -4.867  1.00 20.00    -0.011 C 
HETATM    9  N11 UNL     1     -33.583  19.044   0.049  1.00 20.00    -0.192 NA
ENDROOT
BRANCH   8  10
HETATM   10  C10 UNL     1     -34.482  14.970  -5.872  1.00 20.00     0.000 C 
HETATM   11  C9  UNL     1     -34.011  15.435  -7.210  1.00 20.00     0.005 C 
ENDBRANCH   8  10
TORSDOF 1
ENDMDL
MODEL 7
REMARK VINA RESULT:      -3.9      9.972     10.775
REMARK  1 active torsions:
REMARK  status: ('A' for Active; 'I' for Inactive)
REMARK    1  A    between atoms: C8_8  and  C10_10 
ROOT
HETATM    1  C1  UNL     1     -39.341  11.903   4.710  1.00 20.00     0.088 C 
HETATM    2  C2  UNL     1     -40.348  13.229   6.449  1.00 20.00    -0.070 C 
HETATM    3  C3  UNL     1     -39.302  12.534   5.977  1.00 20.00     0.096 C 
HETATM    4  C4  UNL     1     -41.628  13.388   5.675  1.00 20.00     0.035 C 
HETATM    5  C5  UNL     1     -40.318  13.926   7.786  1.00 20.00     0.039 C 
HETATM    6  C6  UNL     1     -41.993  14.865   5.532  1.00 20.00     0.005 C 
HETATM    7  C7  UNL     1     -42.014  15.581   6.884  1.00 20.00     0.005 C 
HETATM    8  C8  UNL     1     -40.681  15.412   7.634  1.00 20.00    -0.011 C 
HETATM    9  N11 UNL     1     -39.365  11.383   3.673  1.00 20.00    -0.192 NA
ENDROOT
BRANCH   8  10
HETATM   10  C10 UNL     1     -40.743  16.094   9.000  1.00 20.00     0.000 C 
HETATM   11  C9  UNL     1     -40.212  15.211  10.081  1.00 20.00     0.005 C 
ENDBRANCH   8  10
TORSDOF 1
ENDMDL
MODEL 8
REMARK VINA RESULT:      -3.7     10.639     11.617
REMARK  1 active torsions:
REMARK  status: ('A' for Active; 'I' for Inactive)
REMARK    1  A    between atoms: C8_8  and  C10_10 
ROOT
HETATM    1  C1  UNL     1     -42.568  15.383   9.462  1.00 20.00     0.088 C 
HETATM    2  C2  UNL     1     -41.124  14.417   7.794  1.00 20.00    -0.070 C 
HETATM    3  C3  UNL     1     -41.533  14.498   9.069  1.00 20.00     0.096 C 
HETATM    4  C4  UNL     1     -41.726  15.252   6.697  1.00 20.00     0.035 C 
HETATM    5  C5  UNL     1     -40.040  13.467   7.352  1.00 20.00     0.039 C 
HETATM    6  C6  UNL     1     -42.208  14.368   5.547  1.00 20.00     0.005 C 
HETATM    7  C7  UNL     1     -41.107  13.427   5.052  1.00 20.00     0.005 C 
HETATM    8  C8  UNL     1     -40.533  12.577   6.199  1.00 20.00    -0.011 C 
HETATM    9  N11 UNL     1     -43.413  16.106   9.792  1.00 20.00    -0.192 NA
ENDROOT
BRANCH   8  10
HETATM   10  C10 UNL     1     -39.404  11.681   5.691  1.00 20.00     0.000 C 
HETATM   11  C9  UNL     1     -39.257  11.767   4.207  1.00 20.00     0.005 C 
ENDBRANCH   8  10
TORSDOF 1
ENDMDL
MODEL 9
REMARK VINA RESULT:      -3.7     10.801     11.901
REMARK  1 active torsions:
REMARK  status: ('A' for Active; 'I' for Inactive)
REMARK    1  A    between atoms: C8_8  and  C10_10 
ROOT
HETATM    1  C1  UNL     1     -40.683  15.375  10.670  1.00 20.00     0.088 C 
HETATM    2  C2  UNL     1     -40.996  14.704   8.379  1.00 20.00    -0.070 C 
HETATM    3  C3  UNL     1     -40.191  15.125   9.366  1.00 20.00     0.096 C 
HETATM    4  C4  UNL     1     -42.468  14.468   8.582  1.00 20.00     0.035 C 
HETATM    5  C5  UNL     1     -40.487  14.411   6.990  1.00 20.00     0.039 C 
HETATM    6  C6  UNL     1     -42.856  13.057   8.142  1.00 20.00     0.005 C 
HETATM    7  C7  UNL     1     -42.388  12.756   6.716  1.00 20.00     0.005 C 
HETATM    8  C8  UNL     1     -40.876  12.988   6.556  1.00 20.00    -0.011 C 
HETATM    9  N11 UNL     1     -41.079  15.583  11.741  1.00 20.00    -0.192 NA
ENDROOT
BRANCH   8  10
HETATM   10  C10 UNL     1     -40.442  12.728   5.114  1.00 20.00     0.000 C 
HETATM   11  C9  UNL     1     -39.243  11.839   5.051  1.00 20.00     0.005 C 
ENDBRANCH   8  10
TORSDOF 1
ENDMDL
