MODEL 1
REMARK VINA RESULT:      -4.0      0.000      0.000
REMARK  0 active torsions:
REMARK  status: ('A' for Active; 'I' for Inactive)
ROOT
HETATM    1  C1  UNL     1     -32.207   6.773   3.152  1.00 20.00     0.066 C 
HETATM    2  C2  UNL     1     -33.461   6.994   5.340  1.00 20.00     0.077 C 
HETATM    3  C3  UNL     1     -33.174   5.656   2.788  1.00 20.00     0.171 C 
HETATM    4  C4  UNL     1     -32.376   9.110   4.281  1.00 20.00     0.207 A 
HETATM    5  C5  UNL     1     -32.838   7.679   4.161  1.00 20.00     0.087 A 
HETATM    6  C6  UNL     1     -34.339   5.804   4.901  1.00 20.00     0.056 C 
HETATM    7  C7  UNL     1     -34.611   4.907   6.117  1.00 20.00     0.045 C 
HETATM    8  C8  UNL     1     -35.691   6.262   4.331  1.00 20.00     0.045 C 
HETATM    9  O9  UNL     1     -33.598   8.762   3.612  1.00 20.00    -0.375 OA
HETATM   10  O10 UNL     1     -33.635   4.977   3.957  1.00 20.00    -0.381 OA
ENDROOT
TORSDOF 0
ENDMDL
MODEL 2
REMARK VINA RESULT:      -3.9     15.661     16.933
REMARK  0 active torsions:
REMARK  status: ('A' for Active; 'I' for Inactive)
ROOT
HETATM    1  C1  UNL     1     -22.764  17.910  12.332  1.00 20.00     0.066 C 
HETATM    2  C2  UNL     1     -23.538  17.015  10.094  1.00 20.00     0.077 C 
HETATM    3  C3  UNL     1     -21.886  18.887  11.562  1.00 20.00     0.171 C 
HETATM    4  C4  UNL     1     -25.184  16.984  12.110  1.00 20.00     0.207 A 
HETATM    5  C5  UNL     1     -23.907  17.473  11.473  1.00 20.00     0.087 A 
HETATM    6  C6  UNL     1     -22.560  17.997   9.417  1.00 20.00     0.056 C 
HETATM    7  C7  UNL     1     -21.904  17.302   8.216  1.00 20.00     0.045 C 
HETATM    8  C8  UNL     1     -23.268  19.263   8.910  1.00 20.00     0.045 C 
HETATM    9  O9  UNL     1     -25.074  18.301  11.549  1.00 20.00    -0.375 OA
HETATM   10  O10 UNL     1     -21.481  18.333  10.309  1.00 20.00    -0.381 OA
ENDROOT
TORSDOF 0
ENDMDL
MODEL 3
REMARK VINA RESULT:      -3.3     12.114     13.360
REMARK  0 active torsions:
REMARK  status: ('A' for Active; 'I' for Inactive)
ROOT
HETATM    1  C1  UNL     1     -33.398  16.353  -3.264  1.00 20.00     0.066 C 
HETATM    2  C2  UNL     1     -35.352  16.594  -4.856  1.00 20.00     0.077 C 
HETATM    3  C3  UNL     1     -32.926  15.190  -4.125  1.00 20.00     0.171 C 
HETATM    4  C4  UNL     1     -34.402  18.715  -3.686  1.00 20.00     0.207 A 
HETATM    5  C5  UNL     1     -34.262  17.265  -4.076  1.00 20.00     0.087 A 
HETATM    6  C6  UNL     1     -34.823  15.359  -5.615  1.00 20.00     0.056 C 
HETATM    7  C7  UNL     1     -36.012  14.489  -6.047  1.00 20.00     0.045 C 
HETATM    8  C8  UNL     1     -34.031  15.748  -6.873  1.00 20.00     0.045 C 
HETATM    9  O9  UNL     1     -33.562  18.301  -4.774  1.00 20.00    -0.375 OA
HETATM   10  O10 UNL     1     -34.031  14.530  -4.744  1.00 20.00    -0.381 OA
ENDROOT
TORSDOF 0
ENDMDL
MODEL 4
REMARK VINA RESULT:      -3.3     10.159     11.414
REMARK  0 active torsions:
REMARK  status: ('A' for Active; 'I' for Inactive)
ROOT
HETATM    1  C1  UNL     1     -42.512  13.710   8.646  1.00 20.00     0.066 C 
HETATM    2  C2  UNL     1     -41.150  14.756   6.786  1.00 20.00     0.077 C 
HETATM    3  C3  UNL     1     -42.905  12.622   7.657  1.00 20.00     0.171 C 
HETATM    4  C4  UNL     1     -40.339  15.008   9.246  1.00 20.00     0.207 A 
HETATM    5  C5  UNL     1     -41.222  14.336   8.223  1.00 20.00     0.087 A 
HETATM    6  C6  UNL     1     -41.668  13.644   5.848  1.00 20.00     0.056 C 
HETATM    7  C7  UNL     1     -41.960  14.250   4.468  1.00 20.00     0.045 C 
HETATM    8  C8  UNL     1     -40.642  12.515   5.669  1.00 20.00     0.045 C 
HETATM    9  O9  UNL     1     -40.044  13.700   8.732  1.00 20.00    -0.375 OA
HETATM   10  O10 UNL     1     -42.926  13.128   6.321  1.00 20.00    -0.381 OA
ENDROOT
TORSDOF 0
ENDMDL
MODEL 5
REMARK VINA RESULT:      -3.2      9.770     11.036
REMARK  0 active torsions:
REMARK  status: ('A' for Active; 'I' for Inactive)
ROOT
HETATM    1  C1  UNL     1     -43.417  13.584   6.077  1.00 20.00     0.066 C 
HETATM    2  C2  UNL     1     -41.149  13.576   4.953  1.00 20.00     0.077 C 
HETATM    3  C3  UNL     1     -42.784  12.792   7.212  1.00 20.00     0.171 C 
HETATM    4  C4  UNL     1     -42.736  15.606   4.589  1.00 20.00     0.207 A 
HETATM    5  C5  UNL     1     -42.363  14.358   5.351  1.00 20.00     0.087 A 
HETATM    6  C6  UNL     1     -40.627  12.712   6.121  1.00 20.00     0.056 C 
HETATM    7  C7  UNL     1     -39.670  11.647   5.567  1.00 20.00     0.045 C 
HETATM    8  C8  UNL     1     -39.866  13.546   7.163  1.00 20.00     0.045 C 
HETATM    9  O9  UNL     1     -42.102  15.665   5.876  1.00 20.00    -0.375 OA
HETATM   10  O10 UNL     1     -41.707  11.984   6.733  1.00 20.00    -0.381 OA
ENDROOT
TORSDOF 0
ENDMDL
MODEL 6
REMARK VINA RESULT:      -3.2     12.815     14.152
REMARK  0 active torsions:
REMARK  status: ('A' for Active; 'I' for Inactive)
ROOT
HETATM    1  C1  UNL     1     -34.432  17.098  -7.480  1.00 20.00     0.066 C 
HETATM    2  C2  UNL     1     -34.741  16.616  -5.014  1.00 20.00     0.077 C 
HETATM    3  C3  UNL     1     -34.402  15.593  -7.702  1.00 20.00     0.171 C 
HETATM    4  C4  UNL     1     -35.819  18.755  -6.031  1.00 20.00     0.207 A 
HETATM    5  C5  UNL     1     -35.166  17.407  -6.214  1.00 20.00     0.087 A 
HETATM    6  C6  UNL     1     -34.625  15.113  -5.343  1.00 20.00     0.056 C 
HETATM    7  C7  UNL     1     -33.812  14.420  -4.240  1.00 20.00     0.045 C 
HETATM    8  C8  UNL     1     -35.999  14.430  -5.426  1.00 20.00     0.045 C 
HETATM    9  O9  UNL     1     -36.580  17.582  -6.360  1.00 20.00    -0.375 OA
HETATM   10  O10 UNL     1     -33.879  14.917  -6.558  1.00 20.00    -0.381 OA
ENDROOT
TORSDOF 0
ENDMDL
MODEL 7
REMARK VINA RESULT:      -3.1     12.356     13.915
REMARK  0 active torsions:
REMARK  status: ('A' for Active; 'I' for Inactive)
ROOT
HETATM    1  C1  UNL     1     -33.763  15.034  -4.625  1.00 20.00     0.066 C 
HETATM    2  C2  UNL     1     -34.534  17.120  -5.834  1.00 20.00     0.077 C 
HETATM    3  C3  UNL     1     -33.522  15.911  -3.405  1.00 20.00     0.171 C 
HETATM    4  C4  UNL     1     -35.597  14.828  -6.458  1.00 20.00     0.207 A 
HETATM    5  C5  UNL     1     -34.778  15.675  -5.517  1.00 20.00     0.087 A 
HETATM    6  C6  UNL     1     -34.188  17.925  -4.565  1.00 20.00     0.056 C 
HETATM    7  C7  UNL     1     -33.557  19.263  -4.977  1.00 20.00     0.045 C 
HETATM    8  C8  UNL     1     -35.430  18.224  -3.712  1.00 20.00     0.045 C 
HETATM    9  O9  UNL     1     -36.139  15.335  -5.229  1.00 20.00    -0.375 OA
HETATM   10  O10 UNL     1     -33.183  17.244  -3.791  1.00 20.00    -0.381 OA
ENDROOT
TORSDOF 0
ENDMDL
MODEL 8
REMARK VINA RESULT:      -3.1     12.393     13.839
REMARK  0 active torsions:
REMARK  status: ('A' for Active; 'I' for Inactive)
ROOT
HETATM    1  C1  UNL     1     -33.307  16.675  -2.280  1.00 20.00     0.066 C 
HETATM    2  C2  UNL     1     -34.576  18.847  -2.562  1.00 20.00     0.077 C 
HETATM    3  C3  UNL     1     -33.511  16.440  -3.770  1.00 20.00     0.171 C 
HETATM    4  C4  UNL     1     -32.701  18.699  -0.763  1.00 20.00     0.207 A 
HETATM    5  C5  UNL     1     -33.389  18.138  -1.983  1.00 20.00     0.087 A 
HETATM    6  C6  UNL     1     -34.786  18.476  -4.044  1.00 20.00     0.056 C 
HETATM    7  C7  UNL     1     -36.205  18.883  -4.466  1.00 20.00     0.045 C 
HETATM    8  C8  UNL     1     -33.788  19.192  -4.967  1.00 20.00     0.045 C 
HETATM    9  O9  UNL     1     -32.148  18.847  -2.080  1.00 20.00    -0.375 OA
HETATM   10  O10 UNL     1     -34.721  17.050  -4.223  1.00 20.00    -0.381 OA
ENDROOT
TORSDOF 0
ENDMDL
MODEL 9
REMARK VINA RESULT:      -3.1      8.542      9.901
REMARK  0 active torsions:
REMARK  status: ('A' for Active; 'I' for Inactive)
ROOT
HETATM    1  C1  UNL     1     -41.170   7.725   0.417  1.00 20.00     0.066 C 
HETATM    2  C2  UNL     1     -43.417   6.608   0.750  1.00 20.00     0.077 C 
HETATM    3  C3  UNL     1     -40.623   6.359   0.026  1.00 20.00     0.171 C 
HETATM    4  C4  UNL     1     -43.338   9.083  -0.049  1.00 20.00     0.207 A 
HETATM    5  C5  UNL     1     -42.647   7.763   0.186  1.00 20.00     0.087 A 
HETATM    6  C6  UNL     1     -42.744   5.262   0.407  1.00 20.00     0.056 C 
HETATM    7  C7  UNL     1     -43.312   4.170   1.325  1.00 20.00     0.045 C 
HETATM    8  C8  UNL     1     -42.996   4.843  -1.049  1.00 20.00     0.045 C 
HETATM    9  O9  UNL     1     -43.045   8.180  -1.126  1.00 20.00    -0.375 OA
HETATM   10  O10 UNL     1     -41.334   5.314   0.692  1.00 20.00    -0.381 OA
ENDROOT
TORSDOF 0
ENDMDL
