MODEL 1
REMARK VINA RESULT:      -4.7      0.000      0.000
REMARK  0 active torsions:
REMARK  status: ('A' for Active; 'I' for Inactive)
ROOT
HETATM    1  C1  UNL     1     -32.846   6.220   2.872  1.00 20.00     0.035 C 
HETATM    2  C2  UNL     1     -33.335   5.313   4.002  1.00 20.00     0.011 C 
HETATM    3  C3  UNL     1     -33.555   7.225   5.660  1.00 20.00     0.043 C 
HETATM    4  C4  UNL     1     -32.293   7.507   3.388  1.00 20.00     0.151 A 
HETATM    5  C5  UNL     1     -32.671   8.019   4.751  1.00 20.00     0.151 A 
HETATM    6  C6  UNL     1     -34.277   6.021   5.003  1.00 20.00    -0.045 C 
HETATM    7  C7  UNL     1     -35.582   6.470   4.315  1.00 20.00     0.015 C 
HETATM    8  C8  UNL     1     -34.662   5.017   6.109  1.00 20.00     0.015 C 
HETATM    9  O9  UNL     1     -33.284   8.535   3.569  1.00 20.00    -0.375 OA
ENDROOT
TORSDOF 0
ENDMDL
MODEL 2
REMARK VINA RESULT:      -4.5      1.639      3.313
REMARK  0 active torsions:
REMARK  status: ('A' for Active; 'I' for Inactive)
ROOT
HETATM    1  C1  UNL     1     -34.521   6.146   6.517  1.00 20.00     0.035 C 
HETATM    2  C2  UNL     1     -33.313   7.041   6.237  1.00 20.00     0.011 C 
HETATM    3  C3  UNL     1     -33.293   6.514   3.753  1.00 20.00     0.043 C 
HETATM    4  C4  UNL     1     -34.720   5.125   5.447  1.00 20.00     0.151 A 
HETATM    5  C5  UNL     1     -34.143   5.324   4.073  1.00 20.00     0.151 A 
HETATM    6  C6  UNL     1     -33.303   7.643   4.814  1.00 20.00    -0.045 C 
HETATM    7  C7  UNL     1     -34.503   8.588   4.603  1.00 20.00     0.015 C 
HETATM    8  C8  UNL     1     -32.020   8.485   4.646  1.00 20.00     0.015 C 
HETATM    9  O9  UNL     1     -35.520   5.588   4.344  1.00 20.00    -0.375 OA
ENDROOT
TORSDOF 0
ENDMDL
MODEL 3
REMARK VINA RESULT:      -3.9      1.088      1.502
REMARK  0 active torsions:
REMARK  status: ('A' for Active; 'I' for Inactive)
ROOT
HETATM    1  C1  UNL     1     -32.918   7.803   3.648  1.00 20.00     0.035 C 
HETATM    2  C2  UNL     1     -33.065   6.281   3.666  1.00 20.00     0.011 C 
HETATM    3  C3  UNL     1     -33.876   6.226   6.073  1.00 20.00     0.043 C 
HETATM    4  C4  UNL     1     -32.811   8.372   5.023  1.00 20.00     0.151 A 
HETATM    5  C5  UNL     1     -33.315   7.607   6.216  1.00 20.00     0.151 A 
HETATM    6  C6  UNL     1     -34.172   5.776   4.620  1.00 20.00    -0.045 C 
HETATM    7  C7  UNL     1     -35.562   6.262   4.164  1.00 20.00     0.015 C 
HETATM    8  C8  UNL     1     -34.188   4.234   4.578  1.00 20.00     0.015 C 
HETATM    9  O9  UNL     1     -34.082   8.661   5.633  1.00 20.00    -0.375 OA
ENDROOT
TORSDOF 0
ENDMDL
MODEL 4
REMARK VINA RESULT:      -3.9     16.094     17.202
REMARK  0 active torsions:
REMARK  status: ('A' for Active; 'I' for Inactive)
ROOT
HETATM    1  C1  UNL     1     -24.798  18.565  10.533  1.00 20.00     0.035 C 
HETATM    2  C2  UNL     1     -23.694  19.207   9.691  1.00 20.00     0.011 C 
HETATM    3  C3  UNL     1     -21.846  18.509  11.287  1.00 20.00     0.043 C 
HETATM    4  C4  UNL     1     -24.371  18.357  11.948  1.00 20.00     0.151 A 
HETATM    5  C5  UNL     1     -22.913  18.295  12.314  1.00 20.00     0.151 A 
HETATM    6  C6  UNL     1     -22.327  18.496   9.814  1.00 20.00    -0.045 C 
HETATM    7  C7  UNL     1     -22.399  17.055   9.270  1.00 20.00     0.015 C 
HETATM    8  C8  UNL     1     -21.298  19.260   8.955  1.00 20.00     0.015 C 
HETATM    9  O9  UNL     1     -23.694  17.107  12.173  1.00 20.00    -0.375 OA
ENDROOT
TORSDOF 0
ENDMDL
MODEL 5
REMARK VINA RESULT:      -3.5      8.848      9.793
REMARK  0 active torsions:
REMARK  status: ('A' for Active; 'I' for Inactive)
ROOT
HETATM    1  C1  UNL     1     -40.658   6.800  -0.407  1.00 20.00     0.035 C 
HETATM    2  C2  UNL     1     -41.202   5.766   0.580  1.00 20.00     0.011 C 
HETATM    3  C3  UNL     1     -43.417   6.975   0.873  1.00 20.00     0.043 C 
HETATM    4  C4  UNL     1     -41.372   8.105  -0.301  1.00 20.00     0.151 A 
HETATM    5  C5  UNL     1     -42.749   8.185   0.300  1.00 20.00     0.151 A 
HETATM    6  C6  UNL     1     -42.741   5.621   0.540  1.00 20.00    -0.045 C 
HETATM    7  C7  UNL     1     -43.213   5.090  -0.829  1.00 20.00     0.015 C 
HETATM    8  C8  UNL     1     -43.164   4.586   1.604  1.00 20.00     0.015 C 
HETATM    9  O9  UNL     1     -42.556   8.187  -1.115  1.00 20.00    -0.375 OA
ENDROOT
TORSDOF 0
ENDMDL
MODEL 6
REMARK VINA RESULT:      -3.3      8.200      9.541
REMARK  0 active torsions:
REMARK  status: ('A' for Active; 'I' for Inactive)
ROOT
HETATM    1  C1  UNL     1     -42.718   8.007  -0.402  1.00 20.00     0.035 C 
HETATM    2  C2  UNL     1     -43.292   6.590  -0.420  1.00 20.00     0.011 C 
HETATM    3  C3  UNL     1     -41.259   5.578   0.718  1.00 20.00     0.043 C 
HETATM    4  C4  UNL     1     -41.234   8.007  -0.249  1.00 20.00     0.151 A 
HETATM    5  C5  UNL     1     -40.518   6.821   0.336  1.00 20.00     0.151 A 
HETATM    6  C6  UNL     1     -42.803   5.708   0.752  1.00 20.00    -0.045 C 
HETATM    7  C7  UNL     1     -43.280   6.270   2.106  1.00 20.00     0.015 C 
HETATM    8  C8  UNL     1     -43.417   4.301   0.596  1.00 20.00     0.015 C 
HETATM    9  O9  UNL     1     -40.791   7.983   1.120  1.00 20.00    -0.375 OA
ENDROOT
TORSDOF 0
ENDMDL
MODEL 7
REMARK VINA RESULT:      -3.3      8.846     10.268
REMARK  0 active torsions:
REMARK  status: ('A' for Active; 'I' for Inactive)
ROOT
HETATM    1  C1  UNL     1     -43.231   4.613  -0.396  1.00 20.00     0.035 C 
HETATM    2  C2  UNL     1     -43.193   6.083  -0.815  1.00 20.00     0.011 C 
HETATM    3  C3  UNL     1     -42.600   6.901   1.515  1.00 20.00     0.043 C 
HETATM    4  C4  UNL     1     -43.417   4.456   1.076  1.00 20.00     0.151 A 
HETATM    5  C5  UNL     1     -43.073   5.575   2.022  1.00 20.00     0.151 A 
HETATM    6  C6  UNL     1     -42.211   6.940   0.015  1.00 20.00    -0.045 C 
HETATM    7  C7  UNL     1     -40.756   6.474  -0.189  1.00 20.00     0.015 C 
HETATM    8  C8  UNL     1     -42.298   8.400  -0.476  1.00 20.00     0.015 C 
HETATM    9  O9  UNL     1     -42.188   4.472   1.823  1.00 20.00    -0.375 OA
ENDROOT
TORSDOF 0
ENDMDL
MODEL 8
REMARK VINA RESULT:      -3.3      1.219      2.269
REMARK  0 active torsions:
REMARK  status: ('A' for Active; 'I' for Inactive)
ROOT
HETATM    1  C1  UNL     1     -33.481   8.960   4.827  1.00 20.00     0.035 C 
HETATM    2  C2  UNL     1     -34.619   7.938   4.852  1.00 20.00     0.011 C 
HETATM    3  C3  UNL     1     -33.269   6.164   3.634  1.00 20.00     0.043 C 
HETATM    4  C4  UNL     1     -32.476   8.652   3.768  1.00 20.00     0.151 A 
HETATM    5  C5  UNL     1     -32.349   7.263   3.204  1.00 20.00     0.151 A 
HETATM    6  C6  UNL     1     -34.134   6.471   4.883  1.00 20.00    -0.045 C 
HETATM    7  C7  UNL     1     -33.357   6.170   6.180  1.00 20.00     0.015 C 
HETATM    8  C8  UNL     1     -35.369   5.546   4.863  1.00 20.00     0.015 C 
HETATM    9  O9  UNL     1     -31.441   7.748   4.194  1.00 20.00    -0.375 OA
ENDROOT
TORSDOF 0
ENDMDL
MODEL 9
REMARK VINA RESULT:      -3.2     12.201     13.343
REMARK  0 active torsions:
REMARK  status: ('A' for Active; 'I' for Inactive)
ROOT
HETATM    1  C1  UNL     1     -33.091  15.925  -3.600  1.00 20.00     0.035 C 
HETATM    2  C2  UNL     1     -34.143  14.906  -4.038  1.00 20.00     0.011 C 
HETATM    3  C3  UNL     1     -35.679  16.672  -5.024  1.00 20.00     0.043 C 
HETATM    4  C4  UNL     1     -33.658  17.301  -3.490  1.00 20.00     0.151 A 
HETATM    5  C5  UNL     1     -34.917  17.679  -4.221  1.00 20.00     0.151 A 
HETATM    6  C6  UNL     1     -34.940  15.336  -5.291  1.00 20.00    -0.045 C 
HETATM    7  C7  UNL     1     -34.020  15.450  -6.522  1.00 20.00     0.015 C 
HETATM    8  C8  UNL     1     -35.990  14.248  -5.601  1.00 20.00     0.015 C 
HETATM    9  O9  UNL     1     -33.631  18.042  -4.723  1.00 20.00    -0.375 OA
ENDROOT
TORSDOF 0
ENDMDL
