MODEL 1
REMARK VINA RESULT:      -4.2      0.000      0.000
REMARK  3 active torsions:
REMARK  status: ('A' for Active; 'I' for Inactive)
REMARK    1  A    between atoms: C4_4  and  C5_5 
REMARK    2  A    between atoms: C4_4  and  C6_6 
REMARK    3  A    between atoms: C5_5  and  C7_7 
ROOT
HETATM    1  C5  UNL     1     -33.530   6.812   4.359  1.00 20.00     0.009 C 
ENDROOT
BRANCH   1   2
HETATM    2  C4  UNL     1     -33.129   7.873   5.391  1.00 20.00     0.016 C 
BRANCH   2   3
HETATM    3  C6  UNL     1     -32.325   8.991   4.735  1.00 20.00     0.114 C 
HETATM    4 CL8  UNL     1     -32.507   8.932   2.967  1.00 20.00    -0.130 Cl
ENDBRANCH   2   3
ENDBRANCH   1   2
BRANCH   1   5
HETATM    5  C7  UNL     1     -34.475   5.692   4.872  1.00 20.00    -0.051 C 
HETATM    6  C1  UNL     1     -33.999   4.306   4.405  1.00 20.00     0.014 C 
HETATM    7  C2  UNL     1     -34.572   5.705   6.405  1.00 20.00     0.014 C 
HETATM    8  C3  UNL     1     -35.879   5.947   4.291  1.00 20.00     0.014 C 
ENDBRANCH   1   5
TORSDOF 3
ENDMDL
MODEL 2
REMARK VINA RESULT:      -4.2      0.069      1.525
REMARK  3 active torsions:
REMARK  status: ('A' for Active; 'I' for Inactive)
REMARK    1  A    between atoms: C4_4  and  C5_5 
REMARK    2  A    between atoms: C4_4  and  C6_6 
REMARK    3  A    between atoms: C5_5  and  C7_7 
ROOT
HETATM    1  C5  UNL     1     -33.428   6.732   4.427  1.00 20.00     0.009 C 
ENDROOT
BRANCH   1   2
HETATM    2  C4  UNL     1     -33.208   7.915   5.379  1.00 20.00     0.016 C 
BRANCH   2   3
HETATM    3  C6  UNL     1     -32.347   8.987   4.721  1.00 20.00     0.114 C 
HETATM    4 CL8  UNL     1     -32.516   8.922   2.952  1.00 20.00    -0.130 Cl
ENDBRANCH   2   3
ENDBRANCH   1   2
BRANCH   1   5
HETATM    5  C7  UNL     1     -34.475   5.682   4.885  1.00 20.00    -0.051 C 
HETATM    6  C1  UNL     1     -34.582   5.636   6.419  1.00 20.00     0.014 C 
HETATM    7  C2  UNL     1     -35.859   5.978   4.288  1.00 20.00     0.014 C 
HETATM    8  C3  UNL     1     -34.014   4.298   4.388  1.00 20.00     0.014 C 
ENDBRANCH   1   5
TORSDOF 3
ENDMDL
MODEL 3
REMARK VINA RESULT:      -4.1      0.909      1.767
REMARK  3 active torsions:
REMARK  status: ('A' for Active; 'I' for Inactive)
REMARK    1  A    between atoms: C4_4  and  C5_5 
REMARK    2  A    between atoms: C4_4  and  C6_6 
REMARK    3  A    between atoms: C5_5  and  C7_7 
ROOT
HETATM    1  C5  UNL     1     -33.379   6.816   5.388  1.00 20.00     0.009 C 
ENDROOT
BRANCH   1   2
HETATM    2  C4  UNL     1     -33.674   8.161   4.712  1.00 20.00     0.016 C 
BRANCH   2   3
HETATM    3  C6  UNL     1     -32.520   8.577   3.805  1.00 20.00     0.114 C 
HETATM    4 CL8  UNL     1     -32.155   7.290   2.634  1.00 20.00    -0.130 Cl
ENDBRANCH   2   3
ENDBRANCH   1   2
BRANCH   1   5
HETATM    5  C7  UNL     1     -34.431   5.699   5.158  1.00 20.00    -0.051 C 
HETATM    6  C1  UNL     1     -35.646   6.231   4.380  1.00 20.00     0.014 C 
HETATM    7  C2  UNL     1     -33.823   4.510   4.397  1.00 20.00     0.014 C 
HETATM    8  C3  UNL     1     -34.912   5.203   6.535  1.00 20.00     0.014 C 
ENDBRANCH   1   5
TORSDOF 3
ENDMDL
MODEL 4
REMARK VINA RESULT:      -3.9      2.245      3.833
REMARK  3 active torsions:
REMARK  status: ('A' for Active; 'I' for Inactive)
REMARK    1  A    between atoms: C4_4  and  C5_5 
REMARK    2  A    between atoms: C4_4  and  C6_6 
REMARK    3  A    between atoms: C5_5  and  C7_7 
ROOT
HETATM    1  C5  UNL     1     -34.089   7.697   4.619  1.00 20.00     0.009 C 
ENDROOT
BRANCH   1   2
HETATM    2  C4  UNL     1     -33.869   7.216   6.059  1.00 20.00     0.016 C 
BRANCH   2   3
HETATM    3  C6  UNL     1     -34.501   5.846   6.276  1.00 20.00     0.114 C 
HETATM    4 CL8  UNL     1     -34.759   5.026   4.719  1.00 20.00    -0.130 Cl
ENDBRANCH   2   3
ENDBRANCH   1   2
BRANCH   1   5
HETATM    5  C7  UNL     1     -32.824   8.191   3.869  1.00 20.00    -0.051 C 
HETATM    6  C1  UNL     1     -32.134   7.036   3.122  1.00 20.00     0.014 C 
HETATM    7  C2  UNL     1     -33.167   9.306   2.870  1.00 20.00     0.014 C 
HETATM    8  C3  UNL     1     -31.839   8.754   4.912  1.00 20.00     0.014 C 
ENDBRANCH   1   5
TORSDOF 3
ENDMDL
MODEL 5
REMARK VINA RESULT:      -3.8      2.251      3.819
REMARK  3 active torsions:
REMARK  status: ('A' for Active; 'I' for Inactive)
REMARK    1  A    between atoms: C4_4  and  C5_5 
REMARK    2  A    between atoms: C4_4  and  C6_6 
REMARK    3  A    between atoms: C5_5  and  C7_7 
ROOT
HETATM    1  C5  UNL     1     -34.093   7.668   4.610  1.00 20.00     0.009 C 
ENDROOT
BRANCH   1   2
HETATM    2  C4  UNL     1     -33.909   7.226   6.068  1.00 20.00     0.016 C 
BRANCH   2   3
HETATM    3  C6  UNL     1     -34.479   5.829   6.286  1.00 20.00     0.114 C 
HETATM    4 CL8  UNL     1     -34.788   5.032   4.727  1.00 20.00    -0.130 Cl
ENDBRANCH   2   3
ENDBRANCH   1   2
BRANCH   1   5
HETATM    5  C7  UNL     1     -32.822   8.209   3.902  1.00 20.00    -0.051 C 
HETATM    6  C1  UNL     1     -33.179   9.297   2.875  1.00 20.00     0.014 C 
HETATM    7  C2  UNL     1     -31.819   8.779   4.916  1.00 20.00     0.014 C 
HETATM    8  C3  UNL     1     -32.154   7.037   3.158  1.00 20.00     0.014 C 
ENDBRANCH   1   5
TORSDOF 3
ENDMDL
MODEL 6
REMARK VINA RESULT:      -3.8      2.250      3.821
REMARK  3 active torsions:
REMARK  status: ('A' for Active; 'I' for Inactive)
REMARK    1  A    between atoms: C4_4  and  C5_5 
REMARK    2  A    between atoms: C4_4  and  C6_6 
REMARK    3  A    between atoms: C5_5  and  C7_7 
ROOT
HETATM    1  C5  UNL     1     -34.088   7.663   4.635  1.00 20.00     0.009 C 
ENDROOT
BRANCH   1   2
HETATM    2  C4  UNL     1     -33.901   7.199   6.085  1.00 20.00     0.016 C 
BRANCH   2   3
HETATM    3  C6  UNL     1     -34.482   5.803   6.287  1.00 20.00     0.114 C 
HETATM    4 CL8  UNL     1     -34.759   5.013   4.718  1.00 20.00    -0.130 Cl
ENDBRANCH   2   3
ENDBRANCH   1   2
BRANCH   1   5
HETATM    5  C7  UNL     1     -32.810   8.179   3.921  1.00 20.00    -0.051 C 
HETATM    6  C1  UNL     1     -31.816   8.781   4.928  1.00 20.00     0.014 C 
HETATM    7  C2  UNL     1     -32.118   7.054   3.135  1.00 20.00     0.014 C 
HETATM    8  C3  UNL     1     -33.228   9.282   2.929  1.00 20.00     0.014 C 
ENDBRANCH   1   5
TORSDOF 3
ENDMDL
MODEL 7
REMARK VINA RESULT:      -3.4     15.472     16.467
REMARK  3 active torsions:
REMARK  status: ('A' for Active; 'I' for Inactive)
REMARK    1  A    between atoms: C4_4  and  C5_5 
REMARK    2  A    between atoms: C4_4  and  C6_6 
REMARK    3  A    between atoms: C5_5  and  C7_7 
ROOT
HETATM    1  C5  UNL     1     -24.305  18.121  10.074  1.00 20.00     0.009 C 
ENDROOT
BRANCH   1   2
HETATM    2  C4  UNL     1     -23.335  19.170   9.514  1.00 20.00     0.016 C 
BRANCH   2   3
HETATM    3  C6  UNL     1     -22.557  18.610   8.328  1.00 20.00     0.114 C 
HETATM    4 CL8  UNL     1     -21.528  17.255   8.844  1.00 20.00    -0.130 Cl
ENDBRANCH   2   3
ENDBRANCH   1   2
BRANCH   1   5
HETATM    5  C7  UNL     1     -24.174  17.820  11.591  1.00 20.00    -0.051 C 
HETATM    6  C1  UNL     1     -24.371  16.322  11.879  1.00 20.00     0.014 C 
HETATM    7  C2  UNL     1     -22.805  18.264  12.131  1.00 20.00     0.014 C 
HETATM    8  C3  UNL     1     -25.271  18.608  12.332  1.00 20.00     0.014 C 
ENDBRANCH   1   5
TORSDOF 3
ENDMDL
MODEL 8
REMARK VINA RESULT:      -3.4     15.404     16.480
REMARK  3 active torsions:
REMARK  status: ('A' for Active; 'I' for Inactive)
REMARK    1  A    between atoms: C4_4  and  C5_5 
REMARK    2  A    between atoms: C4_4  and  C6_6 
REMARK    3  A    between atoms: C5_5  and  C7_7 
ROOT
HETATM    1  C5  UNL     1     -24.367  18.179  10.028  1.00 20.00     0.009 C 
ENDROOT
BRANCH   1   2
HETATM    2  C4  UNL     1     -23.331  19.188   9.514  1.00 20.00     0.016 C 
BRANCH   2   3
HETATM    3  C6  UNL     1     -22.563  18.618   8.327  1.00 20.00     0.114 C 
HETATM    4 CL8  UNL     1     -21.570  17.233   8.835  1.00 20.00    -0.130 Cl
ENDBRANCH   2   3
ENDBRANCH   1   2
BRANCH   1   5
HETATM    5  C7  UNL     1     -24.290  17.843  11.541  1.00 20.00    -0.051 C 
HETATM    6  C1  UNL     1     -25.384  18.582  12.330  1.00 20.00     0.014 C 
HETATM    7  C2  UNL     1     -24.425  16.331  11.783  1.00 20.00     0.014 C 
HETATM    8  C3  UNL     1     -22.916  18.302  12.065  1.00 20.00     0.014 C 
ENDBRANCH   1   5
TORSDOF 3
ENDMDL
MODEL 9
REMARK VINA RESULT:      -3.4      8.654      9.442
REMARK  3 active torsions:
REMARK  status: ('A' for Active; 'I' for Inactive)
REMARK    1  A    between atoms: C4_4  and  C5_5 
REMARK    2  A    between atoms: C4_4  and  C6_6 
REMARK    3  A    between atoms: C5_5  and  C7_7 
ROOT
HETATM    1  C5  UNL     1     -40.616  12.013   5.921  1.00 20.00     0.009 C 
ENDROOT
BRANCH   1   2
HETATM    2  C4  UNL     1     -39.163  11.988   6.414  1.00 20.00     0.016 C 
BRANCH   2   3
HETATM    3  C6  UNL     1     -38.193  11.961   5.238  1.00 20.00     0.114 C 
HETATM    4 CL8  UNL     1     -39.074  11.739   3.709  1.00 20.00    -0.130 Cl
ENDBRANCH   2   3
ENDBRANCH   1   2
BRANCH   1   5
HETATM    5  C7  UNL     1     -41.438  13.274   6.300  1.00 20.00    -0.051 C 
HETATM    6  C1  UNL     1     -40.630  14.207   7.218  1.00 20.00     0.014 C 
HETATM    7  C2  UNL     1     -41.877  14.050   5.049  1.00 20.00     0.014 C 
HETATM    8  C3  UNL     1     -42.698  12.814   7.059  1.00 20.00     0.014 C 
ENDBRANCH   1   5
TORSDOF 3
ENDMDL
