MODEL 1
REMARK VINA RESULT:      -4.6      0.000      0.000
REMARK  0 active torsions:
REMARK  status: ('A' for Active; 'I' for Inactive)
ROOT
HETATM    1  C1  UNL     1     -34.074   7.454   6.485  1.00 20.00     0.004 C 
HETATM    2  C2  UNL     1     -33.932   8.436   5.323  1.00 20.00     0.040 C 
HETATM    3  C3  UNL     1     -33.815   5.991   6.109  1.00 20.00     0.009 C 
HETATM    4  C4  UNL     1     -33.471   6.536   3.654  1.00 20.00     0.049 C 
HETATM    5  C5  UNL     1     -32.253   8.815   3.378  1.00 20.00     0.207 A 
HETATM    6  C6  UNL     1     -33.087   7.878   4.222  1.00 20.00     0.083 A 
HETATM    7  C7  UNL     1     -34.222   5.630   4.664  1.00 20.00    -0.045 C 
HETATM    8  C8  UNL     1     -35.747   5.759   4.483  1.00 20.00     0.015 C 
HETATM    9  C9  UNL     1     -33.846   4.159   4.397  1.00 20.00     0.015 C 
HETATM   10  O10 UNL     1     -31.675   8.040   4.438  1.00 20.00    -0.375 OA
ENDROOT
TORSDOF 0
ENDMDL
MODEL 2
REMARK VINA RESULT:      -3.8      9.638     10.758
REMARK  0 active torsions:
REMARK  status: ('A' for Active; 'I' for Inactive)
ROOT
HETATM    1  C1  UNL     1     -43.056  13.165   7.526  1.00 20.00     0.004 C 
HETATM    2  C2  UNL     1     -42.463  14.466   8.064  1.00 20.00     0.040 C 
HETATM    3  C3  UNL     1     -42.080  12.321   6.700  1.00 20.00     0.009 C 
HETATM    4  C4  UNL     1     -40.223  14.044   6.877  1.00 20.00     0.049 C 
HETATM    5  C5  UNL     1     -40.247  15.188   9.209  1.00 20.00     0.207 A 
HETATM    6  C6  UNL     1     -40.970  14.411   8.132  1.00 20.00     0.083 A 
HETATM    7  C7  UNL     1     -41.043  13.149   5.911  1.00 20.00    -0.045 C 
HETATM    8  C8  UNL     1     -41.740  14.005   4.835  1.00 20.00     0.015 C 
HETATM    9  C9  UNL     1     -40.085  12.181   5.186  1.00 20.00     0.015 C 
HETATM   10  O10 UNL     1     -40.469  13.775   9.320  1.00 20.00    -0.375 OA
ENDROOT
TORSDOF 0
ENDMDL
MODEL 3
REMARK VINA RESULT:      -3.8     15.658     16.647
REMARK  0 active torsions:
REMARK  status: ('A' for Active; 'I' for Inactive)
ROOT
HETATM    1  C1  UNL     1     -21.969  18.369  11.770  1.00 20.00     0.004 C 
HETATM    2  C2  UNL     1     -23.170  17.542  12.223  1.00 20.00     0.040 C 
HETATM    3  C3  UNL     1     -22.170  19.094  10.435  1.00 20.00     0.009 C 
HETATM    4  C4  UNL     1     -24.474  18.089  10.076  1.00 20.00     0.049 C 
HETATM    5  C5  UNL     1     -25.744  17.871  12.332  1.00 20.00     0.207 A 
HETATM    6  C6  UNL     1     -24.439  18.004  11.580  1.00 20.00     0.083 A 
HETATM    7  C7  UNL     1     -23.081  18.342   9.441  1.00 20.00    -0.045 C 
HETATM    8  C8  UNL     1     -22.430  17.014   9.008  1.00 20.00     0.015 C 
HETATM    9  C9  UNL     1     -23.254  19.208   8.177  1.00 20.00     0.015 C 
HETATM   10  O10 UNL     1     -25.050  19.123  12.245  1.00 20.00    -0.375 OA
ENDROOT
TORSDOF 0
ENDMDL
MODEL 4
REMARK VINA RESULT:      -3.8     11.912     13.412
REMARK  0 active torsions:
REMARK  status: ('A' for Active; 'I' for Inactive)
ROOT
HETATM    1  C1  UNL     1     -33.835  18.448  -4.595  1.00 20.00     0.004 C 
HETATM    2  C2  UNL     1     -34.550  17.099  -4.542  1.00 20.00     0.040 C 
HETATM    3  C3  UNL     1     -32.872  18.697  -3.430  1.00 20.00     0.009 C 
HETATM    4  C4  UNL     1     -33.464  16.508  -2.288  1.00 20.00     0.049 C 
HETATM    5  C5  UNL     1     -33.884  14.639  -4.043  1.00 20.00     0.207 A 
HETATM    6  C6  UNL     1     -33.810  16.109  -3.699  1.00 20.00     0.083 A 
HETATM    7  C7  UNL     1     -33.306  18.040  -2.102  1.00 20.00    -0.045 C 
HETATM    8  C8  UNL     1     -34.619  18.666  -1.592  1.00 20.00     0.015 C 
HETATM    9  C9  UNL     1     -32.220  18.308  -1.039  1.00 20.00     0.015 C 
HETATM   10  O10 UNL     1     -32.746  15.438  -4.395  1.00 20.00    -0.375 OA
ENDROOT
TORSDOF 0
ENDMDL
MODEL 5
REMARK VINA RESULT:      -3.6      1.678      3.491
REMARK  0 active torsions:
REMARK  status: ('A' for Active; 'I' for Inactive)
ROOT
HETATM    1  C1  UNL     1     -33.690   8.514   5.479  1.00 20.00     0.004 C 
HETATM    2  C2  UNL     1     -33.694   7.042   5.889  1.00 20.00     0.040 C 
HETATM    3  C3  UNL     1     -33.459   8.750   3.983  1.00 20.00     0.009 C 
HETATM    4  C4  UNL     1     -33.141   6.279   3.498  1.00 20.00     0.049 C 
HETATM    5  C5  UNL     1     -34.722   4.840   4.974  1.00 20.00     0.207 A 
HETATM    6  C6  UNL     1     -33.993   6.142   4.733  1.00 20.00     0.083 A 
HETATM    7  C7  UNL     1     -32.548   7.700   3.312  1.00 20.00    -0.045 C 
HETATM    8  C8  UNL     1     -31.120   7.775   3.888  1.00 20.00     0.015 C 
HETATM    9  C9  UNL     1     -32.457   8.014   1.805  1.00 20.00     0.015 C 
HETATM   10  O10 UNL     1     -35.398   5.997   4.461  1.00 20.00    -0.375 OA
ENDROOT
TORSDOF 0
ENDMDL
MODEL 6
REMARK VINA RESULT:      -3.5     12.426     13.431
REMARK  0 active torsions:
REMARK  status: ('A' for Active; 'I' for Inactive)
ROOT
HETATM    1  C1  UNL     1     -33.009  14.975  -4.324  1.00 20.00     0.004 C 
HETATM    2  C2  UNL     1     -33.668  15.960  -3.359  1.00 20.00     0.040 C 
HETATM    3  C3  UNL     1     -33.668  14.910  -5.706  1.00 20.00     0.009 C 
HETATM    4  C4  UNL     1     -35.498  16.548  -5.065  1.00 20.00     0.049 C 
HETATM    5  C5  UNL     1     -34.572  18.391  -3.485  1.00 20.00     0.207 A 
HETATM    6  C6  UNL     1     -34.452  17.008  -4.083  1.00 20.00     0.083 A 
HETATM    7  C7  UNL     1     -35.191  15.162  -5.690  1.00 20.00    -0.045 C 
HETATM    8  C8  UNL     1     -35.917  14.043  -4.918  1.00 20.00     0.015 C 
HETATM    9  C9  UNL     1     -35.711  15.138  -7.142  1.00 20.00     0.015 C 
HETATM   10  O10 UNL     1     -33.654  18.109  -4.549  1.00 20.00    -0.375 OA
ENDROOT
TORSDOF 0
ENDMDL
MODEL 7
REMARK VINA RESULT:      -3.4     12.231     13.731
REMARK  0 active torsions:
REMARK  status: ('A' for Active; 'I' for Inactive)
ROOT
HETATM    1  C1  UNL     1     -33.294  16.511  -3.347  1.00 20.00     0.004 C 
HETATM    2  C2  UNL     1     -33.684  17.718  -4.197  1.00 20.00     0.040 C 
HETATM    3  C3  UNL     1     -33.653  16.642  -1.863  1.00 20.00     0.009 C 
HETATM    4  C4  UNL     1     -34.544  19.003  -2.144  1.00 20.00     0.049 C 
HETATM    5  C5  UNL     1     -35.758  19.263  -4.426  1.00 20.00     0.207 A 
HETATM    6  C6  UNL     1     -34.767  18.525  -3.556  1.00 20.00     0.083 A 
HETATM    7  C7  UNL     1     -33.595  18.088  -1.326  1.00 20.00    -0.045 C 
HETATM    8  C8  UNL     1     -32.150  18.624  -1.370  1.00 20.00     0.015 C 
HETATM    9  C9  UNL     1     -34.045  18.086   0.149  1.00 20.00     0.015 C 
HETATM   10  O10 UNL     1     -36.089  18.016  -3.800  1.00 20.00    -0.375 OA
ENDROOT
TORSDOF 0
ENDMDL
MODEL 8
REMARK VINA RESULT:      -3.3      9.681     11.073
REMARK  0 active torsions:
REMARK  status: ('A' for Active; 'I' for Inactive)
ROOT
HETATM    1  C1  UNL     1     -43.190  13.608   6.721  1.00 20.00     0.004 C 
HETATM    2  C2  UNL     1     -42.249  12.405   6.721  1.00 20.00     0.040 C 
HETATM    3  C3  UNL     1     -42.493  14.955   6.942  1.00 20.00     0.009 C 
HETATM    4  C4  UNL     1     -40.214  13.881   7.259  1.00 20.00     0.049 C 
HETATM    5  C5  UNL     1     -39.937  11.831   5.688  1.00 20.00     0.207 A 
HETATM    6  C6  UNL     1     -40.839  12.801   6.414  1.00 20.00     0.083 A 
HETATM    7  C7  UNL     1     -41.246  14.877   7.850  1.00 20.00    -0.045 C 
HETATM    8  C8  UNL     1     -41.643  14.466   9.281  1.00 20.00     0.015 C 
HETATM    9  C9  UNL     1     -40.605  16.278   7.930  1.00 20.00     0.015 C 
HETATM   10  O10 UNL     1     -40.567  12.925   5.008  1.00 20.00    -0.375 OA
ENDROOT
TORSDOF 0
ENDMDL
MODEL 9
REMARK VINA RESULT:      -3.2      1.620      3.709
REMARK  0 active torsions:
REMARK  status: ('A' for Active; 'I' for Inactive)
ROOT
HETATM    1  C1  UNL     1     -33.433   5.787   3.214  1.00 20.00     0.004 C 
HETATM    2  C2  UNL     1     -34.621   5.599   4.156  1.00 20.00     0.040 C 
HETATM    3  C3  UNL     1     -32.438   6.863   3.661  1.00 20.00     0.009 C 
HETATM    4  C4  UNL     1     -33.835   7.514   5.680  1.00 20.00     0.049 C 
HETATM    5  C5  UNL     1     -34.973   5.424   6.723  1.00 20.00     0.207 A 
HETATM    6  C6  UNL     1     -34.323   6.095   5.535  1.00 20.00     0.083 A 
HETATM    7  C7  UNL     1     -33.084   8.038   4.428  1.00 20.00    -0.045 C 
HETATM    8  C8  UNL     1     -34.039   8.824   3.509  1.00 20.00     0.015 C 
HETATM    9  C9  UNL     1     -31.971   9.006   4.877  1.00 20.00     0.015 C 
HETATM   10  O10 UNL     1     -33.616   5.147   6.351  1.00 20.00    -0.375 OA
ENDROOT
TORSDOF 0
ENDMDL
