MODEL 1
REMARK VINA RESULT:      -4.3      0.000      0.000
REMARK  0 active torsions:
REMARK  status: ('A' for Active; 'I' for Inactive)
ROOT
HETATM    1  C1  UNL     1     -33.382   8.384   5.578  1.00 20.00     0.035 C 
HETATM    2  C2  UNL     1     -33.714   6.927   5.897  1.00 20.00     0.011 C 
HETATM    3  C3  UNL     1     -33.053   6.101   3.588  1.00 20.00     0.043 C 
HETATM    4  C4  UNL     1     -32.449   8.505   4.421  1.00 20.00     0.151 A 
HETATM    5  C5  UNL     1     -32.312   7.391   3.418  1.00 20.00     0.151 A 
HETATM    6  C6  UNL     1     -34.166   6.109   4.664  1.00 20.00    -0.045 C 
HETATM    7  C7  UNL     1     -35.487   6.658   4.088  1.00 20.00     0.015 C 
HETATM    8  C8  UNL     1     -34.428   4.655   5.111  1.00 20.00     0.015 C 
HETATM    9  O9  UNL     1     -33.110   8.543   3.142  1.00 20.00    -0.375 OA
ENDROOT
TORSDOF 0
ENDMDL
MODEL 2
REMARK VINA RESULT:      -4.0      1.714      3.373
REMARK  0 active torsions:
REMARK  status: ('A' for Active; 'I' for Inactive)
ROOT
HETATM    1  C1  UNL     1     -33.666   5.544   3.341  1.00 20.00     0.035 C 
HETATM    2  C2  UNL     1     -32.681   6.654   3.709  1.00 20.00     0.011 C 
HETATM    3  C3  UNL     1     -33.762   7.087   5.966  1.00 20.00     0.043 C 
HETATM    4  C4  UNL     1     -34.336   4.970   4.543  1.00 20.00     0.151 A 
HETATM    5  C5  UNL     1     -34.414   5.746   5.829  1.00 20.00     0.151 A 
HETATM    6  C6  UNL     1     -33.281   7.731   4.642  1.00 20.00    -0.045 C 
HETATM    7  C7  UNL     1     -34.430   8.489   3.948  1.00 20.00     0.015 C 
HETATM    8  C8  UNL     1     -32.181   8.763   4.969  1.00 20.00     0.015 C 
HETATM    9  O9  UNL     1     -35.527   5.676   4.938  1.00 20.00    -0.375 OA
ENDROOT
TORSDOF 0
ENDMDL
MODEL 3
REMARK VINA RESULT:      -3.9     15.110     16.499
REMARK  0 active torsions:
REMARK  status: ('A' for Active; 'I' for Inactive)
ROOT
HETATM    1  C1  UNL     1     -23.603  18.737   8.645  1.00 20.00     0.035 C 
HETATM    2  C2  UNL     1     -24.414  19.014   9.910  1.00 20.00     0.011 C 
HETATM    3  C3  UNL     1     -22.514  18.370  11.467  1.00 20.00     0.043 C 
HETATM    4  C4  UNL     1     -22.135  18.752   8.909  1.00 20.00     0.151 A 
HETATM    5  C5  UNL     1     -21.596  18.536  10.297  1.00 20.00     0.151 A 
HETATM    6  C6  UNL     1     -24.004  18.137  11.117  1.00 20.00    -0.045 C 
HETATM    7  C7  UNL     1     -24.279  16.646  10.836  1.00 20.00     0.015 C 
HETATM    8  C8  UNL     1     -24.865  18.543  12.332  1.00 20.00     0.015 C 
HETATM    9  O9  UNL     1     -21.606  17.482   9.334  1.00 20.00    -0.375 OA
ENDROOT
TORSDOF 0
ENDMDL
MODEL 4
REMARK VINA RESULT:      -3.5     11.958     13.213
REMARK  0 active torsions:
REMARK  status: ('A' for Active; 'I' for Inactive)
ROOT
HETATM    1  C1  UNL     1     -33.271  16.513  -3.378  1.00 20.00     0.035 C 
HETATM    2  C2  UNL     1     -33.600  16.624  -1.890  1.00 20.00     0.011 C 
HETATM    3  C3  UNL     1     -34.565  18.963  -2.111  1.00 20.00     0.043 C 
HETATM    4  C4  UNL     1     -34.066  17.472  -4.199  1.00 20.00     0.151 A 
HETATM    5  C5  UNL     1     -34.675  18.700  -3.580  1.00 20.00     0.151 A 
HETATM    6  C6  UNL     1     -33.553  18.072  -1.349  1.00 20.00    -0.045 C 
HETATM    7  C7  UNL     1     -32.127  18.652  -1.443  1.00 20.00     0.015 C 
HETATM    8  C8  UNL     1     -33.943  18.050   0.144  1.00 20.00     0.015 C 
HETATM    9  O9  UNL     1     -33.459  18.772  -4.325  1.00 20.00    -0.375 OA
ENDROOT
TORSDOF 0
ENDMDL
MODEL 5
REMARK VINA RESULT:      -3.4      8.361     10.099
REMARK  0 active torsions:
REMARK  status: ('A' for Active; 'I' for Inactive)
ROOT
HETATM    1  C1  UNL     1     -43.417   6.240   2.210  1.00 20.00     0.035 C 
HETATM    2  C2  UNL     1     -43.277   7.368   1.188  1.00 20.00     0.011 C 
HETATM    3  C3  UNL     1     -42.127   5.890  -0.528  1.00 20.00     0.043 C 
HETATM    4  C4  UNL     1     -43.322   4.895   1.573  1.00 20.00     0.151 A 
HETATM    5  C5  UNL     1     -42.654   4.717   0.237  1.00 20.00     0.151 A 
HETATM    6  C6  UNL     1     -42.046   7.219   0.263  1.00 20.00    -0.045 C 
HETATM    7  C7  UNL     1     -40.734   7.303   1.069  1.00 20.00     0.015 C 
HETATM    8  C8  UNL     1     -42.044   8.390  -0.742  1.00 20.00     0.015 C 
HETATM    9  O9  UNL     1     -41.974   4.402   1.453  1.00 20.00    -0.375 OA
ENDROOT
TORSDOF 0
ENDMDL
MODEL 6
REMARK VINA RESULT:      -3.3      1.812      3.313
REMARK  0 active torsions:
REMARK  status: ('A' for Active; 'I' for Inactive)
ROOT
HETATM    1  C1  UNL     1     -33.533   5.722   6.557  1.00 20.00     0.035 C 
HETATM    2  C2  UNL     1     -33.496   7.197   6.158  1.00 20.00     0.011 C 
HETATM    3  C3  UNL     1     -34.995   6.857   4.136  1.00 20.00     0.043 C 
HETATM    4  C4  UNL     1     -34.707   5.014   5.968  1.00 20.00     0.151 A 
HETATM    5  C5  UNL     1     -35.406   5.556   4.751  1.00 20.00     0.151 A 
HETATM    6  C6  UNL     1     -33.647   7.434   4.637  1.00 20.00    -0.045 C 
HETATM    7  C7  UNL     1     -32.463   6.824   3.860  1.00 20.00     0.015 C 
HETATM    8  C8  UNL     1     -33.636   8.955   4.374  1.00 20.00     0.015 C 
HETATM    9  O9  UNL     1     -34.466   4.486   4.649  1.00 20.00    -0.375 OA
ENDROOT
TORSDOF 0
ENDMDL
MODEL 7
REMARK VINA RESULT:      -3.3     12.617     13.602
REMARK  0 active torsions:
REMARK  status: ('A' for Active; 'I' for Inactive)
ROOT
HETATM    1  C1  UNL     1     -36.672  16.359  -5.929  1.00 20.00     0.035 C 
HETATM    2  C2  UNL     1     -35.496  16.510  -4.963  1.00 20.00     0.011 C 
HETATM    3  C3  UNL     1     -33.934  15.104  -6.389  1.00 20.00     0.043 C 
HETATM    4  C4  UNL     1     -36.223  15.979  -7.300  1.00 20.00     0.151 A 
HETATM    5  C5  UNL     1     -34.886  15.327  -7.523  1.00 20.00     0.151 A 
HETATM    6  C6  UNL     1     -34.526  15.305  -4.973  1.00 20.00    -0.045 C 
HETATM    7  C7  UNL     1     -35.230  14.023  -4.482  1.00 20.00     0.015 C 
HETATM    8  C8  UNL     1     -33.371  15.599  -3.993  1.00 20.00     0.015 C 
HETATM    9  O9  UNL     1     -36.089  14.558  -7.495  1.00 20.00    -0.375 OA
ENDROOT
TORSDOF 0
ENDMDL
MODEL 8
REMARK VINA RESULT:      -3.2      8.820      9.679
REMARK  0 active torsions:
REMARK  status: ('A' for Active; 'I' for Inactive)
ROOT
HETATM    1  C1  UNL     1     -43.417   8.006   0.493  1.00 20.00     0.035 C 
HETATM    2  C2  UNL     1     -43.167   6.747   1.322  1.00 20.00     0.011 C 
HETATM    3  C3  UNL     1     -40.917   6.284   0.240  1.00 20.00     0.043 C 
HETATM    4  C4  UNL     1     -42.154   8.567  -0.066  1.00 20.00     0.151 A 
HETATM    5  C5  UNL     1     -40.929   7.708  -0.224  1.00 20.00     0.151 A 
HETATM    6  C6  UNL     1     -42.300   5.689   0.599  1.00 20.00    -0.045 C 
HETATM    7  C7  UNL     1     -43.014   5.152  -0.657  1.00 20.00     0.015 C 
HETATM    8  C8  UNL     1     -42.089   4.494   1.553  1.00 20.00     0.015 C 
HETATM    9  O9  UNL     1     -41.776   8.000  -1.335  1.00 20.00    -0.375 OA
ENDROOT
TORSDOF 0
ENDMDL
MODEL 9
REMARK VINA RESULT:      -3.2      8.447      9.896
REMARK  0 active torsions:
REMARK  status: ('A' for Active; 'I' for Inactive)
ROOT
HETATM    1  C1  UNL     1     -40.385   6.419   0.004  1.00 20.00     0.035 C 
HETATM    2  C2  UNL     1     -41.230   5.418  -0.784  1.00 20.00     0.011 C 
HETATM    3  C3  UNL     1     -43.417   6.587  -0.237  1.00 20.00     0.043 C 
HETATM    4  C4  UNL     1     -41.100   7.710   0.216  1.00 20.00     0.151 A 
HETATM    5  C5  UNL     1     -42.600   7.786   0.131  1.00 20.00     0.151 A 
HETATM    6  C6  UNL     1     -42.660   5.236  -0.224  1.00 20.00    -0.045 C 
HETATM    7  C7  UNL     1     -42.627   4.634   1.195  1.00 20.00     0.015 C 
HETATM    8  C8  UNL     1     -43.416   4.240  -1.129  1.00 20.00     0.015 C 
HETATM    9  O9  UNL     1     -41.932   7.729   1.391  1.00 20.00    -0.375 OA
ENDROOT
TORSDOF 0
ENDMDL
