MODEL 1
REMARK VINA RESULT:      -3.7      0.000      0.000
REMARK  4 active torsions:
REMARK  status: ('A' for Active; 'I' for Inactive)
REMARK    1  A    between atoms: C7_7  and  C10_10 
REMARK    2  A    between atoms: C8_8  and  N11_11 
REMARK    3  A    between atoms: C9_9  and  N11_11 
REMARK    4  A    between atoms: C10_10  and  N11_11 
ROOT
HETATM    1  C1  UNL     1     -43.352  14.798   4.792  1.00 20.00     0.013 C 
HETATM    2  C2  UNL     1     -43.061  13.992   5.633  1.00 20.00    -0.087 C 
HETATM    3  C9  UNL     1     -42.712  13.005   6.658  1.00 20.00     0.365 C 
ENDROOT
BRANCH   3   4
HETATM    4  N11 UNL     1     -41.388  13.284   7.213  1.00 20.00     0.104 N 
BRANCH   4   5
HETATM    5  C8  UNL     1     -41.418  14.510   8.012  1.00 20.00     0.224 A 
HETATM    6  C5  UNL     1     -40.470  14.689   9.165  1.00 20.00     0.038 A 
HETATM    7  C6  UNL     1     -40.298  15.508   7.919  1.00 20.00     0.038 A 
ENDBRANCH   4   5
BRANCH   4   8
HETATM    8  C10 UNL     1     -40.397  13.394   6.143  1.00 20.00     0.278 C 
BRANCH   8   9
HETATM    9  C7  UNL     1     -39.755  12.077   5.867  1.00 20.00     0.014 A 
HETATM   10  C3  UNL     1     -39.387  11.694   4.460  1.00 20.00     0.007 A 
HETATM   11  C4  UNL     1     -38.309  12.011   5.460  1.00 20.00     0.007 A 
ENDBRANCH   8   9
ENDBRANCH   4   8
ENDBRANCH   3   4
TORSDOF 4
ENDMDL
MODEL 2
REMARK VINA RESULT:      -3.6     11.778     13.578
REMARK  4 active torsions:
REMARK  status: ('A' for Active; 'I' for Inactive)
REMARK    1  A    between atoms: C7_7  and  C10_10 
REMARK    2  A    between atoms: C8_8  and  N11_11 
REMARK    3  A    between atoms: C9_9  and  N11_11 
REMARK    4  A    between atoms: C10_10  and  N11_11 
ROOT
HETATM    1  C1  UNL     1     -33.620  17.355  -1.307  1.00 20.00     0.013 C 
HETATM    2  C2  UNL     1     -33.461  16.788  -2.353  1.00 20.00    -0.087 C 
HETATM    3  C9  UNL     1     -33.260  16.093  -3.627  1.00 20.00     0.365 C 
ENDROOT
BRANCH   3   4
HETATM    4  N11 UNL     1     -34.464  16.173  -4.454  1.00 20.00     0.104 N 
BRANCH   4   5
HETATM    5  C8  UNL     1     -34.637  14.943  -5.225  1.00 20.00     0.224 A 
HETATM    6  C5  UNL     1     -35.879  14.111  -5.062  1.00 20.00     0.038 A 
HETATM    7  C6  UNL     1     -35.650  14.873  -6.335  1.00 20.00     0.038 A 
ENDBRANCH   4   5
BRANCH   4   8
HETATM    8  C10 UNL     1     -34.394  17.331  -5.346  1.00 20.00     0.278 C 
BRANCH   8   9
HETATM    9  C7  UNL     1     -35.383  18.374  -4.950  1.00 20.00     0.014 A 
HETATM   10  C3  UNL     1     -36.578  18.653  -5.819  1.00 20.00     0.007 A 
HETATM   11  C4  UNL     1     -36.758  17.977  -4.488  1.00 20.00     0.007 A 
ENDBRANCH   8   9
ENDBRANCH   4   8
ENDBRANCH   3   4
TORSDOF 4
ENDMDL
MODEL 3
REMARK VINA RESULT:      -3.6     10.431     11.560
REMARK  4 active torsions:
REMARK  status: ('A' for Active; 'I' for Inactive)
REMARK    1  A    between atoms: C7_7  and  C10_10 
REMARK    2  A    between atoms: C8_8  and  N11_11 
REMARK    3  A    between atoms: C9_9  and  N11_11 
REMARK    4  A    between atoms: C10_10  and  N11_11 
ROOT
HETATM    1  C1  UNL     1     -35.599  19.263   2.244  1.00 20.00     0.013 C 
HETATM    2  C2  UNL     1     -35.043  19.096   1.193  1.00 20.00    -0.087 C 
HETATM    3  C9  UNL     1     -34.370  18.896  -0.093  1.00 20.00     0.365 C 
ENDROOT
BRANCH   3   4
HETATM    4  N11 UNL     1     -33.080  18.236   0.098  1.00 20.00     0.104 N 
BRANCH   4   5
HETATM    5  C8  UNL     1     -32.167  19.102   0.844  1.00 20.00     0.224 A 
HETATM    6  C5  UNL     1     -31.481  18.597   2.082  1.00 20.00     0.038 A 
HETATM    7  C6  UNL     1     -30.687  18.843   0.832  1.00 20.00     0.038 A 
ENDBRANCH   4   5
BRANCH   4   8
HETATM    8  C10 UNL     1     -32.497  17.870  -1.193  1.00 20.00     0.278 C 
BRANCH   8   9
HETATM    9  C7  UNL     1     -33.552  17.451  -2.160  1.00 20.00     0.014 A 
HETATM   10  C3  UNL     1     -33.354  17.664  -3.636  1.00 20.00     0.007 A 
HETATM   11  C4  UNL     1     -33.322  16.273  -3.066  1.00 20.00     0.007 A 
ENDBRANCH   8   9
ENDBRANCH   4   8
ENDBRANCH   3   4
TORSDOF 4
ENDMDL
MODEL 4
REMARK VINA RESULT:      -3.5      1.104      3.793
REMARK  4 active torsions:
REMARK  status: ('A' for Active; 'I' for Inactive)
REMARK    1  A    between atoms: C7_7  and  C10_10 
REMARK    2  A    between atoms: C8_8  and  N11_11 
REMARK    3  A    between atoms: C9_9  and  N11_11 
REMARK    4  A    between atoms: C10_10  and  N11_11 
ROOT
HETATM    1  C1  UNL     1     -42.441  15.058   3.256  1.00 20.00     0.013 C 
HETATM    2  C2  UNL     1     -42.358  14.568   4.348  1.00 20.00    -0.087 C 
HETATM    3  C9  UNL     1     -42.264  13.968   5.682  1.00 20.00     0.365 C 
ENDROOT
BRANCH   3   4
HETATM    4  N11 UNL     1     -40.867  13.733   6.044  1.00 20.00     0.104 N 
BRANCH   4   5
HETATM    5  C8  UNL     1     -40.495  12.345   5.772  1.00 20.00     0.224 A 
HETATM    6  C5  UNL     1     -39.498  12.022   4.694  1.00 20.00     0.038 A 
HETATM    7  C6  UNL     1     -39.129  11.834   6.136  1.00 20.00     0.038 A 
ENDBRANCH   4   5
BRANCH   4   8
HETATM    8  C10 UNL     1     -40.643  14.055   7.453  1.00 20.00     0.278 C 
BRANCH   8   9
HETATM    9  C7  UNL     1     -41.279  15.355   7.815  1.00 20.00     0.014 A 
HETATM   10  C3  UNL     1     -40.723  16.181   8.942  1.00 20.00     0.007 A 
HETATM   11  C4  UNL     1     -40.573  16.650   7.521  1.00 20.00     0.007 A 
ENDBRANCH   8   9
ENDBRANCH   4   8
ENDBRANCH   3   4
TORSDOF 4
ENDMDL
MODEL 5
REMARK VINA RESULT:      -3.5      1.518      2.273
REMARK  4 active torsions:
REMARK  status: ('A' for Active; 'I' for Inactive)
REMARK    1  A    between atoms: C7_7  and  C10_10 
REMARK    2  A    between atoms: C8_8  and  N11_11 
REMARK    3  A    between atoms: C9_9  and  N11_11 
REMARK    4  A    between atoms: C10_10  and  N11_11 
ROOT
HETATM    1  C1  UNL     1     -43.417  12.615  10.439  1.00 20.00     0.013 C 
HETATM    2  C2  UNL     1     -43.251  12.787   9.263  1.00 20.00    -0.087 C 
HETATM    3  C9  UNL     1     -43.056  12.997   7.826  1.00 20.00     0.365 C 
ENDROOT
BRANCH   3   4
HETATM    4  N11 UNL     1     -41.683  13.416   7.548  1.00 20.00     0.104 N 
BRANCH   4   5
HETATM    5  C8  UNL     1     -41.481  14.806   7.957  1.00 20.00     0.224 A 
HETATM    6  C5  UNL     1     -40.409  15.157   8.952  1.00 20.00     0.038 A 
HETATM    7  C6  UNL     1     -40.259  15.562   7.514  1.00 20.00     0.038 A 
ENDBRANCH   4   5
BRANCH   4   8
HETATM    8  C10 UNL     1     -41.376  13.251   6.127  1.00 20.00     0.278 C 
BRANCH   8   9
HETATM    9  C7  UNL     1     -40.563  12.023   5.892  1.00 20.00     0.014 A 
HETATM   10  C3  UNL     1     -39.485  12.019   4.843  1.00 20.00     0.007 A 
HETATM   11  C4  UNL     1     -39.117  11.984   6.301  1.00 20.00     0.007 A 
ENDBRANCH   8   9
ENDBRANCH   4   8
ENDBRANCH   3   4
TORSDOF 4
ENDMDL
MODEL 6
REMARK VINA RESULT:      -3.5      1.035      4.064
REMARK  4 active torsions:
REMARK  status: ('A' for Active; 'I' for Inactive)
REMARK    1  A    between atoms: C7_7  and  C10_10 
REMARK    2  A    between atoms: C8_8  and  N11_11 
REMARK    3  A    between atoms: C9_9  and  N11_11 
REMARK    4  A    between atoms: C10_10  and  N11_11 
ROOT
HETATM    1  C1  UNL     1     -39.202  11.634   4.107  1.00 20.00     0.013 C 
HETATM    2  C2  UNL     1     -39.501  12.109   5.168  1.00 20.00    -0.087 C 
HETATM    3  C9  UNL     1     -39.858  12.688   6.465  1.00 20.00     0.365 C 
ENDROOT
BRANCH   3   4
HETATM    4  N11 UNL     1     -41.226  13.204   6.440  1.00 20.00     0.104 N 
BRANCH   4   5
HETATM    5  C8  UNL     1     -41.365  14.235   5.413  1.00 20.00     0.224 A 
HETATM    6  C5  UNL     1     -42.523  14.204   4.454  1.00 20.00     0.038 A 
HETATM    7  C6  UNL     1     -42.453  15.269   5.509  1.00 20.00     0.038 A 
ENDBRANCH   4   5
BRANCH   4   8
HETATM    8  C10 UNL     1     -41.596  13.735   7.752  1.00 20.00     0.278 C 
BRANCH   8   9
HETATM    9  C7  UNL     1     -40.408  14.294   8.460  1.00 20.00     0.014 A 
HETATM   10  C3  UNL     1     -40.374  15.746   8.850  1.00 20.00     0.007 A 
HETATM   11  C4  UNL     1     -40.507  14.686   9.908  1.00 20.00     0.007 A 
ENDBRANCH   8   9
ENDBRANCH   4   8
ENDBRANCH   3   4
TORSDOF 4
ENDMDL
MODEL 7
REMARK VINA RESULT:      -3.4      1.168      3.606
REMARK  4 active torsions:
REMARK  status: ('A' for Active; 'I' for Inactive)
REMARK    1  A    between atoms: C7_7  and  C10_10 
REMARK    2  A    between atoms: C8_8  and  N11_11 
REMARK    3  A    between atoms: C9_9  and  N11_11 
REMARK    4  A    between atoms: C10_10  and  N11_11 
ROOT
HETATM    1  C1  UNL     1     -38.982  11.702   4.131  1.00 20.00     0.013 C 
HETATM    2  C2  UNL     1     -39.745  11.990   5.011  1.00 20.00    -0.087 C 
HETATM    3  C9  UNL     1     -40.676  12.334   6.090  1.00 20.00     0.365 C 
ENDROOT
BRANCH   3   4
HETATM    4  N11 UNL     1     -41.029  13.752   6.032  1.00 20.00     0.104 N 
BRANCH   4   5
HETATM    5  C8  UNL     1     -41.027  14.334   7.374  1.00 20.00     0.224 A 
HETATM    6  C5  UNL     1     -40.244  15.586   7.659  1.00 20.00     0.038 A 
HETATM    7  C6  UNL     1     -41.745  15.627   7.647  1.00 20.00     0.038 A 
ENDBRANCH   4   5
BRANCH   4   8
HETATM    8  C10 UNL     1     -42.337  13.927   5.401  1.00 20.00     0.278 C 
BRANCH   8   9
HETATM    9  C7  UNL     1     -42.210  14.609   4.081  1.00 20.00     0.014 A 
HETATM   10  C3  UNL     1     -43.408  14.750   3.183  1.00 20.00     0.007 A 
HETATM   11  C4  UNL     1     -42.833  15.960   3.865  1.00 20.00     0.007 A 
ENDBRANCH   8   9
ENDBRANCH   4   8
ENDBRANCH   3   4
TORSDOF 4
ENDMDL
MODEL 8
REMARK VINA RESULT:      -3.4      1.138      2.897
REMARK  4 active torsions:
REMARK  status: ('A' for Active; 'I' for Inactive)
REMARK    1  A    between atoms: C7_7  and  C10_10 
REMARK    2  A    between atoms: C8_8  and  N11_11 
REMARK    3  A    between atoms: C9_9  and  N11_11 
REMARK    4  A    between atoms: C10_10  and  N11_11 
ROOT
HETATM    1  C1  UNL     1     -40.121  15.215   9.470  1.00 20.00     0.013 C 
HETATM    2  C2  UNL     1     -40.549  14.490   8.614  1.00 20.00    -0.087 C 
HETATM    3  C9  UNL     1     -41.073  13.600   7.575  1.00 20.00     0.365 C 
ENDROOT
BRANCH   3   4
HETATM    4  N11 UNL     1     -41.111  14.282   6.283  1.00 20.00     0.104 N 
BRANCH   4   5
HETATM    5  C8  UNL     1     -42.359  15.032   6.137  1.00 20.00     0.224 A 
HETATM    6  C5  UNL     1     -42.337  16.531   6.020  1.00 20.00     0.038 A 
HETATM    7  C6  UNL     1     -42.706  15.692   4.831  1.00 20.00     0.038 A 
ENDBRANCH   4   5
BRANCH   4   8
HETATM    8  C10 UNL     1     -40.962  13.320   5.192  1.00 20.00     0.278 C 
BRANCH   8   9
HETATM    9  C7  UNL     1     -40.137  12.152   5.614  1.00 20.00     0.014 A 
HETATM   10  C3  UNL     1     -39.413  11.326   4.587  1.00 20.00     0.007 A 
HETATM   11  C4  UNL     1     -38.637  12.213   5.522  1.00 20.00     0.007 A 
ENDBRANCH   8   9
ENDBRANCH   4   8
ENDBRANCH   3   4
TORSDOF 4
ENDMDL
MODEL 9
REMARK VINA RESULT:      -3.4     10.101     10.860
REMARK  4 active torsions:
REMARK  status: ('A' for Active; 'I' for Inactive)
REMARK    1  A    between atoms: C7_7  and  C10_10 
REMARK    2  A    between atoms: C8_8  and  N11_11 
REMARK    3  A    between atoms: C9_9  and  N11_11 
REMARK    4  A    between atoms: C10_10  and  N11_11 
ROOT
HETATM    1  C1  UNL     1     -34.835   4.937   4.923  1.00 20.00     0.013 C 
HETATM    2  C2  UNL     1     -34.143   5.356   4.036  1.00 20.00    -0.087 C 
HETATM    3  C9  UNL     1     -33.302   5.863   2.949  1.00 20.00     0.365 C 
ENDROOT
BRANCH   3   4
HETATM    4  N11 UNL     1     -32.442   6.946   3.424  1.00 20.00     0.104 N 
BRANCH   4   5
HETATM    5  C8  UNL     1     -33.209   7.887   4.239  1.00 20.00     0.224 A 
HETATM    6  C5  UNL     1     -33.066   7.890   5.736  1.00 20.00     0.038 A 
HETATM    7  C6  UNL     1     -32.524   9.034   4.930  1.00 20.00     0.038 A 
ENDBRANCH   4   5
BRANCH   4   8
HETATM    8  C10 UNL     1     -31.819   7.637   2.296  1.00 20.00     0.278 C 
BRANCH   8   9
HETATM    9  C7  UNL     1     -32.844   8.299   1.438  1.00 20.00     0.014 A 
HETATM   10  C3  UNL     1     -32.809   9.788   1.229  1.00 20.00     0.007 A 
HETATM   11  C4  UNL     1     -32.458   8.861   0.098  1.00 20.00     0.007 A 
ENDBRANCH   8   9
ENDBRANCH   4   8
ENDBRANCH   3   4
TORSDOF 4
ENDMDL
