MODEL 1
REMARK VINA RESULT:      -4.5      0.000      0.000
REMARK  3 active torsions:
REMARK  status: ('A' for Active; 'I' for Inactive)
REMARK    1  A    between atoms: C6_6  and  C10_10 
REMARK    2  A    between atoms: C7_7  and  N11_11 
REMARK    3  A    between atoms: C9_9  and  N11_11 
ROOT
HETATM    1  C1  UNL     1     -33.934  14.456  -4.229  1.00 20.00     0.013 C 
HETATM    2  C2  UNL     1     -33.629  15.501  -3.721  1.00 20.00    -0.087 C 
HETATM    3  C9  UNL     1     -33.256  16.777  -3.107  1.00 20.00     0.362 C 
ENDROOT
BRANCH   3   4
HETATM    4  N11 UNL     1     -33.679  16.819  -1.712  1.00 20.00     0.098 N 
HETATM    5  H28 UNL     1     -32.992  16.325  -1.141  1.00 20.00     0.317 HD
BRANCH   4   6
HETATM    6  C7  UNL     1     -33.802  18.198  -1.241  1.00 20.00     0.222 C 
HETATM    7  C4  UNL     1     -32.598  19.035  -1.669  1.00 20.00     0.036 C 
HETATM    8  C3  UNL     1     -31.510  18.760  -0.627  1.00 20.00     0.007 C 
HETATM    9  C6  UNL     1     -32.232  18.184   0.603  1.00 20.00    -0.013 C 
HETATM   10  C5  UNL     1     -33.726  18.294   0.283  1.00 20.00     0.040 C 
BRANCH   9  11
HETATM   11  C10 UNL     1     -31.856  18.889   1.898  1.00 20.00     0.000 C 
HETATM   12  C8  UNL     1     -30.376  18.926   2.103  1.00 20.00     0.005 C 
ENDBRANCH   9  11
ENDBRANCH   4   6
ENDBRANCH   3   4
TORSDOF 3
ENDMDL
MODEL 2
REMARK VINA RESULT:      -4.3      1.486      2.274
REMARK  3 active torsions:
REMARK  status: ('A' for Active; 'I' for Inactive)
REMARK    1  A    between atoms: C6_6  and  C10_10 
REMARK    2  A    between atoms: C7_7  and  N11_11 
REMARK    3  A    between atoms: C9_9  and  N11_11 
ROOT
HETATM    1  C1  UNL     1     -35.646  14.742  -5.717  1.00 20.00     0.013 C 
HETATM    2  C2  UNL     1     -34.627  14.844  -5.090  1.00 20.00    -0.087 C 
HETATM    3  C9  UNL     1     -33.384  14.962  -4.325  1.00 20.00     0.362 C 
ENDROOT
BRANCH   3   4
HETATM    4  N11 UNL     1     -33.000  16.362  -4.182  1.00 20.00     0.098 N 
HETATM    5  H28 UNL     1     -32.972  16.795  -5.106  1.00 20.00     0.317 HD
BRANCH   4   6
HETATM    6  C7  UNL     1     -33.948  17.084  -3.334  1.00 20.00     0.222 C 
HETATM    7  C4  UNL     1     -33.847  18.591  -3.557  1.00 20.00     0.036 C 
HETATM    8  C3  UNL     1     -32.683  19.062  -2.680  1.00 20.00     0.007 C 
HETATM    9  C6  UNL     1     -32.459  17.956  -1.636  1.00 20.00    -0.013 C 
HETATM   10  C5  UNL     1     -33.603  16.960  -1.850  1.00 20.00     0.040 C 
BRANCH   9  11
HETATM   11  C10 UNL     1     -32.402  18.486  -0.210  1.00 20.00     0.000 C 
HETATM   12  C8  UNL     1     -30.998  18.577   0.295  1.00 20.00     0.005 C 
ENDBRANCH   9  11
ENDBRANCH   4   6
ENDBRANCH   3   4
TORSDOF 3
ENDMDL
MODEL 3
REMARK VINA RESULT:      -4.2      1.508      5.838
REMARK  3 active torsions:
REMARK  status: ('A' for Active; 'I' for Inactive)
REMARK    1  A    between atoms: C6_6  and  C10_10 
REMARK    2  A    between atoms: C7_7  and  N11_11 
REMARK    3  A    between atoms: C9_9  and  N11_11 
ROOT
HETATM    1  C1  UNL     1     -31.396  18.503  -0.394  1.00 20.00     0.013 C 
HETATM    2  C2  UNL     1     -32.483  18.181  -0.789  1.00 20.00    -0.087 C 
HETATM    3  C9  UNL     1     -33.812  17.793  -1.269  1.00 20.00     0.362 C 
ENDROOT
BRANCH   3   4
HETATM    4  N11 UNL     1     -33.757  16.503  -1.946  1.00 20.00     0.098 N 
HETATM    5  H28 UNL     1     -34.709  16.159  -2.083  1.00 20.00     0.317 HD
BRANCH   4   6
HETATM    6  C7  UNL     1     -33.089  16.616  -3.241  1.00 20.00     0.222 C 
HETATM    7  C4  UNL     1     -33.727  17.709  -4.096  1.00 20.00     0.036 C 
HETATM    8  C3  UNL     1     -34.942  17.058  -4.763  1.00 20.00     0.007 C 
HETATM    9  C6  UNL     1     -34.713  15.539  -4.680  1.00 20.00    -0.013 C 
HETATM   10  C5  UNL     1     -33.301  15.374  -4.108  1.00 20.00     0.040 C 
BRANCH   9  11
HETATM   11  C10 UNL     1     -34.889  14.836  -6.018  1.00 20.00     0.000 C 
HETATM   12  C8  UNL     1     -34.096  15.494  -7.101  1.00 20.00     0.005 C 
ENDBRANCH   9  11
ENDBRANCH   4   6
ENDBRANCH   3   4
TORSDOF 3
ENDMDL
MODEL 4
REMARK VINA RESULT:      -4.1     10.597     11.390
REMARK  3 active torsions:
REMARK  status: ('A' for Active; 'I' for Inactive)
REMARK    1  A    between atoms: C6_6  and  C10_10 
REMARK    2  A    between atoms: C7_7  and  N11_11 
REMARK    3  A    between atoms: C9_9  and  N11_11 
ROOT
HETATM    1  C1  UNL     1     -32.915   8.741  -0.466  1.00 20.00     0.013 C 
HETATM    2  C2  UNL     1     -32.746   9.241   0.613  1.00 20.00    -0.087 C 
HETATM    3  C9  UNL     1     -32.537   9.855   1.926  1.00 20.00     0.362 C 
ENDROOT
BRANCH   3   4
HETATM    4  N11 UNL     1     -33.301   9.152   2.950  1.00 20.00     0.098 N 
HETATM    5  H28 UNL     1     -34.035   8.604   2.500  1.00 20.00     0.317 HD
BRANCH   4   6
HETATM    6  C7  UNL     1     -32.441   8.264   3.732  1.00 20.00     0.222 C 
HETATM    7  C4  UNL     1     -32.550   6.821   3.242  1.00 20.00     0.036 C 
HETATM    8  C3  UNL     1     -33.792   6.244   3.927  1.00 20.00     0.007 C 
HETATM    9  C6  UNL     1     -34.083   7.160   5.127  1.00 20.00    -0.013 C 
HETATM   10  C5  UNL     1     -32.907   8.141   5.182  1.00 20.00     0.040 C 
BRANCH   9  11
HETATM   11  C10 UNL     1     -34.269   6.395   6.429  1.00 20.00     0.000 C 
HETATM   12  C8  UNL     1     -34.449   4.930   6.193  1.00 20.00     0.005 C 
ENDBRANCH   9  11
ENDBRANCH   4   6
ENDBRANCH   3   4
TORSDOF 3
ENDMDL
MODEL 5
REMARK VINA RESULT:      -3.9     10.515     11.675
REMARK  3 active torsions:
REMARK  status: ('A' for Active; 'I' for Inactive)
REMARK    1  A    between atoms: C6_6  and  C10_10 
REMARK    2  A    between atoms: C7_7  and  N11_11 
REMARK    3  A    between atoms: C9_9  and  N11_11 
ROOT
HETATM    1  C1  UNL     1     -38.943  11.667   4.057  1.00 20.00     0.013 C 
HETATM    2  C2  UNL     1     -39.652  12.002   4.967  1.00 20.00    -0.087 C 
HETATM    3  C9  UNL     1     -40.520  12.407   6.075  1.00 20.00     0.362 C 
ENDROOT
BRANCH   3   4
HETATM    4  N11 UNL     1     -39.884  13.450   6.871  1.00 20.00     0.098 N 
HETATM    5  H28 UNL     1     -39.577  14.201   6.251  1.00 20.00     0.317 HD
BRANCH   4   6
HETATM    6  C7  UNL     1     -40.809  13.990   7.868  1.00 20.00     0.222 C 
HETATM    7  C4  UNL     1     -42.120  14.429   7.220  1.00 20.00     0.036 C 
HETATM    8  C3  UNL     1     -41.862  15.837   6.676  1.00 20.00     0.007 C 
HETATM    9  C6  UNL     1     -40.621  16.362   7.418  1.00 20.00    -0.013 C 
HETATM   10  C5  UNL     1     -40.303  15.298   8.474  1.00 20.00     0.040 C 
BRANCH   9  11
HETATM   11  C10 UNL     1     -40.828  17.743   8.021  1.00 20.00     0.000 C 
HETATM   12  C8  UNL     1     -40.420  18.829   7.078  1.00 20.00     0.005 C 
ENDBRANCH   9  11
ENDBRANCH   4   6
ENDBRANCH   3   4
TORSDOF 3
ENDMDL
MODEL 6
REMARK VINA RESULT:      -3.8      3.499      6.938
REMARK  3 active torsions:
REMARK  status: ('A' for Active; 'I' for Inactive)
REMARK    1  A    between atoms: C6_6  and  C10_10 
REMARK    2  A    between atoms: C7_7  and  N11_11 
REMARK    3  A    between atoms: C9_9  and  N11_11 
ROOT
HETATM    1  C1  UNL     1     -33.292  16.730  -2.561  1.00 20.00     0.013 C 
HETATM    2  C2  UNL     1     -33.445  15.849  -3.363  1.00 20.00    -0.087 C 
HETATM    3  C9  UNL     1     -33.634  14.772  -4.336  1.00 20.00     0.362 C 
ENDROOT
BRANCH   3   4
HETATM    4  N11 UNL     1     -33.216  15.201  -5.666  1.00 20.00     0.098 N 
HETATM    5  H28 UNL     1     -32.428  14.626  -5.969  1.00 20.00     0.317 HD
BRANCH   4   6
HETATM    6  C7  UNL     1     -34.310  15.073  -6.628  1.00 20.00     0.222 C 
HETATM    7  C4  UNL     1     -34.000  15.833  -7.917  1.00 20.00     0.036 C 
HETATM    8  C3  UNL     1     -34.390  17.288  -7.644  1.00 20.00     0.007 C 
HETATM    9  C6  UNL     1     -35.337  17.258  -6.433  1.00 20.00    -0.013 C 
HETATM   10  C5  UNL     1     -35.582  15.772  -6.149  1.00 20.00     0.040 C 
BRANCH   9  11
HETATM   11  C10 UNL     1     -36.627  18.030  -6.666  1.00 20.00     0.000 C 
HETATM   12  C8  UNL     1     -37.795  17.118  -6.862  1.00 20.00     0.005 C 
ENDBRANCH   9  11
ENDBRANCH   4   6
ENDBRANCH   3   4
TORSDOF 3
ENDMDL
MODEL 7
REMARK VINA RESULT:      -3.8     11.568     12.561
REMARK  3 active torsions:
REMARK  status: ('A' for Active; 'I' for Inactive)
REMARK    1  A    between atoms: C6_6  and  C10_10 
REMARK    2  A    between atoms: C7_7  and  N11_11 
REMARK    3  A    between atoms: C9_9  and  N11_11 
ROOT
HETATM    1  C1  UNL     1     -38.968  11.615   4.124  1.00 20.00     0.013 C 
HETATM    2  C2  UNL     1     -39.692  12.029   4.988  1.00 20.00    -0.087 C 
HETATM    3  C9  UNL     1     -40.579  12.530   6.041  1.00 20.00     0.362 C 
ENDROOT
BRANCH   3   4
HETATM    4  N11 UNL     1     -40.002  13.704   6.683  1.00 20.00     0.098 N 
HETATM    5  H28 UNL     1     -39.442  14.216   6.000  1.00 20.00     0.317 HD
BRANCH   4   6
HETATM    6  C7  UNL     1     -41.046  14.582   7.212  1.00 20.00     0.222 C 
HETATM    7  C4  UNL     1     -40.441  15.811   7.887  1.00 20.00     0.036 C 
HETATM    8  C3  UNL     1     -40.076  15.367   9.306  1.00 20.00     0.007 C 
HETATM    9  C6  UNL     1     -40.890  14.091   9.578  1.00 20.00    -0.013 C 
HETATM   10  C5  UNL     1     -41.812  13.934   8.365  1.00 20.00     0.040 C 
BRANCH   9  11
HETATM   11  C10 UNL     1     -41.654  14.141  10.893  1.00 20.00     0.000 C 
HETATM   12  C8  UNL     1     -40.754  14.436  12.050  1.00 20.00     0.005 C 
ENDBRANCH   9  11
ENDBRANCH   4   6
ENDBRANCH   3   4
TORSDOF 3
ENDMDL
MODEL 8
REMARK VINA RESULT:      -3.8      2.296      3.618
REMARK  3 active torsions:
REMARK  status: ('A' for Active; 'I' for Inactive)
REMARK    1  A    between atoms: C6_6  and  C10_10 
REMARK    2  A    between atoms: C7_7  and  N11_11 
REMARK    3  A    between atoms: C9_9  and  N11_11 
ROOT
HETATM    1  C1  UNL     1     -34.948  15.546  -7.628  1.00 20.00     0.013 C 
HETATM    2  C2  UNL     1     -35.437  16.248  -6.785  1.00 20.00    -0.087 C 
HETATM    3  C9  UNL     1     -36.037  17.107  -5.761  1.00 20.00     0.362 C 
ENDROOT
BRANCH   3   4
HETATM    4  N11 UNL     1     -35.487  16.800  -4.446  1.00 20.00     0.098 N 
HETATM    5  H28 UNL     1     -35.790  15.865  -4.169  1.00 20.00     0.317 HD
BRANCH   4   6
HETATM    6  C7  UNL     1     -34.026  16.853  -4.461  1.00 20.00     0.222 C 
HETATM    7  C4  UNL     1     -33.432  15.960  -3.373  1.00 20.00     0.036 C 
HETATM    8  C3  UNL     1     -33.463  16.795  -2.090  1.00 20.00     0.007 C 
HETATM    9  C6  UNL     1     -33.606  18.260  -2.536  1.00 20.00    -0.013 C 
HETATM   10  C5  UNL     1     -33.495  18.230  -4.064  1.00 20.00     0.040 C 
BRANCH   9  11
HETATM   11  C10 UNL     1     -32.581  19.182  -1.892  1.00 20.00     0.000 C 
HETATM   12  C8  UNL     1     -31.851  18.509  -0.775  1.00 20.00     0.005 C 
ENDBRANCH   9  11
ENDBRANCH   4   6
ENDBRANCH   3   4
TORSDOF 3
ENDMDL
MODEL 9
REMARK VINA RESULT:      -3.8     10.800     11.775
REMARK  3 active torsions:
REMARK  status: ('A' for Active; 'I' for Inactive)
REMARK    1  A    between atoms: C6_6  and  C10_10 
REMARK    2  A    between atoms: C7_7  and  N11_11 
REMARK    3  A    between atoms: C9_9  and  N11_11 
ROOT
HETATM    1  C1  UNL     1     -34.390   4.376   4.831  1.00 20.00     0.013 C 
HETATM    2  C2  UNL     1     -34.375   5.407   5.447  1.00 20.00    -0.087 C 
HETATM    3  C9  UNL     1     -34.357   6.661   6.204  1.00 20.00     0.362 C 
ENDROOT
BRANCH   3   4
HETATM    4  N11 UNL     1     -34.060   7.787   5.326  1.00 20.00     0.098 N 
HETATM    5  H28 UNL     1     -34.288   8.656   5.811  1.00 20.00     0.317 HD
BRANCH   4   6
HETATM    6  C7  UNL     1     -32.649   7.799   4.945  1.00 20.00     0.222 C 
HETATM    7  C4  UNL     1     -32.127   9.228   4.810  1.00 20.00     0.036 C 
HETATM    8  C3  UNL     1     -32.526   9.684   3.404  1.00 20.00     0.007 C 
HETATM    9  C6  UNL     1     -32.820   8.403   2.606  1.00 20.00    -0.013 C 
HETATM   10  C5  UNL     1     -32.429   7.249   3.535  1.00 20.00     0.040 C 
BRANCH   9  11
HETATM   11  C10 UNL     1     -32.092   8.353   1.271  1.00 20.00     0.000 C 
HETATM   12  C8  UNL     1     -32.699   9.283   0.270  1.00 20.00     0.005 C 
ENDBRANCH   9  11
ENDBRANCH   4   6
ENDBRANCH   3   4
TORSDOF 3
ENDMDL
