MODEL 1
REMARK VINA RESULT:      -3.9      0.000      0.000
REMARK  3 active torsions:
REMARK  status: ('A' for Active; 'I' for Inactive)
REMARK    1  A    between atoms: C4_4  and  C6_6 
REMARK    2  A    between atoms: C5_5  and  C6_6 
REMARK    3  A    between atoms: C5_5  and  O8_8 
ROOT
HETATM    1  C1  UNL     1     -33.005   8.308   4.936  1.00 20.00     0.066 C 
HETATM    2  C6  UNL     1     -34.170   7.423   5.152  1.00 20.00     0.116 C 
HETATM    3  N7  UNL     1     -32.093   9.005   4.765  1.00 20.00    -0.197 NA
ENDROOT
BRANCH   2   4
HETATM    4  C4  UNL     1     -34.081   6.727   6.520  1.00 20.00     0.017 C 
HETATM    5  C2  UNL     1     -34.509   5.264   6.476  1.00 20.00     0.006 C 
ENDBRANCH   2   4
BRANCH   2   6
HETATM    6  C5  UNL     1     -34.240   6.378   4.032  1.00 20.00     0.186 C 
BRANCH   6   7
HETATM    7  O8  UNL     1     -32.982   6.302   3.370  1.00 20.00    -0.395 OA
HETATM    8  C3  UNL     1     -32.868   5.112   2.605  1.00 20.00     0.201 C 
ENDBRANCH   6   7
ENDBRANCH   2   6
TORSDOF 3
ENDMDL
MODEL 2
REMARK VINA RESULT:      -3.5      9.490     10.408
REMARK  3 active torsions:
REMARK  status: ('A' for Active; 'I' for Inactive)
REMARK    1  A    between atoms: C4_4  and  C6_6 
REMARK    2  A    between atoms: C5_5  and  C6_6 
REMARK    3  A    between atoms: C5_5  and  O8_8 
ROOT
HETATM    1  C1  UNL     1     -42.177  12.348   6.695  1.00 20.00     0.066 C 
HETATM    2  C6  UNL     1     -40.963  12.885   6.043  1.00 20.00     0.116 C 
HETATM    3  N7  UNL     1     -43.132  11.930   7.205  1.00 20.00    -0.197 NA
ENDROOT
BRANCH   2   4
HETATM    4  C4  UNL     1     -39.893  11.790   5.898  1.00 20.00     0.017 C 
HETATM    5  C2  UNL     1     -39.237  11.775   4.522  1.00 20.00     0.006 C 
ENDBRANCH   2   4
BRANCH   2   6
HETATM    6  C5  UNL     1     -40.410  14.057   6.864  1.00 20.00     0.186 C 
BRANCH   6   7
HETATM    7  O8  UNL     1     -40.116  13.618   8.186  1.00 20.00    -0.395 OA
HETATM    8  C3  UNL     1     -40.294  14.662   9.131  1.00 20.00     0.201 C 
ENDBRANCH   6   7
ENDBRANCH   2   6
TORSDOF 3
ENDMDL
MODEL 3
REMARK VINA RESULT:      -3.4      1.401      2.798
REMARK  3 active torsions:
REMARK  status: ('A' for Active; 'I' for Inactive)
REMARK    1  A    between atoms: C4_4  and  C6_6 
REMARK    2  A    between atoms: C5_5  and  C6_6 
REMARK    3  A    between atoms: C5_5  and  O8_8 
ROOT
HETATM    1  C1  UNL     1     -32.461   8.356   4.671  1.00 20.00     0.066 C 
HETATM    2  C6  UNL     1     -32.921   6.980   4.387  1.00 20.00     0.116 C 
HETATM    3  N7  UNL     1     -32.099   9.435   4.896  1.00 20.00    -0.197 NA
ENDROOT
BRANCH   2   4
HETATM    4  C4  UNL     1     -32.670   6.613   2.915  1.00 20.00     0.017 C 
HETATM    5  C2  UNL     1     -32.965   5.150   2.605  1.00 20.00     0.006 C 
ENDBRANCH   2   4
BRANCH   2   6
HETATM    6  C5  UNL     1     -34.414   6.855   4.715  1.00 20.00     0.186 C 
BRANCH   6   7
HETATM    7  O8  UNL     1     -34.576   6.567   6.100  1.00 20.00    -0.395 OA
HETATM    8  C3  UNL     1     -34.439   5.178   6.360  1.00 20.00     0.201 C 
ENDBRANCH   6   7
ENDBRANCH   2   6
TORSDOF 3
ENDMDL
MODEL 4
REMARK VINA RESULT:      -3.4      2.564      2.987
REMARK  3 active torsions:
REMARK  status: ('A' for Active; 'I' for Inactive)
REMARK    1  A    between atoms: C4_4  and  C6_6 
REMARK    2  A    between atoms: C5_5  and  C6_6 
REMARK    3  A    between atoms: C5_5  and  O8_8 
ROOT
HETATM    1  C1  UNL     1     -32.922   6.366   3.417  1.00 20.00     0.066 C 
HETATM    2  C6  UNL     1     -32.573   7.680   3.998  1.00 20.00     0.116 C 
HETATM    3  N7  UNL     1     -33.193   5.333   2.961  1.00 20.00    -0.197 NA
ENDROOT
BRANCH   2   4
HETATM    4  C4  UNL     1     -33.594   8.091   5.071  1.00 20.00     0.017 C 
HETATM    5  C2  UNL     1     -33.839   7.004   6.111  1.00 20.00     0.006 C 
ENDBRANCH   2   4
BRANCH   2   6
HETATM    6  C5  UNL     1     -32.518   8.738   2.889  1.00 20.00     0.186 C 
BRANCH   6   7
HETATM    7  O8  UNL     1     -32.172   8.117   1.655  1.00 20.00    -0.395 OA
HETATM    8  C3  UNL     1     -32.545   8.922   0.547  1.00 20.00     0.201 C 
ENDBRANCH   6   7
ENDBRANCH   2   6
TORSDOF 3
ENDMDL
MODEL 5
REMARK VINA RESULT:      -3.3      2.092      3.445
REMARK  3 active torsions:
REMARK  status: ('A' for Active; 'I' for Inactive)
REMARK    1  A    between atoms: C4_4  and  C6_6 
REMARK    2  A    between atoms: C5_5  and  C6_6 
REMARK    3  A    between atoms: C5_5  and  O8_8 
ROOT
HETATM    1  C1  UNL     1     -33.052   5.963   3.116  1.00 20.00     0.066 C 
HETATM    2  C6  UNL     1     -33.352   7.263   3.754  1.00 20.00     0.116 C 
HETATM    3  N7  UNL     1     -32.820   4.943   2.613  1.00 20.00    -0.197 NA
ENDROOT
BRANCH   2   4
HETATM    4  C4  UNL     1     -32.099   8.152   3.795  1.00 20.00     0.017 C 
HETATM    5  C2  UNL     1     -32.117   9.158   4.941  1.00 20.00     0.006 C 
ENDBRANCH   2   4
BRANCH   2   6
HETATM    6  C5  UNL     1     -33.882   7.031   5.175  1.00 20.00     0.186 C 
BRANCH   6   7
HETATM    7  O8  UNL     1     -34.818   5.958   5.166  1.00 20.00    -0.395 OA
HETATM    8  C3  UNL     1     -34.632   5.098   6.280  1.00 20.00     0.201 C 
ENDBRANCH   6   7
ENDBRANCH   2   6
TORSDOF 3
ENDMDL
MODEL 6
REMARK VINA RESULT:      -3.3     12.223     12.634
REMARK  3 active torsions:
REMARK  status: ('A' for Active; 'I' for Inactive)
REMARK    1  A    between atoms: C4_4  and  C6_6 
REMARK    2  A    between atoms: C5_5  and  C6_6 
REMARK    3  A    between atoms: C5_5  and  O8_8 
ROOT
HETATM    1  C1  UNL     1     -31.659  18.615  -0.745  1.00 20.00     0.066 C 
HETATM    2  C6  UNL     1     -33.019  18.562  -1.324  1.00 20.00     0.116 C 
HETATM    3  N7  UNL     1     -30.592  18.659  -0.292  1.00 20.00    -0.197 NA
ENDROOT
BRANCH   2   4
HETATM    4  C4  UNL     1     -34.001  17.890  -0.351  1.00 20.00     0.017 C 
HETATM    5  C2  UNL     1     -34.222  18.694   0.925  1.00 20.00     0.006 C 
ENDBRANCH   2   4
BRANCH   2   6
HETATM    6  C5  UNL     1     -32.985  17.796  -2.653  1.00 20.00     0.186 C 
BRANCH   6   7
HETATM    7  O8  UNL     1     -33.333  16.434  -2.428  1.00 20.00    -0.395 OA
HETATM    8  C3  UNL     1     -33.475  15.726  -3.650  1.00 20.00     0.201 C 
ENDBRANCH   6   7
ENDBRANCH   2   6
TORSDOF 3
ENDMDL
MODEL 7
REMARK VINA RESULT:      -3.3     12.854     13.654
REMARK  3 active torsions:
REMARK  status: ('A' for Active; 'I' for Inactive)
REMARK    1  A    between atoms: C4_4  and  C6_6 
REMARK    2  A    between atoms: C5_5  and  C6_6 
REMARK    3  A    between atoms: C5_5  and  O8_8 
ROOT
HETATM    1  C1  UNL     1     -34.058  15.169  -6.698  1.00 20.00     0.066 C 
HETATM    2  C6  UNL     1     -34.702  15.279  -5.372  1.00 20.00     0.116 C 
HETATM    3  N7  UNL     1     -33.554  15.084  -7.740  1.00 20.00    -0.197 NA
ENDROOT
BRANCH   2   4
HETATM    4  C4  UNL     1     -33.728  14.866  -4.256  1.00 20.00     0.017 C 
HETATM    5  C2  UNL     1     -33.389  16.009  -3.305  1.00 20.00     0.006 C 
ENDBRANCH   2   4
BRANCH   2   6
HETATM    6  C5  UNL     1     -35.956  14.398  -5.330  1.00 20.00     0.186 C 
BRANCH   6   7
HETATM    7  O8  UNL     1     -37.042  15.084  -5.945  1.00 20.00    -0.395 OA
HETATM    8  C3  UNL     1     -37.231  16.371  -5.375  1.00 20.00     0.201 C 
ENDBRANCH   6   7
ENDBRANCH   2   6
TORSDOF 3
ENDMDL
MODEL 8
REMARK VINA RESULT:      -3.3      9.619     10.486
REMARK  3 active torsions:
REMARK  status: ('A' for Active; 'I' for Inactive)
REMARK    1  A    between atoms: C4_4  and  C6_6 
REMARK    2  A    between atoms: C5_5  and  C6_6 
REMARK    3  A    between atoms: C5_5  and  O8_8 
ROOT
HETATM    1  C1  UNL     1     -41.424  13.825   4.820  1.00 20.00     0.066 C 
HETATM    2  C6  UNL     1     -40.647  13.367   5.991  1.00 20.00     0.116 C 
HETATM    3  N7  UNL     1     -42.033  14.188   3.901  1.00 20.00    -0.197 NA
ENDROOT
BRANCH   2   4
HETATM    4  C4  UNL     1     -40.122  11.939   5.773  1.00 20.00     0.017 C 
HETATM    5  C2  UNL     1     -39.263  11.803   4.520  1.00 20.00     0.006 C 
ENDBRANCH   2   4
BRANCH   2   6
HETATM    6  C5  UNL     1     -41.525  13.419   7.248  1.00 20.00     0.186 C 
BRANCH   6   7
HETATM    7  O8  UNL     1     -40.710  13.664   8.390  1.00 20.00    -0.395 OA
HETATM    8  C3  UNL     1     -40.327  15.028   8.471  1.00 20.00     0.201 C 
ENDBRANCH   6   7
ENDBRANCH   2   6
TORSDOF 3
ENDMDL
MODEL 9
REMARK VINA RESULT:      -3.3      2.042      2.896
REMARK  3 active torsions:
REMARK  status: ('A' for Active; 'I' for Inactive)
REMARK    1  A    between atoms: C4_4  and  C6_6 
REMARK    2  A    between atoms: C5_5  and  C6_6 
REMARK    3  A    between atoms: C5_5  and  O8_8 
ROOT
HETATM    1  C1  UNL     1     -33.239   5.631   3.190  1.00 20.00     0.066 C 
HETATM    2  C6  UNL     1     -33.637   6.311   4.441  1.00 20.00     0.116 C 
HETATM    3  N7  UNL     1     -32.923   5.097   2.209  1.00 20.00    -0.197 NA
ENDROOT
BRANCH   2   4
HETATM    4  C4  UNL     1     -34.865   5.629   5.066  1.00 20.00     0.017 C 
HETATM    5  C2  UNL     1     -34.744   5.448   6.575  1.00 20.00     0.006 C 
ENDBRANCH   2   4
BRANCH   2   6
HETATM    6  C5  UNL     1     -33.942   7.787   4.153  1.00 20.00     0.186 C 
BRANCH   6   7
HETATM    7  O8  UNL     1     -32.746   8.454   3.762  1.00 20.00    -0.395 OA
HETATM    8  C3  UNL     1     -32.104   9.061   4.873  1.00 20.00     0.201 C 
ENDBRANCH   6   7
ENDBRANCH   2   6
TORSDOF 3
ENDMDL
