MODEL 1
REMARK VINA RESULT:      -3.8      0.000      0.000
REMARK  3 active torsions:
REMARK  status: ('A' for Active; 'I' for Inactive)
REMARK    1  A    between atoms: C4_4  and  C6_6 
REMARK    2  A    between atoms: C5_5  and  C6_6 
REMARK    3  A    between atoms: C5_5  and  O8_8 
ROOT
HETATM    1  C1  UNL     1     -33.493   5.524   3.247  1.00 20.00     0.066 C 
HETATM    2  C6  UNL     1     -34.445   6.138   4.198  1.00 20.00     0.116 C 
HETATM    3  N7  UNL     1     -32.749   5.041   2.500  1.00 20.00    -0.197 NA
ENDROOT
BRANCH   2   4
HETATM    4  C4  UNL     1     -34.975   5.092   5.192  1.00 20.00     0.017 C 
HETATM    5  C2  UNL     1     -34.464   5.305   6.612  1.00 20.00     0.006 C 
ENDBRANCH   2   4
BRANCH   2   6
HETATM    6  C5  UNL     1     -33.757   7.283   4.952  1.00 20.00     0.186 C 
BRANCH   6   7
HETATM    7  O8  UNL     1     -32.963   8.042   4.047  1.00 20.00    -0.395 OA
HETATM    8  C3  UNL     1     -32.191   9.020   4.728  1.00 20.00     0.201 C 
ENDBRANCH   6   7
ENDBRANCH   2   6
TORSDOF 3
ENDMDL
MODEL 2
REMARK VINA RESULT:      -3.6      1.211      1.491
REMARK  3 active torsions:
REMARK  status: ('A' for Active; 'I' for Inactive)
REMARK    1  A    between atoms: C4_4  and  C6_6 
REMARK    2  A    between atoms: C5_5  and  C6_6 
REMARK    3  A    between atoms: C5_5  and  O8_8 
ROOT
HETATM    1  C1  UNL     1     -33.691   6.016   3.956  1.00 20.00     0.066 C 
HETATM    2  C6  UNL     1     -33.880   7.210   4.807  1.00 20.00     0.116 C 
HETATM    3  N7  UNL     1     -33.546   5.078   3.288  1.00 20.00    -0.197 NA
ENDROOT
BRANCH   2   4
HETATM    4  C4  UNL     1     -33.989   6.813   6.289  1.00 20.00     0.017 C 
HETATM    5  C2  UNL     1     -34.661   5.461   6.497  1.00 20.00     0.006 C 
ENDBRANCH   2   4
BRANCH   2   6
HETATM    6  C5  UNL     1     -32.708   8.179   4.606  1.00 20.00     0.186 C 
BRANCH   6   7
HETATM    7  O8  UNL     1     -32.181   8.024   3.292  1.00 20.00    -0.395 OA
HETATM    8  C3  UNL     1     -32.631   9.057   2.427  1.00 20.00     0.201 C 
ENDBRANCH   6   7
ENDBRANCH   2   6
TORSDOF 3
ENDMDL
MODEL 3
REMARK VINA RESULT:      -3.4      1.971      3.516
REMARK  3 active torsions:
REMARK  status: ('A' for Active; 'I' for Inactive)
REMARK    1  A    between atoms: C4_4  and  C6_6 
REMARK    2  A    between atoms: C5_5  and  C6_6 
REMARK    3  A    between atoms: C5_5  and  O8_8 
ROOT
HETATM    1  C1  UNL     1     -32.612   6.380   2.959  1.00 20.00     0.066 C 
HETATM    2  C6  UNL     1     -32.168   7.731   3.365  1.00 20.00     0.116 C 
HETATM    3  N7  UNL     1     -32.958   5.320   2.638  1.00 20.00    -0.197 NA
ENDROOT
BRANCH   2   4
HETATM    4  C4  UNL     1     -32.686   8.795   2.383  1.00 20.00     0.017 C 
HETATM    5  C2  UNL     1     -32.251   8.542   0.944  1.00 20.00     0.006 C 
ENDBRANCH   2   4
BRANCH   2   6
HETATM    6  C5  UNL     1     -32.666   8.035   4.783  1.00 20.00     0.186 C 
BRANCH   6   7
HETATM    7  O8  UNL     1     -33.936   7.423   4.985  1.00 20.00    -0.395 OA
HETATM    8  C3  UNL     1     -34.060   6.907   6.302  1.00 20.00     0.201 C 
ENDBRANCH   6   7
ENDBRANCH   2   6
TORSDOF 3
ENDMDL
MODEL 4
REMARK VINA RESULT:      -3.4     12.269     13.305
REMARK  3 active torsions:
REMARK  status: ('A' for Active; 'I' for Inactive)
REMARK    1  A    between atoms: C4_4  and  C6_6 
REMARK    2  A    between atoms: C5_5  and  C6_6 
REMARK    3  A    between atoms: C5_5  and  O8_8 
ROOT
HETATM    1  C1  UNL     1     -35.234  14.015  -4.598  1.00 20.00     0.066 C 
HETATM    2  C6  UNL     1     -34.449  15.222  -4.935  1.00 20.00     0.116 C 
HETATM    3  N7  UNL     1     -35.851  13.070  -4.331  1.00 20.00    -0.197 NA
ENDROOT
BRANCH   2   4
HETATM    4  C4  UNL     1     -33.210  15.338  -4.031  1.00 20.00     0.017 C 
HETATM    5  C2  UNL     1     -33.375  16.370  -2.922  1.00 20.00     0.006 C 
ENDBRANCH   2   4
BRANCH   2   6
HETATM    6  C5  UNL     1     -34.024  15.168  -6.408  1.00 20.00     0.186 C 
BRANCH   6   7
HETATM    7  O8  UNL     1     -35.128  14.759  -7.209  1.00 20.00    -0.395 OA
HETATM    8  C3  UNL     1     -35.754  15.869  -7.836  1.00 20.00     0.201 C 
ENDBRANCH   6   7
ENDBRANCH   2   6
TORSDOF 3
ENDMDL
MODEL 5
REMARK VINA RESULT:      -3.4      2.112      3.527
REMARK  3 active torsions:
REMARK  status: ('A' for Active; 'I' for Inactive)
REMARK    1  A    between atoms: C4_4  and  C6_6 
REMARK    2  A    between atoms: C5_5  and  C6_6 
REMARK    3  A    between atoms: C5_5  and  O8_8 
ROOT
HETATM    1  C1  UNL     1     -34.439   6.175   5.852  1.00 20.00     0.066 C 
HETATM    2  C6  UNL     1     -34.132   7.234   4.868  1.00 20.00     0.116 C 
HETATM    3  N7  UNL     1     -34.684   5.346   6.626  1.00 20.00    -0.197 NA
ENDROOT
BRANCH   2   4
HETATM    4  C4  UNL     1     -33.468   8.441   5.552  1.00 20.00     0.017 C 
HETATM    5  C2  UNL     1     -32.246   8.956   4.802  1.00 20.00     0.006 C 
ENDBRANCH   2   4
BRANCH   2   6
HETATM    6  C5  UNL     1     -33.211   6.675   3.776  1.00 20.00     0.186 C 
BRANCH   6   7
HETATM    7  O8  UNL     1     -33.626   5.357   3.430  1.00 20.00    -0.395 OA
HETATM    8  C3  UNL     1     -32.869   4.843   2.344  1.00 20.00     0.201 C 
ENDBRANCH   6   7
ENDBRANCH   2   6
TORSDOF 3
ENDMDL
MODEL 6
REMARK VINA RESULT:      -3.3      9.895     10.347
REMARK  3 active torsions:
REMARK  status: ('A' for Active; 'I' for Inactive)
REMARK    1  A    between atoms: C4_4  and  C6_6 
REMARK    2  A    between atoms: C5_5  and  C6_6 
REMARK    3  A    between atoms: C5_5  and  O8_8 
ROOT
HETATM    1  C1  UNL     1     -41.483  13.622   4.808  1.00 20.00     0.066 C 
HETATM    2  C6  UNL     1     -41.090  12.849   6.006  1.00 20.00     0.116 C 
HETATM    3  N7  UNL     1     -41.792  14.224   3.866  1.00 20.00    -0.197 NA
ENDROOT
BRANCH   2   4
HETATM    4  C4  UNL     1     -39.608  12.444   5.932  1.00 20.00     0.017 C 
HETATM    5  C2  UNL     1     -39.239  11.765   4.619  1.00 20.00     0.006 C 
ENDBRANCH   2   4
BRANCH   2   6
HETATM    6  C5  UNL     1     -41.346  13.684   7.267  1.00 20.00     0.186 C 
BRANCH   6   7
HETATM    7  O8  UNL     1     -40.217  13.603   8.131  1.00 20.00    -0.395 OA
HETATM    8  C3  UNL     1     -40.238  14.632   9.110  1.00 20.00     0.201 C 
ENDBRANCH   6   7
ENDBRANCH   2   6
TORSDOF 3
ENDMDL
MODEL 7
REMARK VINA RESULT:      -3.3     16.044     16.934
REMARK  3 active torsions:
REMARK  status: ('A' for Active; 'I' for Inactive)
REMARK    1  A    between atoms: C4_4  and  C6_6 
REMARK    2  A    between atoms: C5_5  and  C6_6 
REMARK    3  A    between atoms: C5_5  and  O8_8 
ROOT
HETATM    1  C1  UNL     1     -22.241  18.269  11.403  1.00 20.00     0.066 C 
HETATM    2  C6  UNL     1     -22.990  17.792  10.221  1.00 20.00     0.116 C 
HETATM    3  N7  UNL     1     -21.653  18.640  12.332  1.00 20.00    -0.197 NA
ENDROOT
BRANCH   2   4
HETATM    4  C4  UNL     1     -24.405  17.338  10.617  1.00 20.00     0.017 C 
HETATM    5  C2  UNL     1     -24.407  16.270  11.704  1.00 20.00     0.006 C 
ENDBRANCH   2   4
BRANCH   2   6
HETATM    6  C5  UNL     1     -23.068  18.909   9.173  1.00 20.00     0.186 C 
BRANCH   6   7
HETATM    7  O8  UNL     1     -22.858  18.361   7.875  1.00 20.00    -0.395 OA
HETATM    8  C3  UNL     1     -21.522  17.906   7.714  1.00 20.00     0.201 C 
ENDBRANCH   6   7
ENDBRANCH   2   6
TORSDOF 3
ENDMDL
MODEL 8
REMARK VINA RESULT:      -3.3      2.152      3.000
REMARK  3 active torsions:
REMARK  status: ('A' for Active; 'I' for Inactive)
REMARK    1  A    between atoms: C4_4  and  C6_6 
REMARK    2  A    between atoms: C5_5  and  C6_6 
REMARK    3  A    between atoms: C5_5  and  O8_8 
ROOT
HETATM    1  C1  UNL     1     -32.740   8.160   4.776  1.00 20.00     0.066 C 
HETATM    2  C6  UNL     1     -33.266   6.819   5.113  1.00 20.00     0.116 C 
HETATM    3  N7  UNL     1     -32.325   9.211   4.515  1.00 20.00    -0.197 NA
ENDROOT
BRANCH   2   4
HETATM    4  C4  UNL     1     -34.014   6.847   6.456  1.00 20.00     0.017 C 
HETATM    5  C2  UNL     1     -34.892   5.621   6.676  1.00 20.00     0.006 C 
ENDBRANCH   2   4
BRANCH   2   6
HETATM    6  C5  UNL     1     -34.203   6.337   3.998  1.00 20.00     0.186 C 
BRANCH   6   7
HETATM    7  O8  UNL     1     -33.770   5.063   3.530  1.00 20.00    -0.395 OA
HETATM    8  C3  UNL     1     -32.823   5.190   2.479  1.00 20.00     0.201 C 
ENDBRANCH   6   7
ENDBRANCH   2   6
TORSDOF 3
ENDMDL
MODEL 9
REMARK VINA RESULT:      -3.3     10.065     10.572
REMARK  3 active torsions:
REMARK  status: ('A' for Active; 'I' for Inactive)
REMARK    1  A    between atoms: C4_4  and  C6_6 
REMARK    2  A    between atoms: C5_5  and  C6_6 
REMARK    3  A    between atoms: C5_5  and  O8_8 
ROOT
HETATM    1  C1  UNL     1     -40.383  13.673   7.329  1.00 20.00     0.066 C 
HETATM    2  C6  UNL     1     -40.383  13.404   5.875  1.00 20.00     0.116 C 
HETATM    3  N7  UNL     1     -40.379  13.885   8.469  1.00 20.00    -0.197 NA
ENDROOT
BRANCH   2   4
HETATM    4  C4  UNL     1     -40.084  11.922   5.594  1.00 20.00     0.017 C 
HETATM    5  C2  UNL     1     -39.110  11.717   4.440  1.00 20.00     0.006 C 
ENDBRANCH   2   4
BRANCH   2   6
HETATM    6  C5  UNL     1     -41.742  13.790   5.277  1.00 20.00     0.186 C 
BRANCH   6   7
HETATM    7  O8  UNL     1     -41.601  14.018   3.878  1.00 20.00    -0.395 OA
HETATM    8  C3  UNL     1     -42.489  15.029   3.425  1.00 20.00     0.201 C 
ENDBRANCH   6   7
ENDBRANCH   2   6
TORSDOF 3
ENDMDL
