MODEL 1
REMARK VINA RESULT:      -5.1      0.000      0.000
REMARK  0 active torsions:
REMARK  status: ('A' for Active; 'I' for Inactive)
ROOT
HETATM    1  C1  UNL     1     -32.128   7.850   1.816  1.00 20.00     0.064 C 
HETATM    2  C2  UNL     1     -33.101   5.786   2.752  1.00 20.00     0.020 C 
HETATM    3  C3  UNL     1     -33.289   7.983   3.988  1.00 20.00     0.020 C 
HETATM    4  C4  UNL     1     -33.484   5.035   4.028  1.00 20.00     0.010 C 
HETATM    5  C5  UNL     1     -33.672   7.231   5.265  1.00 20.00     0.010 C 
HETATM    6  C6  UNL     1     -32.423   7.124   3.063  1.00 20.00     0.093 C 
HETATM    7  C7  UNL     1     -34.350   5.870   4.996  1.00 20.00    -0.048 C 
HETATM    8  C8  UNL     1     -34.489   5.109   6.329  1.00 20.00     0.015 C 
HETATM    9  C9  UNL     1     -35.765   6.075   4.419  1.00 20.00     0.015 C 
HETATM   10  N10 UNL     1     -31.896   8.423   0.834  1.00 20.00    -0.197 NA
ENDROOT
TORSDOF 0
ENDMDL
MODEL 2
REMARK VINA RESULT:      -4.0     11.996     13.172
REMARK  0 active torsions:
REMARK  status: ('A' for Active; 'I' for Inactive)
ROOT
HETATM    1  C1  UNL     1     -34.175  15.463  -5.891  1.00 20.00     0.064 C 
HETATM    2  C2  UNL     1     -34.895  17.514  -4.726  1.00 20.00     0.020 C 
HETATM    3  C3  UNL     1     -33.223  15.942  -3.666  1.00 20.00     0.020 C 
HETATM    4  C4  UNL     1     -35.126  18.183  -3.370  1.00 20.00     0.010 C 
HETATM    5  C5  UNL     1     -33.454  16.611  -2.310  1.00 20.00     0.010 C 
HETATM    6  C6  UNL     1     -34.453  16.056  -4.571  1.00 20.00     0.093 C 
HETATM    7  C7  UNL     1     -33.911  18.082  -2.420  1.00 20.00    -0.048 C 
HETATM    8  C8  UNL     1     -34.324  18.583  -1.023  1.00 20.00     0.015 C 
HETATM    9  C9  UNL     1     -32.757  18.972  -2.920  1.00 20.00     0.015 C 
HETATM   10  N10 UNL     1     -33.956  14.995  -6.930  1.00 20.00    -0.197 NA
ENDROOT
TORSDOF 0
ENDMDL
MODEL 3
REMARK VINA RESULT:      -3.9     11.812     13.087
REMARK  0 active torsions:
REMARK  status: ('A' for Active; 'I' for Inactive)
ROOT
HETATM    1  C1  UNL     1     -32.983  18.395  -2.865  1.00 20.00     0.064 C 
HETATM    2  C2  UNL     1     -33.159  16.017  -3.496  1.00 20.00     0.020 C 
HETATM    3  C3  UNL     1     -34.667  17.751  -4.548  1.00 20.00     0.020 C 
HETATM    4  C4  UNL     1     -34.084  14.908  -3.996  1.00 20.00     0.010 C 
HETATM    5  C5  UNL     1     -35.593  16.641  -5.049  1.00 20.00     0.010 C 
HETATM    6  C6  UNL     1     -33.914  17.333  -3.282  1.00 20.00     0.093 C 
HETATM    7  C7  UNL     1     -34.873  15.292  -5.268  1.00 20.00    -0.048 C 
HETATM    8  C8  UNL     1     -35.925  14.204  -5.554  1.00 20.00     0.015 C 
HETATM    9  C9  UNL     1     -33.932  15.372  -6.486  1.00 20.00     0.015 C 
HETATM   10  N10 UNL     1     -32.250  19.233  -2.536  1.00 20.00    -0.197 NA
ENDROOT
TORSDOF 0
ENDMDL
MODEL 4
REMARK VINA RESULT:      -3.9     11.680     13.194
REMARK  0 active torsions:
REMARK  status: ('A' for Active; 'I' for Inactive)
ROOT
HETATM    1  C1  UNL     1     -33.597  17.149  -1.959  1.00 20.00     0.064 C 
HETATM    2  C2  UNL     1     -34.563  17.615  -4.181  1.00 20.00     0.020 C 
HETATM    3  C3  UNL     1     -33.639  15.329  -3.624  1.00 20.00     0.020 C 
HETATM    4  C4  UNL     1     -34.538  17.264  -5.668  1.00 20.00     0.010 C 
HETATM    5  C5  UNL     1     -33.614  14.977  -5.113  1.00 20.00     0.010 C 
HETATM    6  C6  UNL     1     -33.502  16.837  -3.396  1.00 20.00     0.093 C 
HETATM    7  C7  UNL     1     -34.663  15.749  -5.944  1.00 20.00    -0.048 C 
HETATM    8  C8  UNL     1     -34.405  15.488  -7.441  1.00 20.00     0.015 C 
HETATM    9  C9  UNL     1     -36.085  15.253  -5.616  1.00 20.00     0.015 C 
HETATM   10  N10 UNL     1     -33.672  17.394  -0.828  1.00 20.00    -0.197 NA
ENDROOT
TORSDOF 0
ENDMDL
MODEL 5
REMARK VINA RESULT:      -3.6     12.017     13.334
REMARK  0 active torsions:
REMARK  status: ('A' for Active; 'I' for Inactive)
ROOT
HETATM    1  C1  UNL     1     -35.173  15.098  -5.917  1.00 20.00     0.064 C 
HETATM    2  C2  UNL     1     -34.107  15.588  -3.747  1.00 20.00     0.020 C 
HETATM    3  C3  UNL     1     -34.714  17.453  -5.342  1.00 20.00     0.020 C 
HETATM    4  C4  UNL     1     -33.202  16.545  -2.972  1.00 20.00     0.010 C 
HETATM    5  C5  UNL     1     -33.809  18.411  -4.566  1.00 20.00     0.010 C 
HETATM    6  C6  UNL     1     -34.244  16.001  -5.216  1.00 20.00     0.093 C 
HETATM    7  C7  UNL     1     -33.635  18.024  -3.081  1.00 20.00    -0.048 C 
HETATM    8  C8  UNL     1     -32.543  18.914  -2.457  1.00 20.00     0.015 C 
HETATM    9  C9  UNL     1     -34.943  18.265  -2.302  1.00 20.00     0.015 C 
HETATM   10  N10 UNL     1     -35.905  14.388  -6.470  1.00 20.00    -0.197 NA
ENDROOT
TORSDOF 0
ENDMDL
MODEL 6
REMARK VINA RESULT:      -3.6     12.330     13.417
REMARK  0 active torsions:
REMARK  status: ('A' for Active; 'I' for Inactive)
ROOT
HETATM    1  C1  UNL     1     -33.314  18.497   0.415  1.00 20.00     0.064 C 
HETATM    2  C2  UNL     1     -32.847  17.360  -1.723  1.00 20.00     0.020 C 
HETATM    3  C3  UNL     1     -34.748  19.015  -1.525  1.00 20.00     0.020 C 
HETATM    4  C4  UNL     1     -33.440  16.836  -3.031  1.00 20.00     0.010 C 
HETATM    5  C5  UNL     1     -35.341  18.490  -2.834  1.00 20.00     0.010 C 
HETATM    6  C6  UNL     1     -33.926  17.942  -0.804  1.00 20.00     0.093 C 
HETATM    7  C7  UNL     1     -34.287  17.884  -3.786  1.00 20.00    -0.048 C 
HETATM    8  C8  UNL     1     -35.010  17.195  -4.959  1.00 20.00     0.015 C 
HETATM    9  C9  UNL     1     -33.386  18.990  -4.371  1.00 20.00     0.015 C 
HETATM   10  N10 UNL     1     -32.833  18.935   1.376  1.00 20.00    -0.197 NA
ENDROOT
TORSDOF 0
ENDMDL
MODEL 7
REMARK VINA RESULT:      -3.5     13.061     14.345
REMARK  0 active torsions:
REMARK  status: ('A' for Active; 'I' for Inactive)
ROOT
HETATM    1  C1  UNL     1     -28.056  -0.856  11.852  1.00 20.00     0.064 C 
HETATM    2  C2  UNL     1     -26.774  -2.556  10.607  1.00 20.00     0.020 C 
HETATM    3  C3  UNL     1     -25.648  -1.091  12.332  1.00 20.00     0.020 C 
HETATM    4  C4  UNL     1     -25.407  -2.947  10.045  1.00 20.00     0.010 C 
HETATM    5  C5  UNL     1     -24.280  -1.483  11.770  1.00 20.00     0.010 C 
HETATM    6  C6  UNL     1     -26.743  -1.173  11.265  1.00 20.00     0.093 C 
HETATM    7  C7  UNL     1     -24.270  -2.868  11.088  1.00 20.00    -0.048 C 
HETATM    8  C8  UNL     1     -22.919  -3.063  10.372  1.00 20.00     0.015 C 
HETATM    9  C9  UNL     1     -24.415  -3.989  12.135  1.00 20.00     0.015 C 
HETATM   10  N10 UNL     1     -29.090  -0.606  12.316  1.00 20.00    -0.197 NA
ENDROOT
TORSDOF 0
ENDMDL
MODEL 8
REMARK VINA RESULT:      -3.4     12.096     13.665
REMARK  0 active torsions:
REMARK  status: ('A' for Active; 'I' for Inactive)
ROOT
HETATM    1  C1  UNL     1     -32.329  18.365  -0.631  1.00 20.00     0.064 C 
HETATM    2  C2  UNL     1     -33.105  19.263  -2.793  1.00 20.00     0.020 C 
HETATM    3  C3  UNL     1     -33.495  16.841  -2.181  1.00 20.00     0.020 C 
HETATM    4  C4  UNL     1     -33.414  18.943  -4.256  1.00 20.00     0.010 C 
HETATM    5  C5  UNL     1     -33.805  16.522  -3.645  1.00 20.00     0.010 C 
HETATM    6  C6  UNL     1     -32.554  18.042  -2.050  1.00 20.00     0.093 C 
HETATM    7  C7  UNL     1     -34.354  17.730  -4.435  1.00 20.00    -0.048 C 
HETATM    8  C8  UNL     1     -34.420  17.362  -5.930  1.00 20.00     0.015 C 
HETATM    9  C9  UNL     1     -35.782  18.077  -3.970  1.00 20.00     0.015 C 
HETATM   10  N10 UNL     1     -32.153  18.619   0.488  1.00 20.00    -0.197 NA
ENDROOT
TORSDOF 0
ENDMDL
MODEL 9
REMARK VINA RESULT:      -3.3     13.431     14.732
REMARK  0 active torsions:
REMARK  status: ('A' for Active; 'I' for Inactive)
ROOT
HETATM    1  C1  UNL     1     -27.548  -1.126  10.912  1.00 20.00     0.064 C 
HETATM    2  C2  UNL     1     -25.248  -1.167  11.803  1.00 20.00     0.020 C 
HETATM    3  C3  UNL     1     -26.175  -3.137  10.517  1.00 20.00     0.020 C 
HETATM    4  C4  UNL     1     -24.113  -2.045  12.330  1.00 20.00     0.010 C 
HETATM    5  C5  UNL     1     -25.039  -4.015  11.045  1.00 20.00     0.010 C 
HETATM    6  C6  UNL     1     -26.499  -1.990  11.479  1.00 20.00     0.093 C 
HETATM    7  C7  UNL     1     -23.760  -3.222  11.394  1.00 20.00    -0.048 C 
HETATM    8  C8  UNL     1     -22.772  -4.159  12.115  1.00 20.00     0.015 C 
HETATM    9  C9  UNL     1     -23.075  -2.709  10.113  1.00 20.00     0.015 C 
HETATM   10  N10 UNL     1     -28.374  -0.446  10.465  1.00 20.00    -0.197 NA
ENDROOT
TORSDOF 0
ENDMDL
