MODEL 1
REMARK VINA RESULT:      -4.8      0.000      0.000
REMARK  3 active torsions:
REMARK  status: ('A' for Active; 'I' for Inactive)
REMARK    1  A    between atoms: C6_6  and  C10_10 
REMARK    2  A    between atoms: C7_7  and  N11_11 
REMARK    3  A    between atoms: C9_9  and  N11_11 
ROOT
HETATM    1  C1  UNL     1     -32.541   9.134   0.575  1.00 20.00     0.013 C 
HETATM    2  C2  UNL     1     -32.361   8.319   1.438  1.00 20.00    -0.087 C 
HETATM    3  C9  UNL     1     -32.141   7.320   2.488  1.00 20.00     0.362 C 
ENDROOT
BRANCH   3   4
HETATM    4  N11 UNL     1     -32.070   7.957   3.794  1.00 20.00     0.098 N 
HETATM    5  H28 UNL     1     -31.556   7.357   4.435  1.00 20.00     0.317 HD
BRANCH   4   6
HETATM    6  C7  UNL     1     -33.394   8.183   4.324  1.00 20.00     0.222 C 
HETATM    7  C4  UNL     1     -33.345   8.484   5.821  1.00 20.00     0.036 C 
HETATM    8  C3  UNL     1     -33.506   7.119   6.474  1.00 20.00     0.007 C 
HETATM    9  C6  UNL     1     -34.578   6.460   5.611  1.00 20.00    -0.013 C 
HETATM   10  C5  UNL     1     -34.262   6.924   4.181  1.00 20.00     0.040 C 
BRANCH   9  11
HETATM   11  C10 UNL     1     -34.613   4.948   5.757  1.00 20.00     0.000 C 
HETATM   12  C8  UNL     1     -34.038   4.256   4.561  1.00 20.00     0.005 C 
ENDBRANCH   9  11
ENDBRANCH   4   6
ENDBRANCH   3   4
TORSDOF 3
ENDMDL
MODEL 2
REMARK VINA RESULT:      -4.5     11.215     12.142
REMARK  3 active torsions:
REMARK  status: ('A' for Active; 'I' for Inactive)
REMARK    1  A    between atoms: C6_6  and  C10_10 
REMARK    2  A    between atoms: C7_7  and  N11_11 
REMARK    3  A    between atoms: C9_9  and  N11_11 
ROOT
HETATM    1  C1  UNL     1     -33.554  14.511  -4.287  1.00 20.00     0.013 C 
HETATM    2  C2  UNL     1     -33.463  15.591  -3.768  1.00 20.00    -0.087 C 
HETATM    3  C9  UNL     1     -33.351  16.909  -3.140  1.00 20.00     0.362 C 
ENDROOT
BRANCH   3   4
HETATM    4  N11 UNL     1     -33.665  16.830  -1.721  1.00 20.00     0.098 N 
HETATM    5  H28 UNL     1     -34.542  16.331  -1.596  1.00 20.00     0.317 HD
BRANCH   4   6
HETATM    6  C7  UNL     1     -33.792  18.151  -1.153  1.00 20.00     0.222 C 
HETATM    7  C4  UNL     1     -32.673  19.071  -1.639  1.00 20.00     0.036 C 
HETATM    8  C3  UNL     1     -31.586  18.913  -0.586  1.00 20.00     0.007 C 
HETATM    9  C6  UNL     1     -32.382  18.890   0.716  1.00 20.00    -0.013 C 
HETATM   10  C5  UNL     1     -33.656  18.103   0.377  1.00 20.00     0.040 C 
BRANCH   9  11
HETATM   11  C10 UNL     1     -31.603  18.300   1.880  1.00 20.00     0.000 C 
HETATM   12  C8  UNL     1     -30.213  18.849   1.959  1.00 20.00     0.005 C 
ENDBRANCH   9  11
ENDBRANCH   4   6
ENDBRANCH   3   4
TORSDOF 3
ENDMDL
MODEL 3
REMARK VINA RESULT:      -4.4      1.156      1.348
REMARK  3 active torsions:
REMARK  status: ('A' for Active; 'I' for Inactive)
REMARK    1  A    between atoms: C6_6  and  C10_10 
REMARK    2  A    between atoms: C7_7  and  N11_11 
REMARK    3  A    between atoms: C9_9  and  N11_11 
ROOT
HETATM    1  C1  UNL     1     -32.848   9.570   1.862  1.00 20.00     0.013 C 
HETATM    2  C2  UNL     1     -32.479   8.840   2.741  1.00 20.00    -0.087 C 
HETATM    3  C9  UNL     1     -32.027   7.947   3.811  1.00 20.00     0.362 C 
ENDROOT
BRANCH   3   4
HETATM    4  N11 UNL     1     -32.519   8.402   5.102  1.00 20.00     0.098 N 
HETATM    5  H28 UNL     1     -31.952   7.996   5.842  1.00 20.00     0.317 HD
BRANCH   4   6
HETATM    6  C7  UNL     1     -33.893   8.002   5.293  1.00 20.00     0.222 C 
HETATM    7  C4  UNL     1     -34.090   7.341   6.657  1.00 20.00     0.036 C 
HETATM    8  C3  UNL     1     -33.881   5.860   6.380  1.00 20.00     0.007 C 
HETATM    9  C6  UNL     1     -34.601   5.664   5.049  1.00 20.00    -0.013 C 
HETATM   10  C5  UNL     1     -34.305   6.946   4.257  1.00 20.00     0.040 C 
BRANCH   9  11
HETATM   11  C10 UNL     1     -34.175   4.398   4.323  1.00 20.00     0.000 C 
HETATM   12  C8  UNL     1     -33.371   4.700   3.097  1.00 20.00     0.005 C 
ENDBRANCH   9  11
ENDBRANCH   4   6
ENDBRANCH   3   4
TORSDOF 3
ENDMDL
MODEL 4
REMARK VINA RESULT:      -4.2     11.286     12.476
REMARK  3 active torsions:
REMARK  status: ('A' for Active; 'I' for Inactive)
REMARK    1  A    between atoms: C6_6  and  C10_10 
REMARK    2  A    between atoms: C7_7  and  N11_11 
REMARK    3  A    between atoms: C9_9  and  N11_11 
ROOT
HETATM    1  C1  UNL     1     -31.429  18.466  -0.418  1.00 20.00     0.013 C 
HETATM    2  C2  UNL     1     -32.494  18.161  -0.882  1.00 20.00    -0.087 C 
HETATM    3  C9  UNL     1     -33.795  17.794  -1.447  1.00 20.00     0.362 C 
ENDROOT
BRANCH   3   4
HETATM    4  N11 UNL     1     -33.744  16.462  -2.030  1.00 20.00     0.098 N 
HETATM    5  H28 UNL     1     -33.148  15.866  -1.460  1.00 20.00     0.317 HD
BRANCH   4   6
HETATM    6  C7  UNL     1     -33.209  16.513  -3.370  1.00 20.00     0.222 C 
HETATM    7  C4  UNL     1     -33.820  17.666  -4.165  1.00 20.00     0.036 C 
HETATM    8  C3  UNL     1     -35.021  17.038  -4.856  1.00 20.00     0.007 C 
HETATM    9  C6  UNL     1     -34.481  15.681  -5.298  1.00 20.00    -0.013 C 
HETATM   10  C5  UNL     1     -33.563  15.238  -4.149  1.00 20.00     0.040 C 
BRANCH   9  11
HETATM   11  C10 UNL     1     -35.578  14.677  -5.611  1.00 20.00     0.000 C 
HETATM   12  C8  UNL     1     -35.736  13.662  -4.523  1.00 20.00     0.005 C 
ENDBRANCH   9  11
ENDBRANCH   4   6
ENDBRANCH   3   4
TORSDOF 3
ENDMDL
MODEL 5
REMARK VINA RESULT:      -4.2     11.532     12.655
REMARK  3 active torsions:
REMARK  status: ('A' for Active; 'I' for Inactive)
REMARK    1  A    between atoms: C6_6  and  C10_10 
REMARK    2  A    between atoms: C7_7  and  N11_11 
REMARK    3  A    between atoms: C9_9  and  N11_11 
ROOT
HETATM    1  C1  UNL     1     -35.767  14.702  -5.765  1.00 20.00     0.013 C 
HETATM    2  C2  UNL     1     -34.756  14.699  -5.116  1.00 20.00    -0.087 C 
HETATM    3  C9  UNL     1     -33.524  14.691  -4.324  1.00 20.00     0.362 C 
ENDROOT
BRANCH   3   4
HETATM    4  N11 UNL     1     -32.976  16.034  -4.213  1.00 20.00     0.098 N 
HETATM    5  H28 UNL     1     -32.071  15.994  -3.750  1.00 20.00     0.317 HD
BRANCH   4   6
HETATM    6  C7  UNL     1     -33.857  16.882  -3.445  1.00 20.00     0.222 C 
HETATM    7  C4  UNL     1     -33.815  18.324  -3.950  1.00 20.00     0.036 C 
HETATM    8  C3  UNL     1     -32.732  18.977  -3.104  1.00 20.00     0.007 C 
HETATM    9  C6  UNL     1     -32.999  18.400  -1.716  1.00 20.00    -0.013 C 
HETATM   10  C5  UNL     1     -33.412  16.944  -1.976  1.00 20.00     0.040 C 
BRANCH   9  11
HETATM   11  C10 UNL     1     -31.809  18.529  -0.779  1.00 20.00     0.000 C 
HETATM   12  C8  UNL     1     -32.229  18.565   0.657  1.00 20.00     0.005 C 
ENDBRANCH   9  11
ENDBRANCH   4   6
ENDBRANCH   3   4
TORSDOF 3
ENDMDL
MODEL 6
REMARK VINA RESULT:      -4.1     11.719     13.659
REMARK  3 active torsions:
REMARK  status: ('A' for Active; 'I' for Inactive)
REMARK    1  A    between atoms: C6_6  and  C10_10 
REMARK    2  A    between atoms: C7_7  and  N11_11 
REMARK    3  A    between atoms: C9_9  and  N11_11 
ROOT
HETATM    1  C1  UNL     1     -33.310  16.699  -2.643  1.00 20.00     0.013 C 
HETATM    2  C2  UNL     1     -33.515  15.822  -3.437  1.00 20.00    -0.087 C 
HETATM    3  C9  UNL     1     -33.767  14.751  -4.404  1.00 20.00     0.362 C 
ENDROOT
BRANCH   3   4
HETATM    4  N11 UNL     1     -33.232  15.101  -5.711  1.00 20.00     0.098 N 
HETATM    5  H28 UNL     1     -32.830  16.035  -5.672  1.00 20.00     0.317 HD
BRANCH   4   6
HETATM    6  C7  UNL     1     -34.273  15.082  -6.710  1.00 20.00     0.222 C 
HETATM    7  C4  UNL     1     -34.281  16.376  -7.524  1.00 20.00     0.036 C 
HETATM    8  C3  UNL     1     -35.258  17.271  -6.776  1.00 20.00     0.007 C 
HETATM    9  C6  UNL     1     -36.379  16.306  -6.402  1.00 20.00    -0.013 C 
HETATM   10  C5  UNL     1     -35.659  14.994  -6.055  1.00 20.00     0.040 C 
BRANCH   9  11
HETATM   11  C10 UNL     1     -37.260  16.824  -5.277  1.00 20.00     0.000 C 
HETATM   12  C8  UNL     1     -36.595  17.921  -4.506  1.00 20.00     0.005 C 
ENDBRANCH   9  11
ENDBRANCH   4   6
ENDBRANCH   3   4
TORSDOF 3
ENDMDL
MODEL 7
REMARK VINA RESULT:      -3.8      1.417      4.737
REMARK  3 active torsions:
REMARK  status: ('A' for Active; 'I' for Inactive)
REMARK    1  A    between atoms: C6_6  and  C10_10 
REMARK    2  A    between atoms: C7_7  and  N11_11 
REMARK    3  A    between atoms: C9_9  and  N11_11 
ROOT
HETATM    1  C1  UNL     1     -34.149   5.005   6.927  1.00 20.00     0.013 C 
HETATM    2  C2  UNL     1     -34.624   5.348   5.879  1.00 20.00    -0.087 C 
HETATM    3  C9  UNL     1     -35.206   5.763   4.600  1.00 20.00     0.362 C 
ENDROOT
BRANCH   3   4
HETATM    4  N11 UNL     1     -34.681   7.058   4.193  1.00 20.00     0.098 N 
HETATM    5  H28 UNL     1     -34.992   7.267   3.247  1.00 20.00     0.317 HD
BRANCH   4   6
HETATM    6  C7  UNL     1     -33.238   7.056   4.222  1.00 20.00     0.222 C 
HETATM    7  C4  UNL     1     -32.690   8.446   4.540  1.00 20.00     0.036 C 
HETATM    8  C3  UNL     1     -32.488   9.081   3.172  1.00 20.00     0.007 C 
HETATM    9  C6  UNL     1     -31.911   7.932   2.351  1.00 20.00    -0.013 C 
HETATM   10  C5  UNL     1     -32.665   6.688   2.845  1.00 20.00     0.040 C 
BRANCH   9  11
HETATM   11  C10 UNL     1     -32.033   8.151   0.852  1.00 20.00     0.000 C 
HETATM   12  C8  UNL     1     -32.740   9.430   0.529  1.00 20.00     0.005 C 
ENDBRANCH   9  11
ENDBRANCH   4   6
ENDBRANCH   3   4
TORSDOF 3
ENDMDL
MODEL 8
REMARK VINA RESULT:      -3.8      9.720     10.806
REMARK  3 active torsions:
REMARK  status: ('A' for Active; 'I' for Inactive)
REMARK    1  A    between atoms: C6_6  and  C10_10 
REMARK    2  A    between atoms: C7_7  and  N11_11 
REMARK    3  A    between atoms: C9_9  and  N11_11 
ROOT
HETATM    1  C1  UNL     1     -38.935  11.611   4.017  1.00 20.00     0.013 C 
HETATM    2  C2  UNL     1     -39.621  11.946   4.943  1.00 20.00    -0.087 C 
HETATM    3  C9  UNL     1     -40.461  12.353   6.073  1.00 20.00     0.362 C 
ENDROOT
BRANCH   3   4
HETATM    4  N11 UNL     1     -39.893  13.511   6.745  1.00 20.00     0.098 N 
HETATM    5  H28 UNL     1     -39.401  13.209   7.582  1.00 20.00     0.317 HD
BRANCH   4   6
HETATM    6  C7  UNL     1     -40.930  14.442   7.121  1.00 20.00     0.222 C 
HETATM    7  C4  UNL     1     -40.335  15.742   7.661  1.00 20.00     0.036 C 
HETATM    8  C3  UNL     1     -40.244  15.507   9.162  1.00 20.00     0.007 C 
HETATM    9  C6  UNL     1     -41.556  14.792   9.469  1.00 20.00    -0.013 C 
HETATM   10  C5  UNL     1     -41.788  13.873   8.261  1.00 20.00     0.040 C 
BRANCH   9  11
HETATM   11  C10 UNL     1     -41.533  14.048  10.794  1.00 20.00     0.000 C 
HETATM   12  C8  UNL     1     -40.424  14.521  11.682  1.00 20.00     0.005 C 
ENDBRANCH   9  11
ENDBRANCH   4   6
ENDBRANCH   3   4
TORSDOF 3
ENDMDL
MODEL 9
REMARK VINA RESULT:      -3.8     11.698     12.857
REMARK  3 active torsions:
REMARK  status: ('A' for Active; 'I' for Inactive)
REMARK    1  A    between atoms: C6_6  and  C10_10 
REMARK    2  A    between atoms: C7_7  and  N11_11 
REMARK    3  A    between atoms: C9_9  and  N11_11 
ROOT
HETATM    1  C1  UNL     1     -34.028  15.552  -7.698  1.00 20.00     0.013 C 
HETATM    2  C2  UNL     1     -34.448  15.358  -6.589  1.00 20.00    -0.087 C 
HETATM    3  C9  UNL     1     -34.959  15.118  -5.237  1.00 20.00     0.362 C 
ENDROOT
BRANCH   3   4
HETATM    4  N11 UNL     1     -35.241  16.376  -4.564  1.00 20.00     0.098 N 
HETATM    5  H28 UNL     1     -35.816  16.961  -5.166  1.00 20.00     0.317 HD
BRANCH   4   6
HETATM    6  C7  UNL     1     -34.016  17.079  -4.263  1.00 20.00     0.222 C 
HETATM    7  C4  UNL     1     -33.122  16.256  -3.335  1.00 20.00     0.036 C 
HETATM    8  C3  UNL     1     -33.523  16.714  -1.941  1.00 20.00     0.007 C 
HETATM    9  C6  UNL     1     -33.681  18.222  -2.116  1.00 20.00    -0.013 C 
HETATM   10  C5  UNL     1     -34.306  18.385  -3.509  1.00 20.00     0.040 C 
BRANCH   9  11
HETATM   11  C10 UNL     1     -34.501  18.867  -1.010  1.00 20.00     0.000 C 
HETATM   12  C8  UNL     1     -34.023  18.462   0.349  1.00 20.00     0.005 C 
ENDBRANCH   9  11
ENDBRANCH   4   6
ENDBRANCH   3   4
TORSDOF 3
ENDMDL
