MODEL 1
REMARK VINA RESULT:      -4.3      0.000      0.000
REMARK  1 active torsions:
REMARK  status: ('A' for Active; 'I' for Inactive)
REMARK    1  A    between atoms: C8_8  and  N10_10 
ROOT
HETATM    1  C1  UNL     1     -32.448   8.073   2.479  1.00 20.00     0.177 C 
HETATM    2  N9  UNL     1     -32.054   8.075   1.388  1.00 20.00    -0.172 NA
HETATM    3  N10 UNL     1     -32.906   8.073   3.743  1.00 20.00    -0.324 N 
HETATM    4  H22 UNL     1     -33.545   8.815   4.060  1.00 20.00     0.172 HD
ENDROOT
BRANCH   3   5
HETATM    5  C8  UNL     1     -33.012   6.854   4.574  1.00 20.00     0.096 C 
HETATM    6  C5  UNL     1     -33.640   7.175   5.943  1.00 20.00     0.031 C 
HETATM    7  C6  UNL     1     -34.898   6.286   5.963  1.00 20.00    -0.012 C 
HETATM    8  C2  UNL     1     -34.468   4.812   6.077  1.00 20.00     0.005 C 
HETATM    9  C4  UNL     1     -35.361   6.364   4.510  1.00 20.00     0.011 C 
HETATM   10  C3  UNL     1     -33.881   4.514   4.689  1.00 20.00     0.007 C 
HETATM   11  C7  UNL     1     -34.021   5.863   3.959  1.00 20.00     0.009 C 
ENDBRANCH   3   5
TORSDOF 1
ENDMDL
MODEL 2
REMARK VINA RESULT:      -3.8     12.677     13.626
REMARK  1 active torsions:
REMARK  status: ('A' for Active; 'I' for Inactive)
REMARK    1  A    between atoms: C8_8  and  N10_10 
ROOT
HETATM    1  C1  UNL     1     -34.409  15.787  -6.176  1.00 20.00     0.177 C 
HETATM    2  N9  UNL     1     -34.751  14.907  -6.850  1.00 20.00    -0.172 NA
HETATM    3  N10 UNL     1     -34.013  16.809  -5.398  1.00 20.00    -0.324 N 
HETATM    4  H22 UNL     1     -33.743  17.707  -5.823  1.00 20.00     0.172 HD
ENDROOT
BRANCH   3   5
HETATM    5  C8  UNL     1     -34.413  16.962  -3.982  1.00 20.00     0.096 C 
HETATM    6  C5  UNL     1     -33.399  16.277  -3.047  1.00 20.00     0.031 C 
HETATM    7  C6  UNL     1     -32.907  17.439  -2.162  1.00 20.00    -0.012 C 
HETATM    8  C2  UNL     1     -34.050  17.877  -1.229  1.00 20.00     0.005 C 
HETATM    9  C4  UNL     1     -32.858  18.594  -3.159  1.00 20.00     0.011 C 
HETATM   10  C3  UNL     1     -35.023  18.586  -2.183  1.00 20.00     0.007 C 
HETATM   11  C7  UNL     1     -34.331  18.441  -3.551  1.00 20.00     0.009 C 
ENDBRANCH   3   5
TORSDOF 1
ENDMDL
MODEL 3
REMARK VINA RESULT:      -3.8      9.376     10.522
REMARK  1 active torsions:
REMARK  status: ('A' for Active; 'I' for Inactive)
REMARK    1  A    between atoms: C8_8  and  N10_10 
ROOT
HETATM    1  C1  UNL     1     -43.394   3.699  -1.887  1.00 20.00     0.177 C 
HETATM    2  N9  UNL     1     -43.417   3.491  -3.028  1.00 20.00    -0.172 NA
HETATM    3  N10 UNL     1     -43.367   3.937  -0.564  1.00 20.00    -0.324 N 
HETATM    4  H22 UNL     1     -43.083   3.194   0.089  1.00 20.00     0.172 HD
ENDROOT
BRANCH   3   5
HETATM    5  C8  UNL     1     -43.199   5.286   0.021  1.00 20.00     0.096 C 
HETATM    6  C5  UNL     1     -42.380   5.222   1.324  1.00 20.00     0.031 C 
HETATM    7  C6  UNL     1     -41.167   6.120   1.013  1.00 20.00    -0.012 C 
HETATM    8  C2  UNL     1     -41.635   7.583   0.930  1.00 20.00     0.005 C 
HETATM    9  C4  UNL     1     -40.901   5.793  -0.455  1.00 20.00     0.011 C 
HETATM   10  C3  UNL     1     -42.415   7.622  -0.393  1.00 20.00     0.007 C 
HETATM   11  C7  UNL     1     -42.321   6.168  -0.891  1.00 20.00     0.009 C 
ENDBRANCH   3   5
TORSDOF 1
ENDMDL
MODEL 4
REMARK VINA RESULT:      -3.6     12.414     13.227
REMARK  1 active torsions:
REMARK  status: ('A' for Active; 'I' for Inactive)
REMARK    1  A    between atoms: C8_8  and  N10_10 
ROOT
HETATM    1  C1  UNL     1     -31.715  18.495   1.511  1.00 20.00     0.177 C 
HETATM    2  N9  UNL     1     -30.624  18.266   1.829  1.00 20.00    -0.172 NA
HETATM    3  N10 UNL     1     -32.980  18.763   1.143  1.00 20.00    -0.324 N 
HETATM    4  H22 UNL     1     -33.412  19.662   1.397  1.00 20.00     0.172 HD
ENDROOT
BRANCH   3   5
HETATM    5  C8  UNL     1     -33.644  18.136  -0.021  1.00 20.00     0.096 C 
HETATM    6  C5  UNL     1     -34.659  19.102  -0.661  1.00 20.00     0.031 C 
HETATM    7  C6  UNL     1     -34.132  19.251  -2.102  1.00 20.00    -0.012 C 
HETATM    8  C2  UNL     1     -34.343  17.924  -2.852  1.00 20.00     0.005 C 
HETATM    9  C4  UNL     1     -32.620  19.250  -1.885  1.00 20.00     0.011 C 
HETATM   10  C3  UNL     1     -33.295  16.997  -2.218  1.00 20.00     0.007 C 
HETATM   11  C7  UNL     1     -32.632  17.900  -1.161  1.00 20.00     0.009 C 
ENDBRANCH   3   5
TORSDOF 1
ENDMDL
MODEL 5
REMARK VINA RESULT:      -3.5     12.369     13.573
REMARK  1 active torsions:
REMARK  status: ('A' for Active; 'I' for Inactive)
REMARK    1  A    between atoms: C8_8  and  N10_10 
ROOT
HETATM    1  C1  UNL     1     -33.374  17.063  -2.044  1.00 20.00     0.177 C 
HETATM    2  N9  UNL     1     -32.808  17.751  -1.300  1.00 20.00    -0.172 NA
HETATM    3  N10 UNL     1     -34.032  16.267  -2.904  1.00 20.00    -0.324 N 
HETATM    4  H22 UNL     1     -34.977  15.930  -2.676  1.00 20.00     0.172 HD
ENDROOT
BRANCH   3   5
HETATM    5  C8  UNL     1     -33.768  16.239  -4.359  1.00 20.00     0.096 C 
HETATM    6  C5  UNL     1     -33.770  14.794  -4.892  1.00 20.00     0.031 C 
HETATM    7  C6  UNL     1     -34.896  14.816  -5.944  1.00 20.00    -0.012 C 
HETATM    8  C2  UNL     1     -34.442  15.664  -7.145  1.00 20.00     0.005 C 
HETATM    9  C4  UNL     1     -35.923  15.733  -5.285  1.00 20.00     0.011 C 
HETATM   10  C3  UNL     1     -34.485  17.097  -6.594  1.00 20.00     0.007 C 
HETATM   11  C7  UNL     1     -34.931  16.891  -5.135  1.00 20.00     0.009 C 
ENDBRANCH   3   5
TORSDOF 1
ENDMDL
MODEL 6
REMARK VINA RESULT:      -3.5     12.591     14.016
REMARK  1 active torsions:
REMARK  status: ('A' for Active; 'I' for Inactive)
REMARK    1  A    between atoms: C8_8  and  N10_10 
ROOT
HETATM    1  C1  UNL     1     -33.307  16.760  -2.873  1.00 20.00     0.177 C 
HETATM    2  N9  UNL     1     -33.295  17.043  -1.748  1.00 20.00    -0.172 NA
HETATM    3  N10 UNL     1     -33.318  16.431  -4.176  1.00 20.00    -0.324 N 
HETATM    4  H22 UNL     1     -32.520  15.930  -4.589  1.00 20.00     0.172 HD
ENDROOT
BRANCH   3   5
HETATM    5  C8  UNL     1     -34.558  16.245  -4.962  1.00 20.00     0.096 C 
HETATM    6  C5  UNL     1     -34.673  17.311  -6.068  1.00 20.00     0.031 C 
HETATM    7  C6  UNL     1     -34.725  16.467  -7.356  1.00 20.00    -0.012 C 
HETATM    8  C2  UNL     1     -36.068  15.717  -7.409  1.00 20.00     0.005 C 
HETATM    9  C4  UNL     1     -33.750  15.338  -7.032  1.00 20.00     0.011 C 
HETATM   10  C3  UNL     1     -35.908  14.642  -6.323  1.00 20.00     0.007 C 
HETATM   11  C7  UNL     1     -34.502  14.927  -5.762  1.00 20.00     0.009 C 
ENDBRANCH   3   5
TORSDOF 1
ENDMDL
MODEL 7
REMARK VINA RESULT:      -3.5      9.375     10.268
REMARK  1 active torsions:
REMARK  status: ('A' for Active; 'I' for Inactive)
REMARK    1  A    between atoms: C8_8  and  N10_10 
ROOT
HETATM    1  C1  UNL     1     -39.095  12.138   4.999  1.00 20.00     0.177 C 
HETATM    2  N9  UNL     1     -39.035  11.429   4.083  1.00 20.00    -0.172 NA
HETATM    3  N10 UNL     1     -39.162  12.962   6.060  1.00 20.00    -0.324 N 
HETATM    4  H22 UNL     1     -38.579  13.809   6.093  1.00 20.00     0.172 HD
ENDROOT
BRANCH   3   5
HETATM    5  C8  UNL     1     -40.345  13.065   6.942  1.00 20.00     0.096 C 
HETATM    6  C5  UNL     1     -40.572  14.522   7.388  1.00 20.00     0.031 C 
HETATM    7  C6  UNL     1     -41.985  14.830   6.855  1.00 20.00    -0.012 C 
HETATM    8  C2  UNL     1     -43.013  14.019   7.663  1.00 20.00     0.005 C 
HETATM    9  C4  UNL     1     -41.985  14.090   5.519  1.00 20.00     0.011 C 
HETATM   10  C3  UNL     1     -42.786  12.582   7.170  1.00 20.00     0.007 C 
HETATM   11  C7  UNL     1     -41.635  12.743   6.159  1.00 20.00     0.009 C 
ENDBRANCH   3   5
TORSDOF 1
ENDMDL
MODEL 8
REMARK VINA RESULT:      -3.5     11.998     12.995
REMARK  1 active torsions:
REMARK  status: ('A' for Active; 'I' for Inactive)
REMARK    1  A    between atoms: C8_8  and  N10_10 
ROOT
HETATM    1  C1  UNL     1     -24.266  -2.877   9.850  1.00 20.00     0.177 C 
HETATM    2  N9  UNL     1     -23.113  -2.926   9.961  1.00 20.00    -0.172 NA
HETATM    3  N10 UNL     1     -25.603  -2.821   9.718  1.00 20.00    -0.324 N 
HETATM    4  H22 UNL     1     -26.071  -3.353   8.971  1.00 20.00     0.172 HD
ENDROOT
BRANCH   3   5
HETATM    5  C8  UNL     1     -26.522  -2.500  10.832  1.00 20.00     0.096 C 
HETATM    6  C5  UNL     1     -25.982  -1.326  11.669  1.00 20.00     0.031 C 
HETATM    7  C6  UNL     1     -27.102  -0.273  11.550  1.00 20.00    -0.012 C 
HETATM    8  C2  UNL     1     -28.335  -0.763  12.331  1.00 20.00     0.005 C 
HETATM    9  C4  UNL     1     -27.555  -0.459  10.104  1.00 20.00     0.011 C 
HETATM   10  C3  UNL     1     -28.868  -1.906  11.454  1.00 20.00     0.007 C 
HETATM   11  C7  UNL     1     -27.858  -1.949  10.292  1.00 20.00     0.009 C 
ENDBRANCH   3   5
TORSDOF 1
ENDMDL
MODEL 9
REMARK VINA RESULT:      -3.4     15.322     16.631
REMARK  1 active torsions:
REMARK  status: ('A' for Active; 'I' for Inactive)
REMARK    1  A    between atoms: C8_8  and  N10_10 
ROOT
HETATM    1  C1  UNL     1     -24.625  16.433  11.598  1.00 20.00     0.177 C 
HETATM    2  N9  UNL     1     -25.498  16.657  12.329  1.00 20.00    -0.172 NA
HETATM    3  N10 UNL     1     -23.613  16.170  10.753  1.00 20.00    -0.324 N 
HETATM    4  H22 UNL     1     -23.167  15.243  10.754  1.00 20.00     0.172 HD
ENDROOT
BRANCH   3   5
HETATM    5  C8  UNL     1     -23.410  16.884   9.473  1.00 20.00     0.096 C 
HETATM    6  C5  UNL     1     -24.196  18.208   9.451  1.00 20.00     0.031 C 
HETATM    7  C6  UNL     1     -23.090  19.263   9.251  1.00 20.00    -0.012 C 
HETATM    8  C2  UNL     1     -22.526  19.131   7.825  1.00 20.00     0.005 C 
HETATM    9  C4  UNL     1     -21.952  18.688  10.091  1.00 20.00     0.011 C 
HETATM   10  C3  UNL     1     -21.721  17.824   7.890  1.00 20.00     0.007 C 
HETATM   11  C7  UNL     1     -21.947  17.353   9.339  1.00 20.00     0.009 C 
ENDBRANCH   3   5
TORSDOF 1
ENDMDL
