MODEL 1
REMARK VINA RESULT:      -4.9      0.000      0.000
REMARK  1 active torsions:
REMARK  status: ('A' for Active; 'I' for Inactive)
REMARK    1  A    between atoms: C2_2  and  C3_3 
ROOT
HETATM    1  C1  UNL     1     -33.647   7.383   5.803  1.00 20.00    -0.020 C 
HETATM    2  C2  UNL     1     -33.435   7.071   4.519  1.00 20.00    -0.062 C 
HETATM    3  C5  UNL     1     -34.393   6.306   6.516  1.00 20.00     0.028 C 
HETATM    4  C6  UNL     1     -34.010   5.734   4.171  1.00 20.00     0.038 C 
HETATM    5  C7  UNL     1     -34.907   5.433   5.373  1.00 20.00     0.008 C 
ENDROOT
BRANCH   2   6
HETATM    6  C3  UNL     1     -32.739   7.866   3.559  1.00 20.00     0.002 C 
HETATM    7  C4  UNL     1     -32.570   7.508   2.275  1.00 20.00    -0.030 C 
HETATM    8  C8  UNL     1     -31.838   8.335   1.269  1.00 20.00     0.036 C 
ENDBRANCH   2   6
TORSDOF 1
ENDMDL
MODEL 2
REMARK VINA RESULT:      -4.8      0.175      1.411
REMARK  1 active torsions:
REMARK  status: ('A' for Active; 'I' for Inactive)
REMARK    1  A    between atoms: C2_2  and  C3_3 
ROOT
HETATM    1  C1  UNL     1     -34.085   5.752   4.208  1.00 20.00    -0.020 C 
HETATM    2  C2  UNL     1     -33.535   6.941   4.481  1.00 20.00    -0.062 C 
HETATM    3  C5  UNL     1     -34.784   5.181   5.395  1.00 20.00     0.028 C 
HETATM    4  C6  UNL     1     -33.780   7.351   5.899  1.00 20.00     0.038 C 
HETATM    5  C7  UNL     1     -34.279   6.056   6.541  1.00 20.00     0.008 C 
ENDROOT
BRANCH   2   6
HETATM    6  C3  UNL     1     -32.810   7.767   3.570  1.00 20.00     0.002 C 
HETATM    7  C4  UNL     1     -32.588   7.444   2.285  1.00 20.00    -0.030 C 
HETATM    8  C8  UNL     1     -31.827   8.304   1.330  1.00 20.00     0.036 C 
ENDBRANCH   2   6
TORSDOF 1
ENDMDL
MODEL 3
REMARK VINA RESULT:      -4.0     11.825     12.348
REMARK  1 active torsions:
REMARK  status: ('A' for Active; 'I' for Inactive)
REMARK    1  A    between atoms: C2_2  and  C3_3 
ROOT
HETATM    1  C1  UNL     1     -31.324  18.497  -0.423  1.00 20.00    -0.020 C 
HETATM    2  C2  UNL     1     -32.552  18.169  -0.842  1.00 20.00    -0.062 C 
HETATM    3  C5  UNL     1     -31.310  18.841   1.029  1.00 20.00     0.028 C 
HETATM    4  C6  UNL     1     -33.553  18.243   0.267  1.00 20.00     0.038 C 
HETATM    5  C7  UNL     1     -32.793  19.003   1.354  1.00 20.00     0.008 C 
ENDROOT
BRANCH   2   6
HETATM    6  C3  UNL     1     -32.916  17.771  -2.164  1.00 20.00     0.002 C 
HETATM    7  C4  UNL     1     -33.345  16.537  -2.480  1.00 20.00    -0.030 C 
HETATM    8  C8  UNL     1     -33.723  16.116  -3.862  1.00 20.00     0.036 C 
ENDBRANCH   2   6
TORSDOF 1
ENDMDL
MODEL 4
REMARK VINA RESULT:      -4.0     11.992     12.527
REMARK  1 active torsions:
REMARK  status: ('A' for Active; 'I' for Inactive)
REMARK    1  A    between atoms: C2_2  and  C3_3 
ROOT
HETATM    1  C1  UNL     1     -31.558  18.447  -0.551  1.00 20.00    -0.020 C 
HETATM    2  C2  UNL     1     -32.177  18.461   0.636  1.00 20.00    -0.062 C 
HETATM    3  C5  UNL     1     -32.511  18.183  -1.667  1.00 20.00     0.028 C 
HETATM    4  C6  UNL     1     -33.644  18.207   0.498  1.00 20.00     0.038 C 
HETATM    5  C7  UNL     1     -33.762  17.695  -0.939  1.00 20.00     0.008 C 
ENDROOT
BRANCH   2   6
HETATM    6  C3  UNL     1     -31.568  18.702   1.905  1.00 20.00     0.002 C 
HETATM    7  C4  UNL     1     -30.249  18.585   2.133  1.00 20.00    -0.030 C 
HETATM    8  C8  UNL     1     -29.609  18.832   3.460  1.00 20.00     0.036 C 
ENDBRANCH   2   6
TORSDOF 1
ENDMDL
MODEL 5
REMARK VINA RESULT:      -3.9      0.958      4.257
REMARK  1 active torsions:
REMARK  status: ('A' for Active; 'I' for Inactive)
REMARK    1  A    between atoms: C2_2  and  C3_3 
ROOT
HETATM    1  C1  UNL     1     -32.589   6.836   2.986  1.00 20.00    -0.020 C 
HETATM    2  C2  UNL     1     -32.974   7.561   4.042  1.00 20.00    -0.062 C 
HETATM    3  C5  UNL     1     -32.085   7.698   1.878  1.00 20.00     0.028 C 
HETATM    4  C6  UNL     1     -32.788   9.027   3.805  1.00 20.00     0.038 C 
HETATM    5  C7  UNL     1     -32.545   9.094   2.296  1.00 20.00     0.008 C 
ENDROOT
BRANCH   2   6
HETATM    6  C3  UNL     1     -33.487   7.055   5.274  1.00 20.00     0.002 C 
HETATM    7  C4  UNL     1     -34.294   5.984   5.362  1.00 20.00    -0.030 C 
HETATM    8  C8  UNL     1     -34.837   5.454   6.649  1.00 20.00     0.036 C 
ENDBRANCH   2   6
TORSDOF 1
ENDMDL
MODEL 6
REMARK VINA RESULT:      -3.9      1.111      4.386
REMARK  1 active torsions:
REMARK  status: ('A' for Active; 'I' for Inactive)
REMARK    1  A    between atoms: C2_2  and  C3_3 
ROOT
HETATM    1  C1  UNL     1     -32.969   9.585   2.448  1.00 20.00    -0.020 C 
HETATM    2  C2  UNL     1     -32.715   8.424   3.062  1.00 20.00    -0.062 C 
HETATM    3  C5  UNL     1     -32.708   9.502   0.981  1.00 20.00     0.028 C 
HETATM    4  C6  UNL     1     -32.243   7.380   2.100  1.00 20.00     0.038 C 
HETATM    5  C7  UNL     1     -31.923   8.198   0.849  1.00 20.00     0.008 C 
ENDROOT
BRANCH   2   6
HETATM    6  C3  UNL     1     -32.875   8.151   4.455  1.00 20.00     0.002 C 
HETATM    7  C4  UNL     1     -33.751   7.256   4.943  1.00 20.00    -0.030 C 
HETATM    8  C8  UNL     1     -33.924   6.971   6.399  1.00 20.00     0.036 C 
ENDBRANCH   2   6
TORSDOF 1
ENDMDL
MODEL 7
REMARK VINA RESULT:      -3.8      1.711      2.494
REMARK  1 active torsions:
REMARK  status: ('A' for Active; 'I' for Inactive)
REMARK    1  A    between atoms: C2_2  and  C3_3 
ROOT
HETATM    1  C1  UNL     1     -34.495   5.698   5.971  1.00 20.00    -0.020 C 
HETATM    2  C2  UNL     1     -34.048   5.998   4.745  1.00 20.00    -0.062 C 
HETATM    3  C5  UNL     1     -34.511   6.894   6.861  1.00 20.00     0.028 C 
HETATM    4  C6  UNL     1     -33.694   7.447   4.625  1.00 20.00     0.038 C 
HETATM    5  C7  UNL     1     -33.675   7.909   6.083  1.00 20.00     0.008 C 
ENDROOT
BRANCH   2   6
HETATM    6  C3  UNL     1     -33.923   5.096   3.646  1.00 20.00     0.002 C 
HETATM    7  C4  UNL     1     -32.946   5.173   2.726  1.00 20.00    -0.030 C 
HETATM    8  C8  UNL     1     -32.814   4.234   1.572  1.00 20.00     0.036 C 
ENDBRANCH   2   6
TORSDOF 1
ENDMDL
MODEL 8
REMARK VINA RESULT:      -3.8     11.696     12.766
REMARK  1 active torsions:
REMARK  status: ('A' for Active; 'I' for Inactive)
REMARK    1  A    between atoms: C2_2  and  C3_3 
ROOT
HETATM    1  C1  UNL     1     -33.483  15.045  -4.065  1.00 20.00    -0.020 C 
HETATM    2  C2  UNL     1     -33.638  16.272  -3.553  1.00 20.00    -0.062 C 
HETATM    3  C5  UNL     1     -33.941  14.977  -5.483  1.00 20.00     0.028 C 
HETATM    4  C6  UNL     1     -34.226  17.218  -4.551  1.00 20.00     0.038 C 
HETATM    5  C7  UNL     1     -34.723  16.279  -5.651  1.00 20.00     0.008 C 
ENDROOT
BRANCH   2   6
HETATM    6  C3  UNL     1     -33.286  16.688  -2.233  1.00 20.00     0.002 C 
HETATM    7  C4  UNL     1     -33.940  17.645  -1.554  1.00 20.00    -0.030 C 
HETATM    8  C8  UNL     1     -33.572  18.086  -0.175  1.00 20.00     0.036 C 
ENDBRANCH   2   6
TORSDOF 1
ENDMDL
MODEL 9
REMARK VINA RESULT:      -3.7     11.866     13.066
REMARK  1 active torsions:
REMARK  status: ('A' for Active; 'I' for Inactive)
REMARK    1  A    between atoms: C2_2  and  C3_3 
ROOT
HETATM    1  C1  UNL     1     -33.368  16.705  -2.227  1.00 20.00    -0.020 C 
HETATM    2  C2  UNL     1     -32.925  17.914  -1.862  1.00 20.00    -0.062 C 
HETATM    3  C5  UNL     1     -33.703  16.656  -3.680  1.00 20.00     0.028 C 
HETATM    4  C6  UNL     1     -32.894  18.865  -3.016  1.00 20.00     0.038 C 
HETATM    5  C7  UNL     1     -33.718  18.132  -4.076  1.00 20.00     0.008 C 
ENDROOT
BRANCH   2   6
HETATM    6  C3  UNL     1     -32.502  18.300  -0.554  1.00 20.00     0.002 C 
HETATM    7  C4  UNL     1     -31.216  18.486  -0.211  1.00 20.00    -0.030 C 
HETATM    8  C8  UNL     1     -30.769  18.885   1.158  1.00 20.00     0.036 C 
ENDBRANCH   2   6
TORSDOF 1
ENDMDL
