MODEL 1
REMARK VINA RESULT:      -4.0      0.000      0.000
REMARK  2 active torsions:
REMARK  status: ('A' for Active; 'I' for Inactive)
REMARK    1  A    between atoms: C2_2  and  C9_9 
REMARK    2  A    between atoms: C9_9  and  N11_11 
ROOT
HETATM    1  C1  UNL     1     -33.531  17.253  -1.498  1.00 20.00    -0.109 C 
HETATM    2  C2  UNL     1     -33.369  16.636  -2.516  1.00 20.00    -0.077 C 
HETATM    3  C8  UNL     1     -33.727  18.006  -0.259  1.00 20.00     0.112 C 
ENDROOT
BRANCH   2   4
HETATM    4  C9  UNL     1     -33.165  15.881  -3.756  1.00 20.00     0.367 C 
BRANCH   4   5
HETATM    5  N11 UNL     1     -34.424  15.699  -4.467  1.00 20.00     0.117 N 
HETATM    6  C6  UNL     1     -34.810  14.289  -4.545  1.00 20.00     0.275 C 
HETATM    7  C4  UNL     1     -35.915  14.329  -5.581  1.00 20.00     0.033 C 
HETATM    8  C5  UNL     1     -35.415  15.342  -6.602  1.00 20.00     0.053 C 
HETATM    9  C7  UNL     1     -34.384  16.196  -5.851  1.00 20.00     0.329 C 
HETATM   10  C3  UNL     1     -34.728  17.623  -5.913  1.00 20.00     0.095 C 
HETATM   11  N10 UNL     1     -35.001  18.749  -5.961  1.00 20.00    -0.195 NA
ENDBRANCH   4   5
ENDBRANCH   2   4
TORSDOF 2
ENDMDL
MODEL 2
REMARK VINA RESULT:      -4.0      1.297      2.572
REMARK  2 active torsions:
REMARK  status: ('A' for Active; 'I' for Inactive)
REMARK    1  A    between atoms: C2_2  and  C9_9 
REMARK    2  A    between atoms: C9_9  and  N11_11 
ROOT
HETATM    1  C1  UNL     1     -33.586  17.199  -1.558  1.00 20.00    -0.109 C 
HETATM    2  C2  UNL     1     -33.536  16.619  -2.609  1.00 20.00    -0.077 C 
HETATM    3  C8  UNL     1     -33.647  17.905  -0.279  1.00 20.00     0.112 C 
ENDROOT
BRANCH   2   4
HETATM    4  C9  UNL     1     -33.470  15.907  -3.889  1.00 20.00     0.367 C 
BRANCH   4   5
HETATM    5  N11 UNL     1     -34.105  16.681  -4.948  1.00 20.00     0.117 N 
HETATM    6  C6  UNL     1     -34.003  18.121  -4.711  1.00 20.00     0.275 C 
HETATM    7  C4  UNL     1     -34.992  18.671  -5.719  1.00 20.00     0.033 C 
HETATM    8  C5  UNL     1     -36.143  17.676  -5.672  1.00 20.00     0.053 C 
HETATM    9  C7  UNL     1     -35.538  16.386  -5.101  1.00 20.00     0.329 C 
HETATM   10  C3  UNL     1     -35.753  15.250  -6.008  1.00 20.00     0.095 C 
HETATM   11  N10 UNL     1     -35.922  14.353  -6.724  1.00 20.00    -0.195 NA
ENDBRANCH   4   5
ENDBRANCH   2   4
TORSDOF 2
ENDMDL
MODEL 3
REMARK VINA RESULT:      -4.0     11.895     14.058
REMARK  2 active torsions:
REMARK  status: ('A' for Active; 'I' for Inactive)
REMARK    1  A    between atoms: C2_2  and  C9_9 
REMARK    2  A    between atoms: C9_9  and  N11_11 
ROOT
HETATM    1  C1  UNL     1     -40.004  12.100   5.254  1.00 20.00    -0.109 C 
HETATM    2  C2  UNL     1     -40.910  12.383   5.990  1.00 20.00    -0.077 C 
HETATM    3  C8  UNL     1     -38.901  11.755   4.358  1.00 20.00     0.112 C 
ENDROOT
BRANCH   2   4
HETATM    4  C9  UNL     1     -42.020  12.726   6.884  1.00 20.00     0.367 C 
BRANCH   4   5
HETATM    5  N11 UNL     1     -41.942  14.120   7.300  1.00 20.00     0.117 N 
HETATM    6  C6  UNL     1     -42.120  15.038   6.174  1.00 20.00     0.275 C 
HETATM    7  C4  UNL     1     -41.672  16.355   6.775  1.00 20.00     0.033 C 
HETATM    8  C5  UNL     1     -40.480  15.967   7.640  1.00 20.00     0.053 C 
HETATM    9  C7  UNL     1     -40.656  14.468   7.921  1.00 20.00     0.329 C 
HETATM   10  C3  UNL     1     -40.671  14.195   9.364  1.00 20.00     0.095 C 
HETATM   11  N10 UNL     1     -40.683  13.979  10.504  1.00 20.00    -0.195 NA
ENDBRANCH   4   5
ENDBRANCH   2   4
TORSDOF 2
ENDMDL
MODEL 4
REMARK VINA RESULT:      -3.9      1.714      2.469
REMARK  2 active torsions:
REMARK  status: ('A' for Active; 'I' for Inactive)
REMARK    1  A    between atoms: C2_2  and  C9_9 
REMARK    2  A    between atoms: C9_9  and  N11_11 
ROOT
HETATM    1  C1  UNL     1     -33.411  16.354  -2.966  1.00 20.00    -0.109 C 
HETATM    2  C2  UNL     1     -33.839  15.475  -3.665  1.00 20.00    -0.077 C 
HETATM    3  C8  UNL     1     -32.891  17.423  -2.113  1.00 20.00     0.112 C 
ENDROOT
BRANCH   2   4
HETATM    4  C9  UNL     1     -34.367  14.404  -4.515  1.00 20.00     0.367 C 
BRANCH   4   5
HETATM    5  N11 UNL     1     -34.837  14.935  -5.788  1.00 20.00     0.117 N 
HETATM    6  C6  UNL     1     -33.731  15.259  -6.689  1.00 20.00     0.275 C 
HETATM    7  C4  UNL     1     -34.430  16.077  -7.756  1.00 20.00     0.033 C 
HETATM    8  C5  UNL     1     -35.427  16.916  -6.968  1.00 20.00     0.053 C 
HETATM    9  C7  UNL     1     -35.630  16.165  -5.645  1.00 20.00     0.329 C 
HETATM   10  C3  UNL     1     -37.049  15.859  -5.419  1.00 20.00     0.095 C 
HETATM   11  N10 UNL     1     -38.170  15.617  -5.241  1.00 20.00    -0.195 NA
ENDBRANCH   4   5
ENDBRANCH   2   4
TORSDOF 2
ENDMDL
MODEL 5
REMARK VINA RESULT:      -3.8      1.634      1.962
REMARK  2 active torsions:
REMARK  status: ('A' for Active; 'I' for Inactive)
REMARK    1  A    between atoms: C2_2  and  C9_9 
REMARK    2  A    between atoms: C9_9  and  N11_11 
ROOT
HETATM    1  C1  UNL     1     -32.295  18.437  -1.435  1.00 20.00    -0.109 C 
HETATM    2  C2  UNL     1     -32.839  18.303  -2.498  1.00 20.00    -0.077 C 
HETATM    3  C8  UNL     1     -31.633  18.599  -0.141  1.00 20.00     0.112 C 
ENDROOT
BRANCH   2   4
HETATM    4  C9  UNL     1     -33.507  18.134  -3.792  1.00 20.00     0.367 C 
BRANCH   4   5
HETATM    5  N11 UNL     1     -34.122  16.817  -3.893  1.00 20.00     0.117 N 
HETATM    6  C6  UNL     1     -33.143  15.742  -3.735  1.00 20.00     0.275 C 
HETATM    7  C4  UNL     1     -33.931  14.536  -4.204  1.00 20.00     0.033 C 
HETATM    8  C5  UNL     1     -34.731  15.067  -5.386  1.00 20.00     0.053 C 
HETATM    9  C7  UNL     1     -34.789  16.587  -5.183  1.00 20.00     0.329 C 
HETATM   10  C3  UNL     1     -36.177  17.069  -5.157  1.00 20.00     0.095 C 
HETATM   11  N10 UNL     1     -37.273  17.448  -5.136  1.00 20.00    -0.195 NA
ENDBRANCH   4   5
ENDBRANCH   2   4
TORSDOF 2
ENDMDL
MODEL 6
REMARK VINA RESULT:      -3.7      1.918      3.464
REMARK  2 active torsions:
REMARK  status: ('A' for Active; 'I' for Inactive)
REMARK    1  A    between atoms: C2_2  and  C9_9 
REMARK    2  A    between atoms: C9_9  and  N11_11 
ROOT
HETATM    1  C1  UNL     1     -31.812  18.527  -0.125  1.00 20.00    -0.109 C 
HETATM    2  C2  UNL     1     -32.631  17.974  -0.807  1.00 20.00    -0.077 C 
HETATM    3  C8  UNL     1     -30.813  19.200   0.706  1.00 20.00     0.112 C 
ENDROOT
BRANCH   2   4
HETATM    4  C9  UNL     1     -33.630  17.294  -1.636  1.00 20.00     0.367 C 
BRANCH   4   5
HETATM    5  N11 UNL     1     -33.369  17.514  -3.053  1.00 20.00     0.117 N 
HETATM    6  C6  UNL     1     -33.498  18.925  -3.421  1.00 20.00     0.275 C 
HETATM    7  C4  UNL     1     -33.520  18.849  -4.934  1.00 20.00     0.033 C 
HETATM    8  C5  UNL     1     -34.352  17.606  -5.218  1.00 20.00     0.053 C 
HETATM    9  C7  UNL     1     -34.282  16.770  -3.933  1.00 20.00     0.329 C 
HETATM   10  C3  UNL     1     -33.775  15.418  -4.203  1.00 20.00     0.095 C 
HETATM   11  N10 UNL     1     -33.374  14.351  -4.417  1.00 20.00    -0.195 NA
ENDBRANCH   4   5
ENDBRANCH   2   4
TORSDOF 2
ENDMDL
MODEL 7
REMARK VINA RESULT:      -3.6     11.475     13.623
REMARK  2 active torsions:
REMARK  status: ('A' for Active; 'I' for Inactive)
REMARK    1  A    between atoms: C2_2  and  C9_9 
REMARK    2  A    between atoms: C9_9  and  N11_11 
ROOT
HETATM    1  C1  UNL     1     -39.828  12.131   4.966  1.00 20.00    -0.109 C 
HETATM    2  C2  UNL     1     -40.591  12.569   5.784  1.00 20.00    -0.077 C 
HETATM    3  C8  UNL     1     -38.898  11.598   3.971  1.00 20.00     0.112 C 
ENDROOT
BRANCH   2   4
HETATM    4  C9  UNL     1     -41.518  13.108   6.784  1.00 20.00     0.367 C 
BRANCH   4   5
HETATM    5  N11 UNL     1     -41.061  14.403   7.272  1.00 20.00     0.117 N 
HETATM    6  C6  UNL     1     -40.406  14.296   8.577  1.00 20.00     0.275 C 
HETATM    7  C4  UNL     1     -40.336  15.747   9.007  1.00 20.00     0.033 C 
HETATM    8  C5  UNL     1     -41.666  16.324   8.540  1.00 20.00     0.053 C 
HETATM    9  C7  UNL     1     -42.150  15.378   7.433  1.00 20.00     0.329 C 
HETATM   10  C3  UNL     1     -42.399  16.107   6.182  1.00 20.00     0.095 C 
HETATM   11  N10 UNL     1     -42.595  16.682   5.194  1.00 20.00    -0.195 NA
ENDBRANCH   4   5
ENDBRANCH   2   4
TORSDOF 2
ENDMDL
MODEL 8
REMARK VINA RESULT:      -3.6      2.017      2.626
REMARK  2 active torsions:
REMARK  status: ('A' for Active; 'I' for Inactive)
REMARK    1  A    between atoms: C2_2  and  C9_9 
REMARK    2  A    between atoms: C9_9  and  N11_11 
ROOT
HETATM    1  C1  UNL     1     -31.669  18.583  -0.528  1.00 20.00    -0.109 C 
HETATM    2  C2  UNL     1     -32.261  18.656  -1.570  1.00 20.00    -0.077 C 
HETATM    3  C8  UNL     1     -30.947  18.494   0.741  1.00 20.00     0.112 C 
ENDROOT
BRANCH   2   4
HETATM    4  C9  UNL     1     -32.990  18.747  -2.839  1.00 20.00     0.367 C 
BRANCH   4   5
HETATM    5  N11 UNL     1     -33.735  17.521  -3.100  1.00 20.00     0.117 N 
HETATM    6  C6  UNL     1     -32.853  16.359  -3.217  1.00 20.00     0.275 C 
HETATM    7  C4  UNL     1     -33.786  15.321  -3.805  1.00 20.00     0.033 C 
HETATM    8  C5  UNL     1     -34.622  16.113  -4.801  1.00 20.00     0.053 C 
HETATM    9  C7  UNL     1     -34.519  17.574  -4.343  1.00 20.00     0.329 C 
HETATM   10  C3  UNL     1     -35.848  18.153  -4.108  1.00 20.00     0.095 C 
HETATM   11  N10 UNL     1     -36.898  18.610  -3.922  1.00 20.00    -0.195 NA
ENDBRANCH   4   5
ENDBRANCH   2   4
TORSDOF 2
ENDMDL
MODEL 9
REMARK VINA RESULT:      -3.5      1.740      2.473
REMARK  2 active torsions:
REMARK  status: ('A' for Active; 'I' for Inactive)
REMARK    1  A    between atoms: C2_2  and  C9_9 
REMARK    2  A    between atoms: C9_9  and  N11_11 
ROOT
HETATM    1  C1  UNL     1     -33.662  17.660  -2.838  1.00 20.00    -0.109 C 
HETATM    2  C2  UNL     1     -33.968  17.880  -3.979  1.00 20.00    -0.077 C 
HETATM    3  C8  UNL     1     -33.289  17.392  -1.449  1.00 20.00     0.112 C 
ENDROOT
BRANCH   2   4
HETATM    4  C9  UNL     1     -34.336  18.155  -5.371  1.00 20.00     0.367 C 
BRANCH   4   5
HETATM    5  N11 UNL     1     -35.339  17.207  -5.840  1.00 20.00     0.117 N 
HETATM    6  C6  UNL     1     -36.581  17.300  -5.073  1.00 20.00     0.275 C 
HETATM    7  C4  UNL     1     -37.304  16.039  -5.502  1.00 20.00     0.033 C 
HETATM    8  C5  UNL     1     -36.194  15.001  -5.589  1.00 20.00     0.053 C 
HETATM    9  C7  UNL     1     -34.899  15.807  -5.751  1.00 20.00     0.329 C 
HETATM   10  C3  UNL     1     -34.167  15.402  -6.960  1.00 20.00     0.095 C 
HETATM   11  N10 UNL     1     -33.591  15.083  -7.914  1.00 20.00    -0.195 NA
ENDBRANCH   4   5
ENDBRANCH   2   4
TORSDOF 2
ENDMDL
