MODEL 1
REMARK VINA RESULT:      -5.2      0.000      0.000
REMARK  3 active torsions:
REMARK  status: ('A' for Active; 'I' for Inactive)
REMARK    1  A    between atoms: C2_2  and  C9_9 
REMARK    2  A    between atoms: C6_6  and  C9_9 
REMARK    3  A    between atoms: C7_7  and  O10_10 
ROOT
HETATM    1  C1  UNL     1     -32.488   8.335   1.951  1.00 20.00    -0.111 C 
HETATM    2  C2  UNL     1     -32.566   7.872   3.056  1.00 20.00    -0.107 C 
HETATM    3  C8  UNL     1     -32.394   8.898   0.605  1.00 20.00     0.112 C 
ENDROOT
BRANCH   2   4
HETATM    4  C9  UNL     1     -32.656   7.305   4.408  1.00 20.00     0.098 C 
BRANCH   4   5
HETATM    5  C6  UNL     1     -34.081   7.394   4.951  1.00 20.00    -0.001 C 
HETATM    6  C3  UNL     1     -34.166   7.012   6.426  1.00 20.00     0.008 C 
HETATM    7  C4  UNL     1     -34.216   5.488   6.428  1.00 20.00     0.032 C 
HETATM    8  C7  UNL     1     -34.874   5.095   5.104  1.00 20.00     0.118 C 
HETATM    9  C5  UNL     1     -35.021   6.383   4.290  1.00 20.00     0.037 C 
BRANCH   8  10
HETATM   10  O10 UNL     1     -34.040   4.167   4.424  1.00 20.00    -0.396 OA
HETATM   11  H24 UNL     1     -34.617   3.451   4.114  1.00 20.00     0.210 HD
ENDBRANCH   8  10
ENDBRANCH   4   5
ENDBRANCH   2   4
TORSDOF 3
ENDMDL
MODEL 2
REMARK VINA RESULT:      -4.2     11.818     12.609
REMARK  3 active torsions:
REMARK  status: ('A' for Active; 'I' for Inactive)
REMARK    1  A    between atoms: C2_2  and  C9_9 
REMARK    2  A    between atoms: C6_6  and  C9_9 
REMARK    3  A    between atoms: C7_7  and  O10_10 
ROOT
HETATM    1  C1  UNL     1     -32.207  18.191  -0.887  1.00 20.00    -0.111 C 
HETATM    2  C2  UNL     1     -32.872  17.458  -1.567  1.00 20.00    -0.107 C 
HETATM    3  C8  UNL     1     -31.398  19.083  -0.058  1.00 20.00     0.112 C 
ENDROOT
BRANCH   2   4
HETATM    4  C9  UNL     1     -33.685  16.559  -2.396  1.00 20.00     0.098 C 
BRANCH   4   5
HETATM    5  C6  UNL     1     -33.190  16.542  -3.842  1.00 20.00    -0.001 C 
HETATM    6  C3  UNL     1     -34.258  17.008  -4.827  1.00 20.00     0.008 C 
HETATM    7  C4  UNL     1     -35.127  15.779  -5.066  1.00 20.00     0.032 C 
HETATM    8  C7  UNL     1     -34.205  14.576  -4.863  1.00 20.00     0.118 C 
HETATM    9  C5  UNL     1     -32.878  15.126  -4.334  1.00 20.00     0.037 C 
BRANCH   8  10
HETATM   10  O10 UNL     1     -34.790  13.690  -3.918  1.00 20.00    -0.396 OA
HETATM   11  H24 UNL     1     -34.640  12.791  -4.249  1.00 20.00     0.210 HD
ENDBRANCH   8  10
ENDBRANCH   4   5
ENDBRANCH   2   4
TORSDOF 3
ENDMDL
MODEL 3
REMARK VINA RESULT:      -4.1     12.068     13.159
REMARK  3 active torsions:
REMARK  status: ('A' for Active; 'I' for Inactive)
REMARK    1  A    between atoms: C2_2  and  C9_9 
REMARK    2  A    between atoms: C6_6  and  C9_9 
REMARK    3  A    between atoms: C7_7  and  O10_10 
ROOT
HETATM    1  C1  UNL     1     -33.463  17.002  -1.949  1.00 20.00    -0.111 C 
HETATM    2  C2  UNL     1     -33.571  16.291  -2.910  1.00 20.00    -0.107 C 
HETATM    3  C8  UNL     1     -33.332  17.867  -0.778  1.00 20.00     0.112 C 
ENDROOT
BRANCH   2   4
HETATM    4  C9  UNL     1     -33.699  15.423  -4.088  1.00 20.00     0.098 C 
BRANCH   4   5
HETATM    5  C6  UNL     1     -34.042  16.234  -5.337  1.00 20.00    -0.001 C 
HETATM    6  C3  UNL     1     -35.367  16.981  -5.199  1.00 20.00     0.008 C 
HETATM    7  C4  UNL     1     -36.432  15.942  -5.530  1.00 20.00     0.032 C 
HETATM    8  C7  UNL     1     -35.766  14.961  -6.497  1.00 20.00     0.118 C 
HETATM    9  C5  UNL     1     -34.286  15.346  -6.560  1.00 20.00     0.037 C 
BRANCH   8  10
HETATM   10  O10 UNL     1     -35.917  13.638  -6.000  1.00 20.00    -0.396 OA
HETATM   11  H24 UNL     1     -36.812  13.351  -6.242  1.00 20.00     0.210 HD
ENDBRANCH   8  10
ENDBRANCH   4   5
ENDBRANCH   2   4
TORSDOF 3
ENDMDL
MODEL 4
REMARK VINA RESULT:      -4.1     12.227     13.343
REMARK  3 active torsions:
REMARK  status: ('A' for Active; 'I' for Inactive)
REMARK    1  A    between atoms: C2_2  and  C9_9 
REMARK    2  A    between atoms: C6_6  and  C9_9 
REMARK    3  A    between atoms: C7_7  and  O10_10 
ROOT
HETATM    1  C1  UNL     1     -31.042  18.544   0.842  1.00 20.00    -0.111 C 
HETATM    2  C2  UNL     1     -31.547  18.663  -0.241  1.00 20.00    -0.107 C 
HETATM    3  C8  UNL     1     -30.427  18.399   2.161  1.00 20.00     0.112 C 
ENDROOT
BRANCH   2   4
HETATM    4  C9  UNL     1     -32.168  18.811  -1.563  1.00 20.00     0.098 C 
BRANCH   4   5
HETATM    5  C6  UNL     1     -33.534  18.131  -1.612  1.00 20.00    -0.001 C 
HETATM    6  C3  UNL     1     -33.431  16.639  -1.918  1.00 20.00     0.008 C 
HETATM    7  C4  UNL     1     -33.293  16.564  -3.434  1.00 20.00     0.032 C 
HETATM    8  C7  UNL     1     -34.022  17.796  -3.975  1.00 20.00     0.118 C 
HETATM    9  C5  UNL     1     -34.403  18.647  -2.762  1.00 20.00     0.037 C 
BRANCH   8  10
HETATM   10  O10 UNL     1     -33.150  18.515  -4.837  1.00 20.00    -0.396 OA
HETATM   11  H24 UNL     1     -33.484  18.391  -5.739  1.00 20.00     0.210 HD
ENDBRANCH   8  10
ENDBRANCH   4   5
ENDBRANCH   2   4
TORSDOF 3
ENDMDL
MODEL 5
REMARK VINA RESULT:      -4.1     12.312     13.493
REMARK  3 active torsions:
REMARK  status: ('A' for Active; 'I' for Inactive)
REMARK    1  A    between atoms: C2_2  and  C9_9 
REMARK    2  A    between atoms: C6_6  and  C9_9 
REMARK    3  A    between atoms: C7_7  and  O10_10 
ROOT
HETATM    1  C1  UNL     1     -33.564  17.194  -1.683  1.00 20.00    -0.111 C 
HETATM    2  C2  UNL     1     -33.615  16.652  -2.753  1.00 20.00    -0.107 C 
HETATM    3  C8  UNL     1     -33.500  17.853  -0.380  1.00 20.00     0.112 C 
ENDROOT
BRANCH   2   4
HETATM    4  C9  UNL     1     -33.684  15.989  -4.062  1.00 20.00     0.098 C 
BRANCH   4   5
HETATM    5  C6  UNL     1     -34.779  16.599  -4.934  1.00 20.00    -0.001 C 
HETATM    6  C3  UNL     1     -35.928  15.627  -5.189  1.00 20.00     0.008 C 
HETATM    7  C4  UNL     1     -35.444  14.750  -6.338  1.00 20.00     0.032 C 
HETATM    8  C7  UNL     1     -34.482  15.622  -7.146  1.00 20.00     0.118 C 
HETATM    9  C5  UNL     1     -34.290  16.915  -6.350  1.00 20.00     0.037 C 
BRANCH   8  10
HETATM   10  O10 UNL     1     -33.245  14.940  -7.298  1.00 20.00    -0.396 OA
HETATM   11  H24 UNL     1     -32.818  14.943  -6.427  1.00 20.00     0.210 HD
ENDBRANCH   8  10
ENDBRANCH   4   5
ENDBRANCH   2   4
TORSDOF 3
ENDMDL
MODEL 6
REMARK VINA RESULT:      -3.9     15.845     16.949
REMARK  3 active torsions:
REMARK  status: ('A' for Active; 'I' for Inactive)
REMARK    1  A    between atoms: C2_2  and  C9_9 
REMARK    2  A    between atoms: C6_6  and  C9_9 
REMARK    3  A    between atoms: C7_7  and  O10_10 
ROOT
HETATM    1  C1  UNL     1     -26.115  17.961  11.975  1.00 20.00    -0.111 C 
HETATM    2  C2  UNL     1     -24.977  17.716  11.683  1.00 20.00    -0.107 C 
HETATM    3  C8  UNL     1     -27.502  18.259  12.332  1.00 20.00     0.112 C 
ENDROOT
BRANCH   2   4
HETATM    4  C9  UNL     1     -23.583  17.421  11.327  1.00 20.00     0.098 C 
BRANCH   4   5
HETATM    5  C6  UNL     1     -22.853  18.679  10.861  1.00 20.00    -0.001 C 
HETATM    6  C3  UNL     1     -23.444  19.252   9.575  1.00 20.00     0.008 C 
HETATM    7  C4  UNL     1     -22.817  18.425   8.459  1.00 20.00     0.032 C 
HETATM    8  C7  UNL     1     -21.455  17.977   8.993  1.00 20.00     0.118 C 
HETATM    9  C5  UNL     1     -21.401  18.397  10.464  1.00 20.00     0.037 C 
BRANCH   8  10
HETATM   10  O10 UNL     1     -21.345  16.565   8.872  1.00 20.00    -0.396 OA
HETATM   11  H24 UNL     1     -21.026  16.387   7.974  1.00 20.00     0.210 HD
ENDBRANCH   8  10
ENDBRANCH   4   5
ENDBRANCH   2   4
TORSDOF 3
ENDMDL
MODEL 7
REMARK VINA RESULT:      -3.8     10.030     10.801
REMARK  3 active torsions:
REMARK  status: ('A' for Active; 'I' for Inactive)
REMARK    1  A    between atoms: C2_2  and  C9_9 
REMARK    2  A    between atoms: C6_6  and  C9_9 
REMARK    3  A    between atoms: C7_7  and  O10_10 
ROOT
HETATM    1  C1  UNL     1     -39.886  12.060   5.070  1.00 20.00    -0.111 C 
HETATM    2  C2  UNL     1     -40.749  12.366   5.847  1.00 20.00    -0.107 C 
HETATM    3  C8  UNL     1     -38.835  11.689   4.124  1.00 20.00     0.112 C 
ENDROOT
BRANCH   2   4
HETATM    4  C9  UNL     1     -41.807  12.735   6.795  1.00 20.00     0.098 C 
BRANCH   4   5
HETATM    5  C6  UNL     1     -41.832  14.244   7.036  1.00 20.00    -0.001 C 
HETATM    6  C3  UNL     1     -40.454  14.800   7.386  1.00 20.00     0.008 C 
HETATM    7  C4  UNL     1     -40.292  14.523   8.876  1.00 20.00     0.032 C 
HETATM    8  C7  UNL     1     -41.709  14.529   9.453  1.00 20.00     0.118 C 
HETATM    9  C5  UNL     1     -42.665  14.625   8.263  1.00 20.00     0.037 C 
BRANCH   8  10
HETATM   10  O10 UNL     1     -41.927  13.323  10.173  1.00 20.00    -0.396 OA
HETATM   11  H24 UNL     1     -41.291  13.318  10.906  1.00 20.00     0.210 HD
ENDBRANCH   8  10
ENDBRANCH   4   5
ENDBRANCH   2   4
TORSDOF 3
ENDMDL
MODEL 8
REMARK VINA RESULT:      -3.8     11.947     12.855
REMARK  3 active torsions:
REMARK  status: ('A' for Active; 'I' for Inactive)
REMARK    1  A    between atoms: C2_2  and  C9_9 
REMARK    2  A    between atoms: C6_6  and  C9_9 
REMARK    3  A    between atoms: C7_7  and  O10_10 
ROOT
HETATM    1  C1  UNL     1     -33.684  15.680  -4.108  1.00 20.00    -0.111 C 
HETATM    2  C2  UNL     1     -33.588  16.210  -3.035  1.00 20.00    -0.107 C 
HETATM    3  C8  UNL     1     -33.801  15.035  -5.415  1.00 20.00     0.112 C 
ENDROOT
BRANCH   2   4
HETATM    4  C9  UNL     1     -33.470  16.854  -1.720  1.00 20.00     0.098 C 
BRANCH   4   5
HETATM    5  C6  UNL     1     -33.689  18.362  -1.822  1.00 20.00    -0.001 C 
HETATM    6  C3  UNL     1     -32.378  19.134  -1.949  1.00 20.00     0.008 C 
HETATM    7  C4  UNL     1     -31.865  19.262  -0.519  1.00 20.00     0.032 C 
HETATM    8  C7  UNL     1     -33.112  19.262   0.368  1.00 20.00     0.118 C 
HETATM    9  C5  UNL     1     -34.299  18.950  -0.546  1.00 20.00     0.037 C 
BRANCH   8  10
HETATM   10  O10 UNL     1     -32.975  18.262   1.368  1.00 20.00    -0.396 OA
HETATM   11  H24 UNL     1     -32.173  18.478   1.869  1.00 20.00     0.210 HD
ENDBRANCH   8  10
ENDBRANCH   4   5
ENDBRANCH   2   4
TORSDOF 3
ENDMDL
MODEL 9
REMARK VINA RESULT:      -3.6      9.821     10.422
REMARK  3 active torsions:
REMARK  status: ('A' for Active; 'I' for Inactive)
REMARK    1  A    between atoms: C2_2  and  C9_9 
REMARK    2  A    between atoms: C6_6  and  C9_9 
REMARK    3  A    between atoms: C7_7  and  O10_10 
ROOT
HETATM    1  C1  UNL     1     -39.374  12.191   4.924  1.00 20.00    -0.111 C 
HETATM    2  C2  UNL     1     -39.779  12.728   5.919  1.00 20.00    -0.107 C 
HETATM    3  C8  UNL     1     -38.881  11.537   3.713  1.00 20.00     0.112 C 
ENDROOT
BRANCH   2   4
HETATM    4  C9  UNL     1     -40.270  13.386   7.136  1.00 20.00     0.098 C 
BRANCH   4   5
HETATM    5  C6  UNL     1     -41.517  14.220   6.849  1.00 20.00    -0.001 C 
HETATM    6  C3  UNL     1     -42.187  14.723   8.125  1.00 20.00     0.008 C 
HETATM    7  C4  UNL     1     -43.032  13.550   8.607  1.00 20.00     0.032 C 
HETATM    8  C7  UNL     1     -43.410  12.769   7.347  1.00 20.00     0.118 C 
HETATM    9  C5  UNL     1     -42.629  13.399   6.191  1.00 20.00     0.037 C 
BRANCH   8  10
HETATM   10  O10 UNL     1     -43.045  11.406   7.512  1.00 20.00    -0.396 OA
HETATM   11  H24 UNL     1     -42.078  11.367   7.448  1.00 20.00     0.210 HD
ENDBRANCH   8  10
ENDBRANCH   4   5
ENDBRANCH   2   4
TORSDOF 3
ENDMDL
