MODEL 1
REMARK VINA RESULT:      -4.8      0.000      0.000
REMARK  1 active torsions:
REMARK  status: ('A' for Active; 'I' for Inactive)
REMARK    1  A    between atoms: C6_6  and  C7_7 
ROOT
HETATM    1  C3  UNL     1     -32.888   8.513   5.204  1.00 20.00     0.006 C 
HETATM    2  C4  UNL     1     -32.399   8.977   3.839  1.00 20.00     0.020 C 
HETATM    3  C5  UNL     1     -33.339   6.786   3.523  1.00 20.00     0.025 C 
HETATM    4  C7  UNL     1     -33.806   7.326   4.887  1.00 20.00    -0.009 C 
HETATM    5  C8  UNL     1     -32.148   7.656   3.129  1.00 20.00     0.082 C 
HETATM    6 CL9  UNL     1     -32.000   7.853   1.375  1.00 20.00    -0.125 Cl
ENDROOT
BRANCH   4   7
HETATM    7  C6  UNL     1     -33.789   6.270   5.983  1.00 20.00    -0.010 A 
HETATM    8  C1  UNL     1     -35.062   5.893   6.690  1.00 20.00     0.005 A 
HETATM    9  C2  UNL     1     -34.412   4.922   5.744  1.00 20.00     0.005 A 
ENDBRANCH   4   7
TORSDOF 1
ENDMDL
MODEL 2
REMARK VINA RESULT:      -4.0      9.749     10.522
REMARK  1 active torsions:
REMARK  status: ('A' for Active; 'I' for Inactive)
REMARK    1  A    between atoms: C6_6  and  C7_7 
ROOT
HETATM    1  C3  UNL     1     -42.232  12.425   6.735  1.00 20.00     0.006 C 
HETATM    2  C4  UNL     1     -42.667  13.606   7.590  1.00 20.00     0.020 C 
HETATM    3  C5  UNL     1     -40.403  14.047   6.910  1.00 20.00     0.025 C 
HETATM    4  C7  UNL     1     -40.970  12.925   6.021  1.00 20.00    -0.009 C 
HETATM    5  C8  UNL     1     -41.336  14.121   8.116  1.00 20.00     0.082 C 
HETATM    6 CL9  UNL     1     -41.463  15.757   8.781  1.00 20.00    -0.125 Cl
ENDROOT
BRANCH   4   7
HETATM    7  C6  UNL     1     -39.969  11.809   5.760  1.00 20.00    -0.010 A 
HETATM    8  C1  UNL     1     -39.330  11.667   4.406  1.00 20.00     0.005 A 
HETATM    9  C2  UNL     1     -38.511  12.128   5.580  1.00 20.00     0.005 A 
ENDBRANCH   4   7
TORSDOF 1
ENDMDL
MODEL 3
REMARK VINA RESULT:      -3.8     12.115     12.913
REMARK  1 active torsions:
REMARK  status: ('A' for Active; 'I' for Inactive)
REMARK    1  A    between atoms: C6_6  and  C7_7 
ROOT
HETATM    1  C3  UNL     1     -33.292  15.071  -4.044  1.00 20.00     0.006 C 
HETATM    2  C4  UNL     1     -33.956  15.027  -5.413  1.00 20.00     0.020 C 
HETATM    3  C5  UNL     1     -34.534  17.149  -4.438  1.00 20.00     0.025 C 
HETATM    4  C7  UNL     1     -33.356  16.551  -3.646  1.00 20.00    -0.009 C 
HETATM    5  C8  UNL     1     -35.124  15.982  -5.228  1.00 20.00     0.082 C 
HETATM    6 CL9  UNL     1     -35.828  16.492  -6.770  1.00 20.00    -0.125 Cl
ENDROOT
BRANCH   4   7
HETATM    7  C6  UNL     1     -33.491  16.743  -2.143  1.00 20.00    -0.010 A 
HETATM    8  C1  UNL     1     -32.672  17.789  -1.437  1.00 20.00     0.005 A 
HETATM    9  C2  UNL     1     -34.156  17.975  -1.595  1.00 20.00     0.005 A 
ENDBRANCH   4   7
TORSDOF 1
ENDMDL
MODEL 4
REMARK VINA RESULT:      -3.8     12.133     12.550
REMARK  1 active torsions:
REMARK  status: ('A' for Active; 'I' for Inactive)
REMARK    1  A    between atoms: C6_6  and  C7_7 
ROOT
HETATM    1  C3  UNL     1     -33.804  18.685   0.878  1.00 20.00     0.006 C 
HETATM    2  C4  UNL     1     -32.708  19.257   1.766  1.00 20.00     0.020 C 
HETATM    3  C5  UNL     1     -31.632  18.484  -0.241  1.00 20.00     0.025 C 
HETATM    4  C7  UNL     1     -33.146  18.577  -0.503  1.00 20.00    -0.009 C 
HETATM    5  C8  UNL     1     -31.482  18.502   1.278  1.00 20.00     0.082 C 
HETATM    6 CL9  UNL     1     -29.971  19.262   1.804  1.00 20.00    -0.125 Cl
ENDROOT
BRANCH   4   7
HETATM    7  C6  UNL     1     -33.683  17.406  -1.312  1.00 20.00    -0.010 A 
HETATM    8  C1  UNL     1     -34.275  17.636  -2.676  1.00 20.00     0.005 A 
HETATM    9  C2  UNL     1     -32.951  16.935  -2.539  1.00 20.00     0.005 A 
ENDBRANCH   4   7
TORSDOF 1
ENDMDL
MODEL 5
REMARK VINA RESULT:      -3.7     12.123     12.661
REMARK  1 active torsions:
REMARK  status: ('A' for Active; 'I' for Inactive)
REMARK    1  A    between atoms: C6_6  and  C7_7 
ROOT
HETATM    1  C3  UNL     1     -31.066  18.373  -0.338  1.00 20.00     0.006 C 
HETATM    2  C4  UNL     1     -32.322  18.652  -1.153  1.00 20.00     0.020 C 
HETATM    3  C5  UNL     1     -32.850  19.196   1.129  1.00 20.00     0.025 C 
HETATM    4  C7  UNL     1     -31.320  19.090   0.994  1.00 20.00    -0.009 C 
HETATM    5  C8  UNL     1     -33.415  18.501  -0.108  1.00 20.00     0.082 C 
HETATM    6 CL9  UNL     1     -34.953  19.201  -0.638  1.00 20.00    -0.125 Cl
ENDROOT
BRANCH   4   7
HETATM    7  C6  UNL     1     -30.666  18.380   2.169  1.00 20.00    -0.010 A 
HETATM    8  C1  UNL     1     -29.492  19.005   2.874  1.00 20.00     0.005 A 
HETATM    9  C2  UNL     1     -30.826  18.920   3.564  1.00 20.00     0.005 A 
ENDBRANCH   4   7
TORSDOF 1
ENDMDL
MODEL 6
REMARK VINA RESULT:      -3.6      2.542      4.340
REMARK  1 active torsions:
REMARK  status: ('A' for Active; 'I' for Inactive)
REMARK    1  A    between atoms: C6_6  and  C7_7 
ROOT
HETATM    1  C3  UNL     1     -33.537   5.543   3.561  1.00 20.00     0.006 C 
HETATM    2  C4  UNL     1     -34.391   4.729   4.523  1.00 20.00     0.020 C 
HETATM    3  C5  UNL     1     -34.046   6.873   5.557  1.00 20.00     0.025 C 
HETATM    4  C7  UNL     1     -33.676   6.984   4.066  1.00 20.00    -0.009 C 
HETATM    5  C8  UNL     1     -34.064   5.376   5.859  1.00 20.00     0.082 C 
HETATM    6 CL9  UNL     1     -35.235   4.951   7.117  1.00 20.00    -0.125 Cl
ENDROOT
BRANCH   4   7
HETATM    7  C6  UNL     1     -32.421   7.809   3.824  1.00 20.00    -0.010 A 
HETATM    8  C1  UNL     1     -32.521   9.176   3.203  1.00 20.00     0.005 A 
HETATM    9  C2  UNL     1     -32.148   9.033   4.653  1.00 20.00     0.005 A 
ENDBRANCH   4   7
TORSDOF 1
ENDMDL
MODEL 7
REMARK VINA RESULT:      -3.6      1.435      1.678
REMARK  1 active torsions:
REMARK  status: ('A' for Active; 'I' for Inactive)
REMARK    1  A    between atoms: C6_6  and  C7_7 
ROOT
HETATM    1  C3  UNL     1     -32.636   7.756   4.125  1.00 20.00     0.006 C 
HETATM    2  C4  UNL     1     -32.356   7.133   2.765  1.00 20.00     0.020 C 
HETATM    3  C5  UNL     1     -33.972   5.719   3.847  1.00 20.00     0.025 C 
HETATM    4  C7  UNL     1     -33.923   7.065   4.593  1.00 20.00    -0.009 C 
HETATM    5  C8  UNL     1     -32.695   5.672   3.012  1.00 20.00     0.082 C 
HETATM    6 CL9  UNL     1     -32.900   4.765   1.505  1.00 20.00    -0.125 Cl
ENDROOT
BRANCH   4   7
HETATM    7  C6  UNL     1     -33.982   6.910   6.105  1.00 20.00    -0.010 A 
HETATM    8  C1  UNL     1     -35.059   6.072   6.739  1.00 20.00     0.005 A 
HETATM    9  C2  UNL     1     -33.633   5.594   6.745  1.00 20.00     0.005 A 
ENDBRANCH   4   7
TORSDOF 1
ENDMDL
MODEL 8
REMARK VINA RESULT:      -3.6     11.712     12.811
REMARK  1 active torsions:
REMARK  status: ('A' for Active; 'I' for Inactive)
REMARK    1  A    between atoms: C6_6  and  C7_7 
ROOT
HETATM    1  C3  UNL     1     -33.491  18.293  -3.876  1.00 20.00     0.006 C 
HETATM    2  C4  UNL     1     -33.144  18.960  -2.553  1.00 20.00     0.020 C 
HETATM    3  C5  UNL     1     -33.461  16.623  -2.082  1.00 20.00     0.025 C 
HETATM    4  C7  UNL     1     -33.296  16.796  -3.603  1.00 20.00    -0.009 C 
HETATM    5  C8  UNL     1     -33.785  18.016  -1.547  1.00 20.00     0.082 C 
HETATM    6 CL9  UNL     1     -33.178  18.273   0.096  1.00 20.00    -0.125 Cl
ENDROOT
BRANCH   4   7
HETATM    7  C6  UNL     1     -34.251  15.929  -4.408  1.00 20.00    -0.010 A 
HETATM    8  C1  UNL     1     -33.722  15.009  -5.475  1.00 20.00     0.005 A 
HETATM    9  C2  UNL     1     -34.279  14.440  -4.199  1.00 20.00     0.005 A 
ENDBRANCH   4   7
TORSDOF 1
ENDMDL
MODEL 9
REMARK VINA RESULT:      -3.5      1.991      3.787
REMARK  1 active torsions:
REMARK  status: ('A' for Active; 'I' for Inactive)
REMARK    1  A    between atoms: C6_6  and  C7_7 
ROOT
HETATM    1  C3  UNL     1     -34.389   6.876   6.388  1.00 20.00     0.006 C 
HETATM    2  C4  UNL     1     -34.577   5.394   6.100  1.00 20.00     0.020 C 
HETATM    3  C5  UNL     1     -33.149   6.255   4.366  1.00 20.00     0.025 C 
HETATM    4  C7  UNL     1     -33.192   7.277   5.517  1.00 20.00    -0.009 C 
HETATM    5  C8  UNL     1     -34.344   5.333   4.599  1.00 20.00     0.082 C 
HETATM    6 CL9  UNL     1     -34.051   3.682   4.030  1.00 20.00    -0.125 Cl
ENDROOT
BRANCH   4   7
HETATM    7  C6  UNL     1     -33.283   8.716   5.031  1.00 20.00    -0.010 A 
HETATM    8  C1  UNL     1     -32.039   9.551   4.900  1.00 20.00     0.005 A 
HETATM    9  C2  UNL     1     -32.767   9.088   3.668  1.00 20.00     0.005 A 
ENDBRANCH   4   7
TORSDOF 1
ENDMDL
