MODEL 1
REMARK VINA RESULT:      -4.7      0.000      0.000
REMARK  6 active torsions:
REMARK  status: ('A' for Active; 'I' for Inactive)
REMARK    1  A    between atoms: C4_4  and  C6_6 
REMARK    2  A    between atoms: C5_5  and  C9_9 
REMARK    3  A    between atoms: C6_6  and  C7_7 
REMARK    4  A    between atoms: C7_7  and  C8_8 
REMARK    5  A    between atoms: C8_8  and  C9_9 
REMARK    6  A    between atoms: C9_9  and  O10_10 
ROOT
HETATM    1  C1  UNL     1     -32.130   7.630   2.402  1.00 20.00     0.012 C 
HETATM    2  C2  UNL     1     -32.260   8.139   3.482  1.00 20.00    -0.117 C 
HETATM    3  C4  UNL     1     -32.418   8.764   4.803  1.00 20.00     0.093 C 
ENDROOT
BRANCH   3   4
HETATM    4  C6  UNL     1     -33.664   8.234   5.515  1.00 20.00     0.012 C 
BRANCH   4   5
HETATM    5  C7  UNL     1     -33.441   6.889   6.212  1.00 20.00     0.003 C 
BRANCH   5   6
HETATM    6  C8  UNL     1     -34.742   6.129   6.497  1.00 20.00     0.032 C 
BRANCH   6   7
HETATM    7  C9  UNL     1     -35.104   5.161   5.363  1.00 20.00     0.117 C 
BRANCH   7   8
HETATM    8  C5  UNL     1     -33.848   4.525   4.757  1.00 20.00     0.027 C 
HETATM    9  C3  UNL     1     -33.747   4.757   3.256  1.00 20.00     0.007 C 
ENDBRANCH   7   8
BRANCH   7  10
HETATM   10  O10 UNL     1     -35.822   5.862   4.350  1.00 20.00    -0.396 OA
HETATM   11  H26 UNL     1     -36.630   6.200   4.768  1.00 20.00     0.210 HD
ENDBRANCH   7  10
ENDBRANCH   6   7
ENDBRANCH   5   6
ENDBRANCH   4   5
ENDBRANCH   3   4
TORSDOF 6
ENDMDL
MODEL 2
REMARK VINA RESULT:      -4.7      1.519      4.012
REMARK  6 active torsions:
REMARK  status: ('A' for Active; 'I' for Inactive)
REMARK    1  A    between atoms: C4_4  and  C6_6 
REMARK    2  A    between atoms: C5_5  and  C9_9 
REMARK    3  A    between atoms: C6_6  and  C7_7 
REMARK    4  A    between atoms: C7_7  and  C8_8 
REMARK    5  A    between atoms: C8_8  and  C9_9 
REMARK    6  A    between atoms: C9_9  and  O10_10 
ROOT
HETATM    1  C1  UNL     1     -34.063   4.258   4.442  1.00 20.00     0.012 C 
HETATM    2  C2  UNL     1     -34.360   5.040   5.302  1.00 20.00    -0.117 C 
HETATM    3  C4  UNL     1     -34.725   5.997   6.358  1.00 20.00     0.093 C 
ENDROOT
BRANCH   3   4
HETATM    4  C6  UNL     1     -33.803   7.218   6.333  1.00 20.00     0.012 C 
BRANCH   4   5
HETATM    5  C7  UNL     1     -33.758   7.918   4.972  1.00 20.00     0.003 C 
BRANCH   5   6
HETATM    6  C8  UNL     1     -32.350   8.369   4.566  1.00 20.00     0.032 C 
BRANCH   6   7
HETATM    7  C9  UNL     1     -32.043   8.048   3.097  1.00 20.00     0.117 C 
BRANCH   7   8
HETATM    8  C5  UNL     1     -32.757   9.026   2.157  1.00 20.00     0.027 C 
HETATM    9  C3  UNL     1     -32.407   8.785   0.696  1.00 20.00     0.007 C 
ENDBRANCH   7   8
BRANCH   7  10
HETATM   10  O10 UNL     1     -32.455   6.715   2.804  1.00 20.00    -0.396 OA
HETATM   11  H26 UNL     1     -33.186   6.513   3.410  1.00 20.00     0.210 HD
ENDBRANCH   7  10
ENDBRANCH   6   7
ENDBRANCH   5   6
ENDBRANCH   4   5
ENDBRANCH   3   4
TORSDOF 6
ENDMDL
MODEL 3
REMARK VINA RESULT:      -4.6      1.778      3.662
REMARK  6 active torsions:
REMARK  status: ('A' for Active; 'I' for Inactive)
REMARK    1  A    between atoms: C4_4  and  C6_6 
REMARK    2  A    between atoms: C5_5  and  C9_9 
REMARK    3  A    between atoms: C6_6  and  C7_7 
REMARK    4  A    between atoms: C7_7  and  C8_8 
REMARK    5  A    between atoms: C8_8  and  C9_9 
REMARK    6  A    between atoms: C9_9  and  O10_10 
ROOT
HETATM    1  C1  UNL     1     -33.476   4.400   3.372  1.00 20.00     0.012 C 
HETATM    2  C2  UNL     1     -34.220   4.989   4.106  1.00 20.00    -0.117 C 
HETATM    3  C4  UNL     1     -35.134   5.710   5.004  1.00 20.00     0.093 C 
ENDROOT
BRANCH   3   4
HETATM    4  C6  UNL     1     -34.461   6.010   6.345  1.00 20.00     0.012 C 
BRANCH   4   5
HETATM    5  C7  UNL     1     -33.634   7.299   6.336  1.00 20.00     0.003 C 
BRANCH   5   6
HETATM    6  C8  UNL     1     -33.874   8.167   5.095  1.00 20.00     0.032 C 
BRANCH   6   7
HETATM    7  C9  UNL     1     -32.565   8.731   4.525  1.00 20.00     0.117 C 
BRANCH   7   8
HETATM    8  C5  UNL     1     -31.865   7.703   3.629  1.00 20.00     0.027 C 
HETATM    9  C3  UNL     1     -32.322   7.792   2.180  1.00 20.00     0.007 C 
ENDBRANCH   7   8
BRANCH   7  10
HETATM   10  O10 UNL     1     -31.700   9.101   5.596  1.00 20.00    -0.396 OA
HETATM   11  H26 UNL     1     -31.638  10.069   5.579  1.00 20.00     0.210 HD
ENDBRANCH   7  10
ENDBRANCH   6   7
ENDBRANCH   5   6
ENDBRANCH   4   5
ENDBRANCH   3   4
TORSDOF 6
ENDMDL
MODEL 4
REMARK VINA RESULT:      -4.6      1.546      2.565
REMARK  6 active torsions:
REMARK  status: ('A' for Active; 'I' for Inactive)
REMARK    1  A    between atoms: C4_4  and  C6_6 
REMARK    2  A    between atoms: C5_5  and  C9_9 
REMARK    3  A    between atoms: C6_6  and  C7_7 
REMARK    4  A    between atoms: C7_7  and  C8_8 
REMARK    5  A    between atoms: C8_8  and  C9_9 
REMARK    6  A    between atoms: C9_9  and  O10_10 
ROOT
HETATM    1  C1  UNL     1     -32.820   9.563   0.829  1.00 20.00     0.012 C 
HETATM    2  C2  UNL     1     -32.716   9.081   1.923  1.00 20.00    -0.117 C 
HETATM    3  C4  UNL     1     -32.591   8.493   3.265  1.00 20.00     0.093 C 
ENDROOT
BRANCH   3   4
HETATM    4  C6  UNL     1     -32.062   7.060   3.188  1.00 20.00     0.012 C 
BRANCH   4   5
HETATM    5  C7  UNL     1     -33.169   6.007   3.081  1.00 20.00     0.003 C 
BRANCH   5   6
HETATM    6  C8  UNL     1     -34.401   6.330   3.936  1.00 20.00     0.032 C 
BRANCH   6   7
HETATM    7  C9  UNL     1     -34.799   5.156   4.840  1.00 20.00     0.117 C 
BRANCH   7   8
HETATM    8  C5  UNL     1     -34.569   5.495   6.318  1.00 20.00     0.027 C 
HETATM    9  C3  UNL     1     -34.102   6.930   6.517  1.00 20.00     0.007 C 
ENDBRANCH   7   8
BRANCH   7  10
HETATM   10  O10 UNL     1     -34.037   4.004   4.489  1.00 20.00    -0.396 OA
HETATM   11  H26 UNL     1     -33.107   4.229   4.649  1.00 20.00     0.210 HD
ENDBRANCH   7  10
ENDBRANCH   6   7
ENDBRANCH   5   6
ENDBRANCH   4   5
ENDBRANCH   3   4
TORSDOF 6
ENDMDL
MODEL 5
REMARK VINA RESULT:      -4.5      1.870      3.686
REMARK  6 active torsions:
REMARK  status: ('A' for Active; 'I' for Inactive)
REMARK    1  A    between atoms: C4_4  and  C6_6 
REMARK    2  A    between atoms: C5_5  and  C9_9 
REMARK    3  A    between atoms: C6_6  and  C7_7 
REMARK    4  A    between atoms: C7_7  and  C8_8 
REMARK    5  A    between atoms: C8_8  and  C9_9 
REMARK    6  A    between atoms: C9_9  and  O10_10 
ROOT
HETATM    1  C1  UNL     1     -34.863   4.941   5.310  1.00 20.00     0.012 C 
HETATM    2  C2  UNL     1     -34.499   5.956   5.836  1.00 20.00    -0.117 C 
HETATM    3  C4  UNL     1     -34.052   7.199   6.483  1.00 20.00     0.093 C 
ENDROOT
BRANCH   3   4
HETATM    4  C6  UNL     1     -33.875   8.318   5.456  1.00 20.00     0.012 C 
BRANCH   4   5
HETATM    5  C7  UNL     1     -32.457   8.400   4.883  1.00 20.00     0.003 C 
BRANCH   5   6
HETATM    6  C8  UNL     1     -32.415   8.902   3.434  1.00 20.00     0.032 C 
BRANCH   6   7
HETATM    7  C9  UNL     1     -32.684   7.775   2.427  1.00 20.00     0.117 C 
BRANCH   7   8
HETATM    8  C5  UNL     1     -32.179   6.428   2.957  1.00 20.00     0.027 C 
HETATM    9  C3  UNL     1     -32.934   5.250   2.357  1.00 20.00     0.007 C 
ENDBRANCH   7   8
BRANCH   7  10
HETATM   10  O10 UNL     1     -32.039   8.076   1.192  1.00 20.00    -0.396 OA
HETATM   11  H26 UNL     1     -32.198   9.018   1.020  1.00 20.00     0.210 HD
ENDBRANCH   7  10
ENDBRANCH   6   7
ENDBRANCH   5   6
ENDBRANCH   4   5
ENDBRANCH   3   4
TORSDOF 6
ENDMDL
MODEL 6
REMARK VINA RESULT:      -4.4      0.881      1.188
REMARK  6 active torsions:
REMARK  status: ('A' for Active; 'I' for Inactive)
REMARK    1  A    between atoms: C4_4  and  C6_6 
REMARK    2  A    between atoms: C5_5  and  C9_9 
REMARK    3  A    between atoms: C6_6  and  C7_7 
REMARK    4  A    between atoms: C7_7  and  C8_8 
REMARK    5  A    between atoms: C8_8  and  C9_9 
REMARK    6  A    between atoms: C9_9  and  O10_10 
ROOT
HETATM    1  C1  UNL     1     -32.920   9.494   1.522  1.00 20.00     0.012 C 
HETATM    2  C2  UNL     1     -32.562   8.773   2.413  1.00 20.00    -0.117 C 
HETATM    3  C4  UNL     1     -32.120   7.890   3.502  1.00 20.00     0.093 C 
ENDROOT
BRANCH   3   4
HETATM    4  C6  UNL     1     -32.649   8.379   4.852  1.00 20.00     0.012 C 
BRANCH   4   5
HETATM    5  C7  UNL     1     -34.060   7.877   5.170  1.00 20.00     0.003 C 
BRANCH   5   6
HETATM    6  C8  UNL     1     -34.077   6.654   6.094  1.00 20.00     0.032 C 
BRANCH   6   7
HETATM    7  C9  UNL     1     -34.842   5.475   5.476  1.00 20.00     0.117 C 
BRANCH   7   8
HETATM    8  C5  UNL     1     -33.886   4.500   4.780  1.00 20.00     0.027 C 
HETATM    9  C3  UNL     1     -33.707   4.820   3.303  1.00 20.00     0.007 C 
ENDBRANCH   7   8
BRANCH   7  10
HETATM   10  O10 UNL     1     -35.794   5.966   4.535  1.00 20.00    -0.396 OA
HETATM   11  H26 UNL     1     -35.613   6.914   4.429  1.00 20.00     0.210 HD
ENDBRANCH   7  10
ENDBRANCH   6   7
ENDBRANCH   5   6
ENDBRANCH   4   5
ENDBRANCH   3   4
TORSDOF 6
ENDMDL
MODEL 7
REMARK VINA RESULT:      -4.4      1.816      4.335
REMARK  6 active torsions:
REMARK  status: ('A' for Active; 'I' for Inactive)
REMARK    1  A    between atoms: C4_4  and  C6_6 
REMARK    2  A    between atoms: C5_5  and  C9_9 
REMARK    3  A    between atoms: C6_6  and  C7_7 
REMARK    4  A    between atoms: C7_7  and  C8_8 
REMARK    5  A    between atoms: C8_8  and  C9_9 
REMARK    6  A    between atoms: C9_9  and  O10_10 
ROOT
HETATM    1  C1  UNL     1     -34.098   7.296   6.796  1.00 20.00     0.012 C 
HETATM    2  C2  UNL     1     -34.442   6.238   6.346  1.00 20.00    -0.117 C 
HETATM    3  C4  UNL     1     -34.866   4.942   5.796  1.00 20.00     0.093 C 
ENDROOT
BRANCH   3   4
HETATM    4  C6  UNL     1     -34.137   4.638   4.486  1.00 20.00     0.012 C 
BRANCH   4   5
HETATM    5  C7  UNL     1     -34.015   5.851   3.560  1.00 20.00     0.003 C 
BRANCH   5   6
HETATM    6  C8  UNL     1     -32.668   5.928   2.832  1.00 20.00     0.032 C 
BRANCH   6   7
HETATM    7  C9  UNL     1     -32.097   7.353   2.826  1.00 20.00     0.117 C 
BRANCH   7   8
HETATM    8  C5  UNL     1     -32.954   8.295   3.679  1.00 20.00     0.027 C 
HETATM    9  C3  UNL     1     -32.131   9.049   4.714  1.00 20.00     0.007 C 
ENDBRANCH   7   8
BRANCH   7  10
HETATM   10  O10 UNL     1     -32.041   7.838   1.486  1.00 20.00    -0.396 OA
HETATM   11  H26 UNL     1     -31.247   7.449   1.086  1.00 20.00     0.210 HD
ENDBRANCH   7  10
ENDBRANCH   6   7
ENDBRANCH   5   6
ENDBRANCH   4   5
ENDBRANCH   3   4
TORSDOF 6
ENDMDL
MODEL 8
REMARK VINA RESULT:      -4.3      1.453      2.272
REMARK  6 active torsions:
REMARK  status: ('A' for Active; 'I' for Inactive)
REMARK    1  A    between atoms: C4_4  and  C6_6 
REMARK    2  A    between atoms: C5_5  and  C9_9 
REMARK    3  A    between atoms: C6_6  and  C7_7 
REMARK    4  A    between atoms: C7_7  and  C8_8 
REMARK    5  A    between atoms: C8_8  and  C9_9 
REMARK    6  A    between atoms: C9_9  and  O10_10 
ROOT
HETATM    1  C1  UNL     1     -32.465   8.805   0.523  1.00 20.00     0.012 C 
HETATM    2  C2  UNL     1     -32.331   8.108   1.490  1.00 20.00    -0.117 C 
HETATM    3  C4  UNL     1     -32.165   7.250   2.674  1.00 20.00     0.093 C 
ENDROOT
BRANCH   3   4
HETATM    4  C6  UNL     1     -31.748   8.075   3.893  1.00 20.00     0.012 C 
BRANCH   4   5
HETATM    5  C7  UNL     1     -32.927   8.500   4.773  1.00 20.00     0.003 C 
BRANCH   5   6
HETATM    6  C8  UNL     1     -34.045   7.452   4.841  1.00 20.00     0.032 C 
BRANCH   6   7
HETATM    7  C9  UNL     1     -33.928   6.566   6.088  1.00 20.00     0.117 C 
BRANCH   7   8
HETATM    8  C5  UNL     1     -34.590   5.202   5.860  1.00 20.00     0.027 C 
HETATM    9  C3  UNL     1     -34.341   4.665   4.457  1.00 20.00     0.007 C 
ENDBRANCH   7   8
BRANCH   7  10
HETATM   10  O10 UNL     1     -34.545   7.218   7.196  1.00 20.00    -0.396 OA
HETATM   11  H26 UNL     1     -34.889   6.517   7.771  1.00 20.00     0.210 HD
ENDBRANCH   7  10
ENDBRANCH   6   7
ENDBRANCH   5   6
ENDBRANCH   4   5
ENDBRANCH   3   4
TORSDOF 6
ENDMDL
MODEL 9
REMARK VINA RESULT:      -4.3      0.906      2.607
REMARK  6 active torsions:
REMARK  status: ('A' for Active; 'I' for Inactive)
REMARK    1  A    between atoms: C4_4  and  C6_6 
REMARK    2  A    between atoms: C5_5  and  C9_9 
REMARK    3  A    between atoms: C6_6  and  C7_7 
REMARK    4  A    between atoms: C7_7  and  C8_8 
REMARK    5  A    between atoms: C8_8  and  C9_9 
REMARK    6  A    between atoms: C9_9  and  O10_10 
ROOT
HETATM    1  C1  UNL     1     -32.463   8.950   5.018  1.00 20.00     0.012 C 
HETATM    2  C2  UNL     1     -32.195   8.219   4.104  1.00 20.00    -0.117 C 
HETATM    3  C4  UNL     1     -31.865   7.323   2.986  1.00 20.00     0.093 C 
ENDROOT
BRANCH   3   4
HETATM    4  C6  UNL     1     -33.089   6.514   2.552  1.00 20.00     0.012 C 
BRANCH   4   5
HETATM    5  C7  UNL     1     -33.042   5.050   2.999  1.00 20.00     0.003 C 
BRANCH   5   6
HETATM    6  C8  UNL     1     -34.046   4.721   4.111  1.00 20.00     0.032 C 
BRANCH   6   7
HETATM    7  C9  UNL     1     -34.868   5.949   4.526  1.00 20.00     0.117 C 
BRANCH   7   8
HETATM    8  C5  UNL     1     -34.701   6.246   6.021  1.00 20.00     0.027 C 
HETATM    9  C3  UNL     1     -33.822   5.218   6.720  1.00 20.00     0.007 C 
ENDBRANCH   7   8
BRANCH   7  10
HETATM   10  O10 UNL     1     -36.245   5.721   4.234  1.00 20.00    -0.396 OA
HETATM   11  H26 UNL     1     -36.303   4.828   3.858  1.00 20.00     0.210 HD
ENDBRANCH   7  10
ENDBRANCH   6   7
ENDBRANCH   5   6
ENDBRANCH   4   5
ENDBRANCH   3   4
TORSDOF 6
ENDMDL
