MODEL 1
REMARK VINA RESULT:      -4.4      0.000      0.000
REMARK  4 active torsions:
REMARK  status: ('A' for Active; 'I' for Inactive)
REMARK    1  A    between atoms: C4_4  and  C8_8 
REMARK    2  A    between atoms: C5_5  and  C9_9 
REMARK    3  A    between atoms: C5_5  and  O11_11 
REMARK    4  A    between atoms: C9_9  and  C10_10 
ROOT
HETATM    1  C1  UNL     1     -32.195   7.487   2.357  1.00 20.00     0.007 C 
HETATM    2  C2  UNL     1     -32.768   6.853   3.630  1.00 20.00     0.038 C 
HETATM    3  C3  UNL     1     -33.438   9.148   3.629  1.00 20.00     0.042 C 
HETATM    4  C4  UNL     1     -32.442   8.998   2.474  1.00 20.00    -0.012 C 
HETATM    5  C5  UNL     1     -33.040   8.020   4.579  1.00 20.00     0.058 C 
ENDROOT
BRANCH   5   6
HETATM    6  C9  UNL     1     -34.105   7.717   5.622  1.00 20.00     0.037 C 
BRANCH   6   7
HETATM    7  C10 UNL     1     -33.786   6.434   6.388  1.00 20.00    -0.002 C 
HETATM    8  C7  UNL     1     -34.787   5.334   6.075  1.00 20.00     0.005 C 
ENDBRANCH   6   7
ENDBRANCH   5   6
BRANCH   5   9
HETATM    9  O11 UNL     1     -31.833   8.384   5.248  1.00 20.00    -0.390 OA
HETATM   10  H31 UNL     1     -31.994   8.252   6.194  1.00 20.00     0.210 HD
ENDBRANCH   5   9
BRANCH   4  11
HETATM   11  C8  UNL     1     -32.938   9.625   1.181  1.00 20.00     0.000 C 
HETATM   12  C6  UNL     1     -32.577   8.802  -0.014  1.00 20.00     0.005 C 
ENDBRANCH   4  11
TORSDOF 4
ENDMDL
MODEL 2
REMARK VINA RESULT:      -4.3      0.874      4.613
REMARK  4 active torsions:
REMARK  status: ('A' for Active; 'I' for Inactive)
REMARK    1  A    between atoms: C4_4  and  C8_8 
REMARK    2  A    between atoms: C5_5  and  C9_9 
REMARK    3  A    between atoms: C5_5  and  O11_11 
REMARK    4  A    between atoms: C9_9  and  C10_10 
ROOT
HETATM    1  C1  UNL     1     -33.673   8.449   5.553  1.00 20.00     0.007 C 
HETATM    2  C2  UNL     1     -33.186   8.974   4.197  1.00 20.00     0.038 C 
HETATM    3  C3  UNL     1     -33.118   6.586   4.089  1.00 20.00     0.042 C 
HETATM    4  C4  UNL     1     -33.420   6.935   5.550  1.00 20.00    -0.012 C 
HETATM    5  C5  UNL     1     -32.386   7.826   3.580  1.00 20.00     0.058 C 
ENDROOT
BRANCH   5   6
HETATM    6  C9  UNL     1     -32.307   7.890   2.063  1.00 20.00     0.037 C 
BRANCH   6   7
HETATM    7  C10 UNL     1     -32.741   9.258   1.538  1.00 20.00    -0.002 C 
HETATM    8  C7  UNL     1     -32.858   9.262   0.023  1.00 20.00     0.005 C 
ENDBRANCH   6   7
ENDBRANCH   5   6
BRANCH   5   9
HETATM    9  O11 UNL     1     -31.060   7.829   4.110  1.00 20.00    -0.390 OA
HETATM   10  H31 UNL     1     -30.475   8.087   3.382  1.00 20.00     0.210 HD
ENDBRANCH   5   9
BRANCH   4  11
HETATM   11  C8  UNL     1     -34.579   6.133   6.121  1.00 20.00     0.000 C 
HETATM   12  C6  UNL     1     -35.037   5.066   5.178  1.00 20.00     0.005 C 
ENDBRANCH   4  11
TORSDOF 4
ENDMDL
MODEL 3
REMARK VINA RESULT:      -4.2      2.604      4.069
REMARK  4 active torsions:
REMARK  status: ('A' for Active; 'I' for Inactive)
REMARK    1  A    between atoms: C4_4  and  C8_8 
REMARK    2  A    between atoms: C5_5  and  C9_9 
REMARK    3  A    between atoms: C5_5  and  O11_11 
REMARK    4  A    between atoms: C9_9  and  C10_10 
ROOT
HETATM    1  C1  UNL     1     -34.294   6.872   6.755  1.00 20.00     0.007 C 
HETATM    2  C2  UNL     1     -34.331   5.429   6.240  1.00 20.00     0.038 C 
HETATM    3  C3  UNL     1     -33.764   6.822   4.381  1.00 20.00     0.042 C 
HETATM    4  C4  UNL     1     -34.147   7.773   5.520  1.00 20.00    -0.012 C 
HETATM    5  C5  UNL     1     -34.522   5.542   4.726  1.00 20.00     0.058 C 
ENDROOT
BRANCH   5   6
HETATM    6  C9  UNL     1     -34.020   4.328   3.961  1.00 20.00     0.037 C 
BRANCH   6   7
HETATM    7  C10 UNL     1     -32.775   4.660   3.140  1.00 20.00    -0.002 C 
HETATM    8  C7  UNL     1     -33.108   4.834   1.667  1.00 20.00     0.005 C 
ENDBRANCH   6   7
ENDBRANCH   5   6
BRANCH   5   9
HETATM    9  O11 UNL     1     -35.906   5.731   4.433  1.00 20.00    -0.390 OA
HETATM   10  H31 UNL     1     -36.288   4.846   4.333  1.00 20.00     0.210 HD
ENDBRANCH   5   9
BRANCH   4  11
HETATM   11  C8  UNL     1     -33.142   8.896   5.715  1.00 20.00     0.000 C 
HETATM   12  C6  UNL     1     -32.126   8.933   4.617  1.00 20.00     0.005 C 
ENDBRANCH   4  11
TORSDOF 4
ENDMDL
MODEL 4
REMARK VINA RESULT:      -4.2     10.850     11.832
REMARK  4 active torsions:
REMARK  status: ('A' for Active; 'I' for Inactive)
REMARK    1  A    between atoms: C4_4  and  C8_8 
REMARK    2  A    between atoms: C5_5  and  C9_9 
REMARK    3  A    between atoms: C5_5  and  O11_11 
REMARK    4  A    between atoms: C9_9  and  C10_10 
ROOT
HETATM    1  C1  UNL     1     -33.389  18.111  -3.981  1.00 20.00     0.007 C 
HETATM    2  C2  UNL     1     -33.038  19.185  -2.944  1.00 20.00     0.038 C 
HETATM    3  C3  UNL     1     -33.168  17.101  -1.778  1.00 20.00     0.042 C 
HETATM    4  C4  UNL     1     -33.683  16.826  -3.194  1.00 20.00    -0.012 C 
HETATM    5  C5  UNL     1     -33.441  18.592  -1.592  1.00 20.00     0.058 C 
ENDROOT
BRANCH   5   6
HETATM    6  C9  UNL     1     -32.685  19.195  -0.418  1.00 20.00     0.037 C 
BRANCH   6   7
HETATM    7  C10 UNL     1     -31.295  18.579  -0.274  1.00 20.00    -0.002 C 
HETATM    8  C7  UNL     1     -30.921  18.382   1.187  1.00 20.00     0.005 C 
ENDBRANCH   6   7
ENDBRANCH   5   6
BRANCH   5   9
HETATM    9  O11 UNL     1     -34.840  18.784  -1.385  1.00 20.00    -0.390 OA
HETATM   10  H31 UNL     1     -34.943  19.675  -1.020  1.00 20.00     0.210 HD
ENDBRANCH   5   9
BRANCH   4  11
HETATM   11  C8  UNL     1     -33.062  15.587  -3.818  1.00 20.00     0.000 C 
HETATM   12  C6  UNL     1     -34.098  14.582  -4.214  1.00 20.00     0.005 C 
ENDBRANCH   4  11
TORSDOF 4
ENDMDL
MODEL 5
REMARK VINA RESULT:      -4.2     10.919     11.838
REMARK  4 active torsions:
REMARK  status: ('A' for Active; 'I' for Inactive)
REMARK    1  A    between atoms: C4_4  and  C8_8 
REMARK    2  A    between atoms: C5_5  and  C9_9 
REMARK    3  A    between atoms: C5_5  and  O11_11 
REMARK    4  A    between atoms: C9_9  and  C10_10 
ROOT
HETATM    1  C1  UNL     1     -33.144  19.011   1.035  1.00 20.00     0.007 C 
HETATM    2  C2  UNL     1     -33.986  18.026   0.215  1.00 20.00     0.038 C 
HETATM    3  C3  UNL     1     -31.847  18.171  -0.845  1.00 20.00     0.042 C 
HETATM    4  C4  UNL     1     -31.861  19.263   0.230  1.00 20.00    -0.012 C 
HETATM    5  C5  UNL     1     -33.328  17.980  -1.165  1.00 20.00     0.058 C 
ENDROOT
BRANCH   5   6
HETATM    6  C9  UNL     1     -33.612  16.695  -1.927  1.00 20.00     0.037 C 
BRANCH   6   7
HETATM    7  C10 UNL     1     -33.204  16.814  -3.395  1.00 20.00    -0.002 C 
HETATM    8  C7  UNL     1     -33.172  15.456  -4.077  1.00 20.00     0.005 C 
ENDBRANCH   6   7
ENDBRANCH   5   6
BRANCH   5   9
HETATM    9  O11 UNL     1     -33.779  19.086  -1.946  1.00 20.00    -0.390 OA
HETATM   10  H31 UNL     1     -33.668  19.875  -1.393  1.00 20.00     0.210 HD
ENDBRANCH   5   9
BRANCH   4  11
HETATM   11  C8  UNL     1     -30.606  19.263   1.088  1.00 20.00     0.000 C 
HETATM   12  C6  UNL     1     -30.802  18.505   2.363  1.00 20.00     0.005 C 
ENDBRANCH   4  11
TORSDOF 4
ENDMDL
MODEL 6
REMARK VINA RESULT:      -4.0     11.170     11.898
REMARK  4 active torsions:
REMARK  status: ('A' for Active; 'I' for Inactive)
REMARK    1  A    between atoms: C4_4  and  C8_8 
REMARK    2  A    between atoms: C5_5  and  C9_9 
REMARK    3  A    between atoms: C5_5  and  O11_11 
REMARK    4  A    between atoms: C9_9  and  C10_10 
ROOT
HETATM    1  C1  UNL     1     -33.508  15.092  -4.611  1.00 20.00     0.007 C 
HETATM    2  C2  UNL     1     -33.285  15.943  -3.355  1.00 20.00     0.038 C 
HETATM    3  C3  UNL     1     -35.074  16.954  -4.578  1.00 20.00     0.042 C 
HETATM    4  C4  UNL     1     -34.500  15.865  -5.491  1.00 20.00    -0.012 C 
HETATM    5  C5  UNL     1     -33.894  17.309  -3.676  1.00 20.00     0.058 C 
ENDROOT
BRANCH   5   6
HETATM    6  C9  UNL     1     -34.304  18.094  -2.439  1.00 20.00     0.037 C 
BRANCH   6   7
HETATM    7  C10 UNL     1     -33.669  17.516  -1.175  1.00 20.00    -0.002 C 
HETATM    8  C7  UNL     1     -32.423  18.289  -0.775  1.00 20.00     0.005 C 
ENDBRANCH   6   7
ENDBRANCH   5   6
BRANCH   5   9
HETATM    9  O11 UNL     1     -32.958  18.084  -4.423  1.00 20.00    -0.390 OA
HETATM   10  H31 UNL     1     -33.011  17.771  -5.338  1.00 20.00     0.210 HD
ENDBRANCH   5   9
BRANCH   4  11
HETATM   11  C8  UNL     1     -35.574  14.981  -6.102  1.00 20.00     0.000 C 
HETATM   12  C6  UNL     1     -36.147  14.026  -5.102  1.00 20.00     0.005 C 
ENDBRANCH   4  11
TORSDOF 4
ENDMDL
MODEL 7
REMARK VINA RESULT:      -4.0      9.419     10.522
REMARK  4 active torsions:
REMARK  status: ('A' for Active; 'I' for Inactive)
REMARK    1  A    between atoms: C4_4  and  C8_8 
REMARK    2  A    between atoms: C5_5  and  C9_9 
REMARK    3  A    between atoms: C5_5  and  O11_11 
REMARK    4  A    between atoms: C9_9  and  C10_10 
ROOT
HETATM    1  C1  UNL     1     -41.144  13.091   5.061  1.00 20.00     0.007 C 
HETATM    2  C2  UNL     1     -41.872  14.124   5.929  1.00 20.00     0.038 C 
HETATM    3  C3  UNL     1     -40.107  13.211   7.259  1.00 20.00     0.042 C 
HETATM    4  C4  UNL     1     -40.162  12.359   5.986  1.00 20.00    -0.012 C 
HETATM    5  C5  UNL     1     -41.529  13.756   7.373  1.00 20.00     0.058 C 
ENDROOT
BRANCH   5   6
HETATM    6  C9  UNL     1     -41.642  14.926   8.339  1.00 20.00     0.037 C 
BRANCH   6   7
HETATM    7  C10 UNL     1     -40.389  15.799   8.308  1.00 20.00    -0.002 C 
HETATM    8  C7  UNL     1     -40.686  17.180   7.747  1.00 20.00     0.005 C 
ENDBRANCH   6   7
ENDBRANCH   5   6
BRANCH   5   9
HETATM    9  O11 UNL     1     -42.391  12.709   7.817  1.00 20.00    -0.390 OA
HETATM   10  H31 UNL     1     -43.060  12.594   7.125  1.00 20.00     0.210 HD
ENDBRANCH   5   9
BRANCH   4  11
HETATM   11  C8  UNL     1     -38.794  12.147   5.358  1.00 20.00     0.000 C 
HETATM   12  C6  UNL     1     -38.896  11.664   3.946  1.00 20.00     0.005 C 
ENDBRANCH   4  11
TORSDOF 4
ENDMDL
MODEL 8
REMARK VINA RESULT:      -4.0      9.520     10.563
REMARK  4 active torsions:
REMARK  status: ('A' for Active; 'I' for Inactive)
REMARK    1  A    between atoms: C4_4  and  C8_8 
REMARK    2  A    between atoms: C5_5  and  C9_9 
REMARK    3  A    between atoms: C5_5  and  O11_11 
REMARK    4  A    between atoms: C9_9  and  C10_10 
ROOT
HETATM    1  C1  UNL     1     -42.025  15.157   7.009  1.00 20.00     0.007 C 
HETATM    2  C2  UNL     1     -40.813  14.285   7.362  1.00 20.00     0.038 C 
HETATM    3  C3  UNL     1     -41.504  13.666   5.158  1.00 20.00     0.042 C 
HETATM    4  C4  UNL     1     -42.591  14.604   5.694  1.00 20.00    -0.012 C 
HETATM    5  C5  UNL     1     -40.897  13.076   6.429  1.00 20.00     0.058 C 
ENDROOT
BRANCH   5   6
HETATM    6  C9  UNL     1     -39.554  12.402   6.191  1.00 20.00     0.037 C 
BRANCH   6   7
HETATM    7  C10 UNL     1     -39.658  11.312   5.126  1.00 20.00    -0.002 C 
HETATM    8  C7  UNL     1     -38.845  11.662   3.889  1.00 20.00     0.005 C 
ENDBRANCH   6   7
ENDBRANCH   5   6
BRANCH   5   9
HETATM    9  O11 UNL     1     -41.803  12.116   6.972  1.00 20.00    -0.390 OA
HETATM   10  H31 UNL     1     -42.611  12.600   7.198  1.00 20.00     0.210 HD
ENDBRANCH   5   9
BRANCH   4  11
HETATM   11  C8  UNL     1     -42.972  15.692   4.703  1.00 20.00     0.000 C 
HETATM   12  C6  UNL     1     -42.573  15.339   3.305  1.00 20.00     0.005 C 
ENDBRANCH   4  11
TORSDOF 4
ENDMDL
MODEL 9
REMARK VINA RESULT:      -3.9      9.357     10.788
REMARK  4 active torsions:
REMARK  status: ('A' for Active; 'I' for Inactive)
REMARK    1  A    between atoms: C4_4  and  C8_8 
REMARK    2  A    between atoms: C5_5  and  C9_9 
REMARK    3  A    between atoms: C5_5  and  O11_11 
REMARK    4  A    between atoms: C9_9  and  C10_10 
ROOT
HETATM    1  C1  UNL     1     -42.648  14.154   7.617  1.00 20.00     0.007 C 
HETATM    2  C2  UNL     1     -42.312  12.805   6.969  1.00 20.00     0.038 C 
HETATM    3  C3  UNL     1     -40.308  14.109   6.953  1.00 20.00     0.042 C 
HETATM    4  C4  UNL     1     -41.424  15.056   7.405  1.00 20.00    -0.012 C 
HETATM    5  C5  UNL     1     -41.054  13.056   6.136  1.00 20.00     0.058 C 
ENDROOT
BRANCH   5   6
HETATM    6  C9  UNL     1     -40.232  11.801   5.889  1.00 20.00     0.037 C 
BRANCH   6   7
HETATM    7  C10 UNL     1     -38.896  12.130   5.225  1.00 20.00    -0.002 C 
HETATM    8  C7  UNL     1     -38.833  11.597   3.803  1.00 20.00     0.005 C 
ENDBRANCH   6   7
ENDBRANCH   5   6
BRANCH   5   9
HETATM    9  O11 UNL     1     -41.420  13.621   4.878  1.00 20.00    -0.390 OA
HETATM   10  H31 UNL     1     -40.639  13.550   4.308  1.00 20.00     0.210 HD
ENDBRANCH   5   9
BRANCH   4  11
HETATM   11  C8  UNL     1     -41.052  15.860   8.640  1.00 20.00     0.000 C 
HETATM   12  C6  UNL     1     -40.212  15.067   9.590  1.00 20.00     0.005 C 
ENDBRANCH   4  11
TORSDOF 4
ENDMDL
