MODEL 1
REMARK VINA RESULT:      -6.0      0.000      0.000
REMARK  2 active torsions:
REMARK  status: ('A' for Active; 'I' for Inactive)
REMARK    1  A    between atoms: C8_8  and  C10_10 
REMARK    2  A    between atoms: C9_9  and  C10_10 
ROOT
HETATM    1  C1  UNL     1     -32.829   9.515   0.176  1.00 20.00     0.012 C 
HETATM    2  C2  UNL     1     -32.534   8.758   1.059  1.00 20.00    -0.117 C 
HETATM    3  C9  UNL     1     -32.169   7.828   2.136  1.00 20.00     0.093 C 
ENDROOT
BRANCH   3   4
HETATM    4  C10 UNL     1     -32.569   8.403   3.481  1.00 20.00     0.017 C 
BRANCH   4   5
HETATM    5  C8  UNL     1     -32.961   7.289   4.451  1.00 20.00    -0.007 C 
HETATM    6  C5  UNL     1     -33.737   6.189   3.723  1.00 20.00     0.082 C 
HETATM    7  C3  UNL     1     -34.219   5.139   4.698  1.00 20.00     0.127 C 
HETATM    8  C4  UNL     1     -34.957   5.641   5.918  1.00 20.00     0.078 C 
HETATM    9  O11 UNL     1     -34.106   3.938   4.462  1.00 20.00    -0.298 OA
HETATM   10  C6  UNL     1     -34.167   6.747   6.603  1.00 20.00     0.008 C 
HETATM   11  C7  UNL     1     -33.777   7.854   5.624  1.00 20.00     0.005 C 
ENDBRANCH   4   5
ENDBRANCH   3   4
TORSDOF 2
ENDMDL
MODEL 2
REMARK VINA RESULT:      -5.2      1.402      2.052
REMARK  2 active torsions:
REMARK  status: ('A' for Active; 'I' for Inactive)
REMARK    1  A    between atoms: C8_8  and  C10_10 
REMARK    2  A    between atoms: C9_9  and  C10_10 
ROOT
HETATM    1  C1  UNL     1     -32.791   9.520   0.299  1.00 20.00     0.012 C 
HETATM    2  C2  UNL     1     -32.510   8.613   1.033  1.00 20.00    -0.117 C 
HETATM    3  C9  UNL     1     -32.163   7.499   1.927  1.00 20.00     0.093 C 
ENDROOT
BRANCH   3   4
HETATM    4  C10 UNL     1     -32.183   7.962   3.370  1.00 20.00     0.017 C 
BRANCH   4   5
HETATM    5  C8  UNL     1     -33.347   7.325   4.127  1.00 20.00    -0.007 C 
HETATM    6  C5  UNL     1     -33.111   7.399   5.638  1.00 20.00     0.082 C 
HETATM    7  C3  UNL     1     -34.207   6.675   6.386  1.00 20.00     0.127 C 
HETATM    8  C4  UNL     1     -34.519   5.268   5.930  1.00 20.00     0.078 C 
HETATM    9  O11 UNL     1     -34.745   7.165   7.377  1.00 20.00    -0.298 OA
HETATM   10  C6  UNL     1     -34.725   5.229   4.422  1.00 20.00     0.008 C 
HETATM   11  C7  UNL     1     -33.558   5.873   3.675  1.00 20.00     0.005 C 
ENDBRANCH   4   5
ENDBRANCH   3   4
TORSDOF 2
ENDMDL
MODEL 3
REMARK VINA RESULT:      -4.6     11.739     12.350
REMARK  2 active torsions:
REMARK  status: ('A' for Active; 'I' for Inactive)
REMARK    1  A    between atoms: C8_8  and  C10_10 
REMARK    2  A    between atoms: C9_9  and  C10_10 
ROOT
HETATM    1  C1  UNL     1     -33.006  15.062  -4.181  1.00 20.00     0.012 C 
HETATM    2  C2  UNL     1     -33.314  15.929  -3.410  1.00 20.00    -0.117 C 
HETATM    3  C9  UNL     1     -33.693  16.986  -2.463  1.00 20.00     0.093 C 
ENDROOT
BRANCH   3   4
HETATM    4  C10 UNL     1     -32.683  18.116  -2.508  1.00 20.00     0.017 C 
BRANCH   4   5
HETATM    5  C8  UNL     1     -32.486  18.721  -1.119  1.00 20.00    -0.007 C 
HETATM    6  C5  UNL     1     -31.159  18.256  -0.513  1.00 20.00     0.082 C 
HETATM    7  C3  UNL     1     -31.010  18.766   0.903  1.00 20.00     0.127 C 
HETATM    8  C4  UNL     1     -32.175  18.520   1.834  1.00 20.00     0.078 C 
HETATM    9  O11 UNL     1     -29.959  19.263   1.303  1.00 20.00    -0.298 OA
HETATM   10  C6  UNL     1     -33.478  18.972   1.190  1.00 20.00     0.008 C 
HETATM   11  C7  UNL     1     -33.664  18.365  -0.200  1.00 20.00     0.005 C 
ENDBRANCH   4   5
ENDBRANCH   3   4
TORSDOF 2
ENDMDL
MODEL 4
REMARK VINA RESULT:      -4.4     11.549     12.700
REMARK  2 active torsions:
REMARK  status: ('A' for Active; 'I' for Inactive)
REMARK    1  A    between atoms: C8_8  and  C10_10 
REMARK    2  A    between atoms: C9_9  and  C10_10 
ROOT
HETATM    1  C1  UNL     1     -31.057  18.590   0.037  1.00 20.00     0.012 C 
HETATM    2  C2  UNL     1     -32.062  18.258  -0.529  1.00 20.00    -0.117 C 
HETATM    3  C9  UNL     1     -33.294  17.851  -1.218  1.00 20.00     0.093 C 
ENDROOT
BRANCH   3   4
HETATM    4  C10 UNL     1     -33.206  18.189  -2.693  1.00 20.00     0.017 C 
BRANCH   4   5
HETATM    5  C8  UNL     1     -34.014  17.196  -3.525  1.00 20.00    -0.007 C 
HETATM    6  C5  UNL     1     -33.358  15.813  -3.499  1.00 20.00     0.082 C 
HETATM    7  C3  UNL     1     -34.094  14.854  -4.408  1.00 20.00     0.127 C 
HETATM    8  C4  UNL     1     -34.355  15.329  -5.818  1.00 20.00     0.078 C 
HETATM    9  O11 UNL     1     -34.373  13.711  -4.050  1.00 20.00    -0.298 OA
HETATM   10  C6  UNL     1     -34.986  16.715  -5.807  1.00 20.00     0.008 C 
HETATM   11  C7  UNL     1     -34.173  17.700  -4.968  1.00 20.00     0.005 C 
ENDBRANCH   4   5
ENDBRANCH   3   4
TORSDOF 2
ENDMDL
MODEL 5
REMARK VINA RESULT:      -4.4     11.953     13.219
REMARK  2 active torsions:
REMARK  status: ('A' for Active; 'I' for Inactive)
REMARK    1  A    between atoms: C8_8  and  C10_10 
REMARK    2  A    between atoms: C9_9  and  C10_10 
ROOT
HETATM    1  C1  UNL     1     -31.031  18.508   0.182  1.00 20.00     0.012 C 
HETATM    2  C2  UNL     1     -31.818  18.465  -0.724  1.00 20.00    -0.117 C 
HETATM    3  C9  UNL     1     -32.778  18.417  -1.835  1.00 20.00     0.093 C 
ENDROOT
BRANCH   3   4
HETATM    4  C10 UNL     1     -33.262  16.996  -2.048  1.00 20.00     0.017 C 
BRANCH   4   5
HETATM    5  C8  UNL     1     -33.365  16.677  -3.538  1.00 20.00    -0.007 C 
HETATM    6  C5  UNL     1     -34.419  17.564  -4.206  1.00 20.00     0.082 C 
HETATM    7  C3  UNL     1     -34.601  17.178  -5.657  1.00 20.00     0.127 C 
HETATM    8  C4  UNL     1     -34.833  15.711  -5.940  1.00 20.00     0.078 C 
HETATM    9  O11 UNL     1     -34.659  18.023  -6.548  1.00 20.00    -0.298 OA
HETATM   10  C6  UNL     1     -33.782  14.860  -5.242  1.00 20.00     0.008 C 
HETATM   11  C7  UNL     1     -33.683  15.190  -3.753  1.00 20.00     0.005 C 
ENDBRANCH   4   5
ENDBRANCH   3   4
TORSDOF 2
ENDMDL
MODEL 6
REMARK VINA RESULT:      -4.4     11.857     12.733
REMARK  2 active torsions:
REMARK  status: ('A' for Active; 'I' for Inactive)
REMARK    1  A    between atoms: C8_8  and  C10_10 
REMARK    2  A    between atoms: C9_9  and  C10_10 
ROOT
HETATM    1  C1  UNL     1     -30.438  18.560   1.880  1.00 20.00     0.012 C 
HETATM    2  C2  UNL     1     -31.041  18.513   0.843  1.00 20.00    -0.117 C 
HETATM    3  C9  UNL     1     -31.775  18.455  -0.428  1.00 20.00     0.093 C 
ENDROOT
BRANCH   3   4
HETATM    4  C10 UNL     1     -33.258  18.276  -0.168  1.00 20.00     0.017 C 
BRANCH   4   5
HETATM    5  C8  UNL     1     -33.964  17.734  -1.410  1.00 20.00    -0.007 C 
HETATM    6  C5  UNL     1     -32.985  16.945  -2.283  1.00 20.00     0.082 C 
HETATM    7  C3  UNL     1     -33.653  16.498  -3.564  1.00 20.00     0.127 C 
HETATM    8  C4  UNL     1     -34.383  17.562  -4.351  1.00 20.00     0.078 C 
HETATM    9  O11 UNL     1     -33.524  15.353  -3.995  1.00 20.00    -0.298 OA
HETATM   10  C6  UNL     1     -35.328  18.341  -3.447  1.00 20.00     0.008 C 
HETATM   11  C7  UNL     1     -34.614  18.875  -2.206  1.00 20.00     0.005 C 
ENDBRANCH   4   5
ENDBRANCH   3   4
TORSDOF 2
ENDMDL
MODEL 7
REMARK VINA RESULT:      -4.3     11.779     12.877
REMARK  2 active torsions:
REMARK  status: ('A' for Active; 'I' for Inactive)
REMARK    1  A    between atoms: C8_8  and  C10_10 
REMARK    2  A    between atoms: C9_9  and  C10_10 
ROOT
HETATM    1  C1  UNL     1     -31.130  18.519  -0.077  1.00 20.00     0.012 C 
HETATM    2  C2  UNL     1     -32.133  18.196  -0.654  1.00 20.00    -0.117 C 
HETATM    3  C9  UNL     1     -33.362  17.800  -1.354  1.00 20.00     0.093 C 
ENDROOT
BRANCH   3   4
HETATM    4  C10 UNL     1     -33.374  18.376  -2.756  1.00 20.00     0.017 C 
BRANCH   4   5
HETATM    5  C8  UNL     1     -33.437  17.262  -3.799  1.00 20.00    -0.007 C 
HETATM    6  C5  UNL     1     -34.739  17.348  -4.601  1.00 20.00     0.082 C 
HETATM    7  C3  UNL     1     -34.854  16.184  -5.560  1.00 20.00     0.127 C 
HETATM    8  C4  UNL     1     -34.638  14.807  -4.977  1.00 20.00     0.078 C 
HETATM    9  O11 UNL     1     -35.204  16.342  -6.727  1.00 20.00    -0.298 OA
HETATM   10  C6  UNL     1     -33.349  14.765  -4.169  1.00 20.00     0.008 C 
HETATM   11  C7  UNL     1     -33.293  15.886  -3.132  1.00 20.00     0.005 C 
ENDBRANCH   4   5
ENDBRANCH   3   4
TORSDOF 2
ENDMDL
MODEL 8
REMARK VINA RESULT:      -4.2     11.810     13.394
REMARK  2 active torsions:
REMARK  status: ('A' for Active; 'I' for Inactive)
REMARK    1  A    between atoms: C8_8  and  C10_10 
REMARK    2  A    between atoms: C9_9  and  C10_10 
ROOT
HETATM    1  C1  UNL     1     -33.844  17.728  -0.487  1.00 20.00     0.012 C 
HETATM    2  C2  UNL     1     -33.476  17.520  -1.611  1.00 20.00    -0.117 C 
HETATM    3  C9  UNL     1     -33.022  17.270  -2.986  1.00 20.00     0.093 C 
ENDROOT
BRANCH   3   4
HETATM    4  C10 UNL     1     -33.506  15.913  -3.458  1.00 20.00     0.017 C 
BRANCH   4   5
HETATM    5  C8  UNL     1     -34.551  16.066  -4.563  1.00 20.00    -0.007 C 
HETATM    6  C5  UNL     1     -34.388  14.964  -5.613  1.00 20.00     0.082 C 
HETATM    7  C3  UNL     1     -35.350  15.174  -6.761  1.00 20.00     0.127 C 
HETATM    8  C4  UNL     1     -35.366  16.551  -7.383  1.00 20.00     0.078 C 
HETATM    9  O11 UNL     1     -36.008  14.248  -7.230  1.00 20.00    -0.298 OA
HETATM   10  C6  UNL     1     -35.506  17.621  -6.309  1.00 20.00     0.008 C 
HETATM   11  C7  UNL     1     -34.460  17.457  -5.207  1.00 20.00     0.005 C 
ENDBRANCH   4   5
ENDBRANCH   3   4
TORSDOF 2
ENDMDL
MODEL 9
REMARK VINA RESULT:      -4.2     10.241     11.244
REMARK  2 active torsions:
REMARK  status: ('A' for Active; 'I' for Inactive)
REMARK    1  A    between atoms: C8_8  and  C10_10 
REMARK    2  A    between atoms: C9_9  and  C10_10 
ROOT
HETATM    1  C1  UNL     1     -38.952  11.682   3.805  1.00 20.00     0.012 C 
HETATM    2  C2  UNL     1     -39.341  11.857   4.927  1.00 20.00    -0.117 C 
HETATM    3  C9  UNL     1     -39.811  12.072   6.302  1.00 20.00     0.093 C 
ENDROOT
BRANCH   3   4
HETATM    4  C10 UNL     1     -41.274  12.470   6.299  1.00 20.00     0.017 C 
BRANCH   4   5
HETATM    5  C8  UNL     1     -41.479  13.788   7.043  1.00 20.00    -0.007 C 
HETATM    6  C5  UNL     1     -41.836  14.909   6.064  1.00 20.00     0.082 C 
HETATM    7  C3  UNL     1     -41.934  16.236   6.782  1.00 20.00     0.127 C 
HETATM    8  C4  UNL     1     -40.769  16.609   7.670  1.00 20.00     0.078 C 
HETATM    9  O11 UNL     1     -42.863  17.015   6.577  1.00 20.00    -0.298 OA
HETATM   10  C6  UNL     1     -40.427  15.464   8.613  1.00 20.00     0.008 C 
HETATM   11  C7  UNL     1     -40.229  14.150   7.860  1.00 20.00     0.005 C 
ENDBRANCH   4   5
ENDBRANCH   3   4
TORSDOF 2
ENDMDL
