MODEL 1
REMARK VINA RESULT:      -4.9      0.000      0.000
REMARK  1 active torsions:
REMARK  status: ('A' for Active; 'I' for Inactive)
REMARK    1  A    between atoms: C5_5  and  C8_8 
ROOT
HETATM    1  C1  UNL     1     -33.168   5.393   3.292  1.00 20.00     0.007 C 
HETATM    2  C2  UNL     1     -32.537   6.655   2.699  1.00 20.00     0.041 C 
HETATM    3  C3  UNL     1     -33.769   7.201   4.769  1.00 20.00     0.045 C 
HETATM    4  C4  UNL     1     -32.435   9.143   3.573  1.00 20.00     0.207 A 
HETATM    5  C5  UNL     1     -34.344   5.931   4.117  1.00 20.00    -0.012 C 
HETATM    6  C6  UNL     1     -32.775   7.686   3.757  1.00 20.00     0.083 A 
HETATM    7  O9  UNL     1     -31.587   8.260   4.318  1.00 20.00    -0.375 OA
ENDROOT
BRANCH   5   8
HETATM    8  C8  UNL     1     -34.871   4.927   5.127  1.00 20.00     0.000 C 
HETATM    9  C7  UNL     1     -34.590   5.346   6.536  1.00 20.00     0.005 C 
ENDBRANCH   5   8
TORSDOF 1
ENDMDL
MODEL 2
REMARK VINA RESULT:      -4.3      1.818      3.816
REMARK  1 active torsions:
REMARK  status: ('A' for Active; 'I' for Inactive)
REMARK    1  A    between atoms: C5_5  and  C8_8 
ROOT
HETATM    1  C1  UNL     1     -32.876   6.113   2.686  1.00 20.00     0.007 C 
HETATM    2  C2  UNL     1     -33.469   5.097   3.666  1.00 20.00     0.041 C 
HETATM    3  C3  UNL     1     -33.709   7.390   4.553  1.00 20.00     0.045 C 
HETATM    4  C4  UNL     1     -34.769   5.407   5.941  1.00 20.00     0.207 A 
HETATM    5  C5  UNL     1     -32.522   7.310   3.578  1.00 20.00    -0.012 C 
HETATM    6  C6  UNL     1     -34.139   5.960   4.689  1.00 20.00     0.083 A 
HETATM    7  O9  UNL     1     -35.556   5.773   4.801  1.00 20.00    -0.375 OA
ENDROOT
BRANCH   5   8
HETATM    8  C8  UNL     1     -32.304   8.592   2.794  1.00 20.00     0.000 C 
HETATM    9  C7  UNL     1     -32.178   8.336   1.325  1.00 20.00     0.005 C 
ENDBRANCH   5   8
TORSDOF 1
ENDMDL
MODEL 3
REMARK VINA RESULT:      -3.8      1.787      3.978
REMARK  1 active torsions:
REMARK  status: ('A' for Active; 'I' for Inactive)
REMARK    1  A    between atoms: C5_5  and  C8_8 
ROOT
HETATM    1  C1  UNL     1     -32.650   8.357   4.862  1.00 20.00     0.007 C 
HETATM    2  C2  UNL     1     -33.686   7.916   5.898  1.00 20.00     0.041 C 
HETATM    3  C3  UNL     1     -33.496   6.233   4.100  1.00 20.00     0.045 C 
HETATM    4  C4  UNL     1     -35.099   5.700   6.133  1.00 20.00     0.207 A 
HETATM    5  C5  UNL     1     -33.080   7.621   3.586  1.00 20.00    -0.012 C 
HETATM    6  C6  UNL     1     -34.016   6.518   5.477  1.00 20.00     0.083 A 
HETATM    7  O9  UNL     1     -33.714   5.508   6.449  1.00 20.00    -0.375 OA
ENDROOT
BRANCH   5   8
HETATM    8  C8  UNL     1     -31.986   7.567   2.534  1.00 20.00     0.000 C 
HETATM    9  C7  UNL     1     -32.318   8.401   1.336  1.00 20.00     0.005 C 
ENDBRANCH   5   8
TORSDOF 1
ENDMDL
MODEL 4
REMARK VINA RESULT:      -3.8      1.374      2.277
REMARK  1 active torsions:
REMARK  status: ('A' for Active; 'I' for Inactive)
REMARK    1  A    between atoms: C5_5  and  C8_8 
ROOT
HETATM    1  C1  UNL     1     -33.163   8.637   5.852  1.00 20.00     0.007 C 
HETATM    2  C2  UNL     1     -32.227   9.035   4.708  1.00 20.00     0.041 C 
HETATM    3  C3  UNL     1     -33.424   6.946   4.155  1.00 20.00     0.045 C 
HETATM    4  C4  UNL     1     -31.834   7.987   2.318  1.00 20.00     0.207 A 
HETATM    5  C5  UNL     1     -33.320   7.121   5.679  1.00 20.00    -0.012 C 
HETATM    6  C6  UNL     1     -32.586   8.069   3.622  1.00 20.00     0.083 A 
HETATM    7  O9  UNL     1     -33.090   8.670   2.422  1.00 20.00    -0.375 OA
ENDROOT
BRANCH   5   8
HETATM    8  C8  UNL     1     -34.514   6.558   6.430  1.00 20.00     0.000 C 
HETATM    9  C7  UNL     1     -34.805   5.143   6.039  1.00 20.00     0.005 C 
ENDBRANCH   5   8
TORSDOF 1
ENDMDL
MODEL 5
REMARK VINA RESULT:      -3.7     12.237     12.831
REMARK  1 active torsions:
REMARK  status: ('A' for Active; 'I' for Inactive)
REMARK    1  A    between atoms: C5_5  and  C8_8 
ROOT
HETATM    1  C1  UNL     1     -33.133  18.505   0.910  1.00 20.00     0.007 C 
HETATM    2  C2  UNL     1     -34.186  18.171  -0.149  1.00 20.00     0.041 C 
HETATM    3  C3  UNL     1     -31.951  18.358  -1.185  1.00 20.00     0.045 C 
HETATM    4  C4  UNL     1     -33.975  17.640  -2.726  1.00 20.00     0.207 A 
HETATM    5  C5  UNL     1     -32.018  19.188   0.108  1.00 20.00    -0.012 C 
HETATM    6  C6  UNL     1     -33.366  17.897  -1.371  1.00 20.00     0.083 A 
HETATM    7  O9  UNL     1     -33.496  16.571  -1.901  1.00 20.00    -0.375 OA
ENDROOT
BRANCH   5   8
HETATM    8  C8  UNL     1     -30.696  19.241   0.854  1.00 20.00     0.000 C 
HETATM    9  C7  UNL     1     -30.656  18.272   1.994  1.00 20.00     0.005 C 
ENDBRANCH   5   8
TORSDOF 1
ENDMDL
MODEL 6
REMARK VINA RESULT:      -3.7     12.208     13.152
REMARK  1 active torsions:
REMARK  status: ('A' for Active; 'I' for Inactive)
REMARK    1  A    between atoms: C5_5  and  C8_8 
ROOT
HETATM    1  C1  UNL     1     -34.681  17.899  -3.608  1.00 20.00     0.007 C 
HETATM    2  C2  UNL     1     -34.775  17.327  -5.024  1.00 20.00     0.041 C 
HETATM    3  C3  UNL     1     -33.527  15.784  -3.553  1.00 20.00     0.045 C 
HETATM    4  C4  UNL     1     -33.998  15.018  -6.039  1.00 20.00     0.207 A 
HETATM    5  C5  UNL     1     -33.429  17.226  -3.030  1.00 20.00    -0.012 C 
HETATM    6  C6  UNL     1     -34.225  15.943  -4.871  1.00 20.00     0.083 A 
HETATM    7  O9  UNL     1     -35.144  14.890  -5.189  1.00 20.00    -0.375 OA
ENDROOT
BRANCH   5   8
HETATM    8  C8  UNL     1     -33.356  17.309  -1.515  1.00 20.00     0.000 C 
HETATM    9  C7  UNL     1     -32.256  18.215  -1.055  1.00 20.00     0.005 C 
ENDBRANCH   5   8
TORSDOF 1
ENDMDL
MODEL 7
REMARK VINA RESULT:      -3.6     10.020     10.770
REMARK  1 active torsions:
REMARK  status: ('A' for Active; 'I' for Inactive)
REMARK    1  A    between atoms: C5_5  and  C8_8 
ROOT
HETATM    1  C1  UNL     1     -41.122  13.343   4.873  1.00 20.00     0.007 C 
HETATM    2  C2  UNL     1     -42.196  14.159   5.595  1.00 20.00     0.041 C 
HETATM    3  C3  UNL     1     -40.337  13.633   7.134  1.00 20.00     0.045 C 
HETATM    4  C4  UNL     1     -42.293  15.166   8.032  1.00 20.00     0.207 A 
HETATM    5  C5  UNL     1     -40.420  12.587   6.009  1.00 20.00    -0.012 C 
HETATM    6  C6  UNL     1     -41.560  14.471   6.913  1.00 20.00     0.083 A 
HETATM    7  O9  UNL     1     -41.380  15.869   7.181  1.00 20.00    -0.375 OA
ENDROOT
BRANCH   5   8
HETATM    8  C8  UNL     1     -39.064  12.034   5.605  1.00 20.00     0.000 C 
HETATM    9  C7  UNL     1     -39.018  11.664   4.156  1.00 20.00     0.005 C 
ENDBRANCH   5   8
TORSDOF 1
ENDMDL
MODEL 8
REMARK VINA RESULT:      -3.5     12.325     13.455
REMARK  1 active torsions:
REMARK  status: ('A' for Active; 'I' for Inactive)
REMARK    1  A    between atoms: C5_5  and  C8_8 
ROOT
HETATM    1  C1  UNL     1     -35.035  17.541  -4.130  1.00 20.00     0.007 C 
HETATM    2  C2  UNL     1     -35.685  17.220  -5.478  1.00 20.00     0.041 C 
HETATM    3  C3  UNL     1     -34.374  15.288  -4.673  1.00 20.00     0.045 C 
HETATM    4  C4  UNL     1     -35.748  15.007  -6.912  1.00 20.00     0.207 A 
HETATM    5  C5  UNL     1     -33.828  16.597  -4.078  1.00 20.00    -0.012 C 
HETATM    6  C6  UNL     1     -35.405  15.761  -5.653  1.00 20.00     0.083 A 
HETATM    7  O9  UNL     1     -36.570  14.929  -5.741  1.00 20.00    -0.375 OA
ENDROOT
BRANCH   5   8
HETATM    8  C8  UNL     1     -33.265  16.428  -2.677  1.00 20.00     0.000 C 
HETATM    9  C7  UNL     1     -33.768  17.481  -1.740  1.00 20.00     0.005 C 
ENDBRANCH   5   8
TORSDOF 1
ENDMDL
MODEL 9
REMARK VINA RESULT:      -3.4      1.675      3.353
REMARK  1 active torsions:
REMARK  status: ('A' for Active; 'I' for Inactive)
REMARK    1  A    between atoms: C5_5  and  C8_8 
ROOT
HETATM    1  C1  UNL     1     -34.321   6.117   5.565  1.00 20.00     0.007 C 
HETATM    2  C2  UNL     1     -34.461   5.043   4.484  1.00 20.00     0.041 C 
HETATM    3  C3  UNL     1     -33.060   6.907   3.668  1.00 20.00     0.045 C 
HETATM    4  C4  UNL     1     -33.378   4.813   2.089  1.00 20.00     0.207 A 
HETATM    5  C5  UNL     1     -34.019   7.393   4.769  1.00 20.00    -0.012 C 
HETATM    6  C6  UNL     1     -33.503   5.496   3.427  1.00 20.00     0.083 A 
HETATM    7  O9  UNL     1     -32.438   4.578   3.145  1.00 20.00    -0.375 OA
ENDROOT
BRANCH   5   8
HETATM    8  C8  UNL     1     -33.434   8.503   5.624  1.00 20.00     0.000 C 
HETATM    9  C7  UNL     1     -32.223   9.118   4.996  1.00 20.00     0.005 C 
ENDBRANCH   5   8
TORSDOF 1
ENDMDL
