MODEL 1
REMARK VINA RESULT:      -4.7      0.000      0.000
REMARK  1 active torsions:
REMARK  status: ('A' for Active; 'I' for Inactive)
REMARK    1  A    between atoms: C4_4  and  C7_7 
ROOT
HETATM    1  C1  UNL     1     -34.436   5.926   5.943  1.00 20.00     0.006 C 
HETATM    2  C2  UNL     1     -33.781   7.228   6.413  1.00 20.00     0.020 C 
HETATM    3  C3  UNL     1     -33.338   7.028   4.077  1.00 20.00     0.024 C 
HETATM    4  C4  UNL     1     -34.352   5.931   4.408  1.00 20.00    -0.013 C 
HETATM    5  C5  UNL     1     -33.626   8.066   5.152  1.00 20.00     0.082 C 
HETATM    6 CL8  UNL     1     -32.334   9.267   5.292  1.00 20.00    -0.125 Cl
ENDROOT
BRANCH   4   7
HETATM    7  C7  UNL     1     -33.978   4.580   3.822  1.00 20.00     0.000 C 
HETATM    8  C6  UNL     1     -33.013   4.714   2.688  1.00 20.00     0.005 C 
ENDBRANCH   4   7
TORSDOF 1
ENDMDL
MODEL 2
REMARK VINA RESULT:      -4.6      1.921      2.790
REMARK  1 active torsions:
REMARK  status: ('A' for Active; 'I' for Inactive)
REMARK    1  A    between atoms: C4_4  and  C7_7 
ROOT
HETATM    1  C1  UNL     1     -33.063   8.533   5.720  1.00 20.00     0.006 C 
HETATM    2  C2  UNL     1     -32.237   8.754   4.449  1.00 20.00     0.020 C 
HETATM    3  C3  UNL     1     -33.576   6.813   4.083  1.00 20.00     0.024 C 
HETATM    4  C4  UNL     1     -34.086   7.437   5.384  1.00 20.00    -0.013 C 
HETATM    5  C5  UNL     1     -32.999   8.018   3.355  1.00 20.00     0.082 C 
HETATM    6 CL8  UNL     1     -31.957   7.552   2.003  1.00 20.00    -0.125 Cl
ENDROOT
BRANCH   4   7
HETATM    7  C7  UNL     1     -34.265   6.420   6.500  1.00 20.00     0.000 C 
HETATM    8  C6  UNL     1     -34.608   5.065   5.968  1.00 20.00     0.005 C 
ENDBRANCH   4   7
TORSDOF 1
ENDMDL
MODEL 3
REMARK VINA RESULT:      -4.4      2.224      3.488
REMARK  1 active torsions:
REMARK  status: ('A' for Active; 'I' for Inactive)
REMARK    1  A    between atoms: C4_4  and  C7_7 
ROOT
HETATM    1  C1  UNL     1     -32.793   7.858   4.449  1.00 20.00     0.006 C 
HETATM    2  C2  UNL     1     -32.216   7.107   3.245  1.00 20.00     0.020 C 
HETATM    3  C3  UNL     1     -33.990   5.771   4.117  1.00 20.00     0.024 C 
HETATM    4  C4  UNL     1     -34.076   7.112   4.848  1.00 20.00    -0.013 C 
HETATM    5  C5  UNL     1     -33.326   6.162   2.805  1.00 20.00     0.082 C 
HETATM    6 CL8  UNL     1     -32.708   4.761   1.918  1.00 20.00    -0.125 Cl
ENDROOT
BRANCH   4   7
HETATM    7  C7  UNL     1     -34.239   6.959   6.351  1.00 20.00     0.000 C 
HETATM    8  C6  UNL     1     -34.506   5.541   6.741  1.00 20.00     0.005 C 
ENDBRANCH   4   7
TORSDOF 1
ENDMDL
MODEL 4
REMARK VINA RESULT:      -4.3      2.336      3.283
REMARK  1 active torsions:
REMARK  status: ('A' for Active; 'I' for Inactive)
REMARK    1  A    between atoms: C4_4  and  C7_7 
ROOT
HETATM    1  C1  UNL     1     -32.539   8.678   4.248  1.00 20.00     0.006 C 
HETATM    2  C2  UNL     1     -33.522   8.134   5.288  1.00 20.00     0.020 C 
HETATM    3  C3  UNL     1     -33.300   6.465   3.597  1.00 20.00     0.024 C 
HETATM    4  C4  UNL     1     -32.222   7.509   3.301  1.00 20.00    -0.013 C 
HETATM    5  C5  UNL     1     -33.497   6.623   5.098  1.00 20.00     0.082 C 
HETATM    6 CL8  UNL     1     -34.980   5.845   5.669  1.00 20.00    -0.125 Cl
ENDROOT
BRANCH   4   7
HETATM    7  C7  UNL     1     -32.176   7.917   1.838  1.00 20.00     0.000 C 
HETATM    8  C6  UNL     1     -32.772   9.271   1.619  1.00 20.00     0.005 C 
ENDBRANCH   4   7
TORSDOF 1
ENDMDL
MODEL 5
REMARK VINA RESULT:      -4.3      2.131      3.396
REMARK  1 active torsions:
REMARK  status: ('A' for Active; 'I' for Inactive)
REMARK    1  A    between atoms: C4_4  and  C7_7 
ROOT
HETATM    1  C1  UNL     1     -33.263   5.377   3.187  1.00 20.00     0.006 C 
HETATM    2  C2  UNL     1     -33.948   4.571   4.296  1.00 20.00     0.020 C 
HETATM    3  C3  UNL     1     -33.894   6.845   5.017  1.00 20.00     0.024 C 
HETATM    4  C4  UNL     1     -33.451   6.858   3.553  1.00 20.00    -0.013 C 
HETATM    5  C5  UNL     1     -34.759   5.595   5.080  1.00 20.00     0.082 C 
HETATM    6 CL8  UNL     1     -35.075   5.077   6.741  1.00 20.00    -0.125 Cl
ENDROOT
BRANCH   4   7
HETATM    7  C7  UNL     1     -32.206   7.697   3.317  1.00 20.00     0.000 C 
HETATM    8  C6  UNL     1     -32.053   8.769   4.348  1.00 20.00     0.005 C 
ENDBRANCH   4   7
TORSDOF 1
ENDMDL
MODEL 6
REMARK VINA RESULT:      -4.1      1.855      3.252
REMARK  1 active torsions:
REMARK  status: ('A' for Active; 'I' for Inactive)
REMARK    1  A    between atoms: C4_4  and  C7_7 
ROOT
HETATM    1  C1  UNL     1     -33.432   5.799   4.003  1.00 20.00     0.006 C 
HETATM    2  C2  UNL     1     -33.018   6.127   2.566  1.00 20.00     0.020 C 
HETATM    3  C3  UNL     1     -32.779   8.133   3.836  1.00 20.00     0.024 C 
HETATM    4  C4  UNL     1     -33.046   7.021   4.852  1.00 20.00    -0.013 C 
HETATM    5  C5  UNL     1     -32.143   7.368   2.684  1.00 20.00     0.082 C 
HETATM    6 CL8  UNL     1     -32.105   8.313   1.188  1.00 20.00    -0.125 Cl
ENDROOT
BRANCH   4   7
HETATM    7  C7  UNL     1     -34.102   7.397   5.879  1.00 20.00     0.000 C 
HETATM    8  C6  UNL     1     -34.704   6.191   6.525  1.00 20.00     0.005 C 
ENDBRANCH   4   7
TORSDOF 1
ENDMDL
MODEL 7
REMARK VINA RESULT:      -3.9      1.361      2.731
REMARK  1 active torsions:
REMARK  status: ('A' for Active; 'I' for Inactive)
REMARK    1  A    between atoms: C4_4  and  C7_7 
ROOT
HETATM    1  C1  UNL     1     -33.029   5.480   2.936  1.00 20.00     0.006 C 
HETATM    2  C2  UNL     1     -32.558   6.794   2.306  1.00 20.00     0.020 C 
HETATM    3  C3  UNL     1     -33.483   7.334   4.438  1.00 20.00     0.024 C 
HETATM    4  C4  UNL     1     -33.397   5.807   4.392  1.00 20.00    -0.013 C 
HETATM    5  C5  UNL     1     -32.376   7.748   3.480  1.00 20.00     0.082 C 
HETATM    6 CL8  UNL     1     -32.502   9.445   2.998  1.00 20.00    -0.125 Cl
ENDROOT
BRANCH   4   7
HETATM    7  C7  UNL     1     -34.673   5.125   4.857  1.00 20.00     0.000 C 
HETATM    8  C6  UNL     1     -34.890   5.295   6.326  1.00 20.00     0.005 C 
ENDBRANCH   4   7
TORSDOF 1
ENDMDL
MODEL 8
REMARK VINA RESULT:      -3.5      2.227      3.541
REMARK  1 active torsions:
REMARK  status: ('A' for Active; 'I' for Inactive)
REMARK    1  A    between atoms: C4_4  and  C7_7 
ROOT
HETATM    1  C1  UNL     1     -34.688   6.294   5.496  1.00 20.00     0.006 C 
HETATM    2  C2  UNL     1     -34.791   5.263   4.368  1.00 20.00     0.020 C 
HETATM    3  C3  UNL     1     -32.933   6.670   3.860  1.00 20.00     0.024 C 
HETATM    4  C4  UNL     1     -33.357   7.033   5.284  1.00 20.00    -0.013 C 
HETATM    5  C5  UNL     1     -33.404   5.228   3.741  1.00 20.00     0.082 C 
HETATM    6 CL8  UNL     1     -33.434   4.664   2.065  1.00 20.00    -0.125 Cl
ENDROOT
BRANCH   4   7
HETATM    7  C7  UNL     1     -33.460   8.532   5.509  1.00 20.00     0.000 C 
HETATM    8  C6  UNL     1     -32.343   9.272   4.846  1.00 20.00     0.005 C 
ENDBRANCH   4   7
TORSDOF 1
ENDMDL
MODEL 9
REMARK VINA RESULT:      -3.5     12.299     12.965
REMARK  1 active torsions:
REMARK  status: ('A' for Active; 'I' for Inactive)
REMARK    1  A    between atoms: C4_4  and  C7_7 
ROOT
HETATM    1  C1  UNL     1     -33.837  18.652  -0.303  1.00 20.00     0.006 C 
HETATM    2  C2  UNL     1     -33.135  18.524   1.053  1.00 20.00     0.020 C 
HETATM    3  C3  UNL     1     -31.438  18.442  -0.622  1.00 20.00     0.024 C 
HETATM    4  C4  UNL     1     -32.725  18.840  -1.347  1.00 20.00    -0.013 C 
HETATM    5  C5  UNL     1     -31.695  18.946   0.790  1.00 20.00     0.082 C 
HETATM    6 CL8  UNL     1     -30.565  18.263   1.967  1.00 20.00    -0.125 Cl
ENDROOT
BRANCH   4   7
HETATM    7  C7  UNL     1     -32.958  18.047  -2.622  1.00 20.00     0.000 C 
HETATM    8  C6  UNL     1     -33.437  16.660  -2.334  1.00 20.00     0.005 C 
ENDBRANCH   4   7
TORSDOF 1
ENDMDL
