MODEL 1
REMARK VINA RESULT:      -4.5      0.000      0.000
REMARK  2 active torsions:
REMARK  status: ('A' for Active; 'I' for Inactive)
REMARK    1  A    between atoms: C5_5  and  C8_8 
REMARK    2  A    between atoms: C8_8  and  C9_9 
ROOT
HETATM    1  C1  UNL     1     -33.745   8.490   5.658  1.00 20.00     0.002 C 
HETATM    2  C2  UNL     1     -32.378   8.598   4.996  1.00 20.00     0.005 C 
HETATM    3  C3  UNL     1     -34.173   7.034   5.874  1.00 20.00     0.020 C 
HETATM    4  C4  UNL     1     -33.312   6.716   3.522  1.00 20.00     0.024 C 
HETATM    5  C5  UNL     1     -32.337   7.907   3.619  1.00 20.00    -0.013 C 
HETATM    6  C6  UNL     1     -33.522   6.062   4.884  1.00 20.00     0.082 C 
HETATM    7 CL10 UNL     1     -34.520   4.590   4.725  1.00 20.00    -0.125 Cl
ENDROOT
BRANCH   5   8
HETATM    8  C8  UNL     1     -32.602   8.899   2.486  1.00 20.00     0.004 C 
BRANCH   8   9
HETATM    9  C9  UNL     1     -32.135   8.344   1.145  1.00 20.00    -0.004 C 
HETATM   10  C7  UNL     1     -32.800   9.070  -0.013  1.00 20.00     0.005 C 
ENDBRANCH   8   9
ENDBRANCH   5   8
TORSDOF 2
ENDMDL
MODEL 2
REMARK VINA RESULT:      -4.0     11.233     12.378
REMARK  2 active torsions:
REMARK  status: ('A' for Active; 'I' for Inactive)
REMARK    1  A    between atoms: C5_5  and  C8_8 
REMARK    2  A    between atoms: C8_8  and  C9_9 
ROOT
HETATM    1  C1  UNL     1     -34.167  14.402  -4.183  1.00 20.00     0.002 C 
HETATM    2  C2  UNL     1     -32.938  15.278  -3.979  1.00 20.00     0.005 C 
HETATM    3  C3  UNL     1     -35.068  14.919  -5.310  1.00 20.00     0.020 C 
HETATM    4  C4  UNL     1     -34.651  17.169  -4.245  1.00 20.00     0.024 C 
HETATM    5  C5  UNL     1     -33.306  16.733  -3.631  1.00 20.00    -0.013 C 
HETATM    6  C6  UNL     1     -34.930  16.427  -5.547  1.00 20.00     0.082 C 
HETATM    7 CL10 UNL     1     -36.406  17.061  -6.327  1.00 20.00    -0.125 Cl
ENDROOT
BRANCH   5   8
HETATM    8  C8  UNL     1     -33.317  16.961  -2.119  1.00 20.00     0.004 C 
BRANCH   8   9
HETATM    9  C9  UNL     1     -32.875  18.378  -1.771  1.00 20.00    -0.004 C 
HETATM   10  C7  UNL     1     -31.790  18.371  -0.707  1.00 20.00     0.005 C 
ENDBRANCH   8   9
ENDBRANCH   5   8
TORSDOF 2
ENDMDL
MODEL 3
REMARK VINA RESULT:      -3.9     11.230     12.229
REMARK  2 active torsions:
REMARK  status: ('A' for Active; 'I' for Inactive)
REMARK    1  A    between atoms: C5_5  and  C8_8 
REMARK    2  A    between atoms: C8_8  and  C9_9 
ROOT
HETATM    1  C1  UNL     1     -34.660  18.725  -3.571  1.00 20.00     0.002 C 
HETATM    2  C2  UNL     1     -35.038  18.538  -2.107  1.00 20.00     0.005 C 
HETATM    3  C3  UNL     1     -34.313  17.398  -4.255  1.00 20.00     0.020 C 
HETATM    4  C4  UNL     1     -33.020  16.954  -2.133  1.00 20.00     0.024 C 
HETATM    5  C5  UNL     1     -33.905  17.891  -1.288  1.00 20.00    -0.013 C 
HETATM    6  C6  UNL     1     -33.812  16.329  -3.277  1.00 20.00     0.082 C 
HETATM    7 CL10 UNL     1     -32.819  15.124  -4.143  1.00 20.00    -0.125 Cl
ENDROOT
BRANCH   5   8
HETATM    8  C8  UNL     1     -33.043  18.946  -0.593  1.00 20.00     0.004 C 
BRANCH   8   9
HETATM    9  C9  UNL     1     -31.567  18.565  -0.628  1.00 20.00    -0.004 C 
HETATM   10  C7  UNL     1     -30.991  18.462   0.774  1.00 20.00     0.005 C 
ENDBRANCH   8   9
ENDBRANCH   5   8
TORSDOF 2
ENDMDL
MODEL 4
REMARK VINA RESULT:      -3.9     11.307     11.819
REMARK  2 active torsions:
REMARK  status: ('A' for Active; 'I' for Inactive)
REMARK    1  A    between atoms: C5_5  and  C8_8 
REMARK    2  A    between atoms: C8_8  and  C9_9 
ROOT
HETATM    1  C1  UNL     1     -34.239  18.625   0.733  1.00 20.00     0.002 C 
HETATM    2  C2  UNL     1     -34.193  18.869  -0.770  1.00 20.00     0.005 C 
HETATM    3  C3  UNL     1     -33.002  19.176   1.449  1.00 20.00     0.020 C 
HETATM    4  C4  UNL     1     -31.753  18.131  -0.480  1.00 20.00     0.024 C 
HETATM    5  C5  UNL     1     -32.962  18.220  -1.431  1.00 20.00    -0.013 C 
HETATM    6  C6  UNL     1     -31.770  19.263   0.542  1.00 20.00     0.082 C 
HETATM    7 CL10 UNL     1     -30.281  19.240   1.528  1.00 20.00    -0.125 Cl
ENDROOT
BRANCH   5   8
HETATM    8  C8  UNL     1     -33.293  16.838  -1.996  1.00 20.00     0.004 C 
BRANCH   8   9
HETATM    9  C9  UNL     1     -33.537  16.899  -3.499  1.00 20.00    -0.004 C 
HETATM   10  C7  UNL     1     -33.587  15.507  -4.107  1.00 20.00     0.005 C 
ENDBRANCH   8   9
ENDBRANCH   5   8
TORSDOF 2
ENDMDL
MODEL 5
REMARK VINA RESULT:      -3.9     10.998     12.061
REMARK  2 active torsions:
REMARK  status: ('A' for Active; 'I' for Inactive)
REMARK    1  A    between atoms: C5_5  and  C8_8 
REMARK    2  A    between atoms: C8_8  and  C9_9 
ROOT
HETATM    1  C1  UNL     1     -35.276  18.140  -3.620  1.00 20.00     0.002 C 
HETATM    2  C2  UNL     1     -34.041  17.635  -4.356  1.00 20.00     0.005 C 
HETATM    3  C3  UNL     1     -34.942  18.669  -2.222  1.00 20.00     0.020 C 
HETATM    4  C4  UNL     1     -33.514  16.593  -2.072  1.00 20.00     0.024 C 
HETATM    5  C5  UNL     1     -33.334  16.494  -3.599  1.00 20.00    -0.013 C 
HETATM    6  C6  UNL     1     -33.676  18.042  -1.626  1.00 20.00     0.082 C 
HETATM    7 CL10 UNL     1     -33.719  18.151   0.155  1.00 20.00    -0.125 Cl
ENDROOT
BRANCH   5   8
HETATM    8  C8  UNL     1     -33.791  15.123  -4.097  1.00 20.00     0.004 C 
BRANCH   8   9
HETATM    9  C9  UNL     1     -34.054  15.140  -5.599  1.00 20.00    -0.004 C 
HETATM   10  C7  UNL     1     -35.476  14.708  -5.915  1.00 20.00     0.005 C 
ENDBRANCH   8   9
ENDBRANCH   5   8
TORSDOF 2
ENDMDL
MODEL 6
REMARK VINA RESULT:      -3.9      9.494     10.683
REMARK  2 active torsions:
REMARK  status: ('A' for Active; 'I' for Inactive)
REMARK    1  A    between atoms: C5_5  and  C8_8 
REMARK    2  A    between atoms: C8_8  and  C9_9 
ROOT
HETATM    1  C1  UNL     1     -42.967  12.994   7.837  1.00 20.00     0.002 C 
HETATM    2  C2  UNL     1     -42.519  13.194   6.395  1.00 20.00     0.005 C 
HETATM    3  C3  UNL     1     -42.520  14.142   8.748  1.00 20.00     0.020 C 
HETATM    4  C4  UNL     1     -40.326  13.900   7.524  1.00 20.00     0.024 C 
HETATM    5  C5  UNL     1     -40.987  13.301   6.267  1.00 20.00    -0.013 C 
HETATM    6  C6  UNL     1     -41.268  14.863   8.238  1.00 20.00     0.082 C 
HETATM    7 CL10 UNL     1     -40.431  15.670   9.594  1.00 20.00    -0.125 Cl
ENDROOT
BRANCH   5   8
HETATM    8  C8  UNL     1     -40.357  11.949   5.932  1.00 20.00     0.004 C 
BRANCH   8   9
HETATM    9  C9  UNL     1     -38.960  12.121   5.346  1.00 20.00    -0.004 C 
HETATM   10  C7  UNL     1     -38.906  11.649   3.902  1.00 20.00     0.005 C 
ENDBRANCH   8   9
ENDBRANCH   5   8
TORSDOF 2
ENDMDL
MODEL 7
REMARK VINA RESULT:      -3.6      2.734      3.596
REMARK  2 active torsions:
REMARK  status: ('A' for Active; 'I' for Inactive)
REMARK    1  A    between atoms: C5_5  and  C8_8 
REMARK    2  A    between atoms: C8_8  and  C9_9 
ROOT
HETATM    1  C1  UNL     1     -34.147   5.981   6.588  1.00 20.00     0.002 C 
HETATM    2  C2  UNL     1     -35.115   5.747   5.434  1.00 20.00     0.005 C 
HETATM    3  C3  UNL     1     -33.571   7.400   6.584  1.00 20.00     0.020 C 
HETATM    4  C4  UNL     1     -33.312   6.998   4.105  1.00 20.00     0.024 C 
HETATM    5  C5  UNL     1     -34.452   5.962   4.060  1.00 20.00    -0.013 C 
HETATM    6  C6  UNL     1     -33.555   8.041   5.191  1.00 20.00     0.082 C 
HETATM    7 CL10 UNL     1     -32.314   9.322   5.120  1.00 20.00    -0.125 Cl
ENDROOT
BRANCH   5   8
HETATM    8  C8  UNL     1     -33.944   4.645   3.472  1.00 20.00     0.004 C 
BRANCH   8   9
HETATM    9  C9  UNL     1     -32.738   4.872   2.568  1.00 20.00    -0.004 C 
HETATM   10  C7  UNL     1     -32.680   3.837   1.456  1.00 20.00     0.005 C 
ENDBRANCH   8   9
ENDBRANCH   5   8
TORSDOF 2
ENDMDL
MODEL 8
REMARK VINA RESULT:      -3.5     13.989     15.077
REMARK  2 active torsions:
REMARK  status: ('A' for Active; 'I' for Inactive)
REMARK    1  A    between atoms: C5_5  and  C8_8 
REMARK    2  A    between atoms: C8_8  and  C9_9 
ROOT
HETATM    1  C1  UNL     1     -24.292  -1.375  12.185  1.00 20.00     0.002 C 
HETATM    2  C2  UNL     1     -24.000  -2.868  12.259  1.00 20.00     0.005 C 
HETATM    3  C3  UNL     1     -25.746  -1.085  11.797  1.00 20.00     0.020 C 
HETATM    4  C4  UNL     1     -25.367  -2.905  10.088  1.00 20.00     0.024 C 
HETATM    5  C5  UNL     1     -24.260  -3.583  10.919  1.00 20.00    -0.013 C 
HETATM    6  C6  UNL     1     -26.389  -2.216  10.986  1.00 20.00     0.082 C 
HETATM    7 CL10 UNL     1     -27.747  -1.580  10.018  1.00 20.00    -0.125 Cl
ENDROOT
BRANCH   5   8
HETATM    8  C8  UNL     1     -22.980  -3.705  10.092  1.00 20.00     0.004 C 
BRANCH   8   9
HETATM    9  C9  UNL     1     -23.074  -2.895   8.804  1.00 20.00    -0.004 C 
HETATM   10  C7  UNL     1     -22.750  -3.751   7.590  1.00 20.00     0.005 C 
ENDBRANCH   8   9
ENDBRANCH   5   8
TORSDOF 2
ENDMDL
MODEL 9
REMARK VINA RESULT:      -3.5     10.324     11.646
REMARK  2 active torsions:
REMARK  status: ('A' for Active; 'I' for Inactive)
REMARK    1  A    between atoms: C5_5  and  C8_8 
REMARK    2  A    between atoms: C8_8  and  C9_9 
ROOT
HETATM    1  C1  UNL     1     -40.299  15.107   8.340  1.00 20.00     0.002 C 
HETATM    2  C2  UNL     1     -41.460  14.128   8.459  1.00 20.00     0.005 C 
HETATM    3  C3  UNL     1     -40.729  16.447   7.735  1.00 20.00     0.020 C 
HETATM    4  C4  UNL     1     -41.999  14.996   6.105  1.00 20.00     0.024 C 
HETATM    5  C5  UNL     1     -42.109  13.820   7.095  1.00 20.00    -0.013 C 
HETATM    6  C6  UNL     1     -41.966  16.334   6.837  1.00 20.00     0.082 C 
HETATM    7 CL10 UNL     1     -42.004  17.687   5.673  1.00 20.00    -0.125 Cl
ENDROOT
BRANCH   5   8
HETATM    8  C8  UNL     1     -41.528  12.550   6.473  1.00 20.00     0.004 C 
BRANCH   8   9
HETATM    9  C9  UNL     1     -40.519  12.882   5.378  1.00 20.00    -0.004 C 
HETATM   10  C7  UNL     1     -39.192  12.183   5.622  1.00 20.00     0.005 C 
ENDBRANCH   8   9
ENDBRANCH   5   8
TORSDOF 2
ENDMDL
