MODEL 1
REMARK VINA RESULT:      -5.1      0.000      0.000
REMARK  1 active torsions:
REMARK  status: ('A' for Active; 'I' for Inactive)
REMARK    1  A    between atoms: C4_4  and  C9_9 
ROOT
HETATM    1  C1  UNL     1     -33.080  17.113  -1.959  1.00 20.00     0.052 A 
HETATM    2  C2  UNL     1     -32.954  19.161  -3.161  1.00 20.00     0.123 A 
HETATM    3  C3  UNL     1     -33.699  17.279  -4.249  1.00 20.00     0.158 A 
HETATM    4  C4  UNL     1     -32.773  18.468  -1.975  1.00 20.00    -0.034 A 
HETATM    5  C5  UNL     1     -33.552  16.499  -3.113  1.00 20.00     0.134 A 
HETATM    6  N11 UNL     1     -33.411  18.599  -4.302  1.00 20.00    -0.269 NA
HETATM    7  F12 UNL     1     -33.856  15.196  -3.126  1.00 20.00    -0.205 F 
ENDROOT
BRANCH   4   8
HETATM    8  C9  UNL     1     -32.255  19.166  -0.734  1.00 20.00     0.021 C 
HETATM    9  C6  UNL     1     -33.284  19.263   0.414  1.00 20.00     0.011 C 
HETATM   10  C7  UNL     1     -32.491  19.193   1.724  1.00 20.00     0.021 C 
HETATM   11  C10 UNL     1     -31.029  19.251   1.306  1.00 20.00     0.083 C 
HETATM   12  C8  UNL     1     -31.023  18.557  -0.048  1.00 20.00     0.029 C 
HETATM   13 CL13 UNL     1     -29.959  18.460   2.473  1.00 20.00    -0.125 Cl
ENDBRANCH   4   8
TORSDOF 1
ENDMDL
MODEL 2
REMARK VINA RESULT:      -5.0      1.199      1.397
REMARK  1 active torsions:
REMARK  status: ('A' for Active; 'I' for Inactive)
REMARK    1  A    between atoms: C4_4  and  C9_9 
ROOT
HETATM    1  C1  UNL     1     -33.259  16.325  -2.832  1.00 20.00     0.052 A 
HETATM    2  C2  UNL     1     -34.289  18.228  -3.820  1.00 20.00     0.123 A 
HETATM    3  C3  UNL     1     -34.335  16.228  -4.950  1.00 20.00     0.158 A 
HETATM    4  C4  UNL     1     -33.588  17.674  -2.760  1.00 20.00    -0.034 A 
HETATM    5  C5  UNL     1     -33.635  15.581  -3.944  1.00 20.00     0.134 A 
HETATM    6  N11 UNL     1     -34.672  17.537  -4.916  1.00 20.00    -0.269 NA
HETATM    7  F12 UNL     1     -33.333  14.282  -4.039  1.00 20.00    -0.205 F 
ENDROOT
BRANCH   4   8
HETATM    8  C9  UNL     1     -33.191  18.512  -1.563  1.00 20.00     0.021 C 
HETATM    9  C6  UNL     1     -34.119  18.349  -0.339  1.00 20.00     0.011 C 
HETATM   10  C7  UNL     1     -33.244  18.525   0.906  1.00 20.00     0.021 C 
HETATM   11  C10 UNL     1     -31.888  18.969   0.378  1.00 20.00     0.083 C 
HETATM   12  C8  UNL     1     -31.792  18.276  -0.973  1.00 20.00     0.029 C 
HETATM   13 CL13 UNL     1     -30.561  18.524   1.460  1.00 20.00    -0.125 Cl
ENDBRANCH   4   8
TORSDOF 1
ENDMDL
MODEL 3
REMARK VINA RESULT:      -4.8      3.561      5.289
REMARK  1 active torsions:
REMARK  status: ('A' for Active; 'I' for Inactive)
REMARK    1  A    between atoms: C4_4  and  C9_9 
ROOT
HETATM    1  C1  UNL     1     -33.454  18.455   0.347  1.00 20.00     0.052 A 
HETATM    2  C2  UNL     1     -31.560  18.321  -1.086  1.00 20.00     0.123 A 
HETATM    3  C3  UNL     1     -31.277  19.097   1.058  1.00 20.00     0.158 A 
HETATM    4  C4  UNL     1     -32.920  18.133  -0.896  1.00 20.00    -0.034 A 
HETATM    5  C5  UNL     1     -32.624  18.946   1.348  1.00 20.00     0.134 A 
HETATM    6  N11 UNL     1     -30.722  18.796  -0.138  1.00 20.00    -0.269 NA
HETATM    7  F12 UNL     1     -33.109  19.263   2.553  1.00 20.00    -0.205 F 
ENDROOT
BRANCH   4   8
HETATM    8  C9  UNL     1     -33.798  17.597  -2.006  1.00 20.00     0.021 C 
HETATM    9  C6  UNL     1     -34.019  18.585  -3.174  1.00 20.00     0.011 C 
HETATM   10  C7  UNL     1     -34.156  17.741  -4.446  1.00 20.00     0.021 C 
HETATM   11  C10 UNL     1     -34.202  16.299  -3.963  1.00 20.00     0.083 C 
HETATM   12  C8  UNL     1     -33.330  16.317  -2.716  1.00 20.00     0.029 C 
HETATM   13 CL13 UNL     1     -33.615  15.158  -5.180  1.00 20.00    -0.125 Cl
ENDBRANCH   4   8
TORSDOF 1
ENDMDL
MODEL 4
REMARK VINA RESULT:      -4.7      3.912      5.795
REMARK  1 active torsions:
REMARK  status: ('A' for Active; 'I' for Inactive)
REMARK    1  A    between atoms: C4_4  and  C9_9 
ROOT
HETATM    1  C1  UNL     1     -33.105  17.562  -1.529  1.00 20.00     0.052 A 
HETATM    2  C2  UNL     1     -35.047  18.568  -2.463  1.00 20.00     0.123 A 
HETATM    3  C3  UNL     1     -34.455  19.090  -0.305  1.00 20.00     0.158 A 
HETATM    4  C4  UNL     1     -33.966  17.714  -2.610  1.00 20.00    -0.034 A 
HETATM    5  C5  UNL     1     -33.347  18.259  -0.351  1.00 20.00     0.134 A 
HETATM    6  N11 UNL     1     -35.314  19.262  -1.334  1.00 20.00    -0.269 NA
HETATM    7  F12 UNL     1     -32.535  18.132   0.704  1.00 20.00    -0.205 F 
ENDROOT
BRANCH   4   8
HETATM    8  C9  UNL     1     -33.730  16.968  -3.906  1.00 20.00     0.021 C 
HETATM    9  C6  UNL     1     -33.212  15.524  -3.722  1.00 20.00     0.011 C 
HETATM   10  C7  UNL     1     -33.779  14.700  -4.883  1.00 20.00     0.021 C 
HETATM   11  C10 UNL     1     -34.445  15.714  -5.801  1.00 20.00     0.083 C 
HETATM   12  C8  UNL     1     -34.935  16.788  -4.843  1.00 20.00     0.029 C 
HETATM   13 CL13 UNL     1     -35.759  15.006  -6.751  1.00 20.00    -0.125 Cl
ENDBRANCH   4   8
TORSDOF 1
ENDMDL
MODEL 5
REMARK VINA RESULT:      -4.6      3.772      5.543
REMARK  1 active torsions:
REMARK  status: ('A' for Active; 'I' for Inactive)
REMARK    1  A    between atoms: C4_4  and  C9_9 
ROOT
HETATM    1  C1  UNL     1     -31.717  18.348  -0.934  1.00 20.00     0.052 A 
HETATM    2  C2  UNL     1     -34.046  18.075  -0.539  1.00 20.00     0.123 A 
HETATM    3  C3  UNL     1     -32.692  18.707   1.205  1.00 20.00     0.158 A 
HETATM    4  C4  UNL     1     -32.979  18.032  -1.422  1.00 20.00    -0.034 A 
HETATM    5  C5  UNL     1     -31.561  18.693   0.404  1.00 20.00     0.134 A 
HETATM    6  N11 UNL     1     -33.935  18.406   0.766  1.00 20.00    -0.269 NA
HETATM    7  F12 UNL     1     -30.359  19.003   0.901  1.00 20.00    -0.205 F 
ENDROOT
BRANCH   4   8
HETATM    8  C9  UNL     1     -33.181  17.651  -2.874  1.00 20.00     0.021 C 
HETATM    9  C6  UNL     1     -33.157  16.130  -3.140  1.00 20.00     0.011 C 
HETATM   10  C7  UNL     1     -34.116  15.870  -4.306  1.00 20.00     0.021 C 
HETATM   11  C10 UNL     1     -34.518  17.250  -4.804  1.00 20.00     0.083 C 
HETATM   12  C8  UNL     1     -34.489  18.101  -3.543  1.00 20.00     0.029 C 
HETATM   13 CL13 UNL     1     -36.107  17.253  -5.582  1.00 20.00    -0.125 Cl
ENDBRANCH   4   8
TORSDOF 1
ENDMDL
MODEL 6
REMARK VINA RESULT:      -4.5      2.747      4.033
REMARK  1 active torsions:
REMARK  status: ('A' for Active; 'I' for Inactive)
REMARK    1  A    between atoms: C4_4  and  C9_9 
ROOT
HETATM    1  C1  UNL     1     -35.058  16.552  -5.046  1.00 20.00     0.052 A 
HETATM    2  C2  UNL     1     -34.173  14.629  -3.964  1.00 20.00     0.123 A 
HETATM    3  C3  UNL     1     -35.866  14.361  -5.494  1.00 20.00     0.158 A 
HETATM    4  C4  UNL     1     -34.159  16.003  -4.140  1.00 20.00    -0.034 A 
HETATM    5  C5  UNL     1     -35.931  15.723  -5.741  1.00 20.00     0.134 A 
HETATM    6  N11 UNL     1     -35.006  13.791  -4.620  1.00 20.00    -0.269 NA
HETATM    7  F12 UNL     1     -36.806  16.224  -6.620  1.00 20.00    -0.205 F 
ENDROOT
BRANCH   4   8
HETATM    8  C9  UNL     1     -33.196  16.880  -3.367  1.00 20.00     0.021 C 
HETATM    9  C6  UNL     1     -33.199  18.362  -3.803  1.00 20.00     0.011 C 
HETATM   10  C7  UNL     1     -32.896  19.191  -2.550  1.00 20.00     0.021 C 
HETATM   11  C10 UNL     1     -32.541  18.172  -1.477  1.00 20.00     0.083 C 
HETATM   12  C8  UNL     1     -33.387  16.963  -1.845  1.00 20.00     0.029 C 
HETATM   13 CL13 UNL     1     -32.882  18.762   0.156  1.00 20.00    -0.125 Cl
ENDBRANCH   4   8
TORSDOF 1
ENDMDL
MODEL 7
REMARK VINA RESULT:      -4.5      1.549      1.881
REMARK  1 active torsions:
REMARK  status: ('A' for Active; 'I' for Inactive)
REMARK    1  A    between atoms: C4_4  and  C9_9 
ROOT
HETATM    1  C1  UNL     1     -33.481  18.713  -3.517  1.00 20.00     0.052 A 
HETATM    2  C2  UNL     1     -33.234  16.696  -2.280  1.00 20.00     0.123 A 
HETATM    3  C3  UNL     1     -33.998  16.585  -4.444  1.00 20.00     0.158 A 
HETATM    4  C4  UNL     1     -33.126  18.076  -2.333  1.00 20.00    -0.034 A 
HETATM    5  C5  UNL     1     -33.927  17.960  -4.597  1.00 20.00     0.134 A 
HETATM    6  N11 UNL     1     -33.662  15.931  -3.309  1.00 20.00    -0.269 NA
HETATM    7  F12 UNL     1     -34.274  18.545  -5.749  1.00 20.00    -0.205 F 
ENDROOT
BRANCH   4   8
HETATM    8  C9  UNL     1     -32.638  18.868  -1.138  1.00 20.00     0.021 C 
HETATM    9  C6  UNL     1     -33.654  18.955   0.023  1.00 20.00     0.011 C 
HETATM   10  C7  UNL     1     -32.839  19.004   1.320  1.00 20.00     0.021 C 
HETATM   11  C10 UNL     1     -31.391  19.136   0.874  1.00 20.00     0.083 C 
HETATM   12  C8  UNL     1     -31.358  18.377  -0.445  1.00 20.00     0.029 C 
HETATM   13 CL13 UNL     1     -30.254  18.477   2.059  1.00 20.00    -0.125 Cl
ENDBRANCH   4   8
TORSDOF 1
ENDMDL
MODEL 8
REMARK VINA RESULT:      -4.4      3.756      5.737
REMARK  1 active torsions:
REMARK  status: ('A' for Active; 'I' for Inactive)
REMARK    1  A    between atoms: C4_4  and  C9_9 
ROOT
HETATM    1  C1  UNL     1     -33.856  17.086  -1.505  1.00 20.00     0.052 A 
HETATM    2  C2  UNL     1     -32.434  18.579  -2.690  1.00 20.00     0.123 A 
HETATM    3  C3  UNL     1     -32.668  18.837  -0.419  1.00 20.00     0.158 A 
HETATM    4  C4  UNL     1     -33.296  17.494  -2.710  1.00 20.00    -0.034 A 
HETATM    5  C5  UNL     1     -33.543  17.765  -0.333  1.00 20.00     0.134 A 
HETATM    6  N11 UNL     1     -32.104  19.263  -1.572  1.00 20.00    -0.269 NA
HETATM    7  F12 UNL     1     -34.066  17.394   0.840  1.00 20.00    -0.205 F 
ENDROOT
BRANCH   4   8
HETATM    8  C9  UNL     1     -33.619  16.776  -4.003  1.00 20.00     0.021 C 
HETATM    9  C6  UNL     1     -33.604  15.235  -3.895  1.00 20.00     0.011 C 
HETATM   10  C7  UNL     1     -34.658  14.713  -4.877  1.00 20.00     0.021 C 
HETATM   11  C10 UNL     1     -35.114  15.937  -5.657  1.00 20.00     0.083 C 
HETATM   12  C8  UNL     1     -34.984  17.066  -4.646  1.00 20.00     0.029 C 
HETATM   13 CL13 UNL     1     -36.764  15.770  -6.273  1.00 20.00    -0.125 Cl
ENDBRANCH   4   8
TORSDOF 1
ENDMDL
MODEL 9
REMARK VINA RESULT:      -4.0     11.684     12.295
REMARK  1 active torsions:
REMARK  status: ('A' for Active; 'I' for Inactive)
REMARK    1  A    between atoms: C4_4  and  C9_9 
ROOT
HETATM    1  C1  UNL     1     -40.469  12.847   4.570  1.00 20.00     0.052 A 
HETATM    2  C2  UNL     1     -40.777  13.463   6.846  1.00 20.00     0.123 A 
HETATM    3  C3  UNL     1     -39.096  11.991   6.312  1.00 20.00     0.158 A 
HETATM    4  C4  UNL     1     -41.170  13.578   5.522  1.00 20.00    -0.034 A 
HETATM    5  C5  UNL     1     -39.411  12.036   4.963  1.00 20.00     0.134 A 
HETATM    6  N11 UNL     1     -39.755  12.686   7.267  1.00 20.00    -0.269 NA
HETATM    7  F12 UNL     1     -38.719  11.323   4.069  1.00 20.00    -0.205 F 
ENDROOT
BRANCH   4   8
HETATM    8  C9  UNL     1     -42.328  14.469   5.125  1.00 20.00     0.021 C 
HETATM    9  C6  UNL     1     -42.383  15.813   5.885  1.00 20.00     0.011 C 
HETATM   10  C7  UNL     1     -42.972  16.844   4.916  1.00 20.00     0.021 C 
HETATM   11  C10 UNL     1     -43.415  16.041   3.703  1.00 20.00     0.083 C 
HETATM   12  C8  UNL     1     -42.411  14.898   3.652  1.00 20.00     0.029 C 
HETATM   13 CL13 UNL     1     -43.417  17.002   2.217  1.00 20.00    -0.125 Cl
ENDBRANCH   4   8
TORSDOF 1
ENDMDL
