MODEL 1
REMARK VINA RESULT:      -5.4      0.000      0.000
REMARK  4 active torsions:
REMARK  status: ('A' for Active; 'I' for Inactive)
REMARK    1  A    between atoms: C1_1  and  C6_6 
REMARK    2  A    between atoms: C1_1  and  C8_8 
REMARK    3  A    between atoms: C7_7  and  C9_9 
REMARK    4  A    between atoms: C8_8  and  C9_9 
ROOT
HETATM    1  C1  UNL     1     -32.491   8.500   4.571  1.00 20.00     0.131 C 
HETATM    2  O10 UNL     1     -31.957   9.488   5.072  1.00 20.00    -0.298 OA
ENDROOT
BRANCH   1   3
HETATM    3  C6  UNL     1     -31.802   7.710   3.488  1.00 20.00     0.055 A 
HETATM    4  C2  UNL     1     -32.572   6.637   2.809  1.00 20.00     0.013 A 
HETATM    5  C3  UNL     1     -32.252   7.910   2.086  1.00 20.00     0.013 A 
ENDBRANCH   1   3
BRANCH   1   6
HETATM    6  C8  UNL     1     -33.862   8.000   4.993  1.00 20.00     0.079 C 
BRANCH   6   7
HETATM    7  C9  UNL     1     -33.801   7.081   6.210  1.00 20.00     0.012 C 
BRANCH   7   8
HETATM    8  C7  UNL     1     -34.742   5.896   6.061  1.00 20.00    -0.014 A 
HETATM    9  C4  UNL     1     -35.390   5.605   4.736  1.00 20.00     0.005 A 
HETATM   10  C5  UNL     1     -34.321   4.691   5.266  1.00 20.00     0.005 A 
ENDBRANCH   7   8
ENDBRANCH   6   7
ENDBRANCH   1   6
TORSDOF 4
ENDMDL
MODEL 2
REMARK VINA RESULT:      -4.9      1.048      3.683
REMARK  4 active torsions:
REMARK  status: ('A' for Active; 'I' for Inactive)
REMARK    1  A    between atoms: C1_1  and  C6_6 
REMARK    2  A    between atoms: C1_1  and  C8_8 
REMARK    3  A    between atoms: C7_7  and  C9_9 
REMARK    4  A    between atoms: C8_8  and  C9_9 
ROOT
HETATM    1  C1  UNL     1     -33.846   6.975   5.928  1.00 20.00     0.131 C 
HETATM    2  O10 UNL     1     -33.072   7.046   6.880  1.00 20.00    -0.298 OA
ENDROOT
BRANCH   1   3
HETATM    3  C6  UNL     1     -34.821   5.832   5.803  1.00 20.00     0.055 A 
HETATM    4  C2  UNL     1     -35.557   5.678   4.522  1.00 20.00     0.013 A 
HETATM    5  C3  UNL     1     -34.470   4.713   4.891  1.00 20.00     0.013 A 
ENDBRANCH   1   3
BRANCH   1   6
HETATM    6  C8  UNL     1     -33.885   8.011   4.818  1.00 20.00     0.079 C 
BRANCH   6   7
HETATM    7  C9  UNL     1     -32.505   8.574   4.493  1.00 20.00     0.012 C 
BRANCH   7   8
HETATM    8  C7  UNL     1     -31.799   7.743   3.433  1.00 20.00    -0.014 A 
HETATM    9  C4  UNL     1     -32.547   6.673   2.687  1.00 20.00     0.005 A 
HETATM   10  C5  UNL     1     -32.131   7.932   1.979  1.00 20.00     0.005 A 
ENDBRANCH   7   8
ENDBRANCH   6   7
ENDBRANCH   1   6
TORSDOF 4
ENDMDL
MODEL 3
REMARK VINA RESULT:      -4.6      2.090      4.356
REMARK  4 active torsions:
REMARK  status: ('A' for Active; 'I' for Inactive)
REMARK    1  A    between atoms: C1_1  and  C6_6 
REMARK    2  A    between atoms: C1_1  and  C8_8 
REMARK    3  A    between atoms: C7_7  and  C9_9 
REMARK    4  A    between atoms: C8_8  and  C9_9 
ROOT
HETATM    1  C1  UNL     1     -34.233   5.071   4.248  1.00 20.00     0.131 C 
HETATM    2  O10 UNL     1     -33.964   3.877   4.367  1.00 20.00    -0.298 OA
ENDROOT
BRANCH   1   3
HETATM    3  C6  UNL     1     -34.953   5.818   5.340  1.00 20.00     0.055 A 
HETATM    4  C2  UNL     1     -34.793   5.338   6.737  1.00 20.00     0.013 A 
HETATM    5  C3  UNL     1     -34.138   6.612   6.296  1.00 20.00     0.013 A 
ENDBRANCH   1   3
BRANCH   1   6
HETATM    6  C8  UNL     1     -33.869   5.879   3.014  1.00 20.00     0.079 C 
BRANCH   6   7
HETATM    7  C9  UNL     1     -32.380   6.207   2.948  1.00 20.00     0.012 C 
BRANCH   7   8
HETATM    8  C7  UNL     1     -32.137   7.707   3.006  1.00 20.00    -0.014 A 
HETATM    9  C4  UNL     1     -33.186   8.623   3.570  1.00 20.00     0.005 A 
HETATM   10  C5  UNL     1     -31.910   8.386   4.328  1.00 20.00     0.005 A 
ENDBRANCH   7   8
ENDBRANCH   6   7
ENDBRANCH   1   6
TORSDOF 4
ENDMDL
MODEL 4
REMARK VINA RESULT:      -4.5      1.561      1.879
REMARK  4 active torsions:
REMARK  status: ('A' for Active; 'I' for Inactive)
REMARK    1  A    between atoms: C1_1  and  C6_6 
REMARK    2  A    between atoms: C1_1  and  C8_8 
REMARK    3  A    between atoms: C7_7  and  C9_9 
REMARK    4  A    between atoms: C8_8  and  C9_9 
ROOT
HETATM    1  C1  UNL     1     -32.610   7.684   3.119  1.00 20.00     0.131 C 
HETATM    2  O10 UNL     1     -32.522   6.474   2.919  1.00 20.00    -0.298 OA
ENDROOT
BRANCH   1   3
HETATM    3  C6  UNL     1     -32.040   8.676   2.140  1.00 20.00     0.055 A 
HETATM    4  C2  UNL     1     -32.253   8.429   0.690  1.00 20.00     0.013 A 
HETATM    5  C3  UNL     1     -32.989   9.535   1.385  1.00 20.00     0.013 A 
ENDBRANCH   1   3
BRANCH   1   6
HETATM    6  C8  UNL     1     -33.288   8.270   4.346  1.00 20.00     0.079 C 
BRANCH   6   7
HETATM    7  C9  UNL     1     -33.124   7.390   5.582  1.00 20.00     0.012 C 
BRANCH   7   8
HETATM    8  C7  UNL     1     -34.434   6.724   5.970  1.00 20.00    -0.014 A 
HETATM    9  C4  UNL     1     -35.093   5.747   5.037  1.00 20.00     0.005 A 
HETATM   10  C5  UNL     1     -34.467   5.261   6.314  1.00 20.00     0.005 A 
ENDBRANCH   7   8
ENDBRANCH   6   7
ENDBRANCH   1   6
TORSDOF 4
ENDMDL
MODEL 5
REMARK VINA RESULT:      -4.4      1.969      2.856
REMARK  4 active torsions:
REMARK  status: ('A' for Active; 'I' for Inactive)
REMARK    1  A    between atoms: C1_1  and  C6_6 
REMARK    2  A    between atoms: C1_1  and  C8_8 
REMARK    3  A    between atoms: C7_7  and  C9_9 
REMARK    4  A    between atoms: C8_8  and  C9_9 
ROOT
HETATM    1  C1  UNL     1     -33.224   5.391   3.039  1.00 20.00     0.131 C 
HETATM    2  O10 UNL     1     -32.564   4.760   2.216  1.00 20.00    -0.298 OA
ENDROOT
BRANCH   1   3
HETATM    3  C6  UNL     1     -33.199   6.897   3.064  1.00 20.00     0.055 A 
HETATM    4  C2  UNL     1     -32.022   7.566   3.676  1.00 20.00     0.013 A 
HETATM    5  C3  UNL     1     -32.220   7.593   2.190  1.00 20.00     0.013 A 
ENDBRANCH   1   3
BRANCH   1   6
HETATM    6  C8  UNL     1     -34.104   4.719   4.079  1.00 20.00     0.079 C 
BRANCH   6   7
HETATM    7  C9  UNL     1     -35.152   5.665   4.657  1.00 20.00     0.012 C 
BRANCH   7   8
HETATM    8  C7  UNL     1     -34.916   5.922   6.137  1.00 20.00    -0.014 A 
HETATM    9  C4  UNL     1     -33.525   5.859   6.704  1.00 20.00     0.005 A 
HETATM   10  C5  UNL     1     -34.228   7.181   6.586  1.00 20.00     0.005 A 
ENDBRANCH   7   8
ENDBRANCH   6   7
ENDBRANCH   1   6
TORSDOF 4
ENDMDL
MODEL 6
REMARK VINA RESULT:      -4.4      1.253      4.340
REMARK  4 active torsions:
REMARK  status: ('A' for Active; 'I' for Inactive)
REMARK    1  A    between atoms: C1_1  and  C6_6 
REMARK    2  A    between atoms: C1_1  and  C8_8 
REMARK    3  A    between atoms: C7_7  and  C9_9 
REMARK    4  A    between atoms: C8_8  and  C9_9 
ROOT
HETATM    1  C1  UNL     1     -33.687   7.347   4.792  1.00 20.00     0.131 C 
HETATM    2  O10 UNL     1     -33.601   8.468   5.289  1.00 20.00    -0.298 OA
ENDROOT
BRANCH   1   3
HETATM    3  C6  UNL     1     -34.760   6.383   5.229  1.00 20.00     0.055 A 
HETATM    4  C2  UNL     1     -34.619   4.956   4.841  1.00 20.00     0.013 A 
HETATM    5  C3  UNL     1     -34.412   5.376   6.265  1.00 20.00     0.013 A 
ENDBRANCH   1   3
BRANCH   1   6
HETATM    6  C8  UNL     1     -32.739   6.848   3.715  1.00 20.00     0.079 C 
BRANCH   6   7
HETATM    7  C9  UNL     1     -32.077   7.986   2.945  1.00 20.00     0.012 C 
BRANCH   7   8
HETATM    8  C7  UNL     1     -32.785   8.252   1.625  1.00 20.00    -0.014 A 
HETATM    9  C4  UNL     1     -32.823   9.641   1.053  1.00 20.00     0.005 A 
HETATM   10  C5  UNL     1     -31.989   8.580   0.393  1.00 20.00     0.005 A 
ENDBRANCH   7   8
ENDBRANCH   6   7
ENDBRANCH   1   6
TORSDOF 4
ENDMDL
MODEL 7
REMARK VINA RESULT:      -4.2     11.759     12.481
REMARK  4 active torsions:
REMARK  status: ('A' for Active; 'I' for Inactive)
REMARK    1  A    between atoms: C1_1  and  C6_6 
REMARK    2  A    between atoms: C1_1  and  C8_8 
REMARK    3  A    between atoms: C7_7  and  C9_9 
REMARK    4  A    between atoms: C8_8  and  C9_9 
ROOT
HETATM    1  C1  UNL     1     -31.497  18.594   0.290  1.00 20.00     0.131 C 
HETATM    2  O10 UNL     1     -30.529  18.690  -0.462  1.00 20.00    -0.298 OA
ENDROOT
BRANCH   1   3
HETATM    3  C6  UNL     1     -31.325  18.179   1.728  1.00 20.00     0.055 A 
HETATM    4  C2  UNL     1     -30.120  18.657   2.454  1.00 20.00     0.013 A 
HETATM    5  C3  UNL     1     -31.470  19.222   2.777  1.00 20.00     0.013 A 
ENDBRANCH   1   3
BRANCH   1   6
HETATM    6  C8  UNL     1     -32.920  18.880  -0.157  1.00 20.00     0.079 C 
BRANCH   6   7
HETATM    7  C9  UNL     1     -33.582  17.671  -0.811  1.00 20.00     0.012 C 
BRANCH   7   8
HETATM    8  C7  UNL     1     -33.102  17.477  -2.240  1.00 20.00    -0.014 A 
HETATM    9  C4  UNL     1     -33.398  16.198  -2.972  1.00 20.00     0.005 A 
HETATM   10  C5  UNL     1     -34.088  17.471  -3.375  1.00 20.00     0.005 A 
ENDBRANCH   7   8
ENDBRANCH   6   7
ENDBRANCH   1   6
TORSDOF 4
ENDMDL
MODEL 8
REMARK VINA RESULT:      -4.1      9.271     10.527
REMARK  4 active torsions:
REMARK  status: ('A' for Active; 'I' for Inactive)
REMARK    1  A    between atoms: C1_1  and  C6_6 
REMARK    2  A    between atoms: C1_1  and  C8_8 
REMARK    3  A    between atoms: C7_7  and  C9_9 
REMARK    4  A    between atoms: C8_8  and  C9_9 
ROOT
HETATM    1  C1  UNL     1     -41.589  13.638   7.730  1.00 20.00     0.131 C 
HETATM    2  O10 UNL     1     -42.168  13.269   8.750  1.00 20.00    -0.298 OA
ENDROOT
BRANCH   1   3
HETATM    3  C6  UNL     1     -40.404  14.567   7.802  1.00 20.00     0.055 A 
HETATM    4  C2  UNL     1     -40.665  16.029   7.856  1.00 20.00     0.013 A 
HETATM    5  C3  UNL     1     -40.172  15.304   9.072  1.00 20.00     0.013 A 
ENDBRANCH   1   3
BRANCH   1   6
HETATM    6  C8  UNL     1     -42.009  13.197   6.338  1.00 20.00     0.079 C 
BRANCH   6   7
HETATM    7  C9  UNL     1     -40.860  13.251   5.336  1.00 20.00     0.012 C 
BRANCH   7   8
HETATM    8  C7  UNL     1     -40.023  11.982   5.380  1.00 20.00    -0.014 A 
HETATM    9  C4  UNL     1     -39.121  11.630   4.230  1.00 20.00     0.005 A 
HETATM   10  C5  UNL     1     -38.530  12.066   5.541  1.00 20.00     0.005 A 
ENDBRANCH   7   8
ENDBRANCH   6   7
ENDBRANCH   1   6
TORSDOF 4
ENDMDL
MODEL 9
REMARK VINA RESULT:      -4.0      9.178     10.330
REMARK  4 active torsions:
REMARK  status: ('A' for Active; 'I' for Inactive)
REMARK    1  A    between atoms: C1_1  and  C6_6 
REMARK    2  A    between atoms: C1_1  and  C8_8 
REMARK    3  A    between atoms: C7_7  and  C9_9 
REMARK    4  A    between atoms: C8_8  and  C9_9 
ROOT
HETATM    1  C1  UNL     1     -41.157  12.396   6.147  1.00 20.00     0.131 C 
HETATM    2  O10 UNL     1     -42.032  11.963   6.895  1.00 20.00    -0.298 OA
ENDROOT
BRANCH   1   3
HETATM    3  C6  UNL     1     -39.964  11.553   5.778  1.00 20.00     0.055 A 
HETATM    4  C2  UNL     1     -39.331  11.780   4.453  1.00 20.00     0.013 A 
HETATM    5  C3  UNL     1     -38.637  12.216   5.707  1.00 20.00     0.013 A 
ENDBRANCH   1   3
BRANCH   1   6
HETATM    6  C8  UNL     1     -41.204  13.789   5.544  1.00 20.00     0.079 C 
BRANCH   6   7
HETATM    7  C9  UNL     1     -41.550  14.861   6.573  1.00 20.00     0.012 C 
BRANCH   7   8
HETATM    8  C7  UNL     1     -40.363  15.179   7.468  1.00 20.00    -0.014 A 
HETATM    9  C4  UNL     1     -40.513  16.145   8.609  1.00 20.00     0.005 A 
HETATM   10  C5  UNL     1     -40.330  14.680   8.886  1.00 20.00     0.005 A 
ENDBRANCH   7   8
ENDBRANCH   6   7
ENDBRANCH   1   6
TORSDOF 4
ENDMDL
