MODEL 1
REMARK VINA RESULT:      -4.6      0.000      0.000
REMARK  5 active torsions:
REMARK  status: ('A' for Active; 'I' for Inactive)
REMARK    1  A    between atoms: C2_2  and  C8_8 
REMARK    2  A    between atoms: C3_3  and  C9_9 
REMARK    3  A    between atoms: C3_3  and  C11_11 
REMARK    4  A    between atoms: C8_8  and  C10_10 
REMARK    5  A    between atoms: C9_9  and  C10_10 
ROOT
HETATM    1  C1  UNL     1     -31.581  18.441  -0.091  1.00 20.00    -0.111 C 
HETATM    2  C2  UNL     1     -32.235  18.239  -1.078  1.00 20.00    -0.107 C 
HETATM    3  C4  UNL     1     -30.791  18.687   1.114  1.00 20.00     0.112 C 
ENDROOT
BRANCH   2   4
HETATM    4  C8  UNL     1     -33.039  17.998  -2.284  1.00 20.00     0.094 C 
BRANCH   4   5
HETATM    5  C10 UNL     1     -33.416  16.522  -2.448  1.00 20.00     0.020 C 
BRANCH   5   6
HETATM    6  C9  UNL     1     -33.005  15.916  -3.793  1.00 20.00     0.080 C 
BRANCH   6   7
HETATM    7  C3  UNL     1     -34.049  14.967  -4.373  1.00 20.00     0.134 C 
HETATM    8  O12 UNL     1     -34.251  13.865  -3.859  1.00 20.00    -0.297 OA
BRANCH   7   9
HETATM    9  C11 UNL     1     -34.850  15.437  -5.605  1.00 20.00     0.009 C 
HETATM   10  C5  UNL     1     -35.287  16.898  -5.437  1.00 20.00     0.022 C 
HETATM   11  C6  UNL     1     -36.109  14.565  -5.762  1.00 20.00     0.022 C 
HETATM   12  C7  UNL     1     -33.979  15.277  -6.859  1.00 20.00     0.022 C 
ENDBRANCH   7   9
ENDBRANCH   6   7
ENDBRANCH   5   6
ENDBRANCH   4   5
ENDBRANCH   2   4
TORSDOF 5
ENDMDL
MODEL 2
REMARK VINA RESULT:      -4.3      1.894      3.243
REMARK  5 active torsions:
REMARK  status: ('A' for Active; 'I' for Inactive)
REMARK    1  A    between atoms: C2_2  and  C8_8 
REMARK    2  A    between atoms: C3_3  and  C9_9 
REMARK    3  A    between atoms: C3_3  and  C11_11 
REMARK    4  A    between atoms: C8_8  and  C10_10 
REMARK    5  A    between atoms: C9_9  and  C10_10 
ROOT
HETATM    1  C1  UNL     1     -33.465  16.907  -2.159  1.00 20.00    -0.111 C 
HETATM    2  C2  UNL     1     -33.319  16.138  -3.069  1.00 20.00    -0.107 C 
HETATM    3  C4  UNL     1     -33.644  17.839  -1.046  1.00 20.00     0.112 C 
ENDROOT
BRANCH   2   4
HETATM    4  C8  UNL     1     -33.146  15.192  -4.180  1.00 20.00     0.094 C 
BRANCH   4   5
HETATM    5  C10 UNL     1     -34.439  14.441  -4.513  1.00 20.00     0.020 C 
BRANCH   5   6
HETATM    6  C9  UNL     1     -35.086  14.862  -5.835  1.00 20.00     0.080 C 
BRANCH   6   7
HETATM    7  C3  UNL     1     -36.329  15.727  -5.653  1.00 20.00     0.134 C 
HETATM    8  O12 UNL     1     -37.408  15.218  -5.340  1.00 20.00    -0.297 OA
BRANCH   7   9
HETATM    9  C11 UNL     1     -36.188  17.250  -5.852  1.00 20.00     0.009 C 
HETATM   10  C5  UNL     1     -37.296  17.777  -6.773  1.00 20.00     0.022 C 
HETATM   11  C6  UNL     1     -34.826  17.560  -6.500  1.00 20.00     0.022 C 
HETATM   12  C7  UNL     1     -36.252  17.942  -4.484  1.00 20.00     0.022 C 
ENDBRANCH   7   9
ENDBRANCH   6   7
ENDBRANCH   5   6
ENDBRANCH   4   5
ENDBRANCH   2   4
TORSDOF 5
ENDMDL
MODEL 3
REMARK VINA RESULT:      -4.2     11.411     12.506
REMARK  5 active torsions:
REMARK  status: ('A' for Active; 'I' for Inactive)
REMARK    1  A    between atoms: C2_2  and  C8_8 
REMARK    2  A    between atoms: C3_3  and  C9_9 
REMARK    3  A    between atoms: C3_3  and  C11_11 
REMARK    4  A    between atoms: C8_8  and  C10_10 
REMARK    5  A    between atoms: C9_9  and  C10_10 
ROOT
HETATM    1  C1  UNL     1     -32.536   8.671   0.925  1.00 20.00    -0.111 C 
HETATM    2  C2  UNL     1     -32.147   8.343   2.013  1.00 20.00    -0.107 C 
HETATM    3  C4  UNL     1     -33.003   9.070  -0.402  1.00 20.00     0.112 C 
ENDROOT
BRANCH   2   4
HETATM    4  C8  UNL     1     -31.665   7.948   3.343  1.00 20.00     0.094 C 
BRANCH   4   5
HETATM    5  C10 UNL     1     -32.317   8.763   4.465  1.00 20.00     0.020 C 
BRANCH   5   6
HETATM    6  C9  UNL     1     -33.738   8.316   4.820  1.00 20.00     0.080 C 
BRANCH   6   7
HETATM    7  C3  UNL     1     -33.785   6.990   5.573  1.00 20.00     0.134 C 
HETATM    8  O12 UNL     1     -33.313   6.896   6.708  1.00 20.00    -0.297 OA
BRANCH   7   9
HETATM    9  C11 UNL     1     -34.454   5.786   4.879  1.00 20.00     0.009 C 
HETATM   10  C5  UNL     1     -33.577   5.272   3.730  1.00 20.00     0.022 C 
HETATM   11  C6  UNL     1     -35.814   6.217   4.300  1.00 20.00     0.022 C 
HETATM   12  C7  UNL     1     -34.686   4.678   5.914  1.00 20.00     0.022 C 
ENDBRANCH   7   9
ENDBRANCH   6   7
ENDBRANCH   5   6
ENDBRANCH   4   5
ENDBRANCH   2   4
TORSDOF 5
ENDMDL
MODEL 4
REMARK VINA RESULT:      -4.1      1.404      1.904
REMARK  5 active torsions:
REMARK  status: ('A' for Active; 'I' for Inactive)
REMARK    1  A    between atoms: C2_2  and  C8_8 
REMARK    2  A    between atoms: C3_3  and  C9_9 
REMARK    3  A    between atoms: C3_3  and  C11_11 
REMARK    4  A    between atoms: C8_8  and  C10_10 
REMARK    5  A    between atoms: C9_9  and  C10_10 
ROOT
HETATM    1  C1  UNL     1     -34.098  18.666   0.508  1.00 20.00    -0.111 C 
HETATM    2  C2  UNL     1     -33.509  18.199  -0.429  1.00 20.00    -0.107 C 
HETATM    3  C4  UNL     1     -34.818  19.229   1.649  1.00 20.00     0.112 C 
ENDROOT
BRANCH   2   4
HETATM    4  C8  UNL     1     -32.795  17.624  -1.577  1.00 20.00     0.094 C 
BRANCH   4   5
HETATM    5  C10 UNL     1     -33.600  16.522  -2.271  1.00 20.00     0.020 C 
BRANCH   5   6
HETATM    6  C9  UNL     1     -33.081  16.148  -3.663  1.00 20.00     0.080 C 
BRANCH   6   7
HETATM    7  C3  UNL     1     -33.954  15.122  -4.379  1.00 20.00     0.134 C 
HETATM    8  O12 UNL     1     -34.028  13.963  -3.966  1.00 20.00    -0.297 OA
BRANCH   7   9
HETATM    9  C11 UNL     1     -34.748  15.586  -5.617  1.00 20.00     0.009 C 
HETATM   10  C5  UNL     1     -36.119  14.897  -5.666  1.00 20.00     0.022 C 
HETATM   11  C6  UNL     1     -33.971  15.217  -6.894  1.00 20.00     0.022 C 
HETATM   12  C7  UNL     1     -34.915  17.110  -5.564  1.00 20.00     0.022 C 
ENDBRANCH   7   9
ENDBRANCH   6   7
ENDBRANCH   5   6
ENDBRANCH   4   5
ENDBRANCH   2   4
TORSDOF 5
ENDMDL
MODEL 5
REMARK VINA RESULT:      -4.0      1.856      3.478
REMARK  5 active torsions:
REMARK  status: ('A' for Active; 'I' for Inactive)
REMARK    1  A    between atoms: C2_2  and  C8_8 
REMARK    2  A    between atoms: C3_3  and  C9_9 
REMARK    3  A    between atoms: C3_3  and  C11_11 
REMARK    4  A    between atoms: C8_8  and  C10_10 
REMARK    5  A    between atoms: C9_9  and  C10_10 
ROOT
HETATM    1  C1  UNL     1     -33.323  16.645  -2.661  1.00 20.00    -0.111 C 
HETATM    2  C2  UNL     1     -33.659  15.731  -3.365  1.00 20.00    -0.107 C 
HETATM    3  C4  UNL     1     -32.921  17.757  -1.801  1.00 20.00     0.112 C 
ENDROOT
BRANCH   2   4
HETATM    4  C8  UNL     1     -34.076  14.617  -4.227  1.00 20.00     0.094 C 
BRANCH   4   5
HETATM    5  C10 UNL     1     -33.589  14.782  -5.670  1.00 20.00     0.020 C 
BRANCH   5   6
HETATM    6  C9  UNL     1     -34.371  15.819  -6.481  1.00 20.00     0.080 C 
BRANCH   6   7
HETATM    7  C3  UNL     1     -35.845  15.466  -6.653  1.00 20.00     0.134 C 
HETATM    8  O12 UNL     1     -36.179  14.406  -7.186  1.00 20.00    -0.297 OA
BRANCH   7   9
HETATM    9  C11 UNL     1     -36.896  16.465  -6.124  1.00 20.00     0.009 C 
HETATM   10  C5  UNL     1     -37.730  17.031  -7.281  1.00 20.00     0.022 C 
HETATM   11  C6  UNL     1     -36.185  17.632  -5.416  1.00 20.00     0.022 C 
HETATM   12  C7  UNL     1     -37.800  15.750  -5.111  1.00 20.00     0.022 C 
ENDBRANCH   7   9
ENDBRANCH   6   7
ENDBRANCH   5   6
ENDBRANCH   4   5
ENDBRANCH   2   4
TORSDOF 5
ENDMDL
MODEL 6
REMARK VINA RESULT:      -4.0      3.769      5.905
REMARK  5 active torsions:
REMARK  status: ('A' for Active; 'I' for Inactive)
REMARK    1  A    between atoms: C2_2  and  C8_8 
REMARK    2  A    between atoms: C3_3  and  C9_9 
REMARK    3  A    between atoms: C3_3  and  C11_11 
REMARK    4  A    between atoms: C8_8  and  C10_10 
REMARK    5  A    between atoms: C9_9  and  C10_10 
ROOT
HETATM    1  C1  UNL     1     -28.029  19.113   4.402  1.00 20.00    -0.111 C 
HETATM    2  C2  UNL     1     -29.130  19.132   3.922  1.00 20.00    -0.107 C 
HETATM    3  C4  UNL     1     -26.688  19.083   4.985  1.00 20.00     0.112 C 
ENDROOT
BRANCH   2   4
HETATM    4  C8  UNL     1     -30.479  19.149   3.341  1.00 20.00     0.094 C 
BRANCH   4   5
HETATM    5  C10 UNL     1     -30.453  19.225   1.811  1.00 20.00     0.020 C 
BRANCH   5   6
HETATM    6  C9  UNL     1     -31.796  18.911   1.145  1.00 20.00     0.080 C 
BRANCH   6   7
HETATM    7  C3  UNL     1     -31.666  18.514  -0.322  1.00 20.00     0.134 C 
HETATM    8  O12 UNL     1     -30.574  18.178  -0.787  1.00 20.00    -0.297 OA
BRANCH   7   9
HETATM    9  C11 UNL     1     -32.939  18.528  -1.192  1.00 20.00     0.009 C 
HETATM   10  C5  UNL     1     -34.093  19.212  -0.447  1.00 20.00     0.022 C 
HETATM   11  C6  UNL     1     -33.356  17.082  -1.517  1.00 20.00     0.022 C 
HETATM   12  C7  UNL     1     -32.639  19.262  -2.506  1.00 20.00     0.022 C 
ENDBRANCH   7   9
ENDBRANCH   6   7
ENDBRANCH   5   6
ENDBRANCH   4   5
ENDBRANCH   2   4
TORSDOF 5
ENDMDL
MODEL 7
REMARK VINA RESULT:      -3.7     11.156     12.238
REMARK  5 active torsions:
REMARK  status: ('A' for Active; 'I' for Inactive)
REMARK    1  A    between atoms: C2_2  and  C8_8 
REMARK    2  A    between atoms: C3_3  and  C9_9 
REMARK    3  A    between atoms: C3_3  and  C11_11 
REMARK    4  A    between atoms: C8_8  and  C10_10 
REMARK    5  A    between atoms: C9_9  and  C10_10 
ROOT
HETATM    1  C1  UNL     1     -32.789   9.170   0.979  1.00 20.00    -0.111 C 
HETATM    2  C2  UNL     1     -32.688   9.497   2.131  1.00 20.00    -0.107 C 
HETATM    3  C4  UNL     1     -32.908   8.767  -0.421  1.00 20.00     0.112 C 
ENDROOT
BRANCH   2   4
HETATM    4  C8  UNL     1     -32.556   9.896   3.539  1.00 20.00     0.094 C 
BRANCH   4   5
HETATM    5  C10 UNL     1     -32.110   8.735   4.434  1.00 20.00     0.020 C 
BRANCH   5   6
HETATM    6  C9  UNL     1     -33.263   7.905   5.005  1.00 20.00     0.080 C 
BRANCH   6   7
HETATM    7  C3  UNL     1     -33.460   6.572   4.292  1.00 20.00     0.134 C 
HETATM    8  O12 UNL     1     -32.813   6.300   3.278  1.00 20.00    -0.297 OA
BRANCH   7   9
HETATM    9  C11 UNL     1     -34.476   5.575   4.887  1.00 20.00     0.009 C 
HETATM   10  C5  UNL     1     -34.497   5.677   6.418  1.00 20.00     0.022 C 
HETATM   11  C6  UNL     1     -34.075   4.140   4.498  1.00 20.00     0.022 C 
HETATM   12  C7  UNL     1     -35.866   5.872   4.310  1.00 20.00     0.022 C 
ENDBRANCH   7   9
ENDBRANCH   6   7
ENDBRANCH   5   6
ENDBRANCH   4   5
ENDBRANCH   2   4
TORSDOF 5
ENDMDL
MODEL 8
REMARK VINA RESULT:      -3.7     13.131     14.547
REMARK  5 active torsions:
REMARK  status: ('A' for Active; 'I' for Inactive)
REMARK    1  A    between atoms: C2_2  and  C8_8 
REMARK    2  A    between atoms: C3_3  and  C9_9 
REMARK    3  A    between atoms: C3_3  and  C11_11 
REMARK    4  A    between atoms: C8_8  and  C10_10 
REMARK    5  A    between atoms: C9_9  and  C10_10 
ROOT
HETATM    1  C1  UNL     1     -39.942  12.313   5.133  1.00 20.00    -0.111 C 
HETATM    2  C2  UNL     1     -40.939  12.813   5.577  1.00 20.00    -0.107 C 
HETATM    3  C4  UNL     1     -38.724  11.710   4.592  1.00 20.00     0.112 C 
ENDROOT
BRANCH   2   4
HETATM    4  C8  UNL     1     -42.159  13.431   6.115  1.00 20.00     0.094 C 
BRANCH   4   5
HETATM    5  C10 UNL     1     -42.708  12.676   7.330  1.00 20.00     0.020 C 
BRANCH   5   6
HETATM    6  C9  UNL     1     -42.803  13.521   8.603  1.00 20.00     0.080 C 
BRANCH   6   7
HETATM    7  C3  UNL     1     -41.521  14.285   8.920  1.00 20.00     0.134 C 
HETATM    8  O12 UNL     1     -40.478  13.681   9.179  1.00 20.00    -0.297 OA
BRANCH   7   9
HETATM    9  C11 UNL     1     -41.569  15.827   8.887  1.00 20.00     0.009 C 
HETATM   10  C5  UNL     1     -42.979  16.314   8.530  1.00 20.00     0.022 C 
HETATM   11  C6  UNL     1     -40.588  16.348   7.821  1.00 20.00     0.022 C 
HETATM   12  C7  UNL     1     -41.143  16.370  10.257  1.00 20.00     0.022 C 
ENDBRANCH   7   9
ENDBRANCH   6   7
ENDBRANCH   5   6
ENDBRANCH   4   5
ENDBRANCH   2   4
TORSDOF 5
ENDMDL
MODEL 9
REMARK VINA RESULT:      -3.6     12.896     14.568
REMARK  5 active torsions:
REMARK  status: ('A' for Active; 'I' for Inactive)
REMARK    1  A    between atoms: C2_2  and  C8_8 
REMARK    2  A    between atoms: C3_3  and  C9_9 
REMARK    3  A    between atoms: C3_3  and  C11_11 
REMARK    4  A    between atoms: C8_8  and  C10_10 
REMARK    5  A    between atoms: C9_9  and  C10_10 
ROOT
HETATM    1  C1  UNL     1     -39.942  12.219   5.013  1.00 20.00    -0.111 C 
HETATM    2  C2  UNL     1     -40.862  12.673   5.638  1.00 20.00    -0.107 C 
HETATM    3  C4  UNL     1     -38.824  11.669   4.248  1.00 20.00     0.112 C 
ENDROOT
BRANCH   2   4
HETATM    4  C8  UNL     1     -41.993  13.224   6.396  1.00 20.00     0.094 C 
BRANCH   4   5
HETATM    5  C10 UNL     1     -41.866  14.734   6.617  1.00 20.00     0.020 C 
BRANCH   5   6
HETATM    6  C9  UNL     1     -40.588  15.156   7.348  1.00 20.00     0.080 C 
BRANCH   6   7
HETATM    7  C3  UNL     1     -40.493  14.606   8.767  1.00 20.00     0.134 C 
HETATM    8  O12 UNL     1     -39.919  13.538   8.990  1.00 20.00    -0.297 OA
BRANCH   7   9
HETATM    9  C11 UNL     1     -41.120  15.434   9.908  1.00 20.00     0.009 C 
HETATM   10  C5  UNL     1     -42.526  14.917  10.239  1.00 20.00     0.022 C 
HETATM   11  C6  UNL     1     -41.231  16.907   9.473  1.00 20.00     0.022 C 
HETATM   12  C7  UNL     1     -40.213  15.352  11.143  1.00 20.00     0.022 C 
ENDBRANCH   7   9
ENDBRANCH   6   7
ENDBRANCH   5   6
ENDBRANCH   4   5
ENDBRANCH   2   4
TORSDOF 5
ENDMDL
