MODEL 1
REMARK VINA RESULT:      -5.0      0.000      0.000
REMARK  1 active torsions:
REMARK  status: ('A' for Active; 'I' for Inactive)
REMARK    1  A    between atoms: C7_7  and  C8_8 
ROOT
HETATM    1  C1  UNL     1     -32.177   8.104   1.465  1.00 20.00     0.012 C 
HETATM    2  C2  UNL     1     -32.385   8.353   2.621  1.00 20.00    -0.117 C 
HETATM    3  C8  UNL     1     -32.637   8.662   4.033  1.00 20.00     0.098 C 
ENDROOT
BRANCH   3   4
HETATM    4  C7  UNL     1     -32.949   7.405   4.828  1.00 20.00     0.004 C 
HETATM    5  C5  UNL     1     -33.678   6.345   4.000  1.00 20.00     0.083 C 
HETATM    6  C3  UNL     1     -34.411   5.573   5.067  1.00 20.00     0.127 C 
HETATM    7  C4  UNL     1     -34.394   6.281   6.397  1.00 20.00     0.079 C 
HETATM    8  O9  UNL     1     -34.957   4.494   4.876  1.00 20.00    -0.298 OA
HETATM    9  C6  UNL     1     -33.889   7.664   6.005  1.00 20.00     0.013 C 
ENDBRANCH   3   4
TORSDOF 1
ENDMDL
MODEL 2
REMARK VINA RESULT:      -4.9      0.923      1.624
REMARK  1 active torsions:
REMARK  status: ('A' for Active; 'I' for Inactive)
REMARK    1  A    between atoms: C7_7  and  C8_8 
ROOT
HETATM    1  C1  UNL     1     -32.113   8.220   1.421  1.00 20.00     0.012 C 
HETATM    2  C2  UNL     1     -32.274   8.202   2.610  1.00 20.00    -0.117 C 
HETATM    3  C8  UNL     1     -32.467   8.183   4.065  1.00 20.00     0.098 C 
ENDROOT
BRANCH   3   4
HETATM    4  C7  UNL     1     -33.667   7.334   4.453  1.00 20.00     0.004 C 
HETATM    5  C5  UNL     1     -33.744   7.065   5.956  1.00 20.00     0.083 C 
HETATM    6  C3  UNL     1     -34.525   5.776   5.998  1.00 20.00     0.127 C 
HETATM    7  C4  UNL     1     -34.647   5.139   4.639  1.00 20.00     0.079 C 
HETATM    8  O9  UNL     1     -35.007   5.303   7.019  1.00 20.00    -0.298 OA
HETATM    9  C6  UNL     1     -33.633   5.938   3.829  1.00 20.00     0.013 C 
ENDBRANCH   3   4
TORSDOF 1
ENDMDL
MODEL 3
REMARK VINA RESULT:      -4.9      1.883      3.904
REMARK  1 active torsions:
REMARK  status: ('A' for Active; 'I' for Inactive)
REMARK    1  A    between atoms: C7_7  and  C8_8 
ROOT
HETATM    1  C1  UNL     1     -34.790   4.873   6.321  1.00 20.00     0.012 C 
HETATM    2  C2  UNL     1     -34.395   6.005   6.364  1.00 20.00    -0.117 C 
HETATM    3  C8  UNL     1     -33.913   7.391   6.421  1.00 20.00     0.098 C 
ENDROOT
BRANCH   3   4
HETATM    4  C7  UNL     1     -33.650   7.943   5.030  1.00 20.00     0.004 C 
HETATM    5  C5  UNL     1     -33.228   6.864   4.032  1.00 20.00     0.083 C 
HETATM    6  C3  UNL     1     -32.441   7.666   3.028  1.00 20.00     0.127 C 
HETATM    7  C4  UNL     1     -32.133   9.056   3.522  1.00 20.00     0.079 C 
HETATM    8  O9  UNL     1     -32.091   7.238   1.935  1.00 20.00    -0.298 OA
HETATM    9  C6  UNL     1     -32.498   8.948   4.998  1.00 20.00     0.013 C 
ENDBRANCH   3   4
TORSDOF 1
ENDMDL
MODEL 4
REMARK VINA RESULT:      -4.6      2.218      4.148
REMARK  1 active torsions:
REMARK  status: ('A' for Active; 'I' for Inactive)
REMARK    1  A    between atoms: C7_7  and  C8_8 
ROOT
HETATM    1  C1  UNL     1     -34.768   5.463   6.627  1.00 20.00     0.012 C 
HETATM    2  C2  UNL     1     -34.295   6.468   6.172  1.00 20.00    -0.117 C 
HETATM    3  C8  UNL     1     -33.719   7.700   5.619  1.00 20.00     0.098 C 
ENDROOT
BRANCH   3   4
HETATM    4  C7  UNL     1     -32.797   7.402   4.448  1.00 20.00     0.004 C 
HETATM    5  C5  UNL     1     -32.740   8.543   3.431  1.00 20.00     0.083 C 
HETATM    6  C3  UNL     1     -32.357   7.810   2.170  1.00 20.00     0.127 C 
HETATM    7  C4  UNL     1     -32.477   6.316   2.319  1.00 20.00     0.079 C 
HETATM    8  O9  UNL     1     -31.991   8.366   1.142  1.00 20.00    -0.298 OA
HETATM    9  C6  UNL     1     -33.252   6.196   3.626  1.00 20.00     0.013 C 
ENDBRANCH   3   4
TORSDOF 1
ENDMDL
MODEL 5
REMARK VINA RESULT:      -4.5      2.327      3.202
REMARK  1 active torsions:
REMARK  status: ('A' for Active; 'I' for Inactive)
REMARK    1  A    between atoms: C7_7  and  C8_8 
ROOT
HETATM    1  C1  UNL     1     -32.848   4.649   2.226  1.00 20.00     0.012 C 
HETATM    2  C2  UNL     1     -33.555   4.804   3.183  1.00 20.00    -0.117 C 
HETATM    3  C8  UNL     1     -34.422   4.988   4.354  1.00 20.00     0.098 C 
ENDROOT
BRANCH   3   4
HETATM    4  C7  UNL     1     -34.398   6.428   4.838  1.00 20.00     0.004 C 
HETATM    5  C5  UNL     1     -33.256   7.242   4.226  1.00 20.00     0.083 C 
HETATM    6  C3  UNL     1     -33.047   8.308   5.271  1.00 20.00     0.127 C 
HETATM    7  C4  UNL     1     -33.770   8.000   6.555  1.00 20.00     0.079 C 
HETATM    8  O9  UNL     1     -32.366   9.311   5.095  1.00 20.00    -0.298 OA
HETATM    9  C6  UNL     1     -34.167   6.543   6.345  1.00 20.00     0.013 C 
ENDBRANCH   3   4
TORSDOF 1
ENDMDL
MODEL 6
REMARK VINA RESULT:      -4.3      1.087      1.612
REMARK  1 active torsions:
REMARK  status: ('A' for Active; 'I' for Inactive)
REMARK    1  A    between atoms: C7_7  and  C8_8 
ROOT
HETATM    1  C1  UNL     1     -32.972   9.746   1.274  1.00 20.00     0.012 C 
HETATM    2  C2  UNL     1     -32.561   8.681   1.644  1.00 20.00    -0.117 C 
HETATM    3  C8  UNL     1     -32.057   7.377   2.093  1.00 20.00     0.098 C 
ENDROOT
BRANCH   3   4
HETATM    4  C7  UNL     1     -32.449   7.100   3.535  1.00 20.00     0.004 C 
HETATM    5  C5  UNL     1     -33.593   6.091   3.656  1.00 20.00     0.083 C 
HETATM    6  C3  UNL     1     -34.195   6.470   4.985  1.00 20.00     0.127 C 
HETATM    7  C4  UNL     1     -33.676   7.790   5.492  1.00 20.00     0.079 C 
HETATM    8  O9  UNL     1     -35.012   5.782   5.585  1.00 20.00    -0.298 OA
HETATM    9  C6  UNL     1     -32.973   8.341   4.257  1.00 20.00     0.013 C 
ENDBRANCH   3   4
TORSDOF 1
ENDMDL
MODEL 7
REMARK VINA RESULT:      -4.2     12.230     13.116
REMARK  1 active torsions:
REMARK  status: ('A' for Active; 'I' for Inactive)
REMARK    1  A    between atoms: C7_7  and  C8_8 
ROOT
HETATM    1  C1  UNL     1     -33.484  17.353  -1.484  1.00 20.00     0.012 C 
HETATM    2  C2  UNL     1     -33.334  16.702  -2.481  1.00 20.00    -0.117 C 
HETATM    3  C8  UNL     1     -33.145  15.908  -3.701  1.00 20.00     0.098 C 
ENDROOT
BRANCH   3   4
HETATM    4  C7  UNL     1     -34.475  15.583  -4.361  1.00 20.00     0.004 C 
HETATM    5  C5  UNL     1     -34.325  14.677  -5.585  1.00 20.00     0.083 C 
HETATM    6  C3  UNL     1     -35.556  15.030  -6.380  1.00 20.00     0.127 C 
HETATM    7  C4  UNL     1     -36.239  16.267  -5.856  1.00 20.00     0.079 C 
HETATM    8  O9  UNL     1     -35.956  14.386  -7.341  1.00 20.00    -0.298 OA
HETATM    9  C6  UNL     1     -35.186  16.823  -4.905  1.00 20.00     0.013 C 
ENDBRANCH   3   4
TORSDOF 1
ENDMDL
MODEL 8
REMARK VINA RESULT:      -4.1      1.177      2.292
REMARK  1 active torsions:
REMARK  status: ('A' for Active; 'I' for Inactive)
REMARK    1  A    between atoms: C7_7  and  C8_8 
ROOT
HETATM    1  C1  UNL     1     -32.036   9.424   5.039  1.00 20.00     0.012 C 
HETATM    2  C2  UNL     1     -32.236   8.596   4.193  1.00 20.00    -0.117 C 
HETATM    3  C8  UNL     1     -32.477   7.587   3.155  1.00 20.00     0.098 C 
ENDROOT
BRANCH   3   4
HETATM    4  C7  UNL     1     -33.574   6.620   3.567  1.00 20.00     0.004 C 
HETATM    5  C5  UNL     1     -33.973   6.767   5.037  1.00 20.00     0.083 C 
HETATM    6  C3  UNL     1     -34.512   5.393   5.346  1.00 20.00     0.127 C 
HETATM    7  C4  UNL     1     -34.186   4.395   4.266  1.00 20.00     0.079 C 
HETATM    8  O9  UNL     1     -35.144   5.120   6.359  1.00 20.00    -0.298 OA
HETATM    9  C6  UNL     1     -33.153   5.156   3.443  1.00 20.00     0.013 C 
ENDBRANCH   3   4
TORSDOF 1
ENDMDL
MODEL 9
REMARK VINA RESULT:      -4.0     12.104     13.109
REMARK  1 active torsions:
REMARK  status: ('A' for Active; 'I' for Inactive)
REMARK    1  A    between atoms: C7_7  and  C8_8 
ROOT
HETATM    1  C1  UNL     1     -31.909  18.612  -1.082  1.00 20.00     0.012 C 
HETATM    2  C2  UNL     1     -32.667  17.771  -1.481  1.00 20.00    -0.117 C 
HETATM    3  C8  UNL     1     -33.595  16.741  -1.963  1.00 20.00     0.098 C 
ENDROOT
BRANCH   3   4
HETATM    4  C7  UNL     1     -33.432  16.504  -3.455  1.00 20.00     0.004 C 
HETATM    5  C5  UNL     1     -34.447  17.281  -4.294  1.00 20.00     0.083 C 
HETATM    6  C3  UNL     1     -34.525  16.437  -5.541  1.00 20.00     0.127 C 
HETATM    7  C4  UNL     1     -33.864  15.095  -5.363  1.00 20.00     0.079 C 
HETATM    8  O9  UNL     1     -35.063  16.800  -6.579  1.00 20.00    -0.298 OA
HETATM    9  C6  UNL     1     -33.662  15.046  -3.853  1.00 20.00     0.013 C 
ENDBRANCH   3   4
TORSDOF 1
ENDMDL
