MODEL 1
REMARK VINA RESULT:      -4.5      0.000      0.000
REMARK  3 active torsions:
REMARK  status: ('A' for Active; 'I' for Inactive)
REMARK    1  A    between atoms: C3_3  and  C5_5 
REMARK    2  A    between atoms: C5_5  and  C6_6 
REMARK    3  A    between atoms: C6_6  and  C7_7 
ROOT
HETATM    1  C5  UNL     1     -33.255   7.350   5.735  1.00 20.00     0.006 C 
ENDROOT
BRANCH   1   2
HETATM    2  C3  UNL     1     -34.502   6.580   6.049  1.00 20.00    -0.014 A 
HETATM    3  C1  UNL     1     -35.146   5.720   4.996  1.00 20.00     0.005 A 
HETATM    4  C2  UNL     1     -34.454   5.081   6.167  1.00 20.00     0.005 A 
ENDBRANCH   1   2
BRANCH   1   5
HETATM    5  C6  UNL     1     -33.444   8.260   4.516  1.00 20.00     0.015 C 
BRANCH   5   6
HETATM    6  C7  UNL     1     -32.410   8.015   3.414  1.00 20.00     0.053 C 
HETATM    7  C4  UNL     1     -32.452   6.578   2.914  1.00 20.00     0.022 C 
HETATM    8 BR8  UNL     1     -32.762   9.192   1.885  1.00 20.00    -0.092 Br
ENDBRANCH   5   6
ENDBRANCH   1   5
TORSDOF 3
ENDMDL
MODEL 2
REMARK VINA RESULT:      -4.3      1.370      1.617
REMARK  3 active torsions:
REMARK  status: ('A' for Active; 'I' for Inactive)
REMARK    1  A    between atoms: C3_3  and  C5_5 
REMARK    2  A    between atoms: C5_5  and  C6_6 
REMARK    3  A    between atoms: C6_6  and  C7_7 
ROOT
HETATM    1  C5  UNL     1     -33.760   7.109   6.028  1.00 20.00     0.006 C 
ENDROOT
BRANCH   1   2
HETATM    2  C3  UNL     1     -34.644   5.900   5.989  1.00 20.00    -0.014 A 
HETATM    3  C1  UNL     1     -35.397   5.552   4.735  1.00 20.00     0.005 A 
HETATM    4  C2  UNL     1     -34.244   4.697   5.179  1.00 20.00     0.005 A 
ENDBRANCH   1   2
BRANCH   1   5
HETATM    5  C6  UNL     1     -34.159   8.136   4.961  1.00 20.00     0.015 C 
BRANCH   5   6
HETATM    6  C7  UNL     1     -32.976   8.625   4.123  1.00 20.00     0.053 C 
HETATM    7  C4  UNL     1     -31.833   9.118   4.999  1.00 20.00     0.022 C 
HETATM    8 BR8  UNL     1     -32.291   7.165   3.007  1.00 20.00    -0.092 Br
ENDBRANCH   5   6
ENDBRANCH   1   5
TORSDOF 3
ENDMDL
MODEL 3
REMARK VINA RESULT:      -4.2      2.168      3.806
REMARK  3 active torsions:
REMARK  status: ('A' for Active; 'I' for Inactive)
REMARK    1  A    between atoms: C3_3  and  C5_5 
REMARK    2  A    between atoms: C5_5  and  C6_6 
REMARK    3  A    between atoms: C6_6  and  C7_7 
ROOT
HETATM    1  C5  UNL     1     -33.895   7.958   5.406  1.00 20.00     0.006 C 
ENDROOT
BRANCH   1   2
HETATM    2  C3  UNL     1     -32.577   8.151   4.719  1.00 20.00    -0.014 A 
HETATM    3  C1  UNL     1     -32.288   7.446   3.423  1.00 20.00     0.005 A 
HETATM    4  C2  UNL     1     -32.502   8.934   3.436  1.00 20.00     0.005 A 
ENDBRANCH   1   2
BRANCH   1   5
HETATM    5  C6  UNL     1     -33.952   6.619   6.153  1.00 20.00     0.015 C 
BRANCH   5   6
HETATM    6  C7  UNL     1     -34.822   5.574   5.453  1.00 20.00     0.053 C 
HETATM    7  C4  UNL     1     -35.692   6.200   4.371  1.00 20.00     0.022 C 
HETATM    8 BR8  UNL     1     -33.691   4.216   4.601  1.00 20.00    -0.092 Br
ENDBRANCH   5   6
ENDBRANCH   1   5
TORSDOF 3
ENDMDL
MODEL 4
REMARK VINA RESULT:      -3.9      1.560      1.903
REMARK  3 active torsions:
REMARK  status: ('A' for Active; 'I' for Inactive)
REMARK    1  A    between atoms: C3_3  and  C5_5 
REMARK    2  A    between atoms: C5_5  and  C6_6 
REMARK    3  A    between atoms: C6_6  and  C7_7 
ROOT
HETATM    1  C5  UNL     1     -34.566   6.569   3.994  1.00 20.00     0.006 C 
ENDROOT
BRANCH   1   2
HETATM    2  C3  UNL     1     -35.033   5.652   5.082  1.00 20.00    -0.014 A 
HETATM    3  C1  UNL     1     -34.041   4.828   5.857  1.00 20.00     0.005 A 
HETATM    4  C2  UNL     1     -34.745   5.979   6.522  1.00 20.00     0.005 A 
ENDBRANCH   1   2
BRANCH   1   5
HETATM    5  C6  UNL     1     -33.261   6.074   3.358  1.00 20.00     0.015 C 
BRANCH   5   6
HETATM    6  C7  UNL     1     -32.198   7.167   3.233  1.00 20.00     0.053 C 
HETATM    7  C4  UNL     1     -32.267   7.866   1.883  1.00 20.00     0.022 C 
HETATM    8 BR8  UNL     1     -32.459   8.524   4.625  1.00 20.00    -0.092 Br
ENDBRANCH   5   6
ENDBRANCH   1   5
TORSDOF 3
ENDMDL
MODEL 5
REMARK VINA RESULT:      -3.8      1.849      3.833
REMARK  3 active torsions:
REMARK  status: ('A' for Active; 'I' for Inactive)
REMARK    1  A    between atoms: C3_3  and  C5_5 
REMARK    2  A    between atoms: C5_5  and  C6_6 
REMARK    3  A    between atoms: C6_6  and  C7_7 
ROOT
HETATM    1  C5  UNL     1     -33.693   8.358   5.052  1.00 20.00     0.006 C 
ENDROOT
BRANCH   1   2
HETATM    2  C3  UNL     1     -32.425   8.442   4.258  1.00 20.00    -0.014 A 
HETATM    3  C1  UNL     1     -32.142   7.439   3.174  1.00 20.00     0.005 A 
HETATM    4  C2  UNL     1     -32.463   8.864   2.815  1.00 20.00     0.005 A 
ENDBRANCH   1   2
BRANCH   1   5
HETATM    5  C6  UNL     1     -33.623   7.256   6.116  1.00 20.00     0.015 C 
BRANCH   5   6
HETATM    6  C7  UNL     1     -34.087   5.891   5.602  1.00 20.00     0.053 C 
HETATM    7  C4  UNL     1     -34.643   5.027   6.725  1.00 20.00     0.022 C 
HETATM    8 BR8  UNL     1     -35.503   6.120   4.264  1.00 20.00    -0.092 Br
ENDBRANCH   5   6
ENDBRANCH   1   5
TORSDOF 3
ENDMDL
MODEL 6
REMARK VINA RESULT:      -3.7      2.505      3.860
REMARK  3 active torsions:
REMARK  status: ('A' for Active; 'I' for Inactive)
REMARK    1  A    between atoms: C3_3  and  C5_5 
REMARK    2  A    between atoms: C5_5  and  C6_6 
REMARK    3  A    between atoms: C6_6  and  C7_7 
ROOT
HETATM    1  C5  UNL     1     -33.817   7.698   5.168  1.00 20.00     0.006 C 
ENDROOT
BRANCH   1   2
HETATM    2  C3  UNL     1     -32.500   8.054   4.549  1.00 20.00    -0.014 A 
HETATM    3  C1  UNL     1     -32.140   7.537   3.183  1.00 20.00     0.005 A 
HETATM    4  C2  UNL     1     -32.446   8.997   3.377  1.00 20.00     0.005 A 
ENDBRANCH   1   2
BRANCH   1   5
HETATM    5  C6  UNL     1     -34.669   6.837   4.228  1.00 20.00     0.015 C 
BRANCH   5   6
HETATM    6  C7  UNL     1     -34.873   5.408   4.737  1.00 20.00     0.053 C 
HETATM    7  C4  UNL     1     -33.942   4.425   4.043  1.00 20.00     0.022 C 
HETATM    8 BR8  UNL     1     -34.510   5.321   6.663  1.00 20.00    -0.092 Br
ENDBRANCH   5   6
ENDBRANCH   1   5
TORSDOF 3
ENDMDL
MODEL 7
REMARK VINA RESULT:      -3.5      9.252     10.209
REMARK  3 active torsions:
REMARK  status: ('A' for Active; 'I' for Inactive)
REMARK    1  A    between atoms: C3_3  and  C5_5 
REMARK    2  A    between atoms: C5_5  and  C6_6 
REMARK    3  A    between atoms: C6_6  and  C7_7 
ROOT
HETATM    1  C5  UNL     1     -40.878  13.011   5.690  1.00 20.00     0.006 C 
ENDROOT
BRANCH   1   2
HETATM    2  C3  UNL     1     -39.943  11.850   5.536  1.00 20.00    -0.014 A 
HETATM    3  C1  UNL     1     -39.165  11.668   4.262  1.00 20.00     0.005 A 
HETATM    4  C2  UNL     1     -38.456  12.074   5.524  1.00 20.00     0.005 A 
ENDBRANCH   1   2
BRANCH   1   5
HETATM    5  C6  UNL     1     -42.012  12.697   6.674  1.00 20.00     0.015 C 
BRANCH   5   6
HETATM    6  C7  UNL     1     -42.230  13.798   7.714  1.00 20.00     0.053 C 
HETATM    7  C4  UNL     1     -43.020  13.291   8.912  1.00 20.00     0.022 C 
HETATM    8 BR8  UNL     1     -40.503  14.457   8.371  1.00 20.00    -0.092 Br
ENDBRANCH   5   6
ENDBRANCH   1   5
TORSDOF 3
ENDMDL
MODEL 8
REMARK VINA RESULT:      -3.5      9.197     10.052
REMARK  3 active torsions:
REMARK  status: ('A' for Active; 'I' for Inactive)
REMARK    1  A    between atoms: C3_3  and  C5_5 
REMARK    2  A    between atoms: C5_5  and  C6_6 
REMARK    3  A    between atoms: C6_6  and  C7_7 
ROOT
HETATM    1  C5  UNL     1     -40.838  13.037   5.501  1.00 20.00     0.006 C 
ENDROOT
BRANCH   1   2
HETATM    2  C3  UNL     1     -39.917  11.859   5.402  1.00 20.00    -0.014 A 
HETATM    3  C1  UNL     1     -39.076  11.657   4.172  1.00 20.00     0.005 A 
HETATM    4  C2  UNL     1     -38.427  12.058   5.468  1.00 20.00     0.005 A 
ENDBRANCH   1   2
BRANCH   1   5
HETATM    5  C6  UNL     1     -41.802  12.903   6.687  1.00 20.00     0.015 C 
BRANCH   5   6
HETATM    6  C7  UNL     1     -41.777  14.112   7.624  1.00 20.00     0.053 C 
HETATM    7  C4  UNL     1     -40.413  14.290   8.275  1.00 20.00     0.022 C 
HETATM    8 BR8  UNL     1     -42.182  15.750   6.622  1.00 20.00    -0.092 Br
ENDBRANCH   5   6
ENDBRANCH   1   5
TORSDOF 3
ENDMDL
MODEL 9
REMARK VINA RESULT:      -3.5     11.736     12.473
REMARK  3 active torsions:
REMARK  status: ('A' for Active; 'I' for Inactive)
REMARK    1  A    between atoms: C3_3  and  C5_5 
REMARK    2  A    between atoms: C5_5  and  C6_6 
REMARK    3  A    between atoms: C6_6  and  C7_7 
ROOT
HETATM    1  C5  UNL     1     -33.448  16.988  -2.042  1.00 20.00     0.006 C 
ENDROOT
BRANCH   1   2
HETATM    2  C3  UNL     1     -33.158  16.404  -3.391  1.00 20.00    -0.014 A 
HETATM    3  C1  UNL     1     -33.758  15.083  -3.790  1.00 20.00     0.005 A 
HETATM    4  C2  UNL     1     -34.236  16.352  -4.439  1.00 20.00     0.005 A 
ENDBRANCH   1   2
BRANCH   1   5
HETATM    5  C6  UNL     1     -32.447  18.091  -1.677  1.00 20.00     0.015 C 
BRANCH   5   6
HETATM    6  C7  UNL     1     -32.729  18.736  -0.319  1.00 20.00     0.053 C 
HETATM    7  C4  UNL     1     -33.884  18.052   0.399  1.00 20.00     0.022 C 
HETATM    8 BR8  UNL     1     -31.146  18.604   0.832  1.00 20.00    -0.092 Br
ENDBRANCH   5   6
ENDBRANCH   1   5
TORSDOF 3
ENDMDL
