MODEL 1
REMARK VINA RESULT:      -4.3      0.000      0.000
REMARK  1 active torsions:
REMARK  status: ('A' for Active; 'I' for Inactive)
REMARK    1  A    between atoms: C8_8  and  C10_10 
ROOT
HETATM    1  C1  UNL     1     -33.016   9.490   0.007  1.00 20.00     0.012 C 
HETATM    2  C2  UNL     1     -32.487   8.808   0.842  1.00 20.00    -0.117 C 
HETATM    3  C10 UNL     1     -31.826   7.977   1.847  1.00 20.00     0.097 C 
ENDROOT
BRANCH   3   4
HETATM    4  C8  UNL     1     -32.767   7.703   3.029  1.00 20.00    -0.002 C 
HETATM    5  C5  UNL     1     -32.266   8.492   4.252  1.00 20.00     0.005 C 
HETATM    6  C3  UNL     1     -33.233   8.571   5.429  1.00 20.00     0.000 C 
HETATM    7  C4  UNL     1     -33.707   7.229   5.983  1.00 20.00     0.001 C 
HETATM    8  C6  UNL     1     -34.712   6.535   5.065  1.00 20.00     0.016 C 
HETATM    9  C9  UNL     1     -34.101   5.695   3.947  1.00 20.00     0.058 C 
HETATM   10  C7  UNL     1     -32.805   6.191   3.308  1.00 20.00     0.021 C 
HETATM   11 BR11 UNL     1     -33.778   3.868   4.621  1.00 20.00    -0.091 Br
ENDBRANCH   3   4
TORSDOF 1
ENDMDL
MODEL 2
REMARK VINA RESULT:      -4.2     11.159     12.497
REMARK  1 active torsions:
REMARK  status: ('A' for Active; 'I' for Inactive)
REMARK    1  A    between atoms: C8_8  and  C10_10 
ROOT
HETATM    1  C1  UNL     1     -30.916  18.820   0.425  1.00 20.00     0.012 C 
HETATM    2  C2  UNL     1     -32.055  18.513   0.203  1.00 20.00    -0.117 C 
HETATM    3  C10 UNL     1     -33.446  18.138  -0.049  1.00 20.00     0.097 C 
ENDROOT
BRANCH   3   4
HETATM    4  C8  UNL     1     -33.747  18.147  -1.554  1.00 20.00    -0.002 C 
HETATM    5  C5  UNL     1     -35.142  18.758  -1.774  1.00 20.00     0.005 C 
HETATM    6  C3  UNL     1     -35.488  19.112  -3.217  1.00 20.00     0.000 C 
HETATM    7  C4  UNL     1     -35.390  17.964  -4.219  1.00 20.00     0.001 C 
HETATM    8  C6  UNL     1     -33.945  17.588  -4.544  1.00 20.00     0.016 C 
HETATM    9  C9  UNL     1     -33.293  16.608  -3.574  1.00 20.00     0.058 C 
HETATM   10  C7  UNL     1     -33.667  16.709  -2.096  1.00 20.00     0.021 C 
HETATM   11 BR11 UNL     1     -33.679  14.765  -4.167  1.00 20.00    -0.091 Br
ENDBRANCH   3   4
TORSDOF 1
ENDMDL
MODEL 3
REMARK VINA RESULT:      -4.1     11.652     12.833
REMARK  1 active torsions:
REMARK  status: ('A' for Active; 'I' for Inactive)
REMARK    1  A    between atoms: C8_8  and  C10_10 
ROOT
HETATM    1  C1  UNL     1     -34.048  18.072   0.051  1.00 20.00     0.012 C 
HETATM    2  C2  UNL     1     -33.479  17.755  -0.957  1.00 20.00    -0.117 C 
HETATM    3  C10 UNL     1     -32.768  17.375  -2.177  1.00 20.00     0.097 C 
ENDROOT
BRANCH   3   4
HETATM    4  C8  UNL     1     -33.733  16.757  -3.198  1.00 20.00    -0.002 C 
HETATM    5  C5  UNL     1     -33.073  15.508  -3.807  1.00 20.00     0.005 C 
HETATM    6  C3  UNL     1     -33.994  14.605  -4.623  1.00 20.00     0.000 C 
HETATM    7  C4  UNL     1     -34.721  15.282  -5.784  1.00 20.00     0.001 C 
HETATM    8  C6  UNL     1     -35.852  16.196  -5.316  1.00 20.00     0.016 C 
HETATM    9  C9  UNL     1     -35.431  17.614  -4.941  1.00 20.00     0.058 C 
HETATM   10  C7  UNL     1     -34.068  17.802  -4.277  1.00 20.00     0.021 C 
HETATM   11 BR11 UNL     1     -35.473  18.745  -6.559  1.00 20.00    -0.091 Br
ENDBRANCH   3   4
TORSDOF 1
ENDMDL
MODEL 4
REMARK VINA RESULT:      -4.1      9.989     10.925
REMARK  1 active torsions:
REMARK  status: ('A' for Active; 'I' for Inactive)
REMARK    1  A    between atoms: C8_8  and  C10_10 
ROOT
HETATM    1  C1  UNL     1     -38.927  11.740   3.479  1.00 20.00     0.012 C 
HETATM    2  C2  UNL     1     -39.309  11.725   4.617  1.00 20.00    -0.117 C 
HETATM    3  C10 UNL     1     -39.760  11.693   6.008  1.00 20.00     0.097 C 
ENDROOT
BRANCH   3   4
HETATM    4  C8  UNL     1     -40.852  12.744   6.249  1.00 20.00    -0.002 C 
HETATM    5  C5  UNL     1     -41.168  13.442   4.914  1.00 20.00     0.005 C 
HETATM    6  C3  UNL     1     -42.424  14.308   4.901  1.00 20.00     0.000 C 
HETATM    7  C4  UNL     1     -42.472  15.414   5.954  1.00 20.00     0.001 C 
HETATM    8  C6  UNL     1     -42.725  14.876   7.361  1.00 20.00     0.016 C 
HETATM    9  C9  UNL     1     -41.483  14.411   8.114  1.00 20.00     0.058 C 
HETATM   10  C7  UNL     1     -40.366  13.747   7.309  1.00 20.00     0.021 C 
HETATM   11 BR11 UNL     1     -40.700  15.948   9.074  1.00 20.00    -0.091 Br
ENDBRANCH   3   4
TORSDOF 1
ENDMDL
MODEL 5
REMARK VINA RESULT:      -4.0     12.916     14.050
REMARK  1 active torsions:
REMARK  status: ('A' for Active; 'I' for Inactive)
REMARK    1  A    between atoms: C8_8  and  C10_10 
ROOT
HETATM    1  C1  UNL     1     -23.172  -3.215   7.879  1.00 20.00     0.012 C 
HETATM    2  C2  UNL     1     -23.626  -3.271   8.988  1.00 20.00    -0.117 C 
HETATM    3  C10 UNL     1     -24.163  -3.351  10.346  1.00 20.00     0.097 C 
ENDROOT
BRANCH   3   4
HETATM    4  C8  UNL     1     -25.406  -2.463  10.491  1.00 20.00    -0.002 C 
HETATM    5  C5  UNL     1     -25.253  -1.604  11.758  1.00 20.00     0.005 C 
HETATM    6  C3  UNL     1     -26.251  -0.459  11.906  1.00 20.00     0.000 C 
HETATM    7  C4  UNL     1     -27.724  -0.861  11.869  1.00 20.00     0.001 C 
HETATM    8  C6  UNL     1     -28.197  -1.236  10.465  1.00 20.00     0.016 C 
HETATM    9  C9  UNL     1     -27.940  -2.683  10.056  1.00 20.00     0.058 C 
HETATM   10  C7  UNL     1     -26.661  -3.351  10.559  1.00 20.00     0.021 C 
HETATM   11 BR11 UNL     1     -29.466  -3.794  10.635  1.00 20.00    -0.091 Br
ENDBRANCH   3   4
TORSDOF 1
ENDMDL
MODEL 6
REMARK VINA RESULT:      -3.8     11.200     12.528
REMARK  1 active torsions:
REMARK  status: ('A' for Active; 'I' for Inactive)
REMARK    1  A    between atoms: C8_8  and  C10_10 
ROOT
HETATM    1  C1  UNL     1     -33.931  18.466   0.946  1.00 20.00     0.012 C 
HETATM    2  C2  UNL     1     -33.197  18.360   0.002  1.00 20.00    -0.117 C 
HETATM    3  C10 UNL     1     -32.286  18.231  -1.135  1.00 20.00     0.097 C 
ENDROOT
BRANCH   3   4
HETATM    4  C8  UNL     1     -33.072  18.074  -2.444  1.00 20.00    -0.002 C 
HETATM    5  C5  UNL     1     -34.368  18.897  -2.343  1.00 20.00     0.005 C 
HETATM    6  C3  UNL     1     -35.130  19.093  -3.651  1.00 20.00     0.000 C 
HETATM    7  C4  UNL     1     -35.524  17.811  -4.382  1.00 20.00     0.001 C 
HETATM    8  C6  UNL     1     -34.334  17.126  -5.052  1.00 20.00     0.016 C 
HETATM    9  C9  UNL     1     -33.527  16.195  -4.153  1.00 20.00     0.058 C 
HETATM   10  C7  UNL     1     -33.367  16.583  -2.683  1.00 20.00     0.021 C 
HETATM   11 BR11 UNL     1     -34.327  14.391  -4.214  1.00 20.00    -0.091 Br
ENDBRANCH   3   4
TORSDOF 1
ENDMDL
MODEL 7
REMARK VINA RESULT:      -3.8     10.330     11.414
REMARK  1 active torsions:
REMARK  status: ('A' for Active; 'I' for Inactive)
REMARK    1  A    between atoms: C8_8  and  C10_10 
ROOT
HETATM    1  C1  UNL     1     -38.227  11.894   5.247  1.00 20.00     0.012 C 
HETATM    2  C2  UNL     1     -39.365  12.274   5.260  1.00 20.00    -0.117 C 
HETATM    3  C10 UNL     1     -40.753  12.734   5.256  1.00 20.00     0.097 C 
ENDROOT
BRANCH   3   4
HETATM    4  C8  UNL     1     -41.216  13.075   6.679  1.00 20.00    -0.002 C 
HETATM    5  C5  UNL     1     -42.698  12.684   6.822  1.00 20.00     0.005 C 
HETATM    6  C3  UNL     1     -43.246  12.681   8.246  1.00 20.00     0.000 C 
HETATM    7  C4  UNL     1     -43.102  13.995   9.010  1.00 20.00     0.001 C 
HETATM    8  C6  UNL     1     -41.664  14.266   9.449  1.00 20.00     0.016 C 
HETATM    9  C9  UNL     1     -40.781  14.942   8.405  1.00 20.00     0.058 C 
HETATM   10  C7  UNL     1     -41.001  14.576   6.937  1.00 20.00     0.021 C 
HETATM   11 BR11 UNL     1     -40.974  16.900   8.571  1.00 20.00    -0.091 Br
ENDBRANCH   3   4
TORSDOF 1
ENDMDL
MODEL 8
REMARK VINA RESULT:      -3.8     11.397     12.676
REMARK  1 active torsions:
REMARK  status: ('A' for Active; 'I' for Inactive)
REMARK    1  A    between atoms: C8_8  and  C10_10 
ROOT
HETATM    1  C1  UNL     1     -35.668  13.751  -4.546  1.00 20.00     0.012 C 
HETATM    2  C2  UNL     1     -34.568  14.213  -4.415  1.00 20.00    -0.117 C 
HETATM    3  C10 UNL     1     -33.219  14.757  -4.261  1.00 20.00     0.097 C 
ENDROOT
BRANCH   3   4
HETATM    4  C8  UNL     1     -33.274  16.236  -3.854  1.00 20.00    -0.002 C 
HETATM    5  C5  UNL     1     -33.601  16.323  -2.353  1.00 20.00     0.005 C 
HETATM    6  C3  UNL     1     -33.412  17.695  -1.713  1.00 20.00     0.000 C 
HETATM    7  C4  UNL     1     -34.192  18.837  -2.361  1.00 20.00     0.001 C 
HETATM    8  C6  UNL     1     -33.605  19.263  -3.705  1.00 20.00     0.016 C 
HETATM    9  C9  UNL     1     -34.076  18.451  -4.908  1.00 20.00     0.058 C 
HETATM   10  C7  UNL     1     -34.333  16.958  -4.706  1.00 20.00     0.021 C 
HETATM   11 BR11 UNL     1     -35.732  19.256  -5.618  1.00 20.00    -0.091 Br
ENDBRANCH   3   4
TORSDOF 1
ENDMDL
MODEL 9
REMARK VINA RESULT:      -3.6     11.000     12.092
REMARK  1 active torsions:
REMARK  status: ('A' for Active; 'I' for Inactive)
REMARK    1  A    between atoms: C8_8  and  C10_10 
ROOT
HETATM    1  C1  UNL     1     -38.988  12.151   5.238  1.00 20.00     0.012 C 
HETATM    2  C2  UNL     1     -40.066  12.251   5.756  1.00 20.00    -0.117 C 
HETATM    3  C10 UNL     1     -41.377  12.355   6.396  1.00 20.00     0.097 C 
ENDROOT
BRANCH   3   4
HETATM    4  C8  UNL     1     -42.010  13.725   6.118  1.00 20.00    -0.002 C 
HETATM    5  C5  UNL     1     -41.971  13.988   4.602  1.00 20.00     0.005 C 
HETATM    6  C3  UNL     1     -42.812  15.164   4.113  1.00 20.00     0.000 C 
HETATM    7  C4  UNL     1     -42.500  16.511   4.762  1.00 20.00     0.001 C 
HETATM    8  C6  UNL     1     -43.010  16.603   6.199  1.00 20.00     0.016 C 
HETATM    9  C9  UNL     1     -42.073  16.037   7.261  1.00 20.00     0.058 C 
HETATM   10  C7  UNL     1     -41.243  14.807   6.898  1.00 20.00     0.021 C 
HETATM   11 BR11 UNL     1     -40.826  17.455   7.838  1.00 20.00    -0.091 Br
ENDBRANCH   3   4
TORSDOF 1
ENDMDL
