MODEL 1
REMARK VINA RESULT:      -4.7      0.000      0.000
REMARK  2 active torsions:
REMARK  status: ('A' for Active; 'I' for Inactive)
REMARK    1  A    between atoms: C6_6  and  C9_9 
REMARK    2  A    between atoms: C8_8  and  C9_9 
ROOT
HETATM    1  C1  UNL     1     -32.868   9.476  -0.194  1.00 20.00     0.012 C 
HETATM    2  C2  UNL     1     -32.523   8.850   0.770  1.00 20.00    -0.117 C 
HETATM    3  C8  UNL     1     -32.097   8.080   1.946  1.00 20.00     0.093 C 
ENDROOT
BRANCH   3   4
HETATM    4  C9  UNL     1     -32.454   8.822   3.223  1.00 20.00     0.017 C 
BRANCH   4   5
HETATM    5  C6  UNL     1     -32.553   7.865   4.401  1.00 20.00    -0.012 C 
HETATM    6  C3  UNL     1     -33.395   8.435   5.549  1.00 20.00     0.006 C 
HETATM    7  C4  UNL     1     -34.044   7.211   6.177  1.00 20.00     0.020 C 
HETATM    8  C7  UNL     1     -34.416   6.389   4.953  1.00 20.00     0.082 C 
HETATM    9  C5  UNL     1     -33.204   6.519   4.031  1.00 20.00     0.024 C 
HETATM   10 CL10 UNL     1     -34.784   4.706   5.359  1.00 20.00    -0.125 Cl
ENDBRANCH   4   5
ENDBRANCH   3   4
TORSDOF 2
ENDMDL
MODEL 2
REMARK VINA RESULT:      -4.5     11.048     11.635
REMARK  2 active torsions:
REMARK  status: ('A' for Active; 'I' for Inactive)
REMARK    1  A    between atoms: C6_6  and  C9_9 
REMARK    2  A    between atoms: C8_8  and  C9_9 
ROOT
HETATM    1  C1  UNL     1     -33.253  15.522  -3.848  1.00 20.00     0.012 C 
HETATM    2  C2  UNL     1     -33.358  16.279  -2.921  1.00 20.00    -0.117 C 
HETATM    3  C8  UNL     1     -33.489  17.200  -1.785  1.00 20.00     0.093 C 
ENDROOT
BRANCH   3   4
HETATM    4  C9  UNL     1     -32.706  18.476  -2.044  1.00 20.00     0.017 C 
BRANCH   4   5
HETATM    5  C6  UNL     1     -32.410  19.208  -0.744  1.00 20.00    -0.012 C 
HETATM    6  C3  UNL     1     -33.466  18.936   0.334  1.00 20.00     0.006 C 
HETATM    7  C4  UNL     1     -32.689  19.002   1.640  1.00 20.00     0.020 C 
HETATM    8  C7  UNL     1     -31.398  18.284   1.275  1.00 20.00     0.082 C 
HETATM    9  C5  UNL     1     -31.060  18.807  -0.120  1.00 20.00     0.024 C 
HETATM   10 CL10 UNL     1     -30.106  18.585   2.446  1.00 20.00    -0.125 Cl
ENDBRANCH   4   5
ENDBRANCH   3   4
TORSDOF 2
ENDMDL
MODEL 3
REMARK VINA RESULT:      -4.4      2.555      4.844
REMARK  2 active torsions:
REMARK  status: ('A' for Active; 'I' for Inactive)
REMARK    1  A    between atoms: C6_6  and  C9_9 
REMARK    2  A    between atoms: C8_8  and  C9_9 
ROOT
HETATM    1  C1  UNL     1     -34.500   5.016   6.344  1.00 20.00     0.012 C 
HETATM    2  C2  UNL     1     -34.447   6.077   5.784  1.00 20.00    -0.117 C 
HETATM    3  C8  UNL     1     -34.387   7.374   5.097  1.00 20.00     0.093 C 
ENDROOT
BRANCH   3   4
HETATM    4  C9  UNL     1     -33.067   8.067   5.389  1.00 20.00     0.017 C 
BRANCH   4   5
HETATM    5  C6  UNL     1     -32.217   8.176   4.132  1.00 20.00    -0.012 C 
HETATM    6  C3  UNL     1     -32.307   6.921   3.255  1.00 20.00     0.006 C 
HETATM    7  C4  UNL     1     -32.147   7.447   1.837  1.00 20.00     0.020 C 
HETATM    8  C7  UNL     1     -32.977   8.721   1.879  1.00 20.00     0.082 C 
HETATM    9  C5  UNL     1     -32.630   9.351   3.226  1.00 20.00     0.024 C 
HETATM   10 CL10 UNL     1     -32.630   9.795   0.515  1.00 20.00    -0.125 Cl
ENDBRANCH   4   5
ENDBRANCH   3   4
TORSDOF 2
ENDMDL
MODEL 4
REMARK VINA RESULT:      -4.3      1.551      2.339
REMARK  2 active torsions:
REMARK  status: ('A' for Active; 'I' for Inactive)
REMARK    1  A    between atoms: C6_6  and  C9_9 
REMARK    2  A    between atoms: C8_8  and  C9_9 
ROOT
HETATM    1  C1  UNL     1     -32.511   8.742   0.698  1.00 20.00     0.012 C 
HETATM    2  C2  UNL     1     -32.279   8.013   1.624  1.00 20.00    -0.117 C 
HETATM    3  C8  UNL     1     -31.992   7.126   2.758  1.00 20.00     0.093 C 
ENDROOT
BRANCH   3   4
HETATM    4  C9  UNL     1     -32.859   5.881   2.690  1.00 20.00     0.017 C 
BRANCH   4   5
HETATM    5  C6  UNL     1     -34.002   5.955   3.691  1.00 20.00    -0.012 C 
HETATM    6  C3  UNL     1     -34.143   4.670   4.515  1.00 20.00     0.006 C 
HETATM    7  C4  UNL     1     -34.660   5.148   5.863  1.00 20.00     0.020 C 
HETATM    8  C7  UNL     1     -33.845   6.414   6.082  1.00 20.00     0.082 C 
HETATM    9  C5  UNL     1     -33.834   7.094   4.714  1.00 20.00     0.024 C 
HETATM   10 CL10 UNL     1     -34.528   7.443   7.349  1.00 20.00    -0.125 Cl
ENDBRANCH   4   5
ENDBRANCH   3   4
TORSDOF 2
ENDMDL
MODEL 5
REMARK VINA RESULT:      -4.3      2.491      4.420
REMARK  2 active torsions:
REMARK  status: ('A' for Active; 'I' for Inactive)
REMARK    1  A    between atoms: C6_6  and  C9_9 
REMARK    2  A    between atoms: C8_8  and  C9_9 
ROOT
HETATM    1  C1  UNL     1     -34.032   4.031   4.483  1.00 20.00     0.012 C 
HETATM    2  C2  UNL     1     -34.401   4.870   5.260  1.00 20.00    -0.117 C 
HETATM    3  C8  UNL     1     -34.855   5.892   6.211  1.00 20.00     0.093 C 
ENDROOT
BRANCH   3   4
HETATM    4  C9  UNL     1     -33.779   6.945   6.412  1.00 20.00     0.017 C 
BRANCH   4   5
HETATM    5  C6  UNL     1     -33.720   7.900   5.229  1.00 20.00    -0.012 C 
HETATM    6  C3  UNL     1     -32.608   8.945   5.374  1.00 20.00     0.006 C 
HETATM    7  C4  UNL     1     -32.164   9.216   3.945  1.00 20.00     0.020 C 
HETATM    8  C7  UNL     1     -32.177   7.820   3.341  1.00 20.00     0.082 C 
HETATM    9  C5  UNL     1     -33.453   7.185   3.891  1.00 20.00     0.024 C 
HETATM   10 CL10 UNL     1     -32.139   7.852   1.572  1.00 20.00    -0.125 Cl
ENDBRANCH   4   5
ENDBRANCH   3   4
TORSDOF 2
ENDMDL
MODEL 6
REMARK VINA RESULT:      -4.2     11.035     12.192
REMARK  2 active torsions:
REMARK  status: ('A' for Active; 'I' for Inactive)
REMARK    1  A    between atoms: C6_6  and  C9_9 
REMARK    2  A    between atoms: C8_8  and  C9_9 
ROOT
HETATM    1  C1  UNL     1     -30.452  18.441   2.132  1.00 20.00     0.012 C 
HETATM    2  C2  UNL     1     -30.870  18.496   1.008  1.00 20.00    -0.117 C 
HETATM    3  C8  UNL     1     -31.377  18.561  -0.369  1.00 20.00     0.093 C 
ENDROOT
BRANCH   3   4
HETATM    4  C9  UNL     1     -32.762  19.183  -0.395  1.00 20.00     0.017 C 
BRANCH   4   5
HETATM    5  C6  UNL     1     -33.581  18.645  -1.559  1.00 20.00    -0.012 C 
HETATM    6  C3  UNL     1     -33.031  19.094  -2.918  1.00 20.00     0.006 C 
HETATM    7  C4  UNL     1     -33.358  17.938  -3.851  1.00 20.00     0.020 C 
HETATM    8  C7  UNL     1     -33.052  16.732  -2.977  1.00 20.00     0.082 C 
HETATM    9  C5  UNL     1     -33.618  17.106  -1.609  1.00 20.00     0.024 C 
HETATM   10 CL10 UNL     1     -33.754  15.240  -3.620  1.00 20.00    -0.125 Cl
ENDBRANCH   4   5
ENDBRANCH   3   4
TORSDOF 2
ENDMDL
MODEL 7
REMARK VINA RESULT:      -4.2     11.306     12.454
REMARK  2 active torsions:
REMARK  status: ('A' for Active; 'I' for Inactive)
REMARK    1  A    between atoms: C6_6  and  C9_9 
REMARK    2  A    between atoms: C8_8  and  C9_9 
ROOT
HETATM    1  C1  UNL     1     -31.175  18.530  -0.228  1.00 20.00     0.012 C 
HETATM    2  C2  UNL     1     -32.159  18.350  -0.892  1.00 20.00    -0.117 C 
HETATM    3  C8  UNL     1     -33.363  18.135  -1.706  1.00 20.00     0.093 C 
ENDROOT
BRANCH   3   4
HETATM    4  C9  UNL     1     -33.513  16.664  -2.052  1.00 20.00     0.017 C 
BRANCH   4   5
HETATM    5  C6  UNL     1     -33.260  16.423  -3.533  1.00 20.00    -0.012 C 
HETATM    6  C3  UNL     1     -33.598  14.988  -3.958  1.00 20.00     0.006 C 
HETATM    7  C4  UNL     1     -34.071  15.130  -5.396  1.00 20.00     0.020 C 
HETATM    8  C7  UNL     1     -34.912  16.395  -5.328  1.00 20.00     0.082 C 
HETATM    9  C5  UNL     1     -34.098  17.339  -4.444  1.00 20.00     0.024 C 
HETATM   10 CL10 UNL     1     -35.236  17.074  -6.930  1.00 20.00    -0.125 Cl
ENDBRANCH   4   5
ENDBRANCH   3   4
TORSDOF 2
ENDMDL
MODEL 8
REMARK VINA RESULT:      -4.1      3.018      3.797
REMARK  2 active torsions:
REMARK  status: ('A' for Active; 'I' for Inactive)
REMARK    1  A    between atoms: C6_6  and  C9_9 
REMARK    2  A    between atoms: C8_8  and  C9_9 
ROOT
HETATM    1  C1  UNL     1     -32.748   5.052   2.184  1.00 20.00     0.012 C 
HETATM    2  C2  UNL     1     -33.393   4.800   3.164  1.00 20.00    -0.117 C 
HETATM    3  C8  UNL     1     -34.179   4.489   4.365  1.00 20.00     0.093 C 
ENDROOT
BRANCH   3   4
HETATM    4  C9  UNL     1     -35.357   5.441   4.489  1.00 20.00     0.017 C 
BRANCH   4   5
HETATM    5  C6  UNL     1     -34.960   6.706   5.235  1.00 20.00    -0.012 C 
HETATM    6  C3  UNL     1     -34.113   6.411   6.479  1.00 20.00     0.006 C 
HETATM    7  C4  UNL     1     -33.192   7.615   6.594  1.00 20.00     0.020 C 
HETATM    8  C7  UNL     1     -32.815   7.864   5.142  1.00 20.00     0.082 C 
HETATM    9  C5  UNL     1     -34.124   7.674   4.377  1.00 20.00     0.024 C 
HETATM   10 CL10 UNL     1     -32.110   9.469   4.895  1.00 20.00    -0.125 Cl
ENDBRANCH   4   5
ENDBRANCH   3   4
TORSDOF 2
ENDMDL
MODEL 9
REMARK VINA RESULT:      -4.0      9.841     10.809
REMARK  2 active torsions:
REMARK  status: ('A' for Active; 'I' for Inactive)
REMARK    1  A    between atoms: C6_6  and  C9_9 
REMARK    2  A    between atoms: C8_8  and  C9_9 
ROOT
HETATM    1  C1  UNL     1     -38.943  11.718   3.939  1.00 20.00     0.012 C 
HETATM    2  C2  UNL     1     -39.310  12.016   5.042  1.00 20.00    -0.117 C 
HETATM    3  C8  UNL     1     -39.753  12.381   6.394  1.00 20.00     0.093 C 
ENDROOT
BRANCH   3   4
HETATM    4  C9  UNL     1     -41.210  12.810   6.376  1.00 20.00     0.017 C 
BRANCH   4   5
HETATM    5  C6  UNL     1     -41.469  13.907   7.398  1.00 20.00    -0.012 C 
HETATM    6  C3  UNL     1     -40.357  14.001   8.450  1.00 20.00     0.006 C 
HETATM    7  C4  UNL     1     -40.310  15.478   8.809  1.00 20.00     0.020 C 
HETATM    8  C7  UNL     1     -40.484  16.138   7.450  1.00 20.00     0.082 C 
HETATM    9  C5  UNL     1     -41.568  15.308   6.765  1.00 20.00     0.024 C 
HETATM   10 CL10 UNL     1     -40.920  17.849   7.584  1.00 20.00    -0.125 Cl
ENDBRANCH   4   5
ENDBRANCH   3   4
TORSDOF 2
ENDMDL
