MODEL 1
REMARK VINA RESULT:      -5.1      0.000      0.000
REMARK  3 active torsions:
REMARK  status: ('A' for Active; 'I' for Inactive)
REMARK    1  A    between atoms: C4_4  and  C7_7 
REMARK    2  A    between atoms: C7_7  and  C9_9 
REMARK    3  A    between atoms: C8_8  and  C9_9 
ROOT
HETATM    1  C1  UNL     1     -33.636   6.747   6.438  1.00 20.00     0.006 C 
HETATM    2  C2  UNL     1     -34.811   5.780   6.371  1.00 20.00     0.020 C 
HETATM    3  C3  UNL     1     -34.710   6.854   4.232  1.00 20.00     0.024 C 
HETATM    4  C4  UNL     1     -33.789   7.629   5.193  1.00 20.00    -0.013 C 
HETATM    5  C5  UNL     1     -34.963   5.496   4.882  1.00 20.00     0.082 C 
HETATM    6 CL10 UNL     1     -33.747   4.304   4.336  1.00 20.00    -0.125 Cl
ENDROOT
BRANCH   4   7
HETATM    7  C7  UNL     1     -32.447   7.986   4.568  1.00 20.00     0.005 C 
BRANCH   7   8
HETATM    8  C9  UNL     1     -32.438   7.703   3.067  1.00 20.00     0.000 C 
BRANCH   8   9
HETATM    9  C8  UNL     1     -32.567   8.993   2.259  1.00 20.00    -0.005 C 
HETATM   10  C6  UNL     1     -32.481   8.726   0.765  1.00 20.00     0.005 C 
ENDBRANCH   8   9
ENDBRANCH   7   8
ENDBRANCH   4   7
TORSDOF 3
ENDMDL
MODEL 2
REMARK VINA RESULT:      -4.5      1.326      2.203
REMARK  3 active torsions:
REMARK  status: ('A' for Active; 'I' for Inactive)
REMARK    1  A    between atoms: C4_4  and  C7_7 
REMARK    2  A    between atoms: C7_7  and  C9_9 
REMARK    3  A    between atoms: C8_8  and  C9_9 
ROOT
HETATM    1  C1  UNL     1     -33.677   4.832   6.027  1.00 20.00     0.006 C 
HETATM    2  C2  UNL     1     -34.052   4.012   4.800  1.00 20.00     0.020 C 
HETATM    3  C3  UNL     1     -35.098   6.148   4.517  1.00 20.00     0.024 C 
HETATM    4  C4  UNL     1     -34.600   6.056   5.971  1.00 20.00    -0.013 C 
HETATM    5  C5  UNL     1     -34.357   5.062   3.740  1.00 20.00     0.082 C 
HETATM    6 CL10 UNL     1     -32.846   5.713   3.039  1.00 20.00    -0.125 Cl
ENDROOT
BRANCH   4   7
HETATM    7  C7  UNL     1     -33.905   7.326   6.441  1.00 20.00     0.005 C 
BRANCH   7   8
HETATM    8  C9  UNL     1     -33.876   8.385   5.341  1.00 20.00     0.000 C 
BRANCH   8   9
HETATM    9  C8  UNL     1     -32.446   8.668   4.882  1.00 20.00    -0.005 C 
HETATM   10  C6  UNL     1     -32.386   8.954   3.390  1.00 20.00     0.005 C 
ENDBRANCH   8   9
ENDBRANCH   7   8
ENDBRANCH   4   7
TORSDOF 3
ENDMDL
MODEL 3
REMARK VINA RESULT:      -4.0      1.109      3.999
REMARK  3 active torsions:
REMARK  status: ('A' for Active; 'I' for Inactive)
REMARK    1  A    between atoms: C4_4  and  C7_7 
REMARK    2  A    between atoms: C7_7  and  C9_9 
REMARK    3  A    between atoms: C8_8  and  C9_9 
ROOT
HETATM    1  C1  UNL     1     -33.580   8.920   3.093  1.00 20.00     0.006 C 
HETATM    2  C2  UNL     1     -32.491   8.490   2.119  1.00 20.00     0.020 C 
HETATM    3  C3  UNL     1     -31.800   7.708   4.275  1.00 20.00     0.024 C 
HETATM    4  C4  UNL     1     -32.969   8.688   4.481  1.00 20.00    -0.013 C 
HETATM    5  C5  UNL     1     -31.840   7.297   2.805  1.00 20.00     0.082 C 
HETATM    6 CL10 UNL     1     -32.832   5.824   2.593  1.00 20.00    -0.125 Cl
ENDROOT
BRANCH   4   7
HETATM    7  C7  UNL     1     -33.994   8.184   5.488  1.00 20.00     0.005 C 
BRANCH   7   8
HETATM    8  C9  UNL     1     -33.499   6.931   6.208  1.00 20.00     0.000 C 
BRANCH   8   9
HETATM    9  C8  UNL     1     -34.570   5.842   6.225  1.00 20.00    -0.005 C 
HETATM   10  C6  UNL     1     -35.259   5.716   4.875  1.00 20.00     0.005 C 
ENDBRANCH   8   9
ENDBRANCH   7   8
ENDBRANCH   4   7
TORSDOF 3
ENDMDL
MODEL 4
REMARK VINA RESULT:      -3.9     11.534     12.624
REMARK  3 active torsions:
REMARK  status: ('A' for Active; 'I' for Inactive)
REMARK    1  A    between atoms: C4_4  and  C7_7 
REMARK    2  A    between atoms: C7_7  and  C9_9 
REMARK    3  A    between atoms: C8_8  and  C9_9 
ROOT
HETATM    1  C1  UNL     1     -34.549  17.076  -4.350  1.00 20.00     0.006 C 
HETATM    2  C2  UNL     1     -34.515  16.278  -5.648  1.00 20.00     0.020 C 
HETATM    3  C3  UNL     1     -32.942  15.226  -4.179  1.00 20.00     0.024 C 
HETATM    4  C4  UNL     1     -33.329  16.582  -3.562  1.00 20.00    -0.013 C 
HETATM    5  C5  UNL     1     -34.015  14.906  -5.217  1.00 20.00     0.082 C 
HETATM    6 CL10 UNL     1     -35.336  13.951  -4.480  1.00 20.00    -0.125 Cl
ENDROOT
BRANCH   4   7
HETATM    7  C7  UNL     1     -33.603  16.496  -2.067  1.00 20.00     0.005 C 
BRANCH   7   8
HETATM    8  C9  UNL     1     -33.637  17.882  -1.425  1.00 20.00     0.000 C 
BRANCH   8   9
HETATM    9  C8  UNL     1     -32.314  18.619  -1.627  1.00 20.00    -0.005 C 
HETATM   10  C6  UNL     1     -31.434  18.532  -0.390  1.00 20.00     0.005 C 
ENDBRANCH   8   9
ENDBRANCH   7   8
ENDBRANCH   4   7
TORSDOF 3
ENDMDL
MODEL 5
REMARK VINA RESULT:      -3.9      1.464      1.837
REMARK  3 active torsions:
REMARK  status: ('A' for Active; 'I' for Inactive)
REMARK    1  A    between atoms: C4_4  and  C7_7 
REMARK    2  A    between atoms: C7_7  and  C9_9 
REMARK    3  A    between atoms: C8_8  and  C9_9 
ROOT
HETATM    1  C1  UNL     1     -33.175   5.924   3.438  1.00 20.00     0.006 C 
HETATM    2  C2  UNL     1     -34.006   4.823   4.083  1.00 20.00     0.020 C 
HETATM    3  C3  UNL     1     -34.147   6.708   5.554  1.00 20.00     0.024 C 
HETATM    4  C4  UNL     1     -33.027   6.988   4.534  1.00 20.00    -0.013 C 
HETATM    5  C5  UNL     1     -34.990   5.579   4.965  1.00 20.00     0.082 C 
HETATM    6 CL10 UNL     1     -36.336   6.243   3.992  1.00 20.00    -0.125 Cl
ENDROOT
BRANCH   4   7
HETATM    7  C7  UNL     1     -33.075   8.404   3.976  1.00 20.00     0.005 C 
BRANCH   7   8
HETATM    8  C9  UNL     1     -32.297   8.513   2.666  1.00 20.00     0.000 C 
BRANCH   8   9
HETATM    9  C8  UNL     1     -32.939   9.529   1.723  1.00 20.00    -0.005 C 
HETATM   10  C6  UNL     1     -32.703   9.164   0.266  1.00 20.00     0.005 C 
ENDBRANCH   8   9
ENDBRANCH   7   8
ENDBRANCH   4   7
TORSDOF 3
ENDMDL
MODEL 6
REMARK VINA RESULT:      -3.8      1.720      2.603
REMARK  3 active torsions:
REMARK  status: ('A' for Active; 'I' for Inactive)
REMARK    1  A    between atoms: C4_4  and  C7_7 
REMARK    2  A    between atoms: C7_7  and  C9_9 
REMARK    3  A    between atoms: C8_8  and  C9_9 
ROOT
HETATM    1  C1  UNL     1     -34.861   6.288   3.643  1.00 20.00     0.006 C 
HETATM    2  C2  UNL     1     -35.627   5.747   4.844  1.00 20.00     0.020 C 
HETATM    3  C3  UNL     1     -33.695   4.351   4.605  1.00 20.00     0.024 C 
HETATM    4  C4  UNL     1     -33.821   5.205   3.329  1.00 20.00    -0.013 C 
HETATM    5  C5  UNL     1     -34.561   5.031   5.662  1.00 20.00     0.082 C 
HETATM    6 CL10 UNL     1     -33.594   6.201   6.608  1.00 20.00    -0.125 Cl
ENDROOT
BRANCH   4   7
HETATM    7  C7  UNL     1     -32.491   5.793   2.877  1.00 20.00     0.005 C 
BRANCH   7   8
HETATM    8  C9  UNL     1     -32.541   7.320   2.841  1.00 20.00     0.000 C 
BRANCH   8   9
HETATM    9  C8  UNL     1     -31.714   7.928   3.972  1.00 20.00    -0.005 C 
HETATM   10  C6  UNL     1     -32.516   8.951   4.761  1.00 20.00     0.005 C 
ENDBRANCH   8   9
ENDBRANCH   7   8
ENDBRANCH   4   7
TORSDOF 3
ENDMDL
MODEL 7
REMARK VINA RESULT:      -3.7     12.250     13.173
REMARK  3 active torsions:
REMARK  status: ('A' for Active; 'I' for Inactive)
REMARK    1  A    between atoms: C4_4  and  C7_7 
REMARK    2  A    between atoms: C7_7  and  C9_9 
REMARK    3  A    between atoms: C8_8  and  C9_9 
ROOT
HETATM    1  C1  UNL     1     -33.081  16.856  -2.256  1.00 20.00     0.006 C 
HETATM    2  C2  UNL     1     -33.794  16.625  -3.581  1.00 20.00     0.020 C 
HETATM    3  C3  UNL     1     -34.894  18.486  -2.550  1.00 20.00     0.024 C 
HETATM    4  C4  UNL     1     -33.990  17.828  -1.492  1.00 20.00    -0.013 C 
HETATM    5  C5  UNL     1     -34.406  17.982  -3.906  1.00 20.00     0.082 C 
HETATM    6 CL10 UNL     1     -33.173  19.089  -4.580  1.00 20.00    -0.125 Cl
ENDROOT
BRANCH   4   7
HETATM    7  C7  UNL     1     -33.198  18.840  -0.676  1.00 20.00     0.005 C 
BRANCH   7   8
HETATM    8  C9  UNL     1     -31.728  18.439  -0.566  1.00 20.00     0.000 C 
BRANCH   8   9
HETATM    9  C8  UNL     1     -31.040  19.167   0.589  1.00 20.00    -0.005 C 
HETATM   10  C6  UNL     1     -30.780  18.232   1.760  1.00 20.00     0.005 C 
ENDBRANCH   8   9
ENDBRANCH   7   8
ENDBRANCH   4   7
TORSDOF 3
ENDMDL
MODEL 8
REMARK VINA RESULT:      -3.7     10.051     10.657
REMARK  3 active torsions:
REMARK  status: ('A' for Active; 'I' for Inactive)
REMARK    1  A    between atoms: C4_4  and  C7_7 
REMARK    2  A    between atoms: C7_7  and  C9_9 
REMARK    3  A    between atoms: C8_8  and  C9_9 
ROOT
HETATM    1  C1  UNL     1     -42.092  15.309   6.323  1.00 20.00     0.006 C 
HETATM    2  C2  UNL     1     -42.579  15.492   7.755  1.00 20.00     0.020 C 
HETATM    3  C3  UNL     1     -42.281  13.135   7.451  1.00 20.00     0.024 C 
HETATM    4  C4  UNL     1     -42.212  13.801   6.065  1.00 20.00    -0.013 C 
HETATM    5  C5  UNL     1     -42.071  14.250   8.473  1.00 20.00     0.082 C 
HETATM    6 CL10 UNL     1     -40.336  14.413   8.875  1.00 20.00    -0.125 Cl
ENDROOT
BRANCH   4   7
HETATM    7  C7  UNL     1     -41.073  13.269   5.208  1.00 20.00     0.005 C 
BRANCH   7   8
HETATM    8  C9  UNL     1     -40.295  12.172   5.933  1.00 20.00     0.000 C 
BRANCH   8   9
HETATM    9  C8  UNL     1     -38.884  12.026   5.367  1.00 20.00    -0.005 C 
HETATM   10  C6  UNL     1     -38.910  11.641   3.896  1.00 20.00     0.005 C 
ENDBRANCH   8   9
ENDBRANCH   7   8
ENDBRANCH   4   7
TORSDOF 3
ENDMDL
MODEL 9
REMARK VINA RESULT:      -3.7     12.100     12.958
REMARK  3 active torsions:
REMARK  status: ('A' for Active; 'I' for Inactive)
REMARK    1  A    between atoms: C4_4  and  C7_7 
REMARK    2  A    between atoms: C7_7  and  C9_9 
REMARK    3  A    between atoms: C8_8  and  C9_9 
ROOT
HETATM    1  C1  UNL     1     -33.779  18.469  -0.221  1.00 20.00     0.006 C 
HETATM    2  C2  UNL     1     -34.710  18.495  -1.426  1.00 20.00     0.020 C 
HETATM    3  C3  UNL     1     -32.543  19.099  -2.248  1.00 20.00     0.024 C 
HETATM    4  C4  UNL     1     -32.496  19.153  -0.709  1.00 20.00    -0.013 C 
HETATM    5  C5  UNL     1     -33.778  18.278  -2.610  1.00 20.00     0.082 C 
HETATM    6 CL10 UNL     1     -33.354  16.548  -2.776  1.00 20.00    -0.125 Cl
ENDROOT
BRANCH   4   7
HETATM    7  C7  UNL     1     -31.242  18.511  -0.132  1.00 20.00     0.005 C 
BRANCH   7   8
HETATM    8  C9  UNL     1     -30.748  19.263   1.102  1.00 20.00     0.000 C 
BRANCH   8   9
HETATM    9  C8  UNL     1     -30.288  18.297   2.193  1.00 20.00    -0.005 C 
HETATM   10  C6  UNL     1     -29.429  18.999   3.233  1.00 20.00     0.005 C 
ENDBRANCH   8   9
ENDBRANCH   7   8
ENDBRANCH   4   7
TORSDOF 3
ENDMDL
