MODEL 1
REMARK VINA RESULT:      -4.5      0.000      0.000
REMARK  2 active torsions:
REMARK  status: ('A' for Active; 'I' for Inactive)
REMARK    1  A    between atoms: C2_2  and  C10_10 
REMARK    2  A    between atoms: C7_7  and  C10_10 
ROOT
HETATM    1  C1  UNL     1     -32.706   9.362   1.799  1.00 20.00    -0.111 C 
HETATM    2  C2  UNL     1     -32.633   9.191   2.985  1.00 20.00    -0.107 C 
HETATM    3  C9  UNL     1     -32.796   9.570   0.355  1.00 20.00     0.112 C 
ENDROOT
BRANCH   2   4
HETATM    4  C10 UNL     1     -32.545   8.972   4.431  1.00 20.00     0.098 C 
BRANCH   4   5
HETATM    5  C7  UNL     1     -32.861   7.519   4.784  1.00 20.00    -0.002 C 
HETATM    6  C4  UNL     1     -34.166   7.429   5.589  1.00 20.00     0.005 C 
HETATM    7  C3  UNL     1     -34.533   5.982   5.910  1.00 20.00     0.002 C 
HETATM    8  C5  UNL     1     -34.605   5.126   4.648  1.00 20.00     0.020 C 
HETATM    9  C8  UNL     1     -33.304   5.210   3.850  1.00 20.00     0.082 C 
HETATM   10  C6  UNL     1     -32.941   6.658   3.516  1.00 20.00     0.025 C 
HETATM   11 CL11 UNL     1     -33.455   4.258   2.345  1.00 20.00    -0.125 Cl
ENDBRANCH   4   5
ENDBRANCH   2   4
TORSDOF 2
ENDMDL
MODEL 2
REMARK VINA RESULT:      -4.3     11.590     12.598
REMARK  2 active torsions:
REMARK  status: ('A' for Active; 'I' for Inactive)
REMARK    1  A    between atoms: C2_2  and  C10_10 
REMARK    2  A    between atoms: C7_7  and  C10_10 
ROOT
HETATM    1  C1  UNL     1     -32.067  18.448  -0.840  1.00 20.00    -0.111 C 
HETATM    2  C2  UNL     1     -32.965  18.404  -1.636  1.00 20.00    -0.107 C 
HETATM    3  C9  UNL     1     -30.975  18.500   0.130  1.00 20.00     0.112 C 
ENDROOT
BRANCH   2   4
HETATM    4  C10 UNL     1     -34.067  18.355  -2.600  1.00 20.00     0.098 C 
BRANCH   4   5
HETATM    5  C7  UNL     1     -33.767  17.363  -3.723  1.00 20.00    -0.002 C 
HETATM    6  C4  UNL     1     -33.383  15.992  -3.147  1.00 20.00     0.005 C 
HETATM    7  C3  UNL     1     -33.129  14.967  -4.249  1.00 20.00     0.002 C 
HETATM    8  C5  UNL     1     -34.321  14.851  -5.196  1.00 20.00     0.020 C 
HETATM    9  C8  UNL     1     -34.700  16.213  -5.775  1.00 20.00     0.082 C 
HETATM   10  C6  UNL     1     -34.968  17.239  -4.672  1.00 20.00     0.025 C 
HETATM   11 CL11 UNL     1     -36.143  16.048  -6.815  1.00 20.00    -0.125 Cl
ENDBRANCH   4   5
ENDBRANCH   2   4
TORSDOF 2
ENDMDL
MODEL 3
REMARK VINA RESULT:      -4.3     10.596     11.690
REMARK  2 active torsions:
REMARK  status: ('A' for Active; 'I' for Inactive)
REMARK    1  A    between atoms: C2_2  and  C10_10 
REMARK    2  A    between atoms: C7_7  and  C10_10 
ROOT
HETATM    1  C1  UNL     1     -39.945  12.039   5.286  1.00 20.00    -0.111 C 
HETATM    2  C2  UNL     1     -40.879  12.302   5.994  1.00 20.00    -0.107 C 
HETATM    3  C9  UNL     1     -38.809  11.719   4.424  1.00 20.00     0.112 C 
ENDROOT
BRANCH   2   4
HETATM    4  C10 UNL     1     -42.025  12.619   6.850  1.00 20.00     0.098 C 
BRANCH   4   5
HETATM    5  C7  UNL     1     -41.902  14.028   7.429  1.00 20.00    -0.002 C 
HETATM    6  C4  UNL     1     -40.536  14.219   8.104  1.00 20.00     0.005 C 
HETATM    7  C3  UNL     1     -40.367  15.636   8.646  1.00 20.00     0.002 C 
HETATM    8  C5  UNL     1     -40.595  16.685   7.560  1.00 20.00     0.020 C 
HETATM    9  C8  UNL     1     -41.957  16.500   6.891  1.00 20.00     0.082 C 
HETATM   10  C6  UNL     1     -42.124  15.084   6.336  1.00 20.00     0.025 C 
HETATM   11 CL11 UNL     1     -42.154  17.695   5.577  1.00 20.00    -0.125 Cl
ENDBRANCH   4   5
ENDBRANCH   2   4
TORSDOF 2
ENDMDL
MODEL 4
REMARK VINA RESULT:      -4.2     11.202     12.509
REMARK  2 active torsions:
REMARK  status: ('A' for Active; 'I' for Inactive)
REMARK    1  A    between atoms: C2_2  and  C10_10 
REMARK    2  A    between atoms: C7_7  and  C10_10 
ROOT
HETATM    1  C1  UNL     1     -33.484  16.199  -3.720  1.00 20.00    -0.111 C 
HETATM    2  C2  UNL     1     -33.272  17.373  -3.582  1.00 20.00    -0.107 C 
HETATM    3  C9  UNL     1     -33.742  14.770  -3.888  1.00 20.00     0.112 C 
ENDROOT
BRANCH   2   4
HETATM    4  C10 UNL     1     -33.013  18.804  -3.404  1.00 20.00     0.098 C 
BRANCH   4   5
HETATM    5  C7  UNL     1     -33.128  19.201  -1.933  1.00 20.00    -0.002 C 
HETATM    6  C4  UNL     1     -34.482  18.762  -1.357  1.00 20.00     0.005 C 
HETATM    7  C3  UNL     1     -34.602  19.101   0.127  1.00 20.00     0.002 C 
HETATM    8  C5  UNL     1     -33.445  18.515   0.933  1.00 20.00     0.020 C 
HETATM    9  C8  UNL     1     -32.097  18.956   0.365  1.00 20.00     0.082 C 
HETATM   10  C6  UNL     1     -31.969  18.607  -1.119  1.00 20.00     0.025 C 
HETATM   11 CL11 UNL     1     -30.771  18.190   1.286  1.00 20.00    -0.125 Cl
ENDBRANCH   4   5
ENDBRANCH   2   4
TORSDOF 2
ENDMDL
MODEL 5
REMARK VINA RESULT:      -4.2     11.793     12.940
REMARK  2 active torsions:
REMARK  status: ('A' for Active; 'I' for Inactive)
REMARK    1  A    between atoms: C2_2  and  C10_10 
REMARK    2  A    between atoms: C7_7  and  C10_10 
ROOT
HETATM    1  C1  UNL     1     -31.578  18.589   0.848  1.00 20.00    -0.111 C 
HETATM    2  C2  UNL     1     -32.395  18.882   0.018  1.00 20.00    -0.107 C 
HETATM    3  C9  UNL     1     -30.583  18.233   1.858  1.00 20.00     0.112 C 
ENDROOT
BRANCH   2   4
HETATM    4  C10 UNL     1     -33.400  19.240  -0.987  1.00 20.00     0.098 C 
BRANCH   4   5
HETATM    5  C7  UNL     1     -33.212  18.423  -2.264  1.00 20.00    -0.002 C 
HETATM    6  C4  UNL     1     -33.445  16.930  -1.992  1.00 20.00     0.005 C 
HETATM    7  C3  UNL     1     -33.314  16.095  -3.263  1.00 20.00     0.002 C 
HETATM    8  C5  UNL     1     -34.238  16.604  -4.368  1.00 20.00     0.020 C 
HETATM    9  C8  UNL     1     -34.002  18.088  -4.645  1.00 20.00     0.082 C 
HETATM   10  C6  UNL     1     -34.145  18.928  -3.374  1.00 20.00     0.025 C 
HETATM   11 CL11 UNL     1     -35.152  18.663  -5.885  1.00 20.00    -0.125 Cl
ENDBRANCH   4   5
ENDBRANCH   2   4
TORSDOF 2
ENDMDL
MODEL 6
REMARK VINA RESULT:      -4.1     11.725     13.317
REMARK  2 active torsions:
REMARK  status: ('A' for Active; 'I' for Inactive)
REMARK    1  A    between atoms: C2_2  and  C10_10 
REMARK    2  A    between atoms: C7_7  and  C10_10 
ROOT
HETATM    1  C1  UNL     1     -33.491  16.900  -2.065  1.00 20.00    -0.111 C 
HETATM    2  C2  UNL     1     -33.526  16.160  -3.010  1.00 20.00    -0.107 C 
HETATM    3  C9  UNL     1     -33.448  17.801  -0.914  1.00 20.00     0.112 C 
ENDROOT
BRANCH   2   4
HETATM    4  C10 UNL     1     -33.558  15.254  -4.161  1.00 20.00     0.098 C 
BRANCH   4   5
HETATM    5  C7  UNL     1     -34.208  15.928  -5.368  1.00 20.00    -0.002 C 
HETATM    6  C4  UNL     1     -33.888  15.157  -6.657  1.00 20.00     0.005 C 
HETATM    7  C3  UNL     1     -34.569  15.779  -7.873  1.00 20.00     0.002 C 
HETATM    8  C5  UNL     1     -36.077  15.907  -7.669  1.00 20.00     0.020 C 
HETATM    9  C8  UNL     1     -36.397  16.681  -6.391  1.00 20.00     0.082 C 
HETATM   10  C6  UNL     1     -35.726  16.051  -5.169  1.00 20.00     0.025 C 
HETATM   11 CL11 UNL     1     -38.167  16.743  -6.148  1.00 20.00    -0.125 Cl
ENDBRANCH   4   5
ENDBRANCH   2   4
TORSDOF 2
ENDMDL
MODEL 7
REMARK VINA RESULT:      -4.1     10.517     11.597
REMARK  2 active torsions:
REMARK  status: ('A' for Active; 'I' for Inactive)
REMARK    1  A    between atoms: C2_2  and  C10_10 
REMARK    2  A    between atoms: C7_7  and  C10_10 
ROOT
HETATM    1  C1  UNL     1     -39.766  12.117   4.882  1.00 20.00    -0.111 C 
HETATM    2  C2  UNL     1     -40.496  12.577   5.717  1.00 20.00    -0.107 C 
HETATM    3  C9  UNL     1     -38.878  11.557   3.865  1.00 20.00     0.112 C 
ENDROOT
BRANCH   2   4
HETATM    4  C10 UNL     1     -41.394  13.132   6.733  1.00 20.00     0.098 C 
BRANCH   4   5
HETATM    5  C7  UNL     1     -40.791  14.382   7.372  1.00 20.00    -0.002 C 
HETATM    6  C4  UNL     1     -41.619  15.625   7.018  1.00 20.00     0.005 C 
HETATM    7  C3  UNL     1     -41.068  16.882   7.687  1.00 20.00     0.002 C 
HETATM    8  C5  UNL     1     -40.954  16.710   9.200  1.00 20.00     0.020 C 
HETATM    9  C8  UNL     1     -40.124  15.477   9.554  1.00 20.00     0.082 C 
HETATM   10  C6  UNL     1     -40.682  14.214   8.895  1.00 20.00     0.025 C 
HETATM   11 CL11 UNL     1     -40.078  15.266  11.328  1.00 20.00    -0.125 Cl
ENDBRANCH   4   5
ENDBRANCH   2   4
TORSDOF 2
ENDMDL
MODEL 8
REMARK VINA RESULT:      -4.0     11.300     12.823
REMARK  2 active torsions:
REMARK  status: ('A' for Active; 'I' for Inactive)
REMARK    1  A    between atoms: C2_2  and  C10_10 
REMARK    2  A    between atoms: C7_7  and  C10_10 
ROOT
HETATM    1  C1  UNL     1     -35.145  15.147  -6.237  1.00 20.00    -0.111 C 
HETATM    2  C2  UNL     1     -34.577  15.083  -5.182  1.00 20.00    -0.107 C 
HETATM    3  C9  UNL     1     -35.836  15.225  -7.523  1.00 20.00     0.112 C 
ENDROOT
BRANCH   2   4
HETATM    4  C10 UNL     1     -33.883  15.016  -3.893  1.00 20.00     0.098 C 
BRANCH   4   5
HETATM    5  C7  UNL     1     -33.274  16.368  -3.529  1.00 20.00    -0.002 C 
HETATM    6  C4  UNL     1     -33.918  17.493  -4.352  1.00 20.00     0.005 C 
HETATM    7  C3  UNL     1     -33.363  18.863  -3.970  1.00 20.00     0.002 C 
HETATM    8  C5  UNL     1     -33.502  19.129  -2.473  1.00 20.00     0.020 C 
HETATM    9  C8  UNL     1     -32.855  18.014  -1.652  1.00 20.00     0.082 C 
HETATM   10  C6  UNL     1     -33.419  16.641  -2.024  1.00 20.00     0.025 C 
HETATM   11 CL11 UNL     1     -33.105  18.321   0.090  1.00 20.00    -0.125 Cl
ENDBRANCH   4   5
ENDBRANCH   2   4
TORSDOF 2
ENDMDL
MODEL 9
REMARK VINA RESULT:      -3.9     13.817     15.561
REMARK  2 active torsions:
REMARK  status: ('A' for Active; 'I' for Inactive)
REMARK    1  A    between atoms: C2_2  and  C10_10 
REMARK    2  A    between atoms: C7_7  and  C10_10 
ROOT
HETATM    1  C1  UNL     1     -28.872  17.207  12.332  1.00 20.00    -0.111 C 
HETATM    2  C2  UNL     1     -28.035  18.068  12.332  1.00 20.00    -0.107 C 
HETATM    3  C9  UNL     1     -29.892  16.160  12.331  1.00 20.00     0.112 C 
ENDROOT
BRANCH   2   4
HETATM    4  C10 UNL     1     -27.021  19.125  12.329  1.00 20.00     0.098 C 
BRANCH   4   5
HETATM    5  C7  UNL     1     -25.633  18.550  12.050  1.00 20.00    -0.002 C 
HETATM    6  C4  UNL     1     -25.640  17.022  12.193  1.00 20.00     0.005 C 
HETATM    7  C3  UNL     1     -24.277  16.416  11.869  1.00 20.00     0.002 C 
HETATM    8  C5  UNL     1     -23.789  16.837  10.484  1.00 20.00     0.020 C 
HETATM    9  C8  UNL     1     -23.774  18.359  10.344  1.00 20.00     0.082 C 
HETATM   10  C6  UNL     1     -25.143  18.967  10.656  1.00 20.00     0.025 C 
HETATM   11 CL11 UNL     1     -23.272  18.810   8.689  1.00 20.00    -0.125 Cl
ENDBRANCH   4   5
ENDBRANCH   2   4
TORSDOF 2
ENDMDL
