MODEL 1
REMARK VINA RESULT:      -5.4      0.000      0.000
REMARK  2 active torsions:
REMARK  status: ('A' for Active; 'I' for Inactive)
REMARK    1  A    between atoms: C9_9  and  C11_11 
REMARK    2  A    between atoms: C10_10  and  C11_11 
ROOT
HETATM    1  C1  UNL     1     -32.906   9.528   0.064  1.00 20.00     0.012 C 
HETATM    2  C2  UNL     1     -32.768   9.278   1.231  1.00 20.00    -0.117 C 
HETATM    3  C10 UNL     1     -32.601   8.977   2.659  1.00 20.00     0.093 C 
ENDROOT
BRANCH   3   4
HETATM    4  C11 UNL     1     -32.167   7.537   2.836  1.00 20.00     0.017 C 
BRANCH   4   5
HETATM    5  C9  UNL     1     -32.810   6.931   4.089  1.00 20.00    -0.007 C 
HETATM    6  C5  UNL     1     -33.845   5.878   3.672  1.00 20.00     0.082 C 
HETATM    7  C3  UNL     1     -34.058   4.789   4.701  1.00 20.00     0.127 C 
HETATM    8  C4  UNL     1     -34.171   5.149   6.165  1.00 20.00     0.078 C 
HETATM    9  O12 UNL     1     -34.133   3.609   4.347  1.00 20.00    -0.298 OA
HETATM   10  C6  UNL     1     -34.828   6.496   6.435  1.00 20.00     0.007 C 
HETATM   11  C7  UNL     1     -33.849   7.662   6.340  1.00 20.00     0.001 C 
HETATM   12  C8  UNL     1     -33.448   8.057   4.921  1.00 20.00     0.005 C 
ENDBRANCH   4   5
ENDBRANCH   3   4
TORSDOF 2
ENDMDL
MODEL 2
REMARK VINA RESULT:      -5.1      1.520      2.369
REMARK  2 active torsions:
REMARK  status: ('A' for Active; 'I' for Inactive)
REMARK    1  A    between atoms: C9_9  and  C11_11 
REMARK    2  A    between atoms: C10_10  and  C11_11 
ROOT
HETATM    1  C1  UNL     1     -32.584   9.092  -0.010  1.00 20.00     0.012 C 
HETATM    2  C2  UNL     1     -32.791   9.353   1.144  1.00 20.00    -0.117 C 
HETATM    3  C10 UNL     1     -33.048   9.674   2.554  1.00 20.00     0.093 C 
ENDROOT
BRANCH   3   4
HETATM    4  C11 UNL     1     -32.263   8.739   3.449  1.00 20.00     0.017 C 
BRANCH   4   5
HETATM    5  C9  UNL     1     -33.106   7.513   3.819  1.00 20.00    -0.007 C 
HETATM    6  C5  UNL     1     -33.005   7.262   5.329  1.00 20.00     0.082 C 
HETATM    7  C3  UNL     1     -34.217   6.571   5.916  1.00 20.00     0.127 C 
HETATM    8  C4  UNL     1     -34.845   5.405   5.187  1.00 20.00     0.078 C 
HETATM    9  O12 UNL     1     -34.695   6.960   6.985  1.00 20.00    -0.298 OA
HETATM   10  C6  UNL     1     -33.860   4.539   4.413  1.00 20.00     0.007 C 
HETATM   11  C7  UNL     1     -33.547   5.092   3.026  1.00 20.00     0.001 C 
HETATM   12  C8  UNL     1     -32.615   6.302   3.007  1.00 20.00     0.005 C 
ENDBRANCH   4   5
ENDBRANCH   3   4
TORSDOF 2
ENDMDL
MODEL 3
REMARK VINA RESULT:      -4.7     11.439     12.604
REMARK  2 active torsions:
REMARK  status: ('A' for Active; 'I' for Inactive)
REMARK    1  A    between atoms: C9_9  and  C11_11 
REMARK    2  A    between atoms: C10_10  and  C11_11 
ROOT
HETATM    1  C1  UNL     1     -31.562  18.591  -0.469  1.00 20.00     0.012 C 
HETATM    2  C2  UNL     1     -32.481  18.027  -0.998  1.00 20.00    -0.117 C 
HETATM    3  C10 UNL     1     -33.608  17.341  -1.643  1.00 20.00     0.093 C 
ENDROOT
BRANCH   3   4
HETATM    4  C11 UNL     1     -33.101  16.445  -2.753  1.00 20.00     0.017 C 
BRANCH   4   5
HETATM    5  C9  UNL     1     -34.222  16.141  -3.755  1.00 20.00    -0.007 C 
HETATM    6  C5  UNL     1     -34.094  14.691  -4.238  1.00 20.00     0.082 C 
HETATM    7  C3  UNL     1     -35.407  14.070  -4.664  1.00 20.00     0.127 C 
HETATM    8  C4  UNL     1     -36.377  14.867  -5.506  1.00 20.00     0.078 C 
HETATM    9  O12 UNL     1     -35.688  12.918  -4.321  1.00 20.00    -0.298 OA
HETATM   10  C6  UNL     1     -35.721  15.836  -6.480  1.00 20.00     0.007 C 
HETATM   11  C7  UNL     1     -35.361  17.171  -5.834  1.00 20.00     0.001 C 
HETATM   12  C8  UNL     1     -34.137  17.139  -4.922  1.00 20.00     0.005 C 
ENDBRANCH   4   5
ENDBRANCH   3   4
TORSDOF 2
ENDMDL
MODEL 4
REMARK VINA RESULT:      -4.7     11.751     12.941
REMARK  2 active torsions:
REMARK  status: ('A' for Active; 'I' for Inactive)
REMARK    1  A    between atoms: C9_9  and  C11_11 
REMARK    2  A    between atoms: C10_10  and  C11_11 
ROOT
HETATM    1  C1  UNL     1     -30.901  18.556   0.904  1.00 20.00     0.012 C 
HETATM    2  C2  UNL     1     -31.511  18.514  -0.130  1.00 20.00    -0.117 C 
HETATM    3  C10 UNL     1     -32.252  18.465  -1.397  1.00 20.00     0.093 C 
ENDROOT
BRANCH   3   4
HETATM    4  C11 UNL     1     -33.448  17.547  -1.260  1.00 20.00     0.017 C 
BRANCH   4   5
HETATM    5  C9  UNL     1     -34.033  17.215  -2.639  1.00 20.00    -0.007 C 
HETATM    6  C5  UNL     1     -33.201  16.103  -3.291  1.00 20.00     0.082 C 
HETATM    7  C3  UNL     1     -33.979  15.251  -4.269  1.00 20.00     0.127 C 
HETATM    8  C4  UNL     1     -34.923  15.905  -5.253  1.00 20.00     0.078 C 
HETATM    9  O12 UNL     1     -33.849  14.023  -4.262  1.00 20.00    -0.298 OA
HETATM   10  C6  UNL     1     -34.481  17.282  -5.731  1.00 20.00     0.007 C 
HETATM   11  C7  UNL     1     -34.884  18.400  -4.773  1.00 20.00     0.001 C 
HETATM   12  C8  UNL     1     -34.049  18.491  -3.498  1.00 20.00     0.005 C 
ENDBRANCH   4   5
ENDBRANCH   3   4
TORSDOF 2
ENDMDL
MODEL 5
REMARK VINA RESULT:      -4.6      1.060      1.309
REMARK  2 active torsions:
REMARK  status: ('A' for Active; 'I' for Inactive)
REMARK    1  A    between atoms: C9_9  and  C11_11 
REMARK    2  A    between atoms: C10_10  and  C11_11 
ROOT
HETATM    1  C1  UNL     1     -32.618   9.235   0.412  1.00 20.00     0.012 C 
HETATM    2  C2  UNL     1     -32.809   9.355   1.592  1.00 20.00    -0.117 C 
HETATM    3  C10 UNL     1     -33.047   9.505   3.033  1.00 20.00     0.093 C 
ENDROOT
BRANCH   3   4
HETATM    4  C11 UNL     1     -32.058   8.661   3.810  1.00 20.00     0.017 C 
BRANCH   4   5
HETATM    5  C9  UNL     1     -32.718   7.362   4.289  1.00 20.00    -0.007 C 
HETATM    6  C5  UNL     1     -33.295   6.609   3.084  1.00 20.00     0.082 C 
HETATM    7  C3  UNL     1     -33.366   5.110   3.276  1.00 20.00     0.127 C 
HETATM    8  C4  UNL     1     -33.856   4.542   4.589  1.00 20.00     0.078 C 
HETATM    9  O12 UNL     1     -33.020   4.351   2.366  1.00 20.00    -0.298 OA
HETATM   10  C6  UNL     1     -34.922   5.381   5.281  1.00 20.00     0.007 C 
HETATM   11  C7  UNL     1     -34.333   6.512   6.120  1.00 20.00     0.001 C 
HETATM   12  C8  UNL     1     -33.806   7.702   5.322  1.00 20.00     0.005 C 
ENDBRANCH   4   5
ENDBRANCH   3   4
TORSDOF 2
ENDMDL
MODEL 6
REMARK VINA RESULT:      -4.5     12.118     13.416
REMARK  2 active torsions:
REMARK  status: ('A' for Active; 'I' for Inactive)
REMARK    1  A    between atoms: C9_9  and  C11_11 
REMARK    2  A    between atoms: C10_10  and  C11_11 
ROOT
HETATM    1  C1  UNL     1     -31.063  18.631  -0.056  1.00 20.00     0.012 C 
HETATM    2  C2  UNL     1     -32.009  18.232  -0.678  1.00 20.00    -0.117 C 
HETATM    3  C10 UNL     1     -33.169  17.742  -1.433  1.00 20.00     0.093 C 
ENDROOT
BRANCH   3   4
HETATM    4  C11 UNL     1     -33.212  18.399  -2.797  1.00 20.00     0.017 C 
BRANCH   4   5
HETATM    5  C9  UNL     1     -33.505  17.359  -3.886  1.00 20.00    -0.007 C 
HETATM    6  C5  UNL     1     -34.883  17.639  -4.500  1.00 20.00     0.082 C 
HETATM    7  C3  UNL     1     -35.020  17.171  -5.933  1.00 20.00     0.127 C 
HETATM    8  C4  UNL     1     -34.481  15.817  -6.337  1.00 20.00     0.078 C 
HETATM    9  O12 UNL     1     -35.566  17.894  -6.771  1.00 20.00    -0.298 OA
HETATM   10  C6  UNL     1     -34.562  14.754  -5.250  1.00 20.00     0.007 C 
HETATM   11  C7  UNL     1     -33.386  14.807  -4.280  1.00 20.00     0.001 C 
HETATM   12  C8  UNL     1     -33.431  15.952  -3.270  1.00 20.00     0.005 C 
ENDBRANCH   4   5
ENDBRANCH   3   4
TORSDOF 2
ENDMDL
MODEL 7
REMARK VINA RESULT:      -4.4     10.180     11.215
REMARK  2 active torsions:
REMARK  status: ('A' for Active; 'I' for Inactive)
REMARK    1  A    between atoms: C9_9  and  C11_11 
REMARK    2  A    between atoms: C10_10  and  C11_11 
ROOT
HETATM    1  C1  UNL     1     -38.946  11.756   3.428  1.00 20.00     0.012 C 
HETATM    2  C2  UNL     1     -39.220  11.801   4.596  1.00 20.00    -0.117 C 
HETATM    3  C10 UNL     1     -39.551  11.855   6.025  1.00 20.00     0.093 C 
ENDROOT
BRANCH   3   4
HETATM    4  C11 UNL     1     -40.982  12.315   6.208  1.00 20.00     0.017 C 
BRANCH   4   5
HETATM    5  C9  UNL     1     -41.032  13.819   6.502  1.00 20.00    -0.007 C 
HETATM    6  C5  UNL     1     -41.071  14.041   8.019  1.00 20.00     0.082 C 
HETATM    7  C3  UNL     1     -40.478  15.361   8.460  1.00 20.00     0.127 C 
HETATM    8  C4  UNL     1     -40.798  16.624   7.693  1.00 20.00     0.078 C 
HETATM    9  O12 UNL     1     -39.729  15.408   9.440  1.00 20.00    -0.298 OA
HETATM   10  C6  UNL     1     -42.196  16.659   7.090  1.00 20.00     0.007 C 
HETATM   11  C7  UNL     1     -42.278  15.952   5.740  1.00 20.00     0.001 C 
HETATM   12  C8  UNL     1     -42.262  14.427   5.806  1.00 20.00     0.005 C 
ENDBRANCH   4   5
ENDBRANCH   3   4
TORSDOF 2
ENDMDL
MODEL 8
REMARK VINA RESULT:      -4.2     10.392     11.415
REMARK  2 active torsions:
REMARK  status: ('A' for Active; 'I' for Inactive)
REMARK    1  A    between atoms: C9_9  and  C11_11 
REMARK    2  A    between atoms: C10_10  and  C11_11 
ROOT
HETATM    1  C1  UNL     1     -38.978  11.656   3.714  1.00 20.00     0.012 C 
HETATM    2  C2  UNL     1     -39.326  11.812   4.852  1.00 20.00    -0.117 C 
HETATM    3  C10 UNL     1     -39.746  12.003   6.246  1.00 20.00     0.093 C 
ENDROOT
BRANCH   3   4
HETATM    4  C11 UNL     1     -41.223  12.335   6.300  1.00 20.00     0.017 C 
BRANCH   4   5
HETATM    5  C9  UNL     1     -41.439  13.735   6.889  1.00 20.00    -0.007 C 
HETATM    6  C5  UNL     1     -41.675  14.735   5.750  1.00 20.00     0.082 C 
HETATM    7  C3  UNL     1     -42.516  15.929   6.150  1.00 20.00     0.127 C 
HETATM    8  C4  UNL     1     -42.263  16.619   7.471  1.00 20.00     0.078 C 
HETATM    9  O12 UNL     1     -43.410  16.334   5.402  1.00 20.00    -0.298 OA
HETATM   10  C6  UNL     1     -40.806  16.617   7.916  1.00 20.00     0.007 C 
HETATM   11  C7  UNL     1     -40.409  15.334   8.639  1.00 20.00     0.001 C 
HETATM   12  C8  UNL     1     -40.214  14.117   7.738  1.00 20.00     0.005 C 
ENDBRANCH   4   5
ENDBRANCH   3   4
TORSDOF 2
ENDMDL
MODEL 9
REMARK VINA RESULT:      -4.2      1.753      2.533
REMARK  2 active torsions:
REMARK  status: ('A' for Active; 'I' for Inactive)
REMARK    1  A    between atoms: C9_9  and  C11_11 
REMARK    2  A    between atoms: C10_10  and  C11_11 
ROOT
HETATM    1  C1  UNL     1     -32.931   9.439   0.011  1.00 20.00     0.012 C 
HETATM    2  C2  UNL     1     -32.482   8.794   0.919  1.00 20.00    -0.117 C 
HETATM    3  C10 UNL     1     -31.931   8.010   2.031  1.00 20.00     0.093 C 
ENDROOT
BRANCH   3   4
HETATM    4  C11 UNL     1     -32.584   6.644   2.074  1.00 20.00     0.017 C 
BRANCH   4   5
HETATM    5  C9  UNL     1     -33.378   6.468   3.375  1.00 20.00    -0.007 C 
HETATM    6  C5  UNL     1     -32.731   7.307   4.484  1.00 20.00     0.082 C 
HETATM    7  C3  UNL     1     -33.700   7.752   5.558  1.00 20.00     0.127 C 
HETATM    8  C4  UNL     1     -34.718   6.777   6.104  1.00 20.00     0.078 C 
HETATM    9  O12 UNL     1     -33.663   8.910   5.984  1.00 20.00    -0.298 OA
HETATM   10  C6  UNL     1     -34.244   5.331   6.154  1.00 20.00     0.007 C 
HETATM   11  C7  UNL     1     -34.424   4.602   4.826  1.00 20.00     0.001 C 
HETATM   12  C8  UNL     1     -33.416   4.974   3.741  1.00 20.00     0.005 C 
ENDBRANCH   4   5
ENDBRANCH   3   4
TORSDOF 2
ENDMDL
