MODEL 1
REMARK VINA RESULT:      -4.7      0.000      0.000
REMARK  4 active torsions:
REMARK  status: ('A' for Active; 'I' for Inactive)
REMARK    1  A    between atoms: C5_5  and  C6_6 
REMARK    2  A    between atoms: C6_6  and  C7_7 
REMARK    3  A    between atoms: C7_7  and  C9_9 
REMARK    4  A    between atoms: C8_8  and  C9_9 
ROOT
HETATM    1  C1  UNL     1     -34.111   4.216   4.404  1.00 20.00     0.012 C 
HETATM    2  C2  UNL     1     -34.420   4.952   5.301  1.00 20.00    -0.117 C 
HETATM    3  C5  UNL     1     -34.802   5.850   6.400  1.00 20.00     0.093 C 
ENDROOT
BRANCH   3   4
HETATM    4  C6  UNL     1     -34.011   7.161   6.379  1.00 20.00     0.014 C 
BRANCH   4   5
HETATM    5  C7  UNL     1     -33.863   7.742   4.966  1.00 20.00     0.021 C 
BRANCH   5   6
HETATM    6  C9  UNL     1     -32.401   7.999   4.558  1.00 20.00     0.085 C 
HETATM    7 CL10 UNL     1     -31.943   9.639   5.140  1.00 20.00    -0.125 Cl
BRANCH   6   8
HETATM    8  C8  UNL     1     -32.092   7.832   3.049  1.00 20.00    -0.004 C 
HETATM    9  C3  UNL     1     -32.522   6.455   2.525  1.00 20.00     0.011 C 
HETATM   10  C4  UNL     1     -32.691   8.930   2.166  1.00 20.00     0.011 C 
ENDBRANCH   6   8
ENDBRANCH   5   6
ENDBRANCH   4   5
ENDBRANCH   3   4
TORSDOF 4
ENDMDL
MODEL 2
REMARK VINA RESULT:      -4.5      1.223      4.450
REMARK  4 active torsions:
REMARK  status: ('A' for Active; 'I' for Inactive)
REMARK    1  A    between atoms: C5_5  and  C6_6 
REMARK    2  A    between atoms: C6_6  and  C7_7 
REMARK    3  A    between atoms: C7_7  and  C9_9 
REMARK    4  A    between atoms: C8_8  and  C9_9 
ROOT
HETATM    1  C1  UNL     1     -32.652   8.930   0.022  1.00 20.00     0.012 C 
HETATM    2  C2  UNL     1     -32.670   9.037   1.218  1.00 20.00    -0.117 C 
HETATM    3  C5  UNL     1     -32.693   9.171   2.681  1.00 20.00     0.093 C 
ENDROOT
BRANCH   3   4
HETATM    4  C6  UNL     1     -32.057   7.969   3.384  1.00 20.00     0.014 C 
BRANCH   4   5
HETATM    5  C7  UNL     1     -32.984   6.746   3.421  1.00 20.00     0.021 C 
BRANCH   5   6
HETATM    6  C9  UNL     1     -34.113   6.863   4.460  1.00 20.00     0.085 C 
HETATM    7 CL10 UNL     1     -33.517   7.890   5.813  1.00 20.00    -0.125 Cl
BRANCH   6   8
HETATM    8  C8  UNL     1     -34.679   5.518   4.982  1.00 20.00    -0.004 C 
HETATM    9  C3  UNL     1     -34.012   4.314   4.304  1.00 20.00     0.011 C 
HETATM   10  C4  UNL     1     -34.605   5.361   6.503  1.00 20.00     0.011 C 
ENDBRANCH   6   8
ENDBRANCH   5   6
ENDBRANCH   4   5
ENDBRANCH   3   4
TORSDOF 4
ENDMDL
MODEL 3
REMARK VINA RESULT:      -4.4      1.660      2.077
REMARK  4 active torsions:
REMARK  status: ('A' for Active; 'I' for Inactive)
REMARK    1  A    between atoms: C5_5  and  C6_6 
REMARK    2  A    between atoms: C6_6  and  C7_7 
REMARK    3  A    between atoms: C7_7  and  C9_9 
REMARK    4  A    between atoms: C8_8  and  C9_9 
ROOT
HETATM    1  C1  UNL     1     -34.786   5.006   5.236  1.00 20.00     0.012 C 
HETATM    2  C2  UNL     1     -34.367   6.008   5.750  1.00 20.00    -0.117 C 
HETATM    3  C5  UNL     1     -33.856   7.231   6.382  1.00 20.00     0.093 C 
ENDROOT
BRANCH   3   4
HETATM    4  C6  UNL     1     -33.598   8.345   5.364  1.00 20.00     0.014 C 
BRANCH   4   5
HETATM    5  C7  UNL     1     -32.421   8.032   4.429  1.00 20.00     0.021 C 
BRANCH   5   6
HETATM    6  C9  UNL     1     -32.850   7.740   2.980  1.00 20.00     0.085 C 
HETATM    7 CL10 UNL     1     -32.495   6.010   2.635  1.00 20.00    -0.125 Cl
BRANCH   6   8
HETATM    8  C8  UNL     1     -32.231   8.666   1.903  1.00 20.00    -0.004 C 
HETATM    9  C3  UNL     1     -31.974   7.922   0.586  1.00 20.00     0.011 C 
HETATM   10  C4  UNL     1     -33.045   9.934   1.630  1.00 20.00     0.011 C 
ENDBRANCH   6   8
ENDBRANCH   5   6
ENDBRANCH   4   5
ENDBRANCH   3   4
TORSDOF 4
ENDMDL
MODEL 4
REMARK VINA RESULT:      -4.4      1.984      3.789
REMARK  4 active torsions:
REMARK  status: ('A' for Active; 'I' for Inactive)
REMARK    1  A    between atoms: C5_5  and  C6_6 
REMARK    2  A    between atoms: C6_6  and  C7_7 
REMARK    3  A    between atoms: C7_7  and  C9_9 
REMARK    4  A    between atoms: C8_8  and  C9_9 
ROOT
HETATM    1  C1  UNL     1     -32.171   7.403   2.170  1.00 20.00     0.012 C 
HETATM    2  C2  UNL     1     -32.202   7.916   3.256  1.00 20.00    -0.117 C 
HETATM    3  C5  UNL     1     -32.237   8.543   4.585  1.00 20.00     0.093 C 
ENDROOT
BRANCH   3   4
HETATM    4  C6  UNL     1     -33.632   8.495   5.212  1.00 20.00     0.014 C 
BRANCH   4   5
HETATM    5  C7  UNL     1     -33.723   7.505   6.382  1.00 20.00     0.021 C 
BRANCH   5   6
HETATM    6  C9  UNL     1     -34.521   6.233   6.048  1.00 20.00     0.085 C 
HETATM    7 CL10 UNL     1     -33.747   4.851   6.903  1.00 20.00    -0.125 Cl
BRANCH   6   8
HETATM    8  C8  UNL     1     -34.694   5.933   4.538  1.00 20.00    -0.004 C 
HETATM    9  C3  UNL     1     -34.094   4.575   4.151  1.00 20.00     0.011 C 
HETATM   10  C4  UNL     1     -36.144   6.016   4.049  1.00 20.00     0.011 C 
ENDBRANCH   6   8
ENDBRANCH   5   6
ENDBRANCH   4   5
ENDBRANCH   3   4
TORSDOF 4
ENDMDL
MODEL 5
REMARK VINA RESULT:      -4.2      2.058      2.899
REMARK  4 active torsions:
REMARK  status: ('A' for Active; 'I' for Inactive)
REMARK    1  A    between atoms: C5_5  and  C6_6 
REMARK    2  A    between atoms: C6_6  and  C7_7 
REMARK    3  A    between atoms: C7_7  and  C9_9 
REMARK    4  A    between atoms: C8_8  and  C9_9 
ROOT
HETATM    1  C1  UNL     1     -34.104   7.599   6.848  1.00 20.00     0.012 C 
HETATM    2  C2  UNL     1     -34.282   6.459   6.514  1.00 20.00    -0.117 C 
HETATM    3  C5  UNL     1     -34.500   5.063   6.109  1.00 20.00     0.093 C 
ENDROOT
BRANCH   3   4
HETATM    4  C6  UNL     1     -34.431   4.883   4.591  1.00 20.00     0.014 C 
BRANCH   4   5
HETATM    5  C7  UNL     1     -34.303   6.215   3.840  1.00 20.00     0.021 C 
BRANCH   5   6
HETATM    6  C9  UNL     1     -33.292   6.171   2.681  1.00 20.00     0.085 C 
HETATM    7 CL10 UNL     1     -32.629   4.501   2.586  1.00 20.00    -0.125 Cl
BRANCH   6   8
HETATM    8  C8  UNL     1     -32.157   7.224   2.747  1.00 20.00    -0.004 C 
HETATM    9  C3  UNL     1     -32.114   8.100   1.488  1.00 20.00     0.011 C 
HETATM   10  C4  UNL     1     -32.204   8.112   3.994  1.00 20.00     0.011 C 
ENDBRANCH   6   8
ENDBRANCH   5   6
ENDBRANCH   4   5
ENDBRANCH   3   4
TORSDOF 4
ENDMDL
MODEL 6
REMARK VINA RESULT:      -4.1      1.948      4.410
REMARK  4 active torsions:
REMARK  status: ('A' for Active; 'I' for Inactive)
REMARK    1  A    between atoms: C5_5  and  C6_6 
REMARK    2  A    between atoms: C6_6  and  C7_7 
REMARK    3  A    between atoms: C7_7  and  C9_9 
REMARK    4  A    between atoms: C8_8  and  C9_9 
ROOT
HETATM    1  C1  UNL     1     -32.309   8.649   4.359  1.00 20.00     0.012 C 
HETATM    2  C2  UNL     1     -32.288   7.692   3.634  1.00 20.00    -0.117 C 
HETATM    3  C5  UNL     1     -32.259   6.522   2.746  1.00 20.00     0.093 C 
ENDROOT
BRANCH   3   4
HETATM    4  C6  UNL     1     -33.570   5.733   2.783  1.00 20.00     0.014 C 
BRANCH   4   5
HETATM    5  C7  UNL     1     -33.657   4.783   3.985  1.00 20.00     0.021 C 
BRANCH   5   6
HETATM    6  C9  UNL     1     -34.859   5.065   4.904  1.00 20.00     0.085 C 
HETATM    7 CL10 UNL     1     -35.947   6.221   4.057  1.00 20.00    -0.125 Cl
BRANCH   6   8
HETATM    8  C8  UNL     1     -34.504   5.567   6.327  1.00 20.00    -0.004 C 
HETATM    9  C3  UNL     1     -33.233   4.901   6.869  1.00 20.00     0.011 C 
HETATM   10  C4  UNL     1     -34.377   7.089   6.435  1.00 20.00     0.011 C 
ENDBRANCH   6   8
ENDBRANCH   5   6
ENDBRANCH   4   5
ENDBRANCH   3   4
TORSDOF 4
ENDMDL
MODEL 7
REMARK VINA RESULT:      -4.0     11.899     12.845
REMARK  4 active torsions:
REMARK  status: ('A' for Active; 'I' for Inactive)
REMARK    1  A    between atoms: C5_5  and  C6_6 
REMARK    2  A    between atoms: C6_6  and  C7_7 
REMARK    3  A    between atoms: C7_7  and  C9_9 
REMARK    4  A    between atoms: C8_8  and  C9_9 
ROOT
HETATM    1  C1  UNL     1     -30.926  18.465   0.924  1.00 20.00     0.012 C 
HETATM    2  C2  UNL     1     -31.541  18.503  -0.107  1.00 20.00    -0.117 C 
HETATM    3  C5  UNL     1     -32.291  18.552  -1.370  1.00 20.00     0.093 C 
ENDROOT
BRANCH   3   4
HETATM    4  C6  UNL     1     -33.468  17.574  -1.383  1.00 20.00     0.014 C 
BRANCH   4   5
HETATM    5  C7  UNL     1     -33.342  16.508  -2.480  1.00 20.00     0.021 C 
BRANCH   5   6
HETATM    6  C9  UNL     1     -33.816  16.992  -3.862  1.00 20.00     0.085 C 
HETATM    7 CL10 UNL     1     -35.164  18.158  -3.610  1.00 20.00    -0.125 Cl
BRANCH   6   8
HETATM    8  C8  UNL     1     -34.220  15.873  -4.856  1.00 20.00    -0.004 C 
HETATM    9  C3  UNL     1     -34.056  14.476  -4.243  1.00 20.00     0.011 C 
HETATM   10  C4  UNL     1     -35.634  16.026  -5.423  1.00 20.00     0.011 C 
ENDBRANCH   6   8
ENDBRANCH   5   6
ENDBRANCH   4   5
ENDBRANCH   3   4
TORSDOF 4
ENDMDL
MODEL 8
REMARK VINA RESULT:      -3.9      1.425      3.662
REMARK  4 active torsions:
REMARK  status: ('A' for Active; 'I' for Inactive)
REMARK    1  A    between atoms: C5_5  and  C6_6 
REMARK    2  A    between atoms: C6_6  and  C7_7 
REMARK    3  A    between atoms: C7_7  and  C9_9 
REMARK    4  A    between atoms: C8_8  and  C9_9 
ROOT
HETATM    1  C1  UNL     1     -32.805   5.062   2.502  1.00 20.00     0.012 C 
HETATM    2  C2  UNL     1     -32.479   6.214   2.406  1.00 20.00    -0.117 C 
HETATM    3  C5  UNL     1     -32.078   7.622   2.287  1.00 20.00     0.093 C 
ENDROOT
BRANCH   3   4
HETATM    4  C6  UNL     1     -32.748   8.507   3.341  1.00 20.00     0.014 C 
BRANCH   4   5
HETATM    5  C7  UNL     1     -32.672   7.909   4.753  1.00 20.00     0.021 C 
BRANCH   5   6
HETATM    6  C9  UNL     1     -34.046   7.534   5.335  1.00 20.00     0.085 C 
HETATM    7 CL10 UNL     1     -34.067   8.022   7.068  1.00 20.00    -0.125 Cl
BRANCH   6   8
HETATM    8  C8  UNL     1     -34.458   6.050   5.165  1.00 20.00    -0.004 C 
HETATM    9  C3  UNL     1     -34.555   5.324   6.514  1.00 20.00     0.011 C 
HETATM   10  C4  UNL     1     -35.755   5.851   4.376  1.00 20.00     0.011 C 
ENDBRANCH   6   8
ENDBRANCH   5   6
ENDBRANCH   4   5
ENDBRANCH   3   4
TORSDOF 4
ENDMDL
MODEL 9
REMARK VINA RESULT:      -3.9      9.756     10.878
REMARK  4 active torsions:
REMARK  status: ('A' for Active; 'I' for Inactive)
REMARK    1  A    between atoms: C5_5  and  C6_6 
REMARK    2  A    between atoms: C6_6  and  C7_7 
REMARK    3  A    between atoms: C7_7  and  C9_9 
REMARK    4  A    between atoms: C8_8  and  C9_9 
ROOT
HETATM    1  C1  UNL     1     -38.912  11.645   3.718  1.00 20.00     0.012 C 
HETATM    2  C2  UNL     1     -39.283  11.833   4.845  1.00 20.00    -0.117 C 
HETATM    3  C5  UNL     1     -39.734  12.062   6.224  1.00 20.00     0.093 C 
ENDROOT
BRANCH   3   4
HETATM    4  C6  UNL     1     -41.209  12.462   6.293  1.00 20.00     0.014 C 
BRANCH   4   5
HETATM    5  C7  UNL     1     -41.470  13.867   5.732  1.00 20.00     0.021 C 
BRANCH   5   6
HETATM    6  C9  UNL     1     -41.774  14.915   6.817  1.00 20.00     0.085 C 
HETATM    7 CL10 UNL     1     -42.778  16.209   6.072  1.00 20.00    -0.125 Cl
BRANCH   6   8
HETATM    8  C8  UNL     1     -40.535  15.508   7.535  1.00 20.00    -0.004 C 
HETATM    9  C3  UNL     1     -40.624  17.034   7.663  1.00 20.00     0.011 C 
HETATM   10  C4  UNL     1     -40.256  14.889   8.907  1.00 20.00     0.011 C 
ENDBRANCH   6   8
ENDBRANCH   5   6
ENDBRANCH   4   5
ENDBRANCH   3   4
TORSDOF 4
ENDMDL
