MODEL 1
REMARK VINA RESULT:      -5.5      0.000      0.000
REMARK  2 active torsions:
REMARK  status: ('A' for Active; 'I' for Inactive)
REMARK    1  A    between atoms: C6_6  and  C7_7 
REMARK    2  A    between atoms: C8_8  and  O9_9 
ROOT
HETATM    1  C1  UNL     1     -34.172   5.194   6.460  1.00 20.00     0.003 C 
HETATM    2  C2  UNL     1     -34.461   6.694   6.492  1.00 20.00     0.007 C 
HETATM    3  C5  UNL     1     -34.283   4.757   4.998  1.00 20.00     0.032 C 
HETATM    4  C7  UNL     1     -34.272   7.177   5.052  1.00 20.00     0.018 C 
HETATM    5  C8  UNL     1     -34.771   5.984   4.233  1.00 20.00     0.122 C 
ENDROOT
BRANCH   4   6
HETATM    6  C6  UNL     1     -32.811   7.513   4.753  1.00 20.00    -0.008 A 
HETATM    7  C3  UNL     1     -32.296   7.461   3.342  1.00 20.00     0.005 A 
HETATM    8  C4  UNL     1     -32.460   8.785   4.034  1.00 20.00     0.005 A 
ENDBRANCH   4   6
BRANCH   5   9
HETATM    9  O9  UNL     1     -36.197   5.970   4.219  1.00 20.00    -0.395 OA
HETATM   10  H23 UNL     1     -36.470   5.072   3.969  1.00 20.00     0.210 HD
ENDBRANCH   5   9
TORSDOF 2
ENDMDL
MODEL 2
REMARK VINA RESULT:      -3.7      1.490      2.128
REMARK  2 active torsions:
REMARK  status: ('A' for Active; 'I' for Inactive)
REMARK    1  A    between atoms: C6_6  and  C7_7 
REMARK    2  A    between atoms: C8_8  and  O9_9 
ROOT
HETATM    1  C1  UNL     1     -34.553   5.400   3.614  1.00 20.00     0.003 C 
HETATM    2  C2  UNL     1     -33.124   5.740   4.032  1.00 20.00     0.007 C 
HETATM    3  C5  UNL     1     -35.460   5.819   4.773  1.00 20.00     0.032 C 
HETATM    4  C7  UNL     1     -33.261   6.746   5.176  1.00 20.00     0.018 C 
HETATM    5  C8  UNL     1     -34.525   6.264   5.893  1.00 20.00     0.122 C 
ENDROOT
BRANCH   4   6
HETATM    6  C6  UNL     1     -33.400   8.178   4.660  1.00 20.00    -0.008 A 
HETATM    7  C3  UNL     1     -32.273   9.158   4.833  1.00 20.00     0.005 A 
HETATM    8  C4  UNL     1     -32.608   8.631   3.466  1.00 20.00     0.005 A 
ENDBRANCH   4   6
BRANCH   5   9
HETATM    9  O9  UNL     1     -34.218   5.130   6.703  1.00 20.00    -0.395 OA
HETATM   10  H23 UNL     1     -33.274   5.185   6.923  1.00 20.00     0.210 HD
ENDBRANCH   5   9
TORSDOF 2
ENDMDL
MODEL 3
REMARK VINA RESULT:      -3.6      1.571      2.364
REMARK  2 active torsions:
REMARK  status: ('A' for Active; 'I' for Inactive)
REMARK    1  A    between atoms: C6_6  and  C7_7 
REMARK    2  A    between atoms: C8_8  and  O9_9 
ROOT
HETATM    1  C1  UNL     1     -33.695   7.763   5.681  1.00 20.00     0.003 C 
HETATM    2  C2  UNL     1     -34.484   7.295   4.460  1.00 20.00     0.007 C 
HETATM    3  C5  UNL     1     -33.410   6.517   6.523  1.00 20.00     0.032 C 
HETATM    4  C7  UNL     1     -34.243   5.786   4.371  1.00 20.00     0.018 C 
HETATM    5  C8  UNL     1     -34.160   5.375   5.843  1.00 20.00     0.122 C 
ENDROOT
BRANCH   4   6
HETATM    6  C6  UNL     1     -32.960   5.461   3.607  1.00 20.00    -0.008 A 
HETATM    7  C3  UNL     1     -33.018   5.106   2.147  1.00 20.00     0.005 A 
HETATM    8  C4  UNL     1     -32.429   6.420   2.579  1.00 20.00     0.005 A 
ENDBRANCH   4   6
BRANCH   5   9
HETATM    9  O9  UNL     1     -35.472   5.302   6.399  1.00 20.00    -0.395 OA
HETATM   10  H23 UNL     1     -35.652   4.365   6.581  1.00 20.00     0.210 HD
ENDBRANCH   5   9
TORSDOF 2
ENDMDL
MODEL 4
REMARK VINA RESULT:      -3.6     12.744     13.729
REMARK  2 active torsions:
REMARK  status: ('A' for Active; 'I' for Inactive)
REMARK    1  A    between atoms: C6_6  and  C7_7 
REMARK    2  A    between atoms: C8_8  and  O9_9 
ROOT
HETATM    1  C1  UNL     1     -36.318  15.407  -5.603  1.00 20.00     0.003 C 
HETATM    2  C2  UNL     1     -35.546  16.679  -5.947  1.00 20.00     0.007 C 
HETATM    3  C5  UNL     1     -35.288  14.389  -5.109  1.00 20.00     0.032 C 
HETATM    4  C7  UNL     1     -34.202  16.549  -5.227  1.00 20.00     0.018 C 
HETATM    5  C8  UNL     1     -33.925  15.046  -5.309  1.00 20.00     0.122 C 
ENDROOT
BRANCH   4   6
HETATM    6  C6  UNL     1     -34.281  17.044  -3.783  1.00 20.00    -0.008 A 
HETATM    7  C3  UNL     1     -33.351  16.490  -2.741  1.00 20.00     0.005 A 
HETATM    8  C4  UNL     1     -33.186  17.905  -3.219  1.00 20.00     0.005 A 
ENDBRANCH   4   6
BRANCH   5   9
HETATM    9  O9  UNL     1     -33.450  14.712  -6.612  1.00 20.00    -0.395 OA
HETATM   10  H23 UNL     1     -33.243  13.763  -6.604  1.00 20.00     0.210 HD
ENDBRANCH   5   9
TORSDOF 2
ENDMDL
MODEL 5
REMARK VINA RESULT:      -3.6      8.550      9.488
REMARK  2 active torsions:
REMARK  status: ('A' for Active; 'I' for Inactive)
REMARK    1  A    between atoms: C6_6  and  C7_7 
REMARK    2  A    between atoms: C8_8  and  O9_9 
ROOT
HETATM    1  C1  UNL     1     -42.679   5.075  -1.134  1.00 20.00     0.003 C 
HETATM    2  C2  UNL     1     -41.250   5.497  -0.797  1.00 20.00     0.007 C 
HETATM    3  C5  UNL     1     -43.417   4.924   0.197  1.00 20.00     0.032 C 
HETATM    4  C7  UNL     1     -41.309   6.027   0.638  1.00 20.00     0.018 C 
HETATM    5  C8  UNL     1     -42.364   5.126   1.282  1.00 20.00     0.122 C 
ENDROOT
BRANCH   4   6
HETATM    6  C6  UNL     1     -41.704   7.503   0.681  1.00 20.00    -0.008 A 
HETATM    7  C3  UNL     1     -40.779   8.551   0.127  1.00 20.00     0.005 A 
HETATM    8  C4  UNL     1     -42.062   8.227  -0.586  1.00 20.00     0.005 A 
ENDBRANCH   4   6
BRANCH   5   9
HETATM    9  O9  UNL     1     -41.791   3.858   1.596  1.00 20.00    -0.395 OA
HETATM   10  H23 UNL     1     -41.647   3.841   2.557  1.00 20.00     0.210 HD
ENDBRANCH   5   9
TORSDOF 2
ENDMDL
MODEL 6
REMARK VINA RESULT:      -3.6     12.648     13.366
REMARK  2 active torsions:
REMARK  status: ('A' for Active; 'I' for Inactive)
REMARK    1  A    between atoms: C6_6  and  C7_7 
REMARK    2  A    between atoms: C8_8  and  O9_9 
ROOT
HETATM    1  C1  UNL     1     -35.354  16.645  -4.972  1.00 20.00     0.003 C 
HETATM    2  C2  UNL     1     -34.102  17.473  -4.686  1.00 20.00     0.007 C 
HETATM    3  C5  UNL     1     -34.996  15.189  -4.666  1.00 20.00     0.032 C 
HETATM    4  C7  UNL     1     -33.221  16.589  -3.801  1.00 20.00     0.018 C 
HETATM    5  C8  UNL     1     -33.504  15.187  -4.344  1.00 20.00     0.122 C 
ENDROOT
BRANCH   4   6
HETATM    6  C6  UNL     1     -33.588  16.722  -2.323  1.00 20.00    -0.008 A 
HETATM    7  C3  UNL     1     -32.814  17.654  -1.432  1.00 20.00     0.005 A 
HETATM    8  C4  UNL     1     -34.231  17.981  -1.814  1.00 20.00     0.005 A 
ENDBRANCH   4   6
BRANCH   5   9
HETATM    9  O9  UNL     1     -32.781  14.982  -5.556  1.00 20.00    -0.395 OA
HETATM   10  H23 UNL     1     -32.980  14.080  -5.857  1.00 20.00     0.210 HD
ENDBRANCH   5   9
TORSDOF 2
ENDMDL
MODEL 7
REMARK VINA RESULT:      -3.6      9.258     10.121
REMARK  2 active torsions:
REMARK  status: ('A' for Active; 'I' for Inactive)
REMARK    1  A    between atoms: C6_6  and  C7_7 
REMARK    2  A    between atoms: C8_8  and  O9_9 
ROOT
HETATM    1  C1  UNL     1     -42.078  15.034   6.194  1.00 20.00     0.003 C 
HETATM    2  C2  UNL     1     -42.281  13.527   6.045  1.00 20.00     0.007 C 
HETATM    3  C5  UNL     1     -40.902  15.225   7.155  1.00 20.00     0.032 C 
HETATM    4  C7  UNL     1     -40.974  12.890   6.522  1.00 20.00     0.018 C 
HETATM    5  C8  UNL     1     -40.539  13.828   7.650  1.00 20.00     0.122 C 
ENDROOT
BRANCH   4   6
HETATM    6  C6  UNL     1     -39.938  12.813   5.401  1.00 20.00    -0.008 A 
HETATM    7  C3  UNL     1     -38.594  12.190   5.654  1.00 20.00     0.005 A 
HETATM    8  C4  UNL     1     -39.594  11.489   4.779  1.00 20.00     0.005 A 
ENDBRANCH   4   6
BRANCH   5   9
HETATM    9  O9  UNL     1     -41.297  13.555   8.826  1.00 20.00    -0.395 OA
HETATM   10  H23 UNL     1     -42.232  13.529   8.563  1.00 20.00     0.210 HD
ENDBRANCH   5   9
TORSDOF 2
ENDMDL
MODEL 8
REMARK VINA RESULT:      -3.5     12.090     12.867
REMARK  2 active torsions:
REMARK  status: ('A' for Active; 'I' for Inactive)
REMARK    1  A    between atoms: C6_6  and  C7_7 
REMARK    2  A    between atoms: C8_8  and  O9_9 
ROOT
HETATM    1  C1  UNL     1     -34.322  15.028  -6.401  1.00 20.00     0.003 C 
HETATM    2  C2  UNL     1     -33.364  14.717  -5.253  1.00 20.00     0.007 C 
HETATM    3  C5  UNL     1     -35.739  14.858  -5.848  1.00 20.00     0.032 C 
HETATM    4  C7  UNL     1     -34.203  14.833  -3.978  1.00 20.00     0.018 C 
HETATM    5  C8  UNL     1     -35.570  14.317  -4.432  1.00 20.00     0.122 C 
ENDROOT
BRANCH   4   6
HETATM    6  C6  UNL     1     -34.268  16.273  -3.470  1.00 20.00    -0.008 A 
HETATM    7  C3  UNL     1     -33.497  16.679  -2.246  1.00 20.00     0.005 A 
HETATM    8  C4  UNL     1     -33.073  17.175  -3.600  1.00 20.00     0.005 A 
ENDBRANCH   4   6
BRANCH   5   9
HETATM    9  O9  UNL     1     -35.553  12.892  -4.492  1.00 20.00    -0.395 OA
HETATM   10  H23 UNL     1     -34.623  12.621  -4.569  1.00 20.00     0.210 HD
ENDBRANCH   5   9
TORSDOF 2
ENDMDL
MODEL 9
REMARK VINA RESULT:      -3.5      9.341     10.083
REMARK  2 active torsions:
REMARK  status: ('A' for Active; 'I' for Inactive)
REMARK    1  A    between atoms: C6_6  and  C7_7 
REMARK    2  A    between atoms: C8_8  and  O9_9 
ROOT
HETATM    1  C1  UNL     1     -41.291  14.053   8.154  1.00 20.00     0.003 C 
HETATM    2  C2  UNL     1     -40.534  14.402   6.875  1.00 20.00     0.007 C 
HETATM    3  C5  UNL     1     -42.550  13.295   7.725  1.00 20.00     0.032 C 
HETATM    4  C7  UNL     1     -41.092  13.467   5.801  1.00 20.00     0.018 C 
HETATM    5  C8  UNL     1     -42.564  13.343   6.201  1.00 20.00     0.122 C 
ENDROOT
BRANCH   4   6
HETATM    6  C6  UNL     1     -40.378  12.115   5.798  1.00 20.00    -0.008 A 
HETATM    7  C3  UNL     1     -39.426  11.765   4.689  1.00 20.00     0.005 A 
HETATM    8  C4  UNL     1     -38.902  12.040   6.071  1.00 20.00     0.005 A 
ENDBRANCH   4   6
BRANCH   5   9
HETATM    9  O9  UNL     1     -43.276  14.510   5.792  1.00 20.00    -0.395 OA
HETATM   10  H23 UNL     1     -43.079  15.205   6.442  1.00 20.00     0.210 HD
ENDBRANCH   5   9
TORSDOF 2
ENDMDL
