MODEL 1
REMARK VINA RESULT:      -4.9      0.000      0.000
REMARK  4 active torsions:
REMARK  status: ('A' for Active; 'I' for Inactive)
REMARK    1  A    between atoms: C4_4  and  C6_6 
REMARK    2  A    between atoms: C5_5  and  C8_8 
REMARK    3  A    between atoms: C6_6  and  C7_7 
REMARK    4  A    between atoms: C7_7  and  C8_8 
ROOT
HETATM    1  C1  UNL     1     -34.792   5.236   6.326  1.00 20.00     0.012 C 
HETATM    2  C2  UNL     1     -34.275   6.318   6.278  1.00 20.00    -0.117 C 
HETATM    3  C4  UNL     1     -33.642   7.643   6.224  1.00 20.00     0.093 C 
ENDROOT
BRANCH   3   4
HETATM    4  C6  UNL     1     -33.660   8.238   4.814  1.00 20.00     0.014 C 
BRANCH   4   5
HETATM    5  C7  UNL     1     -32.268   8.264   4.164  1.00 20.00     0.021 C 
BRANCH   5   6
HETATM    6  C8  UNL     1     -32.137   7.289   2.983  1.00 20.00     0.082 C 
HETATM    7 CL9  UNL     1     -32.118   8.176   1.426  1.00 20.00    -0.125 Cl
BRANCH   6   8
HETATM    8  C5  UNL     1     -33.234   6.213   2.971  1.00 20.00     0.016 C 
HETATM    9  C3  UNL     1     -32.773   4.810   2.600  1.00 20.00     0.006 C 
ENDBRANCH   6   8
ENDBRANCH   5   6
ENDBRANCH   4   5
ENDBRANCH   3   4
TORSDOF 4
ENDMDL
MODEL 2
REMARK VINA RESULT:      -4.7      1.548      2.105
REMARK  4 active torsions:
REMARK  status: ('A' for Active; 'I' for Inactive)
REMARK    1  A    between atoms: C4_4  and  C6_6 
REMARK    2  A    between atoms: C5_5  and  C8_8 
REMARK    3  A    between atoms: C6_6  and  C7_7 
REMARK    4  A    between atoms: C7_7  and  C8_8 
ROOT
HETATM    1  C1  UNL     1     -34.842   5.037   5.301  1.00 20.00     0.012 C 
HETATM    2  C2  UNL     1     -34.311   6.041   5.688  1.00 20.00    -0.117 C 
HETATM    3  C4  UNL     1     -33.661   7.270   6.166  1.00 20.00     0.093 C 
ENDROOT
BRANCH   3   4
HETATM    4  C6  UNL     1     -33.467   8.296   5.049  1.00 20.00     0.014 C 
BRANCH   4   5
HETATM    5  C7  UNL     1     -32.288   7.953   4.126  1.00 20.00     0.021 C 
BRANCH   5   6
HETATM    6  C8  UNL     1     -32.733   7.485   2.731  1.00 20.00     0.082 C 
HETATM    7 CL9  UNL     1     -32.625   5.701   2.595  1.00 20.00    -0.125 Cl
BRANCH   6   8
HETATM    8  C5  UNL     1     -31.944   8.155   1.595  1.00 20.00     0.016 C 
HETATM    9  C3  UNL     1     -32.710   9.194   0.787  1.00 20.00     0.006 C 
ENDBRANCH   6   8
ENDBRANCH   5   6
ENDBRANCH   4   5
ENDBRANCH   3   4
TORSDOF 4
ENDMDL
MODEL 3
REMARK VINA RESULT:      -4.7      1.936      4.214
REMARK  4 active torsions:
REMARK  status: ('A' for Active; 'I' for Inactive)
REMARK    1  A    between atoms: C4_4  and  C6_6 
REMARK    2  A    between atoms: C5_5  and  C8_8 
REMARK    3  A    between atoms: C6_6  and  C7_7 
REMARK    4  A    between atoms: C7_7  and  C8_8 
ROOT
HETATM    1  C1  UNL     1     -32.548   8.546   3.649  1.00 20.00     0.012 C 
HETATM    2  C2  UNL     1     -32.416   7.408   3.289  1.00 20.00    -0.117 C 
HETATM    3  C4  UNL     1     -32.250   6.017   2.846  1.00 20.00     0.093 C 
ENDROOT
BRANCH   3   4
HETATM    4  C6  UNL     1     -33.564   5.234   2.888  1.00 20.00     0.014 C 
BRANCH   4   5
HETATM    5  C7  UNL     1     -33.743   4.444   4.192  1.00 20.00     0.021 C 
BRANCH   5   6
HETATM    6  C8  UNL     1     -34.871   4.994   5.079  1.00 20.00     0.082 C 
HETATM    7 CL9  UNL     1     -35.810   6.248   4.209  1.00 20.00    -0.125 Cl
BRANCH   6   8
HETATM    8  C5  UNL     1     -34.364   5.543   6.422  1.00 20.00     0.016 C 
HETATM    9  C3  UNL     1     -34.113   7.045   6.464  1.00 20.00     0.006 C 
ENDBRANCH   6   8
ENDBRANCH   5   6
ENDBRANCH   4   5
ENDBRANCH   3   4
TORSDOF 4
ENDMDL
MODEL 4
REMARK VINA RESULT:      -4.6      1.651      2.240
REMARK  4 active torsions:
REMARK  status: ('A' for Active; 'I' for Inactive)
REMARK    1  A    between atoms: C4_4  and  C6_6 
REMARK    2  A    between atoms: C5_5  and  C8_8 
REMARK    3  A    between atoms: C6_6  and  C7_7 
REMARK    4  A    between atoms: C7_7  and  C8_8 
ROOT
HETATM    1  C1  UNL     1     -34.090   4.204   4.407  1.00 20.00     0.012 C 
HETATM    2  C2  UNL     1     -34.391   4.922   5.320  1.00 20.00    -0.117 C 
HETATM    3  C4  UNL     1     -34.764   5.798   6.440  1.00 20.00     0.093 C 
ENDROOT
BRANCH   3   4
HETATM    4  C6  UNL     1     -34.025   7.137   6.400  1.00 20.00     0.014 C 
BRANCH   4   5
HETATM    5  C7  UNL     1     -33.903   7.706   4.979  1.00 20.00     0.021 C 
BRANCH   5   6
HETATM    6  C8  UNL     1     -32.450   7.986   4.564  1.00 20.00     0.082 C 
HETATM    7 CL9  UNL     1     -31.946   9.626   5.082  1.00 20.00    -0.125 Cl
BRANCH   6   8
HETATM    8  C5  UNL     1     -32.211   7.805   3.057  1.00 20.00     0.016 C 
HETATM    9  C3  UNL     1     -32.464   6.405   2.515  1.00 20.00     0.006 C 
ENDBRANCH   6   8
ENDBRANCH   5   6
ENDBRANCH   4   5
ENDBRANCH   3   4
TORSDOF 4
ENDMDL
MODEL 5
REMARK VINA RESULT:      -4.5      2.432      3.649
REMARK  4 active torsions:
REMARK  status: ('A' for Active; 'I' for Inactive)
REMARK    1  A    between atoms: C4_4  and  C6_6 
REMARK    2  A    between atoms: C5_5  and  C8_8 
REMARK    3  A    between atoms: C6_6  and  C7_7 
REMARK    4  A    between atoms: C7_7  and  C8_8 
ROOT
HETATM    1  C1  UNL     1     -32.186   8.187   2.277  1.00 20.00     0.012 C 
HETATM    2  C2  UNL     1     -32.338   8.389   3.450  1.00 20.00    -0.117 C 
HETATM    3  C4  UNL     1     -32.520   8.640   4.886  1.00 20.00     0.093 C 
ENDROOT
BRANCH   3   4
HETATM    4  C6  UNL     1     -33.491   7.648   5.530  1.00 20.00     0.014 C 
BRANCH   4   5
HETATM    5  C7  UNL     1     -34.379   6.933   4.501  1.00 20.00     0.021 C 
BRANCH   5   6
HETATM    6  C8  UNL     1     -34.737   5.496   4.911  1.00 20.00     0.082 C 
HETATM    7 CL9  UNL     1     -34.488   5.255   6.669  1.00 20.00    -0.125 Cl
BRANCH   6   8
HETATM    8  C5  UNL     1     -33.962   4.435   4.113  1.00 20.00     0.016 C 
HETATM    9  C3  UNL     1     -33.224   4.948   2.883  1.00 20.00     0.006 C 
ENDBRANCH   6   8
ENDBRANCH   5   6
ENDBRANCH   4   5
ENDBRANCH   3   4
TORSDOF 4
ENDMDL
MODEL 6
REMARK VINA RESULT:      -4.5      2.462      3.799
REMARK  4 active torsions:
REMARK  status: ('A' for Active; 'I' for Inactive)
REMARK    1  A    between atoms: C4_4  and  C6_6 
REMARK    2  A    between atoms: C5_5  and  C8_8 
REMARK    3  A    between atoms: C6_6  and  C7_7 
REMARK    4  A    between atoms: C7_7  and  C8_8 
ROOT
HETATM    1  C1  UNL     1     -32.108   7.392   2.201  1.00 20.00     0.012 C 
HETATM    2  C2  UNL     1     -32.220   7.941   3.262  1.00 20.00    -0.117 C 
HETATM    3  C4  UNL     1     -32.353   8.616   4.561  1.00 20.00     0.093 C 
ENDROOT
BRANCH   3   4
HETATM    4  C6  UNL     1     -33.736   8.409   5.183  1.00 20.00     0.014 C 
BRANCH   4   5
HETATM    5  C7  UNL     1     -33.726   7.380   6.323  1.00 20.00     0.021 C 
BRANCH   5   6
HETATM    6  C8  UNL     1     -34.685   6.204   6.079  1.00 20.00     0.082 C 
HETATM    7 CL9  UNL     1     -34.073   4.712   6.861  1.00 20.00    -0.125 Cl
BRANCH   6   8
HETATM    8  C5  UNL     1     -34.957   5.952   4.588  1.00 20.00     0.016 C 
HETATM    9  C3  UNL     1     -34.129   4.845   3.947  1.00 20.00     0.006 C 
ENDBRANCH   6   8
ENDBRANCH   5   6
ENDBRANCH   4   5
ENDBRANCH   3   4
TORSDOF 4
ENDMDL
MODEL 7
REMARK VINA RESULT:      -4.3      1.048      2.687
REMARK  4 active torsions:
REMARK  status: ('A' for Active; 'I' for Inactive)
REMARK    1  A    between atoms: C4_4  and  C6_6 
REMARK    2  A    between atoms: C5_5  and  C8_8 
REMARK    3  A    between atoms: C6_6  and  C7_7 
REMARK    4  A    between atoms: C7_7  and  C8_8 
ROOT
HETATM    1  C1  UNL     1     -34.714   6.084   6.411  1.00 20.00     0.012 C 
HETATM    2  C2  UNL     1     -34.402   5.339   5.523  1.00 20.00    -0.117 C 
HETATM    3  C4  UNL     1     -34.020   4.423   4.439  1.00 20.00     0.093 C 
ENDROOT
BRANCH   3   4
HETATM    4  C6  UNL     1     -33.868   5.142   3.097  1.00 20.00     0.014 C 
BRANCH   4   5
HETATM    5  C7  UNL     1     -32.512   5.849   2.954  1.00 20.00     0.021 C 
BRANCH   5   6
HETATM    6  C8  UNL     1     -32.631   7.381   2.934  1.00 20.00     0.082 C 
HETATM    7 CL9  UNL     1     -32.089   8.041   1.358  1.00 20.00    -0.125 Cl
BRANCH   6   8
HETATM    8  C5  UNL     1     -31.869   8.056   4.084  1.00 20.00     0.016 C 
HETATM    9  C3  UNL     1     -32.727   8.826   5.079  1.00 20.00     0.006 C 
ENDBRANCH   6   8
ENDBRANCH   5   6
ENDBRANCH   4   5
ENDBRANCH   3   4
TORSDOF 4
ENDMDL
MODEL 8
REMARK VINA RESULT:      -4.1      2.085      4.329
REMARK  4 active torsions:
REMARK  status: ('A' for Active; 'I' for Inactive)
REMARK    1  A    between atoms: C4_4  and  C6_6 
REMARK    2  A    between atoms: C5_5  and  C8_8 
REMARK    3  A    between atoms: C6_6  and  C7_7 
REMARK    4  A    between atoms: C7_7  and  C8_8 
ROOT
HETATM    1  C1  UNL     1     -32.593   9.098   0.469  1.00 20.00     0.012 C 
HETATM    2  C2  UNL     1     -32.389   8.429   1.444  1.00 20.00    -0.117 C 
HETATM    3  C4  UNL     1     -32.139   7.606   2.636  1.00 20.00     0.093 C 
ENDROOT
BRANCH   3   4
HETATM    4  C6  UNL     1     -32.320   8.395   3.935  1.00 20.00     0.014 C 
BRANCH   4   5
HETATM    5  C7  UNL     1     -33.707   8.194   4.562  1.00 20.00     0.021 C 
BRANCH   5   6
HETATM    6  C8  UNL     1     -34.022   6.721   4.867  1.00 20.00     0.082 C 
HETATM    7 CL9  UNL     1     -35.556   6.223   4.087  1.00 20.00    -0.125 Cl
BRANCH   6   8
HETATM    8  C5  UNL     1     -34.067   6.418   6.373  1.00 20.00     0.016 C 
HETATM    9  C3  UNL     1     -34.645   5.060   6.753  1.00 20.00     0.006 C 
ENDBRANCH   6   8
ENDBRANCH   5   6
ENDBRANCH   4   5
ENDBRANCH   3   4
TORSDOF 4
ENDMDL
MODEL 9
REMARK VINA RESULT:      -4.1      1.638      3.395
REMARK  4 active torsions:
REMARK  status: ('A' for Active; 'I' for Inactive)
REMARK    1  A    between atoms: C4_4  and  C6_6 
REMARK    2  A    between atoms: C5_5  and  C8_8 
REMARK    3  A    between atoms: C6_6  and  C7_7 
REMARK    4  A    between atoms: C7_7  and  C8_8 
ROOT
HETATM    1  C1  UNL     1     -33.008   5.307   2.684  1.00 20.00     0.012 C 
HETATM    2  C2  UNL     1     -33.595   5.004   3.687  1.00 20.00    -0.117 C 
HETATM    3  C4  UNL     1     -34.312   4.627   4.913  1.00 20.00     0.093 C 
ENDROOT
BRANCH   3   4
HETATM    4  C6  UNL     1     -34.837   5.845   5.676  1.00 20.00     0.014 C 
BRANCH   4   5
HETATM    5  C7  UNL     1     -33.710   6.739   6.214  1.00 20.00     0.021 C 
BRANCH   5   6
HETATM    6  C8  UNL     1     -33.639   8.105   5.513  1.00 20.00     0.082 C 
HETATM    7 CL9  UNL     1     -34.944   8.263   4.295  1.00 20.00    -0.125 Cl
BRANCH   6   8
HETATM    8  C5  UNL     1     -32.271   8.377   4.868  1.00 20.00     0.016 C 
HETATM    9  C3  UNL     1     -32.299   8.691   3.378  1.00 20.00     0.006 C 
ENDBRANCH   6   8
ENDBRANCH   5   6
ENDBRANCH   4   5
ENDBRANCH   3   4
TORSDOF 4
ENDMDL
