MODEL 1
REMARK VINA RESULT:      -4.8      0.000      0.000
REMARK  4 active torsions:
REMARK  status: ('A' for Active; 'I' for Inactive)
REMARK    1  A    between atoms: C4_4  and  C6_6 
REMARK    2  A    between atoms: C5_5  and  C8_8 
REMARK    3  A    between atoms: C6_6  and  C7_7 
REMARK    4  A    between atoms: C7_7  and  C8_8 
ROOT
HETATM    1  C1  UNL     1     -34.818   4.988   5.399  1.00 20.00     0.012 C 
HETATM    2  C2  UNL     1     -34.393   6.052   5.759  1.00 20.00    -0.117 C 
HETATM    3  C4  UNL     1     -33.873   7.352   6.204  1.00 20.00     0.093 C 
ENDROOT
BRANCH   3   4
HETATM    4  C6  UNL     1     -33.619   8.307   5.035  1.00 20.00     0.014 C 
BRANCH   4   5
HETATM    5  C7  UNL     1     -32.168   8.254   4.531  1.00 20.00     0.021 C 
BRANCH   5   6
HETATM    6  C8  UNL     1     -32.063   7.921   3.035  1.00 20.00     0.082 C 
HETATM    7 CL9  UNL     1     -32.657   6.260   2.720  1.00 20.00    -0.125 Cl
BRANCH   6   8
HETATM    8  C5  UNL     1     -32.799   8.932   2.141  1.00 20.00     0.016 C 
HETATM    9  C3  UNL     1     -32.459   8.865   0.657  1.00 20.00     0.006 C 
ENDBRANCH   6   8
ENDBRANCH   5   6
ENDBRANCH   4   5
ENDBRANCH   3   4
TORSDOF 4
ENDMDL
MODEL 2
REMARK VINA RESULT:      -4.8      1.511      1.899
REMARK  4 active torsions:
REMARK  status: ('A' for Active; 'I' for Inactive)
REMARK    1  A    between atoms: C4_4  and  C6_6 
REMARK    2  A    between atoms: C5_5  and  C8_8 
REMARK    3  A    between atoms: C6_6  and  C7_7 
REMARK    4  A    between atoms: C7_7  and  C8_8 
ROOT
HETATM    1  C1  UNL     1     -35.104   5.145   5.321  1.00 20.00     0.012 C 
HETATM    2  C2  UNL     1     -34.469   6.036   5.816  1.00 20.00    -0.117 C 
HETATM    3  C4  UNL     1     -33.690   7.123   6.425  1.00 20.00     0.093 C 
ENDROOT
BRANCH   3   4
HETATM    4  C6  UNL     1     -33.671   8.382   5.554  1.00 20.00     0.014 C 
BRANCH   4   5
HETATM    5  C7  UNL     1     -32.490   8.404   4.571  1.00 20.00     0.021 C 
BRANCH   5   6
HETATM    6  C8  UNL     1     -32.886   7.983   3.147  1.00 20.00     0.082 C 
HETATM    7 CL9  UNL     1     -32.714   9.362   2.015  1.00 20.00    -0.125 Cl
BRANCH   6   8
HETATM    8  C5  UNL     1     -32.092   6.769   2.637  1.00 20.00     0.016 C 
HETATM    9  C3  UNL     1     -32.860   5.454   2.595  1.00 20.00     0.006 C 
ENDBRANCH   6   8
ENDBRANCH   5   6
ENDBRANCH   4   5
ENDBRANCH   3   4
TORSDOF 4
ENDMDL
MODEL 3
REMARK VINA RESULT:      -4.7      1.704      3.785
REMARK  4 active torsions:
REMARK  status: ('A' for Active; 'I' for Inactive)
REMARK    1  A    between atoms: C4_4  and  C6_6 
REMARK    2  A    between atoms: C5_5  and  C8_8 
REMARK    3  A    between atoms: C6_6  and  C7_7 
REMARK    4  A    between atoms: C7_7  and  C8_8 
ROOT
HETATM    1  C1  UNL     1     -32.608   8.586   3.443  1.00 20.00     0.012 C 
HETATM    2  C2  UNL     1     -32.760   8.255   4.587  1.00 20.00    -0.117 C 
HETATM    3  C4  UNL     1     -32.941   7.851   5.988  1.00 20.00     0.093 C 
ENDROOT
BRANCH   3   4
HETATM    4  C6  UNL     1     -34.309   7.210   6.235  1.00 20.00     0.014 C 
BRANCH   4   5
HETATM    5  C7  UNL     1     -34.236   5.678   6.334  1.00 20.00     0.021 C 
BRANCH   5   6
HETATM    6  C8  UNL     1     -34.831   4.968   5.109  1.00 20.00     0.082 C 
HETATM    7 CL9  UNL     1     -35.815   6.109   4.139  1.00 20.00    -0.125 Cl
BRANCH   6   8
HETATM    8  C5  UNL     1     -33.765   4.296   4.227  1.00 20.00     0.016 C 
HETATM    9  C3  UNL     1     -33.327   5.094   3.006  1.00 20.00     0.006 C 
ENDBRANCH   6   8
ENDBRANCH   5   6
ENDBRANCH   4   5
ENDBRANCH   3   4
TORSDOF 4
ENDMDL
MODEL 4
REMARK VINA RESULT:      -4.5      0.995      4.488
REMARK  4 active torsions:
REMARK  status: ('A' for Active; 'I' for Inactive)
REMARK    1  A    between atoms: C4_4  and  C6_6 
REMARK    2  A    between atoms: C5_5  and  C8_8 
REMARK    3  A    between atoms: C6_6  and  C7_7 
REMARK    4  A    between atoms: C7_7  and  C8_8 
ROOT
HETATM    1  C1  UNL     1     -32.568   8.910   0.353  1.00 20.00     0.012 C 
HETATM    2  C2  UNL     1     -32.606   9.010   1.550  1.00 20.00    -0.117 C 
HETATM    3  C4  UNL     1     -32.653   9.137   3.012  1.00 20.00     0.093 C 
ENDROOT
BRANCH   3   4
HETATM    4  C6  UNL     1     -32.262   7.837   3.721  1.00 20.00     0.014 C 
BRANCH   4   5
HETATM    5  C7  UNL     1     -33.407   7.253   4.563  1.00 20.00     0.021 C 
BRANCH   5   6
HETATM    6  C8  UNL     1     -34.080   6.040   3.902  1.00 20.00     0.082 C 
HETATM    7 CL9  UNL     1     -32.948   5.237   2.768  1.00 20.00    -0.125 Cl
BRANCH   6   8
HETATM    8  C5  UNL     1     -34.626   5.027   4.921  1.00 20.00     0.016 C 
HETATM    9  C3  UNL     1     -34.583   5.474   6.378  1.00 20.00     0.006 C 
ENDBRANCH   6   8
ENDBRANCH   5   6
ENDBRANCH   4   5
ENDBRANCH   3   4
TORSDOF 4
ENDMDL
MODEL 5
REMARK VINA RESULT:      -4.5      1.702      4.392
REMARK  4 active torsions:
REMARK  status: ('A' for Active; 'I' for Inactive)
REMARK    1  A    between atoms: C4_4  and  C6_6 
REMARK    2  A    between atoms: C5_5  and  C8_8 
REMARK    3  A    between atoms: C6_6  and  C7_7 
REMARK    4  A    between atoms: C7_7  and  C8_8 
ROOT
HETATM    1  C1  UNL     1     -32.261   9.011   4.876  1.00 20.00     0.012 C 
HETATM    2  C2  UNL     1     -32.258   8.252   3.946  1.00 20.00    -0.117 C 
HETATM    3  C4  UNL     1     -32.250   7.327   2.805  1.00 20.00     0.093 C 
ENDROOT
BRANCH   3   4
HETATM    4  C6  UNL     1     -32.981   6.017   3.114  1.00 20.00     0.014 C 
BRANCH   4   5
HETATM    5  C7  UNL     1     -34.282   6.236   3.901  1.00 20.00     0.021 C 
BRANCH   5   6
HETATM    6  C8  UNL     1     -34.657   5.038   4.788  1.00 20.00     0.082 C 
HETATM    7 CL9  UNL     1     -33.624   3.626   4.401  1.00 20.00    -0.125 Cl
BRANCH   6   8
HETATM    8  C5  UNL     1     -34.588   5.358   6.290  1.00 20.00     0.016 C 
HETATM    9  C3  UNL     1     -34.334   6.819   6.639  1.00 20.00     0.006 C 
ENDBRANCH   6   8
ENDBRANCH   5   6
ENDBRANCH   4   5
ENDBRANCH   3   4
TORSDOF 4
ENDMDL
MODEL 6
REMARK VINA RESULT:      -4.5      1.623      2.644
REMARK  4 active torsions:
REMARK  status: ('A' for Active; 'I' for Inactive)
REMARK    1  A    between atoms: C4_4  and  C6_6 
REMARK    2  A    between atoms: C5_5  and  C8_8 
REMARK    3  A    between atoms: C6_6  and  C7_7 
REMARK    4  A    between atoms: C7_7  and  C8_8 
ROOT
HETATM    1  C1  UNL     1     -34.798   5.869   6.706  1.00 20.00     0.012 C 
HETATM    2  C2  UNL     1     -34.494   5.303   5.692  1.00 20.00    -0.117 C 
HETATM    3  C4  UNL     1     -34.122   4.607   4.453  1.00 20.00     0.093 C 
ENDROOT
BRANCH   3   4
HETATM    4  C6  UNL     1     -34.053   5.554   3.252  1.00 20.00     0.014 C 
BRANCH   4   5
HETATM    5  C7  UNL     1     -32.613   5.809   2.780  1.00 20.00     0.021 C 
BRANCH   5   6
HETATM    6  C8  UNL     1     -32.186   7.278   2.922  1.00 20.00     0.082 C 
HETATM    7 CL9  UNL     1     -32.066   8.054   1.311  1.00 20.00    -0.125 Cl
BRANCH   6   8
HETATM    8  C5  UNL     1     -33.117   8.088   3.839  1.00 20.00     0.016 C 
HETATM    9  C3  UNL     1     -32.450   8.727   5.051  1.00 20.00     0.006 C 
ENDBRANCH   6   8
ENDBRANCH   5   6
ENDBRANCH   4   5
ENDBRANCH   3   4
TORSDOF 4
ENDMDL
MODEL 7
REMARK VINA RESULT:      -4.4      1.639      2.101
REMARK  4 active torsions:
REMARK  status: ('A' for Active; 'I' for Inactive)
REMARK    1  A    between atoms: C4_4  and  C6_6 
REMARK    2  A    between atoms: C5_5  and  C8_8 
REMARK    3  A    between atoms: C6_6  and  C7_7 
REMARK    4  A    between atoms: C7_7  and  C8_8 
ROOT
HETATM    1  C1  UNL     1     -34.075   4.268   4.216  1.00 20.00     0.012 C 
HETATM    2  C2  UNL     1     -34.272   4.970   5.171  1.00 20.00    -0.117 C 
HETATM    3  C4  UNL     1     -34.514   5.825   6.341  1.00 20.00     0.093 C 
ENDROOT
BRANCH   3   4
HETATM    4  C6  UNL     1     -33.885   7.212   6.187  1.00 20.00     0.014 C 
BRANCH   4   5
HETATM    5  C7  UNL     1     -34.246   7.882   4.852  1.00 20.00     0.021 C 
BRANCH   5   6
HETATM    6  C8  UNL     1     -33.027   8.476   4.129  1.00 20.00     0.082 C 
HETATM    7 CL9  UNL     1     -31.957   9.319   5.293  1.00 20.00    -0.125 Cl
BRANCH   6   8
HETATM    8  C5  UNL     1     -32.232   7.428   3.333  1.00 20.00     0.016 C 
HETATM    9  C3  UNL     1     -32.151   7.669   1.830  1.00 20.00     0.006 C 
ENDBRANCH   6   8
ENDBRANCH   5   6
ENDBRANCH   4   5
ENDBRANCH   3   4
TORSDOF 4
ENDMDL
MODEL 8
REMARK VINA RESULT:      -4.3      1.759      3.970
REMARK  4 active torsions:
REMARK  status: ('A' for Active; 'I' for Inactive)
REMARK    1  A    between atoms: C4_4  and  C6_6 
REMARK    2  A    between atoms: C5_5  and  C8_8 
REMARK    3  A    between atoms: C6_6  and  C7_7 
REMARK    4  A    between atoms: C7_7  and  C8_8 
ROOT
HETATM    1  C1  UNL     1     -32.904   4.991   2.576  1.00 20.00     0.012 C 
HETATM    2  C2  UNL     1     -32.568   6.132   2.740  1.00 20.00    -0.117 C 
HETATM    3  C4  UNL     1     -32.156   7.529   2.936  1.00 20.00     0.093 C 
ENDROOT
BRANCH   3   4
HETATM    4  C6  UNL     1     -32.318   7.984   4.389  1.00 20.00     0.014 C 
BRANCH   4   5
HETATM    5  C7  UNL     1     -33.742   8.467   4.703  1.00 20.00     0.021 C 
BRANCH   5   6
HETATM    6  C8  UNL     1     -34.562   7.443   5.503  1.00 20.00     0.082 C 
HETATM    7 CL9  UNL     1     -35.542   6.426   4.399  1.00 20.00    -0.125 Cl
BRANCH   6   8
HETATM    8  C5  UNL     1     -33.694   6.560   6.415  1.00 20.00     0.016 C 
HETATM    9  C3  UNL     1     -34.099   5.093   6.487  1.00 20.00     0.006 C 
ENDBRANCH   6   8
ENDBRANCH   5   6
ENDBRANCH   4   5
ENDBRANCH   3   4
TORSDOF 4
ENDMDL
MODEL 9
REMARK VINA RESULT:      -4.3      1.760      4.480
REMARK  4 active torsions:
REMARK  status: ('A' for Active; 'I' for Inactive)
REMARK    1  A    between atoms: C4_4  and  C6_6 
REMARK    2  A    between atoms: C5_5  and  C8_8 
REMARK    3  A    between atoms: C6_6  and  C7_7 
REMARK    4  A    between atoms: C7_7  and  C8_8 
ROOT
HETATM    1  C1  UNL     1     -32.627   9.165   0.506  1.00 20.00     0.012 C 
HETATM    2  C2  UNL     1     -32.397   8.464   1.453  1.00 20.00    -0.117 C 
HETATM    3  C4  UNL     1     -32.115   7.602   2.609  1.00 20.00     0.093 C 
ENDROOT
BRANCH   3   4
HETATM    4  C6  UNL     1     -32.258   8.348   3.938  1.00 20.00     0.014 C 
BRANCH   4   5
HETATM    5  C7  UNL     1     -33.634   8.139   4.590  1.00 20.00     0.021 C 
BRANCH   5   6
HETATM    6  C8  UNL     1     -33.783   6.758   5.248  1.00 20.00     0.082 C 
HETATM    7 CL9  UNL     1     -34.451   6.921   6.903  1.00 20.00    -0.125 Cl
BRANCH   6   8
HETATM    8  C5  UNL     1     -34.639   5.787   4.418  1.00 20.00     0.016 C 
HETATM    9  C3  UNL     1     -34.087   4.373   4.288  1.00 20.00     0.006 C 
ENDBRANCH   6   8
ENDBRANCH   5   6
ENDBRANCH   4   5
ENDBRANCH   3   4
TORSDOF 4
ENDMDL
