MODEL 1
REMARK VINA RESULT:      -4.9      0.000      0.000
REMARK  2 active torsions:
REMARK  status: ('A' for Active; 'I' for Inactive)
REMARK    1  A    between atoms: C7_7  and  C9_9 
REMARK    2  A    between atoms: C8_8  and  O10_10 
ROOT
HETATM    1  C1  UNL     1     -32.913   9.746   1.355  1.00 20.00     0.012 C 
HETATM    2  C2  UNL     1     -32.562   8.635   1.648  1.00 20.00    -0.117 C 
HETATM    3  C9  UNL     1     -32.131   7.279   1.996  1.00 20.00     0.097 C 
ENDROOT
BRANCH   3   4
HETATM    4  C7  UNL     1     -32.501   6.939   3.438  1.00 20.00    -0.001 C 
HETATM    5  C4  UNL     1     -32.861   8.211   4.220  1.00 20.00     0.005 C 
HETATM    6  C3  UNL     1     -33.286   7.894   5.653  1.00 20.00     0.003 C 
HETATM    7  C5  UNL     1     -34.428   6.884   5.688  1.00 20.00     0.032 C 
HETATM    8  C8  UNL     1     -34.078   5.615   4.913  1.00 20.00     0.118 C 
HETATM    9  C6  UNL     1     -33.655   5.930   3.478  1.00 20.00     0.037 C 
BRANCH   8  10
HETATM   10  O10 UNL     1     -35.201   4.741   4.899  1.00 20.00    -0.396 OA
HETATM   11  H24 UNL     1     -35.044   4.096   4.191  1.00 20.00     0.210 HD
ENDBRANCH   8  10
ENDBRANCH   3   4
TORSDOF 2
ENDMDL
MODEL 2
REMARK VINA RESULT:      -4.8      1.290      2.105
REMARK  2 active torsions:
REMARK  status: ('A' for Active; 'I' for Inactive)
REMARK    1  A    between atoms: C7_7  and  C9_9 
REMARK    2  A    between atoms: C8_8  and  O10_10 
ROOT
HETATM    1  C1  UNL     1     -32.624   8.934   0.586  1.00 20.00     0.012 C 
HETATM    2  C2  UNL     1     -32.319   8.314   1.567  1.00 20.00    -0.117 C 
HETATM    3  C9  UNL     1     -31.935   7.558   2.763  1.00 20.00     0.097 C 
ENDROOT
BRANCH   3   4
HETATM    4  C7  UNL     1     -33.158   6.939   3.435  1.00 20.00    -0.001 C 
HETATM    5  C4  UNL     1     -33.117   5.407   3.332  1.00 20.00     0.005 C 
HETATM    6  C3  UNL     1     -34.302   4.759   4.044  1.00 20.00     0.003 C 
HETATM    7  C5  UNL     1     -34.401   5.211   5.497  1.00 20.00     0.032 C 
HETATM    8  C8  UNL     1     -34.444   6.734   5.608  1.00 20.00     0.118 C 
HETATM    9  C6  UNL     1     -33.256   7.384   4.899  1.00 20.00     0.037 C 
BRANCH   8  10
HETATM   10  O10 UNL     1     -34.447   7.112   6.980  1.00 20.00    -0.396 OA
HETATM   11  H24 UNL     1     -33.998   6.401   7.466  1.00 20.00     0.210 HD
ENDBRANCH   8  10
ENDBRANCH   3   4
TORSDOF 2
ENDMDL
MODEL 3
REMARK VINA RESULT:      -4.7      1.044      1.514
REMARK  2 active torsions:
REMARK  status: ('A' for Active; 'I' for Inactive)
REMARK    1  A    between atoms: C7_7  and  C9_9 
REMARK    2  A    between atoms: C8_8  and  O10_10 
ROOT
HETATM    1  C1  UNL     1     -32.049   7.909   1.234  1.00 20.00     0.012 C 
HETATM    2  C2  UNL     1     -32.318   8.297   2.338  1.00 20.00    -0.117 C 
HETATM    3  C9  UNL     1     -32.643   8.782   3.682  1.00 20.00     0.097 C 
ENDROOT
BRANCH   3   4
HETATM    4  C7  UNL     1     -32.915   7.619   4.633  1.00 20.00    -0.001 C 
HETATM    5  C4  UNL     1     -33.924   8.026   5.715  1.00 20.00     0.005 C 
HETATM    6  C3  UNL     1     -34.255   6.864   6.649  1.00 20.00     0.003 C 
HETATM    7  C5  UNL     1     -34.740   5.643   5.875  1.00 20.00     0.032 C 
HETATM    8  C8  UNL     1     -33.741   5.230   4.796  1.00 20.00     0.118 C 
HETATM    9  C6  UNL     1     -33.412   6.391   3.858  1.00 20.00     0.037 C 
BRANCH   8  10
HETATM   10  O10 UNL     1     -34.273   4.145   4.044  1.00 20.00    -0.396 OA
HETATM   11  H24 UNL     1     -34.187   3.352   4.598  1.00 20.00     0.210 HD
ENDBRANCH   8  10
ENDBRANCH   3   4
TORSDOF 2
ENDMDL
MODEL 4
REMARK VINA RESULT:      -4.6     11.210     12.337
REMARK  2 active torsions:
REMARK  status: ('A' for Active; 'I' for Inactive)
REMARK    1  A    between atoms: C7_7  and  C9_9 
REMARK    2  A    between atoms: C8_8  and  O10_10 
ROOT
HETATM    1  C1  UNL     1     -33.737  18.008   0.210  1.00 20.00     0.012 C 
HETATM    2  C2  UNL     1     -33.388  17.993  -0.939  1.00 20.00    -0.117 C 
HETATM    3  C9  UNL     1     -32.953  17.983  -2.338  1.00 20.00     0.097 C 
ENDROOT
BRANCH   3   4
HETATM    4  C7  UNL     1     -33.838  17.065  -3.179  1.00 20.00    -0.001 C 
HETATM    5  C4  UNL     1     -34.307  17.781  -4.454  1.00 20.00     0.005 C 
HETATM    6  C3  UNL     1     -35.151  16.867  -5.340  1.00 20.00     0.003 C 
HETATM    7  C5  UNL     1     -34.415  15.573  -5.674  1.00 20.00     0.032 C 
HETATM    8  C8  UNL     1     -33.947  14.854  -4.410  1.00 20.00     0.118 C 
HETATM    9  C6  UNL     1     -33.099  15.766  -3.524  1.00 20.00     0.037 C 
BRANCH   8  10
HETATM   10  O10 UNL     1     -33.192  13.702  -4.771  1.00 20.00    -0.396 OA
HETATM   11  H24 UNL     1     -33.687  12.932  -4.448  1.00 20.00     0.210 HD
ENDBRANCH   8  10
ENDBRANCH   3   4
TORSDOF 2
ENDMDL
MODEL 5
REMARK VINA RESULT:      -4.3     11.650     12.988
REMARK  2 active torsions:
REMARK  status: ('A' for Active; 'I' for Inactive)
REMARK    1  A    between atoms: C7_7  and  C9_9 
REMARK    2  A    between atoms: C8_8  and  O10_10 
ROOT
HETATM    1  C1  UNL     1     -33.514  17.551  -1.125  1.00 20.00     0.012 C 
HETATM    2  C2  UNL     1     -33.397  16.906  -2.131  1.00 20.00    -0.117 C 
HETATM    3  C9  UNL     1     -33.243  16.116  -3.356  1.00 20.00     0.097 C 
ENDROOT
BRANCH   3   4
HETATM    4  C7  UNL     1     -34.445  16.298  -4.280  1.00 20.00    -0.001 C 
HETATM    5  C4  UNL     1     -34.281  17.558  -5.142  1.00 20.00     0.005 C 
HETATM    6  C3  UNL     1     -35.446  17.735  -6.114  1.00 20.00     0.003 C 
HETATM    7  C5  UNL     1     -35.647  16.497  -6.981  1.00 20.00     0.032 C 
HETATM    8  C8  UNL     1     -35.813  15.239  -6.130  1.00 20.00     0.118 C 
HETATM    9  C6  UNL     1     -34.646  15.058  -5.159  1.00 20.00     0.037 C 
BRANCH   8  10
HETATM   10  O10 UNL     1     -35.909  14.100  -6.978  1.00 20.00    -0.396 OA
HETATM   11  H24 UNL     1     -35.036  13.676  -6.976  1.00 20.00     0.210 HD
ENDBRANCH   8  10
ENDBRANCH   3   4
TORSDOF 2
ENDMDL
MODEL 6
REMARK VINA RESULT:      -4.2      1.598      4.030
REMARK  2 active torsions:
REMARK  status: ('A' for Active; 'I' for Inactive)
REMARK    1  A    between atoms: C7_7  and  C9_9 
REMARK    2  A    between atoms: C8_8  and  O10_10 
ROOT
HETATM    1  C1  UNL     1     -34.819   5.001   6.841  1.00 20.00     0.012 C 
HETATM    2  C2  UNL     1     -34.479   6.112   6.539  1.00 20.00    -0.117 C 
HETATM    3  C9  UNL     1     -34.067   7.472   6.182  1.00 20.00     0.097 C 
ENDROOT
BRANCH   3   4
HETATM    4  C7  UNL     1     -33.764   7.577   4.689  1.00 20.00    -0.001 C 
HETATM    5  C4  UNL     1     -32.598   8.545   4.438  1.00 20.00     0.005 C 
HETATM    6  C3  UNL     1     -32.239   8.628   2.956  1.00 20.00     0.003 C 
HETATM    7  C5  UNL     1     -31.947   7.250   2.371  1.00 20.00     0.032 C 
HETATM    8  C8  UNL     1     -33.103   6.282   2.615  1.00 20.00     0.118 C 
HETATM    9  C6  UNL     1     -33.461   6.195   4.099  1.00 20.00     0.037 C 
BRANCH   8  10
HETATM   10  O10 UNL     1     -32.752   4.990   2.131  1.00 20.00    -0.396 OA
HETATM   11  H24 UNL     1     -32.323   4.524   2.867  1.00 20.00     0.210 HD
ENDBRANCH   8  10
ENDBRANCH   3   4
TORSDOF 2
ENDMDL
MODEL 7
REMARK VINA RESULT:      -4.2     11.552     12.716
REMARK  2 active torsions:
REMARK  status: ('A' for Active; 'I' for Inactive)
REMARK    1  A    between atoms: C7_7  and  C9_9 
REMARK    2  A    between atoms: C8_8  and  O10_10 
ROOT
HETATM    1  C1  UNL     1     -31.036  18.816   0.097  1.00 20.00     0.012 C 
HETATM    2  C2  UNL     1     -32.195  18.507   0.061  1.00 20.00    -0.117 C 
HETATM    3  C9  UNL     1     -33.611  18.129   0.028  1.00 20.00     0.097 C 
ENDROOT
BRANCH   3   4
HETATM    4  C7  UNL     1     -34.093  17.935  -1.408  1.00 20.00    -0.001 C 
HETATM    5  C4  UNL     1     -34.054  19.263  -2.178  1.00 20.00     0.005 C 
HETATM    6  C3  UNL     1     -34.481  19.087  -3.634  1.00 20.00     0.003 C 
HETATM    7  C5  UNL     1     -33.651  18.018  -4.337  1.00 20.00     0.032 C 
HETATM    8  C8  UNL     1     -33.685  16.693  -3.577  1.00 20.00     0.118 C 
HETATM    9  C6  UNL     1     -33.255  16.867  -2.121  1.00 20.00     0.037 C 
BRANCH   8  10
HETATM   10  O10 UNL     1     -32.830  15.754  -4.220  1.00 20.00    -0.396 OA
HETATM   11  H24 UNL     1     -31.922  16.073  -4.095  1.00 20.00     0.210 HD
ENDBRANCH   8  10
ENDBRANCH   3   4
TORSDOF 2
ENDMDL
MODEL 8
REMARK VINA RESULT:      -4.0      9.813     10.736
REMARK  2 active torsions:
REMARK  status: ('A' for Active; 'I' for Inactive)
REMARK    1  A    between atoms: C7_7  and  C9_9 
REMARK    2  A    between atoms: C8_8  and  O10_10 
ROOT
HETATM    1  C1  UNL     1     -38.939  11.680   3.598  1.00 20.00     0.012 C 
HETATM    2  C2  UNL     1     -39.398  11.741   4.706  1.00 20.00    -0.117 C 
HETATM    3  C9  UNL     1     -39.952  11.805   6.061  1.00 20.00     0.097 C 
ENDROOT
BRANCH   3   4
HETATM    4  C7  UNL     1     -40.934  12.968   6.196  1.00 20.00    -0.001 C 
HETATM    5  C4  UNL     1     -42.264  12.488   6.793  1.00 20.00     0.005 C 
HETATM    6  C3  UNL     1     -43.246  13.642   6.989  1.00 20.00     0.003 C 
HETATM    7  C5  UNL     1     -42.637  14.761   7.827  1.00 20.00     0.032 C 
HETATM    8  C8  UNL     1     -41.313  15.245   7.238  1.00 20.00     0.118 C 
HETATM    9  C6  UNL     1     -40.328  14.092   7.045  1.00 20.00     0.037 C 
BRANCH   8  10
HETATM   10  O10 UNL     1     -40.740  16.225   8.097  1.00 20.00    -0.396 OA
HETATM   11  H24 UNL     1     -41.193  17.061   7.907  1.00 20.00     0.210 HD
ENDBRANCH   8  10
ENDBRANCH   3   4
TORSDOF 2
ENDMDL
MODEL 9
REMARK VINA RESULT:      -4.0     11.682     12.944
REMARK  2 active torsions:
REMARK  status: ('A' for Active; 'I' for Inactive)
REMARK    1  A    between atoms: C7_7  and  C9_9 
REMARK    2  A    between atoms: C8_8  and  O10_10 
ROOT
HETATM    1  C1  UNL     1     -31.758  18.747  -0.821  1.00 20.00     0.012 C 
HETATM    2  C2  UNL     1     -32.586  17.973  -1.216  1.00 20.00    -0.117 C 
HETATM    3  C9  UNL     1     -33.600  17.026  -1.688  1.00 20.00     0.097 C 
ENDROOT
BRANCH   3   4
HETATM    4  C7  UNL     1     -33.508  16.833  -3.200  1.00 20.00    -0.001 C 
HETATM    5  C4  UNL     1     -33.674  15.352  -3.570  1.00 20.00     0.005 C 
HETATM    6  C3  UNL     1     -33.640  15.138  -5.082  1.00 20.00     0.003 C 
HETATM    7  C5  UNL     1     -34.674  16.003  -5.795  1.00 20.00     0.032 C 
HETATM    8  C8  UNL     1     -34.515  17.478  -5.433  1.00 20.00     0.118 C 
HETATM    9  C6  UNL     1     -34.553  17.695  -3.920  1.00 20.00     0.037 C 
BRANCH   8  10
HETATM   10  O10 UNL     1     -35.551  18.234  -6.050  1.00 20.00    -0.396 OA
HETATM   11  H24 UNL     1     -36.104  17.602  -6.538  1.00 20.00     0.210 HD
ENDBRANCH   8  10
ENDBRANCH   3   4
TORSDOF 2
ENDMDL
