MODEL 1
REMARK VINA RESULT:      -4.5      0.000      0.000
REMARK  2 active torsions:
REMARK  status: ('A' for Active; 'I' for Inactive)
REMARK    1  A    between atoms: C4_4  and  C10_10 
REMARK    2  A    between atoms: C8_8  and  C10_10 
ROOT
HETATM    1  C5  UNL     1     -33.722  17.386  -1.061  1.00 20.00     0.006 C 
HETATM    2  C6  UNL     1     -33.666  18.334   0.138  1.00 20.00     0.020 C 
HETATM    3  C7  UNL     1     -32.230  19.263  -1.512  1.00 20.00     0.025 C 
HETATM    4  C8  UNL     1     -32.712  17.925  -2.085  1.00 20.00    -0.009 C 
HETATM    5  C9  UNL     1     -32.351  19.092  -0.002  1.00 20.00     0.082 C 
HETATM    6 CL12 UNL     1     -30.992  18.131   0.647  1.00 20.00    -0.125 Cl
ENDROOT
BRANCH   4   7
HETATM    7  C10 UNL     1     -33.296  18.063  -3.483  1.00 20.00     0.043 C 
BRANCH   7   8
HETATM    8  C4  UNL     1     -33.736  16.735  -4.040  1.00 20.00    -0.051 A 
HETATM    9  C1  UNL     1     -33.062  15.505  -3.786  1.00 20.00     0.014 A 
HETATM   10  C2  UNL     1     -33.672  14.442  -4.416  1.00 20.00     0.050 A 
HETATM   11  S11 UNL     1     -35.050  14.929  -5.310  1.00 20.00    -0.113 SA
HETATM   12  C3  UNL     1     -34.834  16.566  -4.855  1.00 20.00     0.056 A 
ENDBRANCH   7   8
ENDBRANCH   4   7
TORSDOF 2
ENDMDL
MODEL 2
REMARK VINA RESULT:      -4.1      3.265      5.212
REMARK  2 active torsions:
REMARK  status: ('A' for Active; 'I' for Inactive)
REMARK    1  A    between atoms: C4_4  and  C10_10 
REMARK    2  A    between atoms: C8_8  and  C10_10 
ROOT
HETATM    1  C5  UNL     1     -33.435  15.667  -3.429  1.00 20.00     0.006 C 
HETATM    2  C6  UNL     1     -33.348  14.758  -4.656  1.00 20.00     0.020 C 
HETATM    3  C7  UNL     1     -34.289  16.806  -5.411  1.00 20.00     0.025 C 
HETATM    4  C8  UNL     1     -34.143  16.950  -3.891  1.00 20.00    -0.009 C 
HETATM    5  C9  UNL     1     -34.377  15.302  -5.640  1.00 20.00     0.082 C 
HETATM    6 CL12 UNL     1     -36.009  14.687  -5.256  1.00 20.00    -0.125 Cl
ENDROOT
BRANCH   4   7
HETATM    7  C10 UNL     1     -33.403  18.217  -3.491  1.00 20.00     0.043 C 
BRANCH   7   8
HETATM    8  C4  UNL     1     -33.330  18.374  -1.994  1.00 20.00    -0.051 A 
HETATM    9  C1  UNL     1     -32.112  18.378  -1.255  1.00 20.00     0.014 A 
HETATM   10  C2  UNL     1     -32.329  18.537   0.097  1.00 20.00     0.050 A 
HETATM   11  S11 UNL     1     -33.994  18.680   0.469  1.00 20.00    -0.113 SA
HETATM   12  C3  UNL     1     -34.431  18.530  -1.181  1.00 20.00     0.056 A 
ENDBRANCH   7   8
ENDBRANCH   4   7
TORSDOF 2
ENDMDL
MODEL 3
REMARK VINA RESULT:      -4.0      1.678      2.190
REMARK  2 active torsions:
REMARK  status: ('A' for Active; 'I' for Inactive)
REMARK    1  A    between atoms: C4_4  and  C10_10 
REMARK    2  A    between atoms: C8_8  and  C10_10 
ROOT
HETATM    1  C5  UNL     1     -32.907  18.720  -2.775  1.00 20.00     0.006 C 
HETATM    2  C6  UNL     1     -32.508  19.118  -1.353  1.00 20.00     0.020 C 
HETATM    3  C7  UNL     1     -33.667  17.052  -1.164  1.00 20.00     0.025 C 
HETATM    4  C8  UNL     1     -33.750  17.442  -2.644  1.00 20.00    -0.009 C 
HETATM    5  C9  UNL     1     -33.473  18.377  -0.436  1.00 20.00     0.082 C 
HETATM    6 CL12 UNL     1     -35.017  19.263  -0.290  1.00 20.00    -0.125 Cl
ENDROOT
BRANCH   4   7
HETATM    7  C10 UNL     1     -33.291  16.326  -3.570  1.00 20.00     0.043 C 
BRANCH   7   8
HETATM    8  C4  UNL     1     -34.368  15.929  -4.547  1.00 20.00    -0.051 A 
HETATM    9  C1  UNL     1     -34.671  14.579  -4.887  1.00 20.00     0.014 A 
HETATM   10  C2  UNL     1     -35.698  14.496  -5.803  1.00 20.00     0.050 A 
HETATM   11  S11 UNL     1     -36.289  16.040  -6.249  1.00 20.00    -0.113 SA
HETATM   12  C3  UNL     1     -35.171  16.826  -5.215  1.00 20.00     0.056 A 
ENDBRANCH   7   8
ENDBRANCH   4   7
TORSDOF 2
ENDMDL
MODEL 4
REMARK VINA RESULT:      -4.0      3.315      5.315
REMARK  2 active torsions:
REMARK  status: ('A' for Active; 'I' for Inactive)
REMARK    1  A    between atoms: C4_4  and  C10_10 
REMARK    2  A    between atoms: C8_8  and  C10_10 
ROOT
HETATM    1  C5  UNL     1     -33.421  15.631  -3.473  1.00 20.00     0.006 C 
HETATM    2  C6  UNL     1     -33.415  14.755  -4.727  1.00 20.00     0.020 C 
HETATM    3  C7  UNL     1     -34.311  16.854  -5.388  1.00 20.00     0.025 C 
HETATM    4  C8  UNL     1     -34.100  16.950  -3.873  1.00 20.00    -0.009 C 
HETATM    5  C9  UNL     1     -34.462  15.361  -5.654  1.00 20.00     0.082 C 
HETATM    6 CL12 UNL     1     -36.098  14.793  -5.221  1.00 20.00    -0.125 Cl
ENDROOT
BRANCH   4   7
HETATM    7  C10 UNL     1     -33.301  18.179  -3.469  1.00 20.00     0.043 C 
BRANCH   7   8
HETATM    8  C4  UNL     1     -33.233  18.337  -1.972  1.00 20.00    -0.051 A 
HETATM    9  C1  UNL     1     -34.378  18.356  -1.124  1.00 20.00     0.014 A 
HETATM   10  C2  UNL     1     -34.036  18.513   0.202  1.00 20.00     0.050 A 
HETATM   11  S11 UNL     1     -32.341  18.639   0.418  1.00 20.00    -0.113 SA
HETATM   12  C3  UNL     1     -32.061  18.483  -1.264  1.00 20.00     0.056 A 
ENDBRANCH   7   8
ENDBRANCH   4   7
TORSDOF 2
ENDMDL
MODEL 5
REMARK VINA RESULT:      -4.0      1.141      1.456
REMARK  2 active torsions:
REMARK  status: ('A' for Active; 'I' for Inactive)
REMARK    1  A    between atoms: C4_4  and  C10_10 
REMARK    2  A    between atoms: C8_8  and  C10_10 
ROOT
HETATM    1  C5  UNL     1     -34.173  18.332   0.707  1.00 20.00     0.006 C 
HETATM    2  C6  UNL     1     -33.315  19.256   1.572  1.00 20.00     0.020 C 
HETATM    3  C7  UNL     1     -32.269  19.182  -0.560  1.00 20.00     0.025 C 
HETATM    4  C8  UNL     1     -33.440  18.196  -0.637  1.00 20.00    -0.009 C 
HETATM    5  C9  UNL     1     -31.935  19.256   0.926  1.00 20.00     0.082 C 
HETATM    6 CL12 UNL     1     -30.991  17.832   1.445  1.00 20.00    -0.125 Cl
ENDROOT
BRANCH   4   7
HETATM    7  C10 UNL     1     -34.340  18.449  -1.836  1.00 20.00     0.043 C 
BRANCH   7   8
HETATM    8  C4  UNL     1     -34.133  17.422  -2.919  1.00 20.00    -0.051 A 
HETATM    9  C1  UNL     1     -33.424  16.200  -2.729  1.00 20.00     0.014 A 
HETATM   10  C2  UNL     1     -33.381  15.444  -3.880  1.00 20.00     0.050 A 
HETATM   11  S11 UNL     1     -34.191  16.206  -5.182  1.00 20.00    -0.113 SA
HETATM   12  C3  UNL     1     -34.603  17.553  -4.207  1.00 20.00     0.056 A 
ENDBRANCH   7   8
ENDBRANCH   4   7
TORSDOF 2
ENDMDL
MODEL 6
REMARK VINA RESULT:      -3.9      1.683      2.554
REMARK  2 active torsions:
REMARK  status: ('A' for Active; 'I' for Inactive)
REMARK    1  A    between atoms: C4_4  and  C10_10 
REMARK    2  A    between atoms: C8_8  and  C10_10 
ROOT
HETATM    1  C5  UNL     1     -33.045  18.639  -3.162  1.00 20.00     0.006 C 
HETATM    2  C6  UNL     1     -32.541  19.109  -1.797  1.00 20.00     0.020 C 
HETATM    3  C7  UNL     1     -33.640  17.036  -1.422  1.00 20.00     0.025 C 
HETATM    4  C8  UNL     1     -33.849  17.355  -2.906  1.00 20.00    -0.009 C 
HETATM    5  C9  UNL     1     -33.414  18.396  -0.772  1.00 20.00     0.082 C 
HETATM    6 CL12 UNL     1     -34.959  19.263  -0.542  1.00 20.00    -0.125 Cl
ENDROOT
BRANCH   4   7
HETATM    7  C10 UNL     1     -33.444  16.205  -3.816  1.00 20.00     0.043 C 
BRANCH   7   8
HETATM    8  C4  UNL     1     -34.423  16.011  -4.944  1.00 20.00    -0.051 A 
HETATM    9  C1  UNL     1     -35.660  16.709  -5.050  1.00 20.00     0.014 A 
HETATM   10  C2  UNL     1     -36.365  16.344  -6.177  1.00 20.00     0.050 A 
HETATM   11  S11 UNL     1     -35.535  15.164  -7.100  1.00 20.00    -0.113 SA
HETATM   12  C3  UNL     1     -34.228  15.138  -5.992  1.00 20.00     0.056 A 
ENDBRANCH   7   8
ENDBRANCH   4   7
TORSDOF 2
ENDMDL
MODEL 7
REMARK VINA RESULT:      -3.9      3.416      5.245
REMARK  2 active torsions:
REMARK  status: ('A' for Active; 'I' for Inactive)
REMARK    1  A    between atoms: C4_4  and  C10_10 
REMARK    2  A    between atoms: C8_8  and  C10_10 
ROOT
HETATM    1  C5  UNL     1     -35.192  18.506  -3.029  1.00 20.00     0.006 C 
HETATM    2  C6  UNL     1     -36.097  18.166  -4.214  1.00 20.00     0.020 C 
HETATM    3  C7  UNL     1     -34.196  16.752  -4.403  1.00 20.00     0.025 C 
HETATM    4  C8  UNL     1     -33.914  17.672  -3.210  1.00 20.00    -0.009 C 
HETATM    5  C9  UNL     1     -35.183  17.537  -5.259  1.00 20.00     0.082 C 
HETATM    6 CL12 UNL     1     -34.348  18.797  -6.212  1.00 20.00    -0.125 Cl
ENDROOT
BRANCH   4   7
HETATM    7  C10 UNL     1     -33.521  16.903  -1.958  1.00 20.00     0.043 C 
BRANCH   7   8
HETATM    8  C4  UNL     1     -33.011  17.818  -0.876  1.00 20.00    -0.051 A 
HETATM    9  C1  UNL     1     -31.754  18.488  -0.930  1.00 20.00     0.014 A 
HETATM   10  C2  UNL     1     -31.533  19.262   0.189  1.00 20.00     0.050 A 
HETATM   11  S11 UNL     1     -32.835  19.178   1.298  1.00 20.00    -0.113 SA
HETATM   12  C3  UNL     1     -33.701  18.104   0.282  1.00 20.00     0.056 A 
ENDBRANCH   7   8
ENDBRANCH   4   7
TORSDOF 2
ENDMDL
MODEL 8
REMARK VINA RESULT:      -3.4      1.378      2.181
REMARK  2 active torsions:
REMARK  status: ('A' for Active; 'I' for Inactive)
REMARK    1  A    between atoms: C4_4  and  C10_10 
REMARK    2  A    between atoms: C8_8  and  C10_10 
ROOT
HETATM    1  C5  UNL     1     -33.303  16.869  -3.070  1.00 20.00     0.006 C 
HETATM    2  C6  UNL     1     -33.700  17.002  -1.598  1.00 20.00     0.020 C 
HETATM    3  C7  UNL     1     -33.579  19.214  -2.457  1.00 20.00     0.025 C 
HETATM    4  C8  UNL     1     -33.118  18.300  -3.598  1.00 20.00    -0.009 C 
HETATM    5  C9  UNL     1     -33.293  18.413  -1.192  1.00 20.00     0.082 C 
HETATM    6 CL12 UNL     1     -31.559  18.476  -0.769  1.00 20.00    -0.125 Cl
ENDROOT
BRANCH   4   7
HETATM    7  C10 UNL     1     -33.868  18.559  -4.895  1.00 20.00     0.043 C 
BRANCH   7   8
HETATM    8  C4  UNL     1     -34.815  17.436  -5.230  1.00 20.00    -0.051 A 
HETATM    9  C1  UNL     1     -36.202  17.444  -4.906  1.00 20.00     0.014 A 
HETATM   10  C2  UNL     1     -36.837  16.294  -5.324  1.00 20.00     0.050 A 
HETATM   11  S11 UNL     1     -35.761  15.212  -6.102  1.00 20.00    -0.113 SA
HETATM   12  C3  UNL     1     -34.441  16.281  -5.881  1.00 20.00     0.056 A 
ENDBRANCH   7   8
ENDBRANCH   4   7
TORSDOF 2
ENDMDL
MODEL 9
REMARK VINA RESULT:      -3.4     24.604     25.388
REMARK  2 active torsions:
REMARK  status: ('A' for Active; 'I' for Inactive)
REMARK    1  A    between atoms: C4_4  and  C10_10 
REMARK    2  A    between atoms: C8_8  and  C10_10 
ROOT
HETATM    1  C5  UNL     1     -26.621  -0.336  11.590  1.00 20.00     0.006 C 
HETATM    2  C6  UNL     1     -27.938  -0.569  12.332  1.00 20.00     0.020 C 
HETATM    3  C7  UNL     1     -26.965  -2.714  12.017  1.00 20.00     0.025 C 
HETATM    4  C8  UNL     1     -26.044  -1.728  11.289  1.00 20.00    -0.009 C 
HETATM    5  C9  UNL     1     -28.319  -2.016  12.043  1.00 20.00     0.082 C 
HETATM    6 CL12 UNL     1     -29.142  -2.151  10.463  1.00 20.00    -0.125 Cl
ENDROOT
BRANCH   4   7
HETATM    7  C10 UNL     1     -24.587  -1.873  11.703  1.00 20.00     0.043 C 
BRANCH   7   8
HETATM    8  C4  UNL     1     -23.866  -2.897  10.867  1.00 20.00    -0.051 A 
HETATM    9  C1  UNL     1     -24.233  -3.232   9.532  1.00 20.00     0.014 A 
HETATM   10  C2  UNL     1     -23.409  -4.199   8.996  1.00 20.00     0.050 A 
HETATM   11  S11 UNL     1     -22.200  -4.697  10.102  1.00 20.00    -0.113 SA
HETATM   12  C3  UNL     1     -22.776  -3.619  11.302  1.00 20.00     0.056 A 
ENDBRANCH   7   8
ENDBRANCH   4   7
TORSDOF 2
ENDMDL
