MODEL 1
REMARK VINA RESULT:      -5.2      0.000      0.000
REMARK  1 active torsions:
REMARK  status: ('A' for Active; 'I' for Inactive)
REMARK    1  A    between atoms: C7_7  and  C9_9 
ROOT
HETATM    1  C1  UNL     1     -32.575   9.348   0.195  1.00 20.00     0.012 C 
HETATM    2  C2  UNL     1     -32.316   8.559   1.062  1.00 20.00    -0.117 C 
HETATM    3  C9  UNL     1     -31.990   7.591   2.113  1.00 20.00     0.097 C 
ENDROOT
BRANCH   3   4
HETATM    4  C7  UNL     1     -32.954   7.716   3.291  1.00 20.00    -0.002 C 
HETATM    5  C4  UNL     1     -32.324   8.541   4.421  1.00 20.00     0.005 C 
HETATM    6  C3  UNL     1     -33.249   8.638   5.633  1.00 20.00     0.002 C 
HETATM    7  C5  UNL     1     -33.675   7.259   6.130  1.00 20.00     0.020 C 
HETATM    8  C8  UNL     1     -34.308   6.440   5.006  1.00 20.00     0.082 C 
HETATM    9  C6  UNL     1     -33.378   6.328   3.796  1.00 20.00     0.025 C 
HETATM   10 CL10 UNL     1     -34.722   4.807   5.604  1.00 20.00    -0.125 Cl
ENDBRANCH   3   4
TORSDOF 1
ENDMDL
MODEL 2
REMARK VINA RESULT:      -4.7      1.122      1.425
REMARK  1 active torsions:
REMARK  status: ('A' for Active; 'I' for Inactive)
REMARK    1  A    between atoms: C7_7  and  C9_9 
ROOT
HETATM    1  C1  UNL     1     -32.955   9.489   0.987  1.00 20.00     0.012 C 
HETATM    2  C2  UNL     1     -32.647   9.204   2.113  1.00 20.00    -0.117 C 
HETATM    3  C9  UNL     1     -32.262   8.862   3.485  1.00 20.00     0.097 C 
ENDROOT
BRANCH   3   4
HETATM    4  C7  UNL     1     -33.334   8.008   4.159  1.00 20.00    -0.002 C 
HETATM    5  C4  UNL     1     -33.265   8.159   5.684  1.00 20.00     0.005 C 
HETATM    6  C3  UNL     1     -34.296   7.275   6.386  1.00 20.00     0.002 C 
HETATM    7  C5  UNL     1     -34.160   5.813   5.970  1.00 20.00     0.020 C 
HETATM    8  C8  UNL     1     -34.234   5.662   4.451  1.00 20.00     0.082 C 
HETATM    9  C6  UNL     1     -33.194   6.535   3.747  1.00 20.00     0.025 C 
HETATM   10 CL10 UNL     1     -33.994   3.950   3.999  1.00 20.00    -0.125 Cl
ENDBRANCH   3   4
TORSDOF 1
ENDMDL
MODEL 3
REMARK VINA RESULT:      -4.6      1.140      2.150
REMARK  1 active torsions:
REMARK  status: ('A' for Active; 'I' for Inactive)
REMARK    1  A    between atoms: C7_7  and  C9_9 
ROOT
HETATM    1  C1  UNL     1     -32.862   9.452   0.765  1.00 20.00     0.012 C 
HETATM    2  C2  UNL     1     -32.646   9.286   1.935  1.00 20.00    -0.117 C 
HETATM    3  C9  UNL     1     -32.380   9.095   3.363  1.00 20.00     0.097 C 
ENDROOT
BRANCH   3   4
HETATM    4  C7  UNL     1     -32.495   7.623   3.750  1.00 20.00    -0.002 C 
HETATM    5  C4  UNL     1     -32.766   6.757   2.513  1.00 20.00     0.005 C 
HETATM    6  C3  UNL     1     -32.934   5.284   2.880  1.00 20.00     0.002 C 
HETATM    7  C5  UNL     1     -34.017   5.087   3.937  1.00 20.00     0.020 C 
HETATM    8  C8  UNL     1     -33.745   5.945   5.172  1.00 20.00     0.082 C 
HETATM    9  C6  UNL     1     -33.589   7.423   4.809  1.00 20.00     0.025 C 
HETATM   10 CL10 UNL     1     -35.072   5.747   6.353  1.00 20.00    -0.125 Cl
ENDBRANCH   3   4
TORSDOF 1
ENDMDL
MODEL 4
REMARK VINA RESULT:      -4.2      2.481      4.470
REMARK  1 active torsions:
REMARK  status: ('A' for Active; 'I' for Inactive)
REMARK    1  A    between atoms: C7_7  and  C9_9 
ROOT
HETATM    1  C1  UNL     1     -34.860   5.086   6.696  1.00 20.00     0.012 C 
HETATM    2  C2  UNL     1     -34.528   5.164   5.545  1.00 20.00    -0.117 C 
HETATM    3  C9  UNL     1     -34.129   5.250   4.138  1.00 20.00     0.097 C 
ENDROOT
BRANCH   3   4
HETATM    4  C7  UNL     1     -33.110   6.367   3.923  1.00 20.00    -0.002 C 
HETATM    5  C4  UNL     1     -33.427   7.568   4.823  1.00 20.00     0.005 C 
HETATM    6  C3  UNL     1     -32.451   8.721   4.592  1.00 20.00     0.002 C 
HETATM    7  C5  UNL     1     -32.403   9.132   3.122  1.00 20.00     0.020 C 
HETATM    8  C8  UNL     1     -32.082   7.937   2.226  1.00 20.00     0.082 C 
HETATM    9  C6  UNL     1     -33.067   6.786   2.446  1.00 20.00     0.025 C 
HETATM   10 CL10 UNL     1     -32.111   8.439   0.511  1.00 20.00    -0.125 Cl
ENDBRANCH   3   4
TORSDOF 1
ENDMDL
MODEL 5
REMARK VINA RESULT:      -4.2     11.106     12.293
REMARK  1 active torsions:
REMARK  status: ('A' for Active; 'I' for Inactive)
REMARK    1  A    between atoms: C7_7  and  C9_9 
ROOT
HETATM    1  C1  UNL     1     -31.125  18.694   0.483  1.00 20.00     0.012 C 
HETATM    2  C2  UNL     1     -32.218  18.413   0.073  1.00 20.00    -0.117 C 
HETATM    3  C9  UNL     1     -33.556  18.071  -0.416  1.00 20.00     0.097 C 
ENDROOT
BRANCH   3   4
HETATM    4  C7  UNL     1     -33.570  17.954  -1.939  1.00 20.00    -0.002 C 
HETATM    5  C4  UNL     1     -34.846  18.581  -2.517  1.00 20.00     0.005 C 
HETATM    6  C3  UNL     1     -34.909  18.433  -4.036  1.00 20.00     0.002 C 
HETATM    7  C5  UNL     1     -34.767  16.976  -4.467  1.00 20.00     0.020 C 
HETATM    8  C8  UNL     1     -33.494  16.353  -3.896  1.00 20.00     0.082 C 
HETATM    9  C6  UNL     1     -33.435  16.487  -2.373  1.00 20.00     0.025 C 
HETATM   10 CL10 UNL     1     -33.402  14.629  -4.356  1.00 20.00    -0.125 Cl
ENDBRANCH   3   4
TORSDOF 1
ENDMDL
MODEL 6
REMARK VINA RESULT:      -3.9     11.430     12.621
REMARK  1 active torsions:
REMARK  status: ('A' for Active; 'I' for Inactive)
REMARK    1  A    between atoms: C7_7  and  C9_9 
ROOT
HETATM    1  C1  UNL     1     -33.759  17.853  -0.015  1.00 20.00     0.012 C 
HETATM    2  C2  UNL     1     -33.415  17.796  -1.165  1.00 20.00    -0.117 C 
HETATM    3  C9  UNL     1     -32.987  17.735  -2.565  1.00 20.00     0.097 C 
ENDROOT
BRANCH   3   4
HETATM    4  C7  UNL     1     -33.832  16.737  -3.353  1.00 20.00    -0.002 C 
HETATM    5  C4  UNL     1     -32.992  15.518  -3.757  1.00 20.00     0.005 C 
HETATM    6  C3  UNL     1     -33.800  14.526  -4.592  1.00 20.00     0.002 C 
HETATM    7  C5  UNL     1     -34.424  15.194  -5.814  1.00 20.00     0.020 C 
HETATM    8  C8  UNL     1     -35.265  16.405  -5.412  1.00 20.00     0.082 C 
HETATM    9  C6  UNL     1     -34.454  17.407  -4.588  1.00 20.00     0.025 C 
HETATM   10 CL10 UNL     1     -35.914  17.206  -6.872  1.00 20.00    -0.125 Cl
ENDBRANCH   3   4
TORSDOF 1
ENDMDL
MODEL 7
REMARK VINA RESULT:      -3.9      9.551     10.484
REMARK  1 active torsions:
REMARK  status: ('A' for Active; 'I' for Inactive)
REMARK    1  A    between atoms: C7_7  and  C9_9 
ROOT
HETATM    1  C1  UNL     1     -38.974  11.710   3.567  1.00 20.00     0.012 C 
HETATM    2  C2  UNL     1     -39.242  11.774   4.736  1.00 20.00    -0.117 C 
HETATM    3  C9  UNL     1     -39.561  11.845   6.165  1.00 20.00     0.097 C 
ENDROOT
BRANCH   3   4
HETATM    4  C7  UNL     1     -40.722  12.803   6.421  1.00 20.00    -0.002 C 
HETATM    5  C4  UNL     1     -41.211  13.424   5.106  1.00 20.00     0.005 C 
HETATM    6  C3  UNL     1     -42.341  14.426   5.340  1.00 20.00     0.002 C 
HETATM    7  C5  UNL     1     -41.940  15.504   6.344  1.00 20.00     0.020 C 
HETATM    8  C8  UNL     1     -41.458  14.885   7.655  1.00 20.00     0.082 C 
HETATM    9  C6  UNL     1     -40.317  13.892   7.425  1.00 20.00     0.025 C 
HETATM   10 CL10 UNL     1     -40.924  16.173   8.773  1.00 20.00    -0.125 Cl
ENDBRANCH   3   4
TORSDOF 1
ENDMDL
MODEL 8
REMARK VINA RESULT:      -3.9      2.271      4.576
REMARK  1 active torsions:
REMARK  status: ('A' for Active; 'I' for Inactive)
REMARK    1  A    between atoms: C7_7  and  C9_9 
ROOT
HETATM    1  C1  UNL     1     -34.749   5.364   7.017  1.00 20.00     0.012 C 
HETATM    2  C2  UNL     1     -34.713   5.192   5.829  1.00 20.00    -0.117 C 
HETATM    3  C9  UNL     1     -34.674   4.971   4.381  1.00 20.00     0.097 C 
ENDROOT
BRANCH   3   4
HETATM    4  C7  UNL     1     -34.020   6.149   3.663  1.00 20.00    -0.002 C 
HETATM    5  C4  UNL     1     -32.886   5.665   2.750  1.00 20.00     0.005 C 
HETATM    6  C3  UNL     1     -32.181   6.831   2.058  1.00 20.00     0.002 C 
HETATM    7  C5  UNL     1     -31.676   7.861   3.064  1.00 20.00     0.020 C 
HETATM    8  C8  UNL     1     -32.806   8.348   3.970  1.00 20.00     0.082 C 
HETATM    9  C6  UNL     1     -33.504   7.183   4.676  1.00 20.00     0.025 C 
HETATM   10 CL10 UNL     1     -32.162   9.492   5.183  1.00 20.00    -0.125 Cl
ENDBRANCH   3   4
TORSDOF 1
ENDMDL
MODEL 9
REMARK VINA RESULT:      -3.9      9.988     10.942
REMARK  1 active torsions:
REMARK  status: ('A' for Active; 'I' for Inactive)
REMARK    1  A    between atoms: C7_7  and  C9_9 
ROOT
HETATM    1  C1  UNL     1     -38.936  11.670   3.948  1.00 20.00     0.012 C 
HETATM    2  C2  UNL     1     -39.613  11.902   4.913  1.00 20.00    -0.117 C 
HETATM    3  C9  UNL     1     -40.441  12.173   6.091  1.00 20.00     0.097 C 
ENDROOT
BRANCH   3   4
HETATM    4  C7  UNL     1     -40.483  13.668   6.400  1.00 20.00    -0.002 C 
HETATM    5  C4  UNL     1     -40.320  13.914   7.906  1.00 20.00     0.005 C 
HETATM    6  C3  UNL     1     -40.409  15.400   8.248  1.00 20.00     0.002 C 
HETATM    7  C5  UNL     1     -41.700  16.023   7.724  1.00 20.00     0.020 C 
HETATM    8  C8  UNL     1     -41.860  15.783   6.224  1.00 20.00     0.082 C 
HETATM    9  C6  UNL     1     -41.786  14.293   5.880  1.00 20.00     0.025 C 
HETATM   10 CL10 UNL     1     -43.417  16.456   5.663  1.00 20.00    -0.125 Cl
ENDBRANCH   3   4
TORSDOF 1
ENDMDL
