MODEL 1
REMARK VINA RESULT:      -4.5      0.000      0.000
REMARK  1 active torsions:
REMARK  status: ('A' for Active; 'I' for Inactive)
REMARK    1  A    between atoms: C8_8  and  C10_10 
ROOT
HETATM    1  C1  UNL     1     -32.598   9.133   0.365  1.00 20.00     0.012 C 
HETATM    2  C2  UNL     1     -32.287   8.363   1.232  1.00 20.00    -0.117 C 
HETATM    3  C10 UNL     1     -31.891   7.421   2.278  1.00 20.00     0.097 C 
ENDROOT
BRANCH   3   4
HETATM    4  C8  UNL     1     -33.000   7.280   3.331  1.00 20.00    -0.002 C 
HETATM    5  C5  UNL     1     -32.546   7.942   4.641  1.00 20.00     0.005 C 
HETATM    6  C3  UNL     1     -33.706   8.249   5.581  1.00 20.00     0.000 C 
HETATM    7  C4  UNL     1     -34.144   7.107   6.489  1.00 20.00     0.001 C 
HETATM    8  C6  UNL     1     -34.038   5.679   5.958  1.00 20.00     0.016 C 
HETATM    9  C9  UNL     1     -34.410   5.398   4.510  1.00 20.00     0.058 C 
HETATM   10  C7  UNL     1     -33.361   5.794   3.474  1.00 20.00     0.021 C 
HETATM   11 BR11 UNL     1     -36.178   6.076   4.050  1.00 20.00    -0.091 Br
ENDBRANCH   3   4
TORSDOF 1
ENDMDL
MODEL 2
REMARK VINA RESULT:      -4.2     11.640     13.031
REMARK  1 active torsions:
REMARK  status: ('A' for Active; 'I' for Inactive)
REMARK    1  A    between atoms: C8_8  and  C10_10 
ROOT
HETATM    1  C1  UNL     1     -34.032  18.029  -0.052  1.00 20.00     0.012 C 
HETATM    2  C2  UNL     1     -33.480  17.687  -1.062  1.00 20.00    -0.117 C 
HETATM    3  C10 UNL     1     -32.789  17.276  -2.284  1.00 20.00     0.097 C 
ENDROOT
BRANCH   3   4
HETATM    4  C8  UNL     1     -33.793  16.779  -3.334  1.00 20.00    -0.002 C 
HETATM    5  C5  UNL     1     -33.292  15.455  -3.931  1.00 20.00     0.005 C 
HETATM    6  C3  UNL     1     -34.393  14.668  -4.632  1.00 20.00     0.000 C 
HETATM    7  C4  UNL     1     -34.658  15.045  -6.084  1.00 20.00     0.001 C 
HETATM    8  C6  UNL     1     -34.475  16.504  -6.497  1.00 20.00     0.016 C 
HETATM    9  C9  UNL     1     -34.939  17.604  -5.553  1.00 20.00     0.058 C 
HETATM   10  C7  UNL     1     -34.015  17.889  -4.373  1.00 20.00     0.021 C 
HETATM   11 BR11 UNL     1     -36.789  17.370  -4.990  1.00 20.00    -0.091 Br
ENDBRANCH   3   4
TORSDOF 1
ENDMDL
MODEL 3
REMARK VINA RESULT:      -4.2      9.579     10.746
REMARK  1 active torsions:
REMARK  status: ('A' for Active; 'I' for Inactive)
REMARK    1  A    between atoms: C8_8  and  C10_10 
ROOT
HETATM    1  C1  UNL     1     -38.950  11.647   3.819  1.00 20.00     0.012 C 
HETATM    2  C2  UNL     1     -39.228  11.883   4.963  1.00 20.00    -0.117 C 
HETATM    3  C10 UNL     1     -39.555  12.153   6.362  1.00 20.00     0.097 C 
ENDROOT
BRANCH   3   4
HETATM    4  C8  UNL     1     -40.502  13.357   6.476  1.00 20.00    -0.002 C 
HETATM    5  C5  UNL     1     -40.205  14.118   7.777  1.00 20.00     0.005 C 
HETATM    6  C3  UNL     1     -40.760  15.538   7.770  1.00 20.00     0.000 C 
HETATM    7  C4  UNL     1     -42.214  15.684   8.197  1.00 20.00     0.001 C 
HETATM    8  C6  UNL     1     -43.186  14.556   7.856  1.00 20.00     0.016 C 
HETATM    9  C9  UNL     1     -43.081  13.876   6.498  1.00 20.00     0.058 C 
HETATM   10  C7  UNL     1     -41.951  12.859   6.360  1.00 20.00     0.021 C 
HETATM   11 BR11 UNL     1     -43.100  15.148   5.023  1.00 20.00    -0.091 Br
ENDBRANCH   3   4
TORSDOF 1
ENDMDL
MODEL 4
REMARK VINA RESULT:      -4.0      9.523     10.817
REMARK  1 active torsions:
REMARK  status: ('A' for Active; 'I' for Inactive)
REMARK    1  A    between atoms: C8_8  and  C10_10 
ROOT
HETATM    1  C1  UNL     1     -38.986  11.662   3.731  1.00 20.00     0.012 C 
HETATM    2  C2  UNL     1     -39.226  11.847   4.893  1.00 20.00    -0.117 C 
HETATM    3  C10 UNL     1     -39.503  12.060   6.313  1.00 20.00     0.097 C 
ENDROOT
BRANCH   3   4
HETATM    4  C8  UNL     1     -40.742  12.948   6.497  1.00 20.00    -0.002 C 
HETATM    5  C5  UNL     1     -41.136  13.561   5.145  1.00 20.00     0.005 C 
HETATM    6  C3  UNL     1     -42.569  14.080   5.126  1.00 20.00     0.000 C 
HETATM    7  C4  UNL     1     -42.770  15.495   5.652  1.00 20.00     0.001 C 
HETATM    8  C6  UNL     1     -41.870  15.980   6.786  1.00 20.00     0.016 C 
HETATM    9  C9  UNL     1     -41.523  15.021   7.916  1.00 20.00     0.058 C 
HETATM   10  C7  UNL     1     -40.450  13.986   7.592  1.00 20.00     0.021 C 
HETATM   11 BR11 UNL     1     -43.103  14.206   8.714  1.00 20.00    -0.091 Br
ENDBRANCH   3   4
TORSDOF 1
ENDMDL
MODEL 5
REMARK VINA RESULT:      -3.9      1.521      2.499
REMARK  1 active torsions:
REMARK  status: ('A' for Active; 'I' for Inactive)
REMARK    1  A    between atoms: C8_8  and  C10_10 
ROOT
HETATM    1  C1  UNL     1     -32.946   9.478   1.044  1.00 20.00     0.012 C 
HETATM    2  C2  UNL     1     -32.621   9.284   2.183  1.00 20.00    -0.117 C 
HETATM    3  C10 UNL     1     -32.216   9.065   3.571  1.00 20.00     0.097 C 
ENDROOT
BRANCH   3   4
HETATM    4  C8  UNL     1     -32.653   7.674   4.052  1.00 20.00    -0.002 C 
HETATM    5  C5  UNL     1     -32.737   6.722   2.848  1.00 20.00     0.005 C 
HETATM    6  C3  UNL     1     -32.722   5.253   3.255  1.00 20.00     0.000 C 
HETATM    7  C4  UNL     1     -34.072   4.654   3.628  1.00 20.00     0.001 C 
HETATM    8  C6  UNL     1     -35.099   5.554   4.312  1.00 20.00     0.016 C 
HETATM    9  C9  UNL     1     -34.629   6.543   5.369  1.00 20.00     0.058 C 
HETATM   10  C7  UNL     1     -33.968   7.810   4.834  1.00 20.00     0.021 C 
HETATM   11 BR11 UNL     1     -33.559   5.694   6.759  1.00 20.00    -0.091 Br
ENDBRANCH   3   4
TORSDOF 1
ENDMDL
MODEL 6
REMARK VINA RESULT:      -3.8     10.205     11.496
REMARK  1 active torsions:
REMARK  status: ('A' for Active; 'I' for Inactive)
REMARK    1  A    between atoms: C8_8  and  C10_10 
ROOT
HETATM    1  C1  UNL     1     -38.794  11.887   4.777  1.00 20.00     0.012 C 
HETATM    2  C2  UNL     1     -39.801  12.077   5.403  1.00 20.00    -0.117 C 
HETATM    3  C10 UNL     1     -41.031  12.290   6.164  1.00 20.00     0.097 C 
ENDROOT
BRANCH   3   4
HETATM    4  C8  UNL     1     -41.235  13.782   6.461  1.00 20.00    -0.002 C 
HETATM    5  C5  UNL     1     -40.542  14.138   7.786  1.00 20.00     0.005 C 
HETATM    6  C3  UNL     1     -40.303  15.635   7.944  1.00 20.00     0.000 C 
HETATM    7  C4  UNL     1     -41.467  16.435   8.515  1.00 20.00     0.001 C 
HETATM    8  C6  UNL     1     -42.887  15.990   8.177  1.00 20.00     0.016 C 
HETATM    9  C9  UNL     1     -43.195  15.510   6.765  1.00 20.00     0.058 C 
HETATM   10  C7  UNL     1     -42.740  14.090   6.441  1.00 20.00     0.021 C 
HETATM   11 BR11 UNL     1     -42.628  16.785   5.405  1.00 20.00    -0.091 Br
ENDBRANCH   3   4
TORSDOF 1
ENDMDL
MODEL 7
REMARK VINA RESULT:      -3.7     11.804     13.442
REMARK  1 active torsions:
REMARK  status: ('A' for Active; 'I' for Inactive)
REMARK    1  A    between atoms: C8_8  and  C10_10 
ROOT
HETATM    1  C1  UNL     1     -32.985  18.008  -1.553  1.00 20.00     0.012 C 
HETATM    2  C2  UNL     1     -33.156  17.063  -2.274  1.00 20.00    -0.117 C 
HETATM    3  C10 UNL     1     -33.354  15.901  -3.139  1.00 20.00     0.097 C 
ENDROOT
BRANCH   3   4
HETATM    4  C8  UNL     1     -33.991  16.319  -4.473  1.00 20.00    -0.002 C 
HETATM    5  C5  UNL     1     -35.064  17.387  -4.212  1.00 20.00     0.005 C 
HETATM    6  C3  UNL     1     -35.432  18.174  -5.465  1.00 20.00     0.000 C 
HETATM    7  C4  UNL     1     -36.493  17.543  -6.357  1.00 20.00     0.001 C 
HETATM    8  C6  UNL     1     -36.549  16.020  -6.451  1.00 20.00     0.016 C 
HETATM    9  C9  UNL     1     -35.246  15.236  -6.515  1.00 20.00     0.058 C 
HETATM   10  C7  UNL     1     -34.518  15.064  -5.185  1.00 20.00     0.021 C 
HETATM   11 BR11 UNL     1     -34.057  15.878  -7.918  1.00 20.00    -0.091 Br
ENDBRANCH   3   4
TORSDOF 1
ENDMDL
MODEL 8
REMARK VINA RESULT:      -3.7     10.066     11.498
REMARK  1 active torsions:
REMARK  status: ('A' for Active; 'I' for Inactive)
REMARK    1  A    between atoms: C8_8  and  C10_10 
ROOT
HETATM    1  C1  UNL     1     -38.855  12.161   5.248  1.00 20.00     0.012 C 
HETATM    2  C2  UNL     1     -39.953  12.198   5.732  1.00 20.00    -0.117 C 
HETATM    3  C10 UNL     1     -41.294  12.223   6.316  1.00 20.00     0.097 C 
ENDROOT
BRANCH   3   4
HETATM    4  C8  UNL     1     -41.607  13.609   6.899  1.00 20.00    -0.002 C 
HETATM    5  C5  UNL     1     -41.863  14.598   5.751  1.00 20.00     0.005 C 
HETATM    6  C3  UNL     1     -42.602  15.852   6.206  1.00 20.00     0.000 C 
HETATM    7  C4  UNL     1     -41.731  16.968   6.768  1.00 20.00     0.001 C 
HETATM    8  C6  UNL     1     -40.472  16.583   7.543  1.00 20.00     0.016 C 
HETATM    9  C9  UNL     1     -40.524  15.397   8.495  1.00 20.00     0.058 C 
HETATM   10  C7  UNL     1     -40.461  14.023   7.836  1.00 20.00     0.021 C 
HETATM   11 BR11 UNL     1     -41.992  15.528   9.769  1.00 20.00    -0.091 Br
ENDBRANCH   3   4
TORSDOF 1
ENDMDL
MODEL 9
REMARK VINA RESULT:      -3.7     11.596     12.782
REMARK  1 active torsions:
REMARK  status: ('A' for Active; 'I' for Inactive)
REMARK    1  A    between atoms: C8_8  and  C10_10 
ROOT
HETATM    1  C1  UNL     1     -35.878  13.644  -4.558  1.00 20.00     0.012 C 
HETATM    2  C2  UNL     1     -34.782  14.095  -4.370  1.00 20.00    -0.117 C 
HETATM    3  C10 UNL     1     -33.439  14.627  -4.142  1.00 20.00     0.097 C 
ENDROOT
BRANCH   3   4
HETATM    4  C8  UNL     1     -33.483  16.149  -3.942  1.00 20.00    -0.002 C 
HETATM    5  C5  UNL     1     -33.336  16.471  -2.447  1.00 20.00     0.005 C 
HETATM    6  C3  UNL     1     -32.926  17.917  -2.192  1.00 20.00     0.000 C 
HETATM    7  C4  UNL     1     -34.062  18.930  -2.141  1.00 20.00     0.001 C 
HETATM    8  C6  UNL     1     -35.278  18.699  -3.036  1.00 20.00     0.016 C 
HETATM    9  C9  UNL     1     -35.066  18.187  -4.453  1.00 20.00     0.058 C 
HETATM   10  C7  UNL     1     -34.773  16.694  -4.574  1.00 20.00     0.021 C 
HETATM   11 BR11 UNL     1     -33.785  19.263  -5.451  1.00 20.00    -0.091 Br
ENDBRANCH   3   4
TORSDOF 1
ENDMDL
