MODEL 1
REMARK VINA RESULT:      -4.8      0.000      0.000
REMARK  6 active torsions:
REMARK  status: ('A' for Active; 'I' for Inactive)
REMARK    1  A    between atoms: C3_3  and  C6_6 
REMARK    2  A    between atoms: C4_4  and  C5_5 
REMARK    3  A    between atoms: C4_4  and  C7_7 
REMARK    4  A    between atoms: C5_5  and  C8_8 
REMARK    5  A    between atoms: C6_6  and  C9_9 
REMARK    6  A    between atoms: C7_7  and  C9_9 
ROOT
HETATM    1  C7  UNL     1     -33.697   7.337   6.068  1.00 20.00     0.004 C 
ENDROOT
BRANCH   1   2
HETATM    2  C4  UNL     1     -33.630   8.387   4.954  1.00 20.00     0.001 C 
BRANCH   2   3
HETATM    3  C5  UNL     1     -32.207   8.523   4.406  1.00 20.00     0.015 C 
BRANCH   3   4
HETATM    4  C8  UNL     1     -32.155   8.174   2.925  1.00 20.00     0.114 C 
HETATM    5 CL10 UNL     1     -32.874   9.479   1.954  1.00 20.00    -0.130 Cl
ENDBRANCH   3   4
ENDBRANCH   2   3
ENDBRANCH   1   2
BRANCH   1   6
HETATM    6  C9  UNL     1     -34.714   6.212   5.795  1.00 20.00    -0.019 C 
HETATM    7  C2  UNL     1     -34.399   5.004   6.686  1.00 20.00     0.010 C 
BRANCH   6   8
HETATM    8  C6  UNL     1     -34.829   5.802   4.313  1.00 20.00     0.004 C 
BRANCH   8   9
HETATM    9  C3  UNL     1     -33.911   4.653   3.882  1.00 20.00    -0.004 C 
HETATM   10  C1  UNL     1     -33.057   5.050   2.686  1.00 20.00     0.005 C 
ENDBRANCH   8   9
ENDBRANCH   6   8
ENDBRANCH   1   6
TORSDOF 6
ENDMDL
MODEL 2
REMARK VINA RESULT:      -4.8      2.153      4.064
REMARK  6 active torsions:
REMARK  status: ('A' for Active; 'I' for Inactive)
REMARK    1  A    between atoms: C3_3  and  C6_6 
REMARK    2  A    between atoms: C4_4  and  C5_5 
REMARK    3  A    between atoms: C4_4  and  C7_7 
REMARK    4  A    between atoms: C5_5  and  C8_8 
REMARK    5  A    between atoms: C6_6  and  C9_9 
REMARK    6  A    between atoms: C7_7  and  C9_9 
ROOT
HETATM    1  C7  UNL     1     -33.947   7.689   5.042  1.00 20.00     0.004 C 
ENDROOT
BRANCH   1   2
HETATM    2  C4  UNL     1     -33.993   6.973   6.395  1.00 20.00     0.001 C 
BRANCH   2   3
HETATM    3  C5  UNL     1     -34.623   5.584   6.266  1.00 20.00     0.015 C 
BRANCH   3   4
HETATM    4  C8  UNL     1     -35.054   5.310   4.831  1.00 20.00     0.114 C 
HETATM    5 CL10 UNL     1     -33.878   4.248   4.022  1.00 20.00    -0.130 Cl
ENDBRANCH   3   4
ENDBRANCH   2   3
ENDBRANCH   1   2
BRANCH   1   6
HETATM    6  C9  UNL     1     -32.517   7.927   4.517  1.00 20.00    -0.019 C 
HETATM    7  C2  UNL     1     -32.039   9.322   4.935  1.00 20.00     0.010 C 
BRANCH   6   8
HETATM    8  C6  UNL     1     -32.350   7.708   3.000  1.00 20.00     0.004 C 
BRANCH   8   9
HETATM    9  C3  UNL     1     -32.631   8.936   2.129  1.00 20.00    -0.004 C 
HETATM   10  C1  UNL     1     -32.326   8.655   0.664  1.00 20.00     0.005 C 
ENDBRANCH   8   9
ENDBRANCH   6   8
ENDBRANCH   1   6
TORSDOF 6
ENDMDL
MODEL 3
REMARK VINA RESULT:      -4.3      2.255      4.475
REMARK  6 active torsions:
REMARK  status: ('A' for Active; 'I' for Inactive)
REMARK    1  A    between atoms: C3_3  and  C6_6 
REMARK    2  A    between atoms: C4_4  and  C5_5 
REMARK    3  A    between atoms: C4_4  and  C7_7 
REMARK    4  A    between atoms: C5_5  and  C8_8 
REMARK    5  A    between atoms: C6_6  and  C9_9 
REMARK    6  A    between atoms: C7_7  and  C9_9 
ROOT
HETATM    1  C7  UNL     1     -32.998   6.021   3.326  1.00 20.00     0.004 C 
ENDROOT
BRANCH   1   2
HETATM    2  C4  UNL     1     -34.317   6.265   4.065  1.00 20.00     0.001 C 
BRANCH   2   3
HETATM    3  C5  UNL     1     -34.729   5.037   4.882  1.00 20.00     0.015 C 
BRANCH   3   4
HETATM    4  C8  UNL     1     -34.492   5.265   6.369  1.00 20.00     0.114 C 
HETATM    5 CL10 UNL     1     -34.317   7.001   6.711  1.00 20.00    -0.130 Cl
ENDBRANCH   3   4
ENDBRANCH   2   3
ENDBRANCH   1   2
BRANCH   1   6
HETATM    6  C9  UNL     1     -32.151   7.296   3.138  1.00 20.00    -0.019 C 
HETATM    7  C2  UNL     1     -32.608   8.370   4.133  1.00 20.00     0.010 C 
BRANCH   6   8
HETATM    8  C6  UNL     1     -32.131   7.840   1.695  1.00 20.00     0.004 C 
BRANCH   8   9
HETATM    9  C3  UNL     1     -32.742   9.233   1.515  1.00 20.00    -0.004 C 
HETATM   10  C1  UNL     1     -32.961   9.553   0.043  1.00 20.00     0.005 C 
ENDBRANCH   8   9
ENDBRANCH   6   8
ENDBRANCH   1   6
TORSDOF 6
ENDMDL
MODEL 4
REMARK VINA RESULT:      -4.3      2.137      4.135
REMARK  6 active torsions:
REMARK  status: ('A' for Active; 'I' for Inactive)
REMARK    1  A    between atoms: C3_3  and  C6_6 
REMARK    2  A    between atoms: C4_4  and  C5_5 
REMARK    3  A    between atoms: C4_4  and  C7_7 
REMARK    4  A    between atoms: C5_5  and  C8_8 
REMARK    5  A    between atoms: C6_6  and  C9_9 
REMARK    6  A    between atoms: C7_7  and  C9_9 
ROOT
HETATM    1  C7  UNL     1     -32.533   7.769   4.231  1.00 20.00     0.004 C 
ENDROOT
BRANCH   1   2
HETATM    2  C4  UNL     1     -33.823   7.860   5.052  1.00 20.00     0.001 C 
BRANCH   2   3
HETATM    3  C5  UNL     1     -33.742   6.990   6.309  1.00 20.00     0.015 C 
BRANCH   3   4
HETATM    4  C8  UNL     1     -34.572   5.722   6.152  1.00 20.00     0.114 C 
HETATM    5 CL10 UNL     1     -35.538   5.794   4.661  1.00 20.00    -0.130 Cl
ENDBRANCH   3   4
ENDBRANCH   2   3
ENDBRANCH   1   2
BRANCH   1   6
HETATM    6  C9  UNL     1     -32.750   7.242   2.799  1.00 20.00    -0.019 C 
HETATM    7  C2  UNL     1     -32.706   5.709   2.800  1.00 20.00     0.010 C 
BRANCH   6   8
HETATM    8  C6  UNL     1     -31.783   7.829   1.750  1.00 20.00     0.004 C 
BRANCH   8   9
HETATM    9  C3  UNL     1     -32.449   8.628   0.625  1.00 20.00    -0.004 C 
HETATM   10  C1  UNL     1     -33.029   9.935   1.146  1.00 20.00     0.005 C 
ENDBRANCH   8   9
ENDBRANCH   6   8
ENDBRANCH   1   6
TORSDOF 6
ENDMDL
MODEL 5
REMARK VINA RESULT:      -4.2      1.158      1.587
REMARK  6 active torsions:
REMARK  status: ('A' for Active; 'I' for Inactive)
REMARK    1  A    between atoms: C3_3  and  C6_6 
REMARK    2  A    between atoms: C4_4  and  C5_5 
REMARK    3  A    between atoms: C4_4  and  C7_7 
REMARK    4  A    between atoms: C5_5  and  C8_8 
REMARK    5  A    between atoms: C6_6  and  C9_9 
REMARK    6  A    between atoms: C7_7  and  C9_9 
ROOT
HETATM    1  C7  UNL     1     -32.759   8.034   5.007  1.00 20.00     0.004 C 
ENDROOT
BRANCH   1   2
HETATM    2  C4  UNL     1     -32.682   8.615   3.591  1.00 20.00     0.001 C 
BRANCH   2   3
HETATM    3  C5  UNL     1     -32.064   7.612   2.613  1.00 20.00     0.015 C 
BRANCH   3   4
HETATM    4  C8  UNL     1     -32.107   8.142   1.186  1.00 20.00     0.114 C 
HETATM    5 CL10 UNL     1     -32.908   9.729   1.137  1.00 20.00    -0.130 Cl
ENDBRANCH   3   4
ENDBRANCH   2   3
ENDBRANCH   1   2
BRANCH   1   6
HETATM    6  C9  UNL     1     -34.166   7.536   5.394  1.00 20.00    -0.019 C 
HETATM    7  C2  UNL     1     -34.130   6.935   6.804  1.00 20.00     0.010 C 
BRANCH   6   8
HETATM    8  C6  UNL     1     -34.796   6.556   4.382  1.00 20.00     0.004 C 
BRANCH   8   9
HETATM    9  C3  UNL     1     -34.872   5.098   4.847  1.00 20.00    -0.004 C 
HETATM   10  C1  UNL     1     -33.796   4.251   4.181  1.00 20.00     0.005 C 
ENDBRANCH   8   9
ENDBRANCH   6   8
ENDBRANCH   1   6
TORSDOF 6
ENDMDL
MODEL 6
REMARK VINA RESULT:      -4.1      1.923      3.708
REMARK  6 active torsions:
REMARK  status: ('A' for Active; 'I' for Inactive)
REMARK    1  A    between atoms: C3_3  and  C6_6 
REMARK    2  A    between atoms: C4_4  and  C5_5 
REMARK    3  A    between atoms: C4_4  and  C7_7 
REMARK    4  A    between atoms: C5_5  and  C8_8 
REMARK    5  A    between atoms: C6_6  and  C9_9 
REMARK    6  A    between atoms: C7_7  and  C9_9 
ROOT
HETATM    1  C7  UNL     1     -33.651   8.174   4.869  1.00 20.00     0.004 C 
ENDROOT
BRANCH   1   2
HETATM    2  C4  UNL     1     -33.270   7.343   6.099  1.00 20.00     0.001 C 
BRANCH   2   3
HETATM    3  C5  UNL     1     -34.450   6.495   6.581  1.00 20.00     0.015 C 
BRANCH   3   4
HETATM    4  C8  UNL     1     -34.673   5.297   5.667  1.00 20.00     0.114 C 
HETATM    5 CL10 UNL     1     -35.789   5.720   4.349  1.00 20.00    -0.130 Cl
ENDBRANCH   3   4
ENDBRANCH   2   3
ENDBRANCH   1   2
BRANCH   1   6
HETATM    6  C9  UNL     1     -32.474   8.427   3.907  1.00 20.00    -0.019 C 
HETATM    7  C2  UNL     1     -32.888   9.449   2.842  1.00 20.00     0.010 C 
BRANCH   6   8
HETATM    8  C6  UNL     1     -31.891   7.151   3.264  1.00 20.00     0.004 C 
BRANCH   8   9
HETATM    9  C3  UNL     1     -32.850   6.387   2.347  1.00 20.00    -0.004 C 
HETATM   10  C1  UNL     1     -32.823   4.894   2.643  1.00 20.00     0.005 C 
ENDBRANCH   8   9
ENDBRANCH   6   8
ENDBRANCH   1   6
TORSDOF 6
ENDMDL
MODEL 7
REMARK VINA RESULT:      -4.0      1.088      2.811
REMARK  6 active torsions:
REMARK  status: ('A' for Active; 'I' for Inactive)
REMARK    1  A    between atoms: C3_3  and  C6_6 
REMARK    2  A    between atoms: C4_4  and  C5_5 
REMARK    3  A    between atoms: C4_4  and  C7_7 
REMARK    4  A    between atoms: C5_5  and  C8_8 
REMARK    5  A    between atoms: C6_6  and  C9_9 
REMARK    6  A    between atoms: C7_7  and  C9_9 
ROOT
HETATM    1  C7  UNL     1     -33.486   4.718   3.824  1.00 20.00     0.004 C 
ENDROOT
BRANCH   1   2
HETATM    2  C4  UNL     1     -33.410   5.773   2.715  1.00 20.00     0.001 C 
BRANCH   2   3
HETATM    3  C5  UNL     1     -32.164   6.650   2.869  1.00 20.00     0.015 C 
BRANCH   3   4
HETATM    4  C8  UNL     1     -32.478   8.106   2.553  1.00 20.00     0.114 C 
HETATM    5 CL10 UNL     1     -32.214   8.437   0.826  1.00 20.00    -0.130 Cl
ENDBRANCH   3   4
ENDBRANCH   2   3
ENDBRANCH   1   2
BRANCH   1   6
HETATM    6  C9  UNL     1     -34.647   4.946   4.812  1.00 20.00    -0.019 C 
HETATM    7  C2  UNL     1     -35.631   5.965   4.227  1.00 20.00     0.010 C 
BRANCH   6   8
HETATM    8  C6  UNL     1     -34.204   5.347   6.235  1.00 20.00     0.004 C 
BRANCH   8   9
HETATM    9  C3  UNL     1     -34.428   6.819   6.596  1.00 20.00    -0.004 C 
HETATM   10  C1  UNL     1     -33.291   7.691   6.082  1.00 20.00     0.005 C 
ENDBRANCH   8   9
ENDBRANCH   6   8
ENDBRANCH   1   6
TORSDOF 6
ENDMDL
MODEL 8
REMARK VINA RESULT:      -4.0      2.241      4.733
REMARK  6 active torsions:
REMARK  status: ('A' for Active; 'I' for Inactive)
REMARK    1  A    between atoms: C3_3  and  C6_6 
REMARK    2  A    between atoms: C4_4  and  C5_5 
REMARK    3  A    between atoms: C4_4  and  C7_7 
REMARK    4  A    between atoms: C5_5  and  C8_8 
REMARK    5  A    between atoms: C6_6  and  C9_9 
REMARK    6  A    between atoms: C7_7  and  C9_9 
ROOT
HETATM    1  C7  UNL     1     -32.215   6.404   2.796  1.00 20.00     0.004 C 
ENDROOT
BRANCH   1   2
HETATM    2  C4  UNL     1     -33.302   5.333   2.656  1.00 20.00     0.001 C 
BRANCH   2   3
HETATM    3  C5  UNL     1     -33.665   4.730   4.015  1.00 20.00     0.015 C 
BRANCH   3   4
HETATM    4  C8  UNL     1     -34.891   5.412   4.607  1.00 20.00     0.114 C 
HETATM    5 CL10 UNL     1     -34.803   5.418   6.383  1.00 20.00    -0.130 Cl
ENDBRANCH   3   4
ENDBRANCH   2   3
ENDBRANCH   1   2
BRANCH   1   6
HETATM    6  C9  UNL     1     -32.673   7.809   2.358  1.00 20.00    -0.019 C 
HETATM    7  C2  UNL     1     -31.996   8.182   1.034  1.00 20.00     0.010 C 
BRANCH   6   8
HETATM    8  C6  UNL     1     -32.467   8.907   3.422  1.00 20.00     0.004 C 
BRANCH   8   9
HETATM    9  C3  UNL     1     -32.346   8.403   4.864  1.00 20.00    -0.004 C 
HETATM   10  C1  UNL     1     -33.662   8.558   5.614  1.00 20.00     0.005 C 
ENDBRANCH   8   9
ENDBRANCH   6   8
ENDBRANCH   1   6
TORSDOF 6
ENDMDL
MODEL 9
REMARK VINA RESULT:      -3.9     12.051     12.624
REMARK  6 active torsions:
REMARK  status: ('A' for Active; 'I' for Inactive)
REMARK    1  A    between atoms: C3_3  and  C6_6 
REMARK    2  A    between atoms: C4_4  and  C5_5 
REMARK    3  A    between atoms: C4_4  and  C7_7 
REMARK    4  A    between atoms: C5_5  and  C8_8 
REMARK    5  A    between atoms: C6_6  and  C9_9 
REMARK    6  A    between atoms: C7_7  and  C9_9 
ROOT
HETATM    1  C7  UNL     1     -31.223  18.427  -0.350  1.00 20.00     0.004 C 
ENDROOT
BRANCH   1   2
HETATM    2  C4  UNL     1     -30.940  19.227   0.925  1.00 20.00     0.001 C 
BRANCH   2   3
HETATM    3  C5  UNL     1     -30.606  18.302   2.098  1.00 20.00     0.015 C 
BRANCH   3   4
HETATM    4  C8  UNL     1     -29.967  19.077   3.242  1.00 20.00     0.114 C 
HETATM    5 CL10 UNL     1     -28.366  18.406   3.629  1.00 20.00    -0.130 Cl
ENDBRANCH   3   4
ENDBRANCH   2   3
ENDBRANCH   1   2
BRANCH   1   6
HETATM    6  C9  UNL     1     -32.647  18.630  -0.903  1.00 20.00    -0.019 C 
HETATM    7  C2  UNL     1     -33.674  18.134   0.121  1.00 20.00     0.010 C 
BRANCH   6   8
HETATM    8  C6  UNL     1     -32.888  18.000  -2.291  1.00 20.00     0.004 C 
BRANCH   8   9
HETATM    9  C3  UNL     1     -33.506  16.598  -2.271  1.00 20.00    -0.004 C 
HETATM   10  C1  UNL     1     -33.233  15.857  -3.572  1.00 20.00     0.005 C 
ENDBRANCH   8   9
ENDBRANCH   6   8
ENDBRANCH   1   6
TORSDOF 6
ENDMDL
