MODEL 1
REMARK VINA RESULT:      -4.3      0.000      0.000
REMARK  6 active torsions:
REMARK  status: ('A' for Active; 'I' for Inactive)
REMARK    1  A    between atoms: C3_3  and  C10_10 
REMARK    2  A    between atoms: C6_6  and  C11_11 
REMARK    3  A    between atoms: C7_7  and  C8_8 
REMARK    4  A    between atoms: C7_7  and  C9_9 
REMARK    5  A    between atoms: C8_8  and  C10_10 
REMARK    6  A    between atoms: C9_9  and  C11_11 
ROOT
HETATM    1  C7  UNL     1     -33.588   8.260   4.763  1.00 20.00     0.002 C 
ENDROOT
BRANCH   1   2
HETATM    2  C8  UNL     1     -32.179   8.202   4.157  1.00 20.00     0.020 C 
BRANCH   2   3
HETATM    3  C10 UNL     1     -32.101   7.701   2.708  1.00 20.00     0.086 C 
HETATM    4 CL12 UNL     1     -32.479   5.957   2.596  1.00 20.00    -0.125 Cl
BRANCH   3   5
HETATM    5  C3  UNL     1     -32.985   8.458   1.763  1.00 20.00     0.004 A 
HETATM    6  C1  UNL     1     -32.765   9.927   1.533  1.00 20.00     0.006 A 
HETATM    7  C2  UNL     1     -32.447   8.940   0.444  1.00 20.00     0.006 A 
ENDBRANCH   3   5
ENDBRANCH   2   3
ENDBRANCH   1   2
BRANCH   1   8
HETATM    8  C9  UNL     1     -33.695   7.343   5.987  1.00 20.00     0.004 C 
BRANCH   8   9
HETATM    9  C11 UNL     1     -34.747   6.226   5.831  1.00 20.00    -0.019 C 
HETATM   10  C5  UNL     1     -35.467   6.380   4.486  1.00 20.00     0.010 C 
BRANCH   9  11
HETATM   11  C6  UNL     1     -34.188   4.799   6.006  1.00 20.00    -0.000 C 
HETATM   12  C4  UNL     1     -33.912   4.045   4.713  1.00 20.00     0.005 C 
ENDBRANCH   9  11
ENDBRANCH   8   9
ENDBRANCH   1   8
TORSDOF 6
ENDMDL
MODEL 2
REMARK VINA RESULT:      -4.1      1.476      2.336
REMARK  6 active torsions:
REMARK  status: ('A' for Active; 'I' for Inactive)
REMARK    1  A    between atoms: C3_3  and  C10_10 
REMARK    2  A    between atoms: C6_6  and  C11_11 
REMARK    3  A    between atoms: C7_7  and  C8_8 
REMARK    4  A    between atoms: C7_7  and  C9_9 
REMARK    5  A    between atoms: C8_8  and  C10_10 
REMARK    6  A    between atoms: C9_9  and  C11_11 
ROOT
HETATM    1  C7  UNL     1     -33.271   5.644   2.880  1.00 20.00     0.002 C 
ENDROOT
BRANCH   1   2
HETATM    2  C8  UNL     1     -32.171   6.711   2.961  1.00 20.00     0.020 C 
BRANCH   2   3
HETATM    3  C10 UNL     1     -32.660   8.166   2.966  1.00 20.00     0.086 C 
HETATM    4 CL12 UNL     1     -32.253   8.991   4.498  1.00 20.00    -0.125 Cl
BRANCH   3   5
HETATM    5  C3  UNL     1     -32.140   8.978   1.817  1.00 20.00     0.004 A 
HETATM    6  C1  UNL     1     -32.491   8.601   0.404  1.00 20.00     0.006 A 
HETATM    7  C2  UNL     1     -33.074   9.844   1.017  1.00 20.00     0.006 A 
ENDBRANCH   3   5
ENDBRANCH   2   3
ENDBRANCH   1   2
BRANCH   1   8
HETATM    8  C9  UNL     1     -34.435   5.986   3.817  1.00 20.00     0.004 C 
BRANCH   8   9
HETATM    9  C11 UNL     1     -34.652   4.949   4.938  1.00 20.00    -0.019 C 
HETATM   10  C5  UNL     1     -33.597   3.842   4.826  1.00 20.00     0.010 C 
BRANCH   9  11
HETATM   11  C6  UNL     1     -34.687   5.548   6.359  1.00 20.00    -0.000 C 
HETATM   12  C4  UNL     1     -34.161   6.971   6.478  1.00 20.00     0.005 C 
ENDBRANCH   9  11
ENDBRANCH   8   9
ENDBRANCH   1   8
TORSDOF 6
ENDMDL
MODEL 3
REMARK VINA RESULT:      -4.0     11.282     12.212
REMARK  6 active torsions:
REMARK  status: ('A' for Active; 'I' for Inactive)
REMARK    1  A    between atoms: C3_3  and  C10_10 
REMARK    2  A    between atoms: C6_6  and  C11_11 
REMARK    3  A    between atoms: C7_7  and  C8_8 
REMARK    4  A    between atoms: C7_7  and  C9_9 
REMARK    5  A    between atoms: C8_8  and  C10_10 
REMARK    6  A    between atoms: C9_9  and  C11_11 
ROOT
HETATM    1  C7  UNL     1     -33.198  18.260  -1.214  1.00 20.00     0.002 C 
ENDROOT
BRANCH   1   2
HETATM    2  C8  UNL     1     -33.469  16.893  -1.857  1.00 20.00     0.020 C 
BRANCH   2   3
HETATM    3  C10 UNL     1     -33.784  16.920  -3.359  1.00 20.00     0.086 C 
HETATM    4 CL12 UNL     1     -33.165  18.407  -4.134  1.00 20.00    -0.125 Cl
BRANCH   3   5
HETATM    5  C3  UNL     1     -33.267  15.725  -4.102  1.00 20.00     0.004 A 
HETATM    6  C1  UNL     1     -34.014  14.421  -4.054  1.00 20.00     0.006 A 
HETATM    7  C2  UNL     1     -33.984  15.224  -5.325  1.00 20.00     0.006 A 
ENDBRANCH   3   5
ENDBRANCH   2   3
ENDBRANCH   1   2
BRANCH   1   8
HETATM    8  C9  UNL     1     -31.758  18.344  -0.694  1.00 20.00     0.004 C 
BRANCH   8   9
HETATM    9  C11 UNL     1     -31.631  19.082   0.655  1.00 20.00    -0.019 C 
HETATM   10  C5  UNL     1     -33.020  19.256   1.280  1.00 20.00     0.010 C 
BRANCH   9  11
HETATM   11  C6  UNL     1     -30.649  18.426   1.647  1.00 20.00    -0.000 C 
HETATM   12  C4  UNL     1     -30.871  18.779   3.111  1.00 20.00     0.005 C 
ENDBRANCH   9  11
ENDBRANCH   8   9
ENDBRANCH   1   8
TORSDOF 6
ENDMDL
MODEL 4
REMARK VINA RESULT:      -3.9      1.648      5.085
REMARK  6 active torsions:
REMARK  status: ('A' for Active; 'I' for Inactive)
REMARK    1  A    between atoms: C3_3  and  C10_10 
REMARK    2  A    between atoms: C6_6  and  C11_11 
REMARK    3  A    between atoms: C7_7  and  C8_8 
REMARK    4  A    between atoms: C7_7  and  C9_9 
REMARK    5  A    between atoms: C8_8  and  C10_10 
REMARK    6  A    between atoms: C9_9  and  C11_11 
ROOT
HETATM    1  C7  UNL     1     -33.139   5.242   2.602  1.00 20.00     0.002 C 
ENDROOT
BRANCH   1   2
HETATM    2  C8  UNL     1     -34.046   4.871   3.783  1.00 20.00     0.020 C 
BRANCH   2   3
HETATM    3  C10 UNL     1     -34.828   6.035   4.407  1.00 20.00     0.086 C 
HETATM    4 CL12 UNL     1     -36.516   6.081   3.822  1.00 20.00    -0.125 Cl
BRANCH   3   5
HETATM    5  C3  UNL     1     -34.827   6.024   5.907  1.00 20.00     0.004 A 
HETATM    6  C1  UNL     1     -33.660   5.447   6.659  1.00 20.00     0.006 A 
HETATM    7  C2  UNL     1     -33.903   6.931   6.671  1.00 20.00     0.006 A 
ENDBRANCH   3   5
ENDBRANCH   2   3
ENDBRANCH   1   2
BRANCH   1   8
HETATM    8  C9  UNL     1     -32.163   6.359   2.990  1.00 20.00     0.004 C 
BRANCH   8   9
HETATM    9  C11 UNL     1     -32.634   7.765   2.566  1.00 20.00    -0.019 C 
HETATM   10  C5  UNL     1     -32.416   8.751   3.719  1.00 20.00     0.010 C 
BRANCH   9  11
HETATM   11  C6  UNL     1     -31.998   8.282   1.260  1.00 20.00    -0.000 C 
HETATM   12  C4  UNL     1     -32.750   9.414   0.573  1.00 20.00     0.005 C 
ENDBRANCH   9  11
ENDBRANCH   8   9
ENDBRANCH   1   8
TORSDOF 6
ENDMDL
MODEL 5
REMARK VINA RESULT:      -3.9     11.443     12.316
REMARK  6 active torsions:
REMARK  status: ('A' for Active; 'I' for Inactive)
REMARK    1  A    between atoms: C3_3  and  C10_10 
REMARK    2  A    between atoms: C6_6  and  C11_11 
REMARK    3  A    between atoms: C7_7  and  C8_8 
REMARK    4  A    between atoms: C7_7  and  C9_9 
REMARK    5  A    between atoms: C8_8  and  C10_10 
REMARK    6  A    between atoms: C9_9  and  C11_11 
ROOT
HETATM    1  C7  UNL     1     -33.503  17.032  -1.925  1.00 20.00     0.002 C 
ENDROOT
BRANCH   1   2
HETATM    2  C8  UNL     1     -33.289  16.306  -3.261  1.00 20.00     0.020 C 
BRANCH   2   3
HETATM    3  C10 UNL     1     -34.419  16.465  -4.289  1.00 20.00     0.086 C 
HETATM    4 CL12 UNL     1     -34.178  17.912  -5.311  1.00 20.00    -0.125 Cl
BRANCH   3   5
HETATM    5  C3  UNL     1     -34.603  15.266  -5.169  1.00 20.00     0.004 A 
HETATM    6  C1  UNL     1     -35.154  13.987  -4.601  1.00 20.00     0.006 A 
HETATM    7  C2  UNL     1     -35.985  14.809  -5.547  1.00 20.00     0.006 A 
ENDBRANCH   3   5
ENDBRANCH   2   3
ENDBRANCH   1   2
BRANCH   1   8
HETATM    8  C9  UNL     1     -32.616  18.278  -1.832  1.00 20.00     0.004 C 
BRANCH   8   9
HETATM    9  C11 UNL     1     -32.438  18.803  -0.392  1.00 20.00    -0.019 C 
HETATM   10  C5  UNL     1     -33.545  18.235   0.504  1.00 20.00     0.010 C 
BRANCH   9  11
HETATM   11  C6  UNL     1     -31.042  18.544   0.210  1.00 20.00    -0.000 C 
HETATM   12  C4  UNL     1     -31.016  18.313   1.715  1.00 20.00     0.005 C 
ENDBRANCH   9  11
ENDBRANCH   8   9
ENDBRANCH   1   8
TORSDOF 6
ENDMDL
MODEL 6
REMARK VINA RESULT:      -3.7     11.392     12.433
REMARK  6 active torsions:
REMARK  status: ('A' for Active; 'I' for Inactive)
REMARK    1  A    between atoms: C3_3  and  C10_10 
REMARK    2  A    between atoms: C6_6  and  C11_11 
REMARK    3  A    between atoms: C7_7  and  C8_8 
REMARK    4  A    between atoms: C7_7  and  C9_9 
REMARK    5  A    between atoms: C8_8  and  C10_10 
REMARK    6  A    between atoms: C9_9  and  C11_11 
ROOT
HETATM    1  C7  UNL     1     -33.926  17.803  -1.944  1.00 20.00     0.002 C 
ENDROOT
BRANCH   1   2
HETATM    2  C8  UNL     1     -33.315  16.493  -2.461  1.00 20.00     0.020 C 
BRANCH   2   3
HETATM    3  C10 UNL     1     -33.614  16.158  -3.929  1.00 20.00     0.086 C 
HETATM    4 CL12 UNL     1     -34.066  14.441  -4.131  1.00 20.00    -0.125 Cl
BRANCH   3   5
HETATM    5  C3  UNL     1     -34.677  17.022  -4.537  1.00 20.00     0.004 A 
HETATM    6  C1  UNL     1     -34.299  18.229  -5.350  1.00 20.00     0.006 A 
HETATM    7  C2  UNL     1     -34.892  17.024  -6.026  1.00 20.00     0.006 A 
ENDBRANCH   3   5
ENDBRANCH   2   3
ENDBRANCH   1   2
BRANCH   1   8
HETATM    8  C9  UNL     1     -32.842  18.867  -1.731  1.00 20.00     0.004 C 
BRANCH   8   9
HETATM    9  C11 UNL     1     -32.446  19.057  -0.253  1.00 20.00    -0.019 C 
HETATM   10  C5  UNL     1     -33.532  18.463   0.652  1.00 20.00     0.010 C 
BRANCH   9  11
HETATM   11  C6  UNL     1     -31.053  18.503   0.108  1.00 20.00    -0.000 C 
HETATM   12  C4  UNL     1     -30.799  18.298   1.595  1.00 20.00     0.005 C 
ENDBRANCH   9  11
ENDBRANCH   8   9
ENDBRANCH   1   8
TORSDOF 6
ENDMDL
MODEL 7
REMARK VINA RESULT:      -3.7     11.264     12.390
REMARK  6 active torsions:
REMARK  status: ('A' for Active; 'I' for Inactive)
REMARK    1  A    between atoms: C3_3  and  C10_10 
REMARK    2  A    between atoms: C6_6  and  C11_11 
REMARK    3  A    between atoms: C7_7  and  C8_8 
REMARK    4  A    between atoms: C7_7  and  C9_9 
REMARK    5  A    between atoms: C8_8  and  C10_10 
REMARK    6  A    between atoms: C9_9  and  C11_11 
ROOT
HETATM    1  C7  UNL     1     -33.509  16.440  -3.711  1.00 20.00     0.002 C 
ENDROOT
BRANCH   1   2
HETATM    2  C8  UNL     1     -33.514  14.943  -4.049  1.00 20.00     0.020 C 
BRANCH   2   3
HETATM    3  C10 UNL     1     -34.480  14.520  -5.165  1.00 20.00     0.086 C 
HETATM    4 CL12 UNL     1     -35.876  13.612  -4.517  1.00 20.00    -0.125 Cl
BRANCH   3   5
HETATM    5  C3  UNL     1     -34.979  15.667  -5.992  1.00 20.00     0.004 A 
HETATM    6  C1  UNL     1     -34.291  16.030  -7.279  1.00 20.00     0.006 A 
HETATM    7  C2  UNL     1     -35.661  15.412  -7.308  1.00 20.00     0.006 A 
ENDBRANCH   3   5
ENDBRANCH   2   3
ENDBRANCH   1   2
BRANCH   1   8
HETATM    8  C9  UNL     1     -33.426  16.658  -2.195  1.00 20.00     0.004 C 
BRANCH   8   9
HETATM    9  C11 UNL     1     -33.169  18.125  -1.796  1.00 20.00    -0.019 C 
HETATM   10  C5  UNL     1     -34.411  18.696  -1.103  1.00 20.00     0.010 C 
BRANCH   9  11
HETATM   11  C6  UNL     1     -31.903  18.339  -0.942  1.00 20.00    -0.000 C 
HETATM   12  C4  UNL     1     -32.151  18.566   0.543  1.00 20.00     0.005 C 
ENDBRANCH   9  11
ENDBRANCH   8   9
ENDBRANCH   1   8
TORSDOF 6
ENDMDL
MODEL 8
REMARK VINA RESULT:      -3.7      1.698      4.701
REMARK  6 active torsions:
REMARK  status: ('A' for Active; 'I' for Inactive)
REMARK    1  A    between atoms: C3_3  and  C10_10 
REMARK    2  A    between atoms: C6_6  and  C11_11 
REMARK    3  A    between atoms: C7_7  and  C8_8 
REMARK    4  A    between atoms: C7_7  and  C9_9 
REMARK    5  A    between atoms: C8_8  and  C10_10 
REMARK    6  A    between atoms: C9_9  and  C11_11 
ROOT
HETATM    1  C7  UNL     1     -32.502   8.736   4.874  1.00 20.00     0.002 C 
ENDROOT
BRANCH   1   2
HETATM    2  C8  UNL     1     -33.867   8.051   5.025  1.00 20.00     0.020 C 
BRANCH   2   3
HETATM    3  C10 UNL     1     -33.823   6.545   5.314  1.00 20.00     0.086 C 
HETATM    4 CL12 UNL     1     -34.749   6.131   6.786  1.00 20.00    -0.125 Cl
BRANCH   3   5
HETATM    5  C3  UNL     1     -34.308   5.700   4.174  1.00 20.00     0.004 A 
HETATM    6  C1  UNL     1     -33.339   5.189   3.144  1.00 20.00     0.006 A 
HETATM    7  C2  UNL     1     -33.972   4.235   4.119  1.00 20.00     0.006 A 
ENDBRANCH   3   5
ENDBRANCH   2   3
ENDBRANCH   1   2
BRANCH   1   8
HETATM    8  C9  UNL     1     -31.834   8.341   3.552  1.00 20.00     0.004 C 
BRANCH   8   9
HETATM    9  C11 UNL     1     -32.690   8.659   2.309  1.00 20.00    -0.019 C 
HETATM   10  C5  UNL     1     -32.983  10.163   2.257  1.00 20.00     0.010 C 
BRANCH   9  11
HETATM   11  C6  UNL     1     -32.089   8.160   0.979  1.00 20.00    -0.000 C 
HETATM   12  C4  UNL     1     -32.711   8.751  -0.278  1.00 20.00     0.005 C 
ENDBRANCH   9  11
ENDBRANCH   8   9
ENDBRANCH   1   8
TORSDOF 6
ENDMDL
MODEL 9
REMARK VINA RESULT:      -3.7     11.240     12.495
REMARK  6 active torsions:
REMARK  status: ('A' for Active; 'I' for Inactive)
REMARK    1  A    between atoms: C3_3  and  C10_10 
REMARK    2  A    between atoms: C6_6  and  C11_11 
REMARK    3  A    between atoms: C7_7  and  C8_8 
REMARK    4  A    between atoms: C7_7  and  C9_9 
REMARK    5  A    between atoms: C8_8  and  C10_10 
REMARK    6  A    between atoms: C9_9  and  C11_11 
ROOT
HETATM    1  C7  UNL     1     -32.792  17.471  -1.638  1.00 20.00     0.002 C 
ENDROOT
BRANCH   1   2
HETATM    2  C8  UNL     1     -32.065  18.641  -0.961  1.00 20.00     0.020 C 
BRANCH   2   3
HETATM    3  C10 UNL     1     -32.492  18.938   0.483  1.00 20.00     0.086 C 
HETATM    4 CL12 UNL     1     -34.169  18.405   0.795  1.00 20.00    -0.125 Cl
BRANCH   3   5
HETATM    5  C3  UNL     1     -31.584  18.336   1.514  1.00 20.00     0.004 A 
HETATM    6  C1  UNL     1     -30.265  18.984   1.833  1.00 20.00     0.006 A 
HETATM    7  C2  UNL     1     -31.382  19.019   2.838  1.00 20.00     0.006 A 
ENDBRANCH   3   5
ENDBRANCH   2   3
ENDBRANCH   1   2
BRANCH   1   8
HETATM    8  C9  UNL     1     -33.879  17.981  -2.592  1.00 20.00     0.004 C 
BRANCH   8   9
HETATM    9  C11 UNL     1     -34.212  16.997  -3.731  1.00 20.00    -0.019 C 
HETATM   10  C5  UNL     1     -34.251  17.748  -5.067  1.00 20.00     0.010 C 
BRANCH   9  11
HETATM   11  C6  UNL     1     -33.279  15.771  -3.805  1.00 20.00    -0.000 C 
HETATM   12  C4  UNL     1     -33.943  14.474  -4.248  1.00 20.00     0.005 C 
ENDBRANCH   9  11
ENDBRANCH   8   9
ENDBRANCH   1   8
TORSDOF 6
ENDMDL
