MODEL 1
REMARK VINA RESULT:      -4.6      0.000      0.000
REMARK  3 active torsions:
REMARK  status: ('A' for Active; 'I' for Inactive)
REMARK    1  A    between atoms: C4_4  and  C5_5 
REMARK    2  A    between atoms: C5_5  and  C6_6 
REMARK    3  A    between atoms: C6_6  and  C7_7 
ROOT
HETATM    1  C1  UNL     1     -34.049   6.446   6.360  1.00 20.00     0.033 C 
HETATM    2  C2  UNL     1     -34.860   5.180   6.180  1.00 20.00     0.168 C 
HETATM    3  C3  UNL     1     -33.975   5.783   4.110  1.00 20.00     0.172 C 
HETATM    4  C4  UNL     1     -34.085   7.033   4.965  1.00 20.00     0.011 C 
HETATM    5  O8  UNL     1     -34.645   4.737   4.832  1.00 20.00    -0.391 OA
ENDROOT
BRANCH   4   6
HETATM    6  C5  UNL     1     -32.999   8.057   4.694  1.00 20.00     0.008 C 
BRANCH   6   7
HETATM    7  C6  UNL     1     -32.336   7.830   3.334  1.00 20.00     0.015 C 
BRANCH   7   8
HETATM    8  C7  UNL     1     -32.616   8.989   2.384  1.00 20.00     0.114 C 
HETATM    9 CL9  UNL     1     -32.236   8.523   0.710  1.00 20.00    -0.130 Cl
ENDBRANCH   7   8
ENDBRANCH   6   7
ENDBRANCH   4   6
TORSDOF 3
ENDMDL
MODEL 2
REMARK VINA RESULT:      -4.2      1.008      1.489
REMARK  3 active torsions:
REMARK  status: ('A' for Active; 'I' for Inactive)
REMARK    1  A    between atoms: C4_4  and  C5_5 
REMARK    2  A    between atoms: C5_5  and  C6_6 
REMARK    3  A    between atoms: C6_6  and  C7_7 
ROOT
HETATM    1  C1  UNL     1     -34.804   6.114   4.408  1.00 20.00     0.033 C 
HETATM    2  C2  UNL     1     -34.919   4.944   5.363  1.00 20.00     0.168 C 
HETATM    3  C3  UNL     1     -33.995   6.745   6.518  1.00 20.00     0.172 C 
HETATM    4  C4  UNL     1     -33.688   6.917   5.041  1.00 20.00     0.011 C 
HETATM    5  O8  UNL     1     -34.566   5.434   6.665  1.00 20.00    -0.391 OA
ENDROOT
BRANCH   4   6
HETATM    6  C5  UNL     1     -33.633   8.365   4.592  1.00 20.00     0.008 C 
BRANCH   6   7
HETATM    7  C6  UNL     1     -32.353   8.665   3.809  1.00 20.00     0.015 C 
BRANCH   7   8
HETATM    8  C7  UNL     1     -32.092   7.599   2.751  1.00 20.00     0.114 C 
HETATM    9 CL9  UNL     1     -32.160   8.313   1.123  1.00 20.00    -0.130 Cl
ENDBRANCH   7   8
ENDBRANCH   6   7
ENDBRANCH   4   6
TORSDOF 3
ENDMDL
MODEL 3
REMARK VINA RESULT:      -4.1      1.127      1.419
REMARK  3 active torsions:
REMARK  status: ('A' for Active; 'I' for Inactive)
REMARK    1  A    between atoms: C4_4  and  C5_5 
REMARK    2  A    between atoms: C5_5  and  C6_6 
REMARK    3  A    between atoms: C6_6  and  C7_7 
ROOT
HETATM    1  C1  UNL     1     -33.510   7.106   5.507  1.00 20.00     0.033 C 
HETATM    2  C2  UNL     1     -34.472   6.625   6.573  1.00 20.00     0.168 C 
HETATM    3  C3  UNL     1     -34.383   5.017   4.888  1.00 20.00     0.172 C 
HETATM    4  C4  UNL     1     -34.007   6.361   4.287  1.00 20.00     0.011 C 
HETATM    5  O8  UNL     1     -34.844   5.283   6.222  1.00 20.00    -0.391 OA
ENDROOT
BRANCH   4   6
HETATM    6  C5  UNL     1     -32.995   6.266   3.161  1.00 20.00     0.008 C 
BRANCH   6   7
HETATM    7  C6  UNL     1     -32.215   7.571   2.993  1.00 20.00     0.015 C 
BRANCH   7   8
HETATM    8  C7  UNL     1     -32.190   8.015   1.535  1.00 20.00     0.114 C 
HETATM    9 CL9  UNL     1     -32.873   9.649   1.373  1.00 20.00    -0.130 Cl
ENDBRANCH   7   8
ENDBRANCH   6   7
ENDBRANCH   4   6
TORSDOF 3
ENDMDL
MODEL 4
REMARK VINA RESULT:      -3.9      2.819      4.261
REMARK  3 active torsions:
REMARK  status: ('A' for Active; 'I' for Inactive)
REMARK    1  A    between atoms: C4_4  and  C5_5 
REMARK    2  A    between atoms: C5_5  and  C6_6 
REMARK    3  A    between atoms: C6_6  and  C7_7 
ROOT
HETATM    1  C1  UNL     1     -32.667   7.215   3.741  1.00 20.00     0.033 C 
HETATM    2  C2  UNL     1     -32.405   8.491   2.968  1.00 20.00     0.168 C 
HETATM    3  C3  UNL     1     -32.645   9.036   5.221  1.00 20.00     0.172 C 
HETATM    4  C4  UNL     1     -33.393   7.740   4.961  1.00 20.00     0.011 C 
HETATM    5  O8  UNL     1     -32.241   9.537   3.937  1.00 20.00    -0.391 OA
ENDROOT
BRANCH   4   6
HETATM    6  C5  UNL     1     -33.395   6.787   6.141  1.00 20.00     0.008 C 
BRANCH   6   7
HETATM    7  C6  UNL     1     -34.734   6.060   6.277  1.00 20.00     0.015 C 
BRANCH   7   8
HETATM    8  C7  UNL     1     -35.187   5.483   4.941  1.00 20.00     0.114 C 
HETATM    9 CL9  UNL     1     -34.073   4.203   4.409  1.00 20.00    -0.130 Cl
ENDBRANCH   7   8
ENDBRANCH   6   7
ENDBRANCH   4   6
TORSDOF 3
ENDMDL
MODEL 5
REMARK VINA RESULT:      -3.7      2.745      4.254
REMARK  3 active torsions:
REMARK  status: ('A' for Active; 'I' for Inactive)
REMARK    1  A    between atoms: C4_4  and  C5_5 
REMARK    2  A    between atoms: C5_5  and  C6_6 
REMARK    3  A    between atoms: C6_6  and  C7_7 
ROOT
HETATM    1  C1  UNL     1     -32.922   9.096   2.960  1.00 20.00     0.033 C 
HETATM    2  C2  UNL     1     -32.153   8.500   1.800  1.00 20.00     0.168 C 
HETATM    3  C3  UNL     1     -32.603   6.801   3.331  1.00 20.00     0.172 C 
HETATM    4  C4  UNL     1     -32.597   8.125   4.074  1.00 20.00     0.011 C 
HETATM    5  O8  UNL     1     -32.131   7.079   2.002  1.00 20.00    -0.391 OA
ENDROOT
BRANCH   4   6
HETATM    6  C5  UNL     1     -33.562   8.175   5.244  1.00 20.00     0.008 C 
BRANCH   6   7
HETATM    7  C6  UNL     1     -33.356   6.995   6.195  1.00 20.00     0.015 C 
BRANCH   7   8
HETATM    8  C7  UNL     1     -34.645   6.201   6.376  1.00 20.00     0.114 C 
HETATM    9 CL9  UNL     1     -34.729   4.878   5.190  1.00 20.00    -0.130 Cl
ENDBRANCH   7   8
ENDBRANCH   6   7
ENDBRANCH   4   6
TORSDOF 3
ENDMDL
MODEL 6
REMARK VINA RESULT:      -3.6     12.194     12.700
REMARK  3 active torsions:
REMARK  status: ('A' for Active; 'I' for Inactive)
REMARK    1  A    between atoms: C4_4  and  C5_5 
REMARK    2  A    between atoms: C5_5  and  C6_6 
REMARK    3  A    between atoms: C6_6  and  C7_7 
ROOT
HETATM    1  C1  UNL     1     -33.007  15.462  -3.874  1.00 20.00     0.033 C 
HETATM    2  C2  UNL     1     -33.927  15.155  -5.037  1.00 20.00     0.168 C 
HETATM    3  C3  UNL     1     -34.425  17.293  -4.255  1.00 20.00     0.172 C 
HETATM    4  C4  UNL     1     -33.808  16.499  -3.116  1.00 20.00     0.011 C 
HETATM    5  O8  UNL     1     -34.650  16.361  -5.325  1.00 20.00    -0.391 OA
ENDROOT
BRANCH   4   6
HETATM    6  C5  UNL     1     -32.987  17.341  -2.158  1.00 20.00     0.008 C 
BRANCH   6   7
HETATM    7  C6  UNL     1     -33.739  17.606  -0.853  1.00 20.00     0.015 C 
BRANCH   7   8
HETATM    8  C7  UNL     1     -32.898  18.436   0.110  1.00 20.00     0.114 C 
HETATM    9 CL9  UNL     1     -31.185  18.390  -0.366  1.00 20.00    -0.130 Cl
ENDBRANCH   7   8
ENDBRANCH   6   7
ENDBRANCH   4   6
TORSDOF 3
ENDMDL
MODEL 7
REMARK VINA RESULT:      -3.5     11.900     12.430
REMARK  3 active torsions:
REMARK  status: ('A' for Active; 'I' for Inactive)
REMARK    1  A    between atoms: C4_4  and  C5_5 
REMARK    2  A    between atoms: C5_5  and  C6_6 
REMARK    3  A    between atoms: C6_6  and  C7_7 
ROOT
HETATM    1  C1  UNL     1     -31.733  18.347  -0.869  1.00 20.00     0.033 C 
HETATM    2  C2  UNL     1     -31.247  18.819   0.485  1.00 20.00     0.168 C 
HETATM    3  C3  UNL     1     -33.523  18.345   0.648  1.00 20.00     0.172 C 
HETATM    4  C4  UNL     1     -33.208  18.681  -0.799  1.00 20.00     0.011 C 
HETATM    5  O8  UNL     1     -32.337  18.642   1.402  1.00 20.00    -0.391 OA
ENDROOT
BRANCH   4   6
HETATM    6  C5  UNL     1     -34.063  17.930  -1.802  1.00 20.00     0.008 C 
BRANCH   6   7
HETATM    7  C6  UNL     1     -33.369  16.660  -2.298  1.00 20.00     0.015 C 
BRANCH   7   8
HETATM    8  C7  UNL     1     -33.634  16.430  -3.781  1.00 20.00     0.114 C 
HETATM    9 CL9  UNL     1     -33.696  14.688  -4.136  1.00 20.00    -0.130 Cl
ENDBRANCH   7   8
ENDBRANCH   6   7
ENDBRANCH   4   6
TORSDOF 3
ENDMDL
MODEL 8
REMARK VINA RESULT:      -3.5     11.989     12.772
REMARK  3 active torsions:
REMARK  status: ('A' for Active; 'I' for Inactive)
REMARK    1  A    between atoms: C4_4  and  C5_5 
REMARK    2  A    between atoms: C5_5  and  C6_6 
REMARK    3  A    between atoms: C6_6  and  C7_7 
ROOT
HETATM    1  C1  UNL     1     -34.564  16.943  -4.592  1.00 20.00     0.033 C 
HETATM    2  C2  UNL     1     -34.549  16.118  -5.862  1.00 20.00     0.168 C 
HETATM    3  C3  UNL     1     -33.582  14.857  -4.158  1.00 20.00     0.172 C 
HETATM    4  C4  UNL     1     -33.422  16.327  -3.813  1.00 20.00     0.011 C 
HETATM    5  O8  UNL     1     -34.092  14.807  -5.500  1.00 20.00    -0.391 OA
ENDROOT
BRANCH   4   6
HETATM    6  C5  UNL     1     -33.459  16.615  -2.324  1.00 20.00     0.008 C 
BRANCH   6   7
HETATM    7  C6  UNL     1     -32.958  18.026  -2.010  1.00 20.00     0.015 C 
BRANCH   7   8
HETATM    8  C7  UNL     1     -32.786  18.228  -0.509  1.00 20.00     0.114 C 
HETATM    9 CL9  UNL     1     -31.066  18.441  -0.106  1.00 20.00    -0.130 Cl
ENDBRANCH   7   8
ENDBRANCH   6   7
ENDBRANCH   4   6
TORSDOF 3
ENDMDL
MODEL 9
REMARK VINA RESULT:      -3.5      3.174      4.425
REMARK  3 active torsions:
REMARK  status: ('A' for Active; 'I' for Inactive)
REMARK    1  A    between atoms: C4_4  and  C5_5 
REMARK    2  A    between atoms: C5_5  and  C6_6 
REMARK    3  A    between atoms: C6_6  and  C7_7 
ROOT
HETATM    1  C1  UNL     1     -33.005   7.822   4.367  1.00 20.00     0.033 C 
HETATM    2  C2  UNL     1     -32.510   9.197   3.969  1.00 20.00     0.168 C 
HETATM    3  C3  UNL     1     -32.552   7.854   2.065  1.00 20.00     0.172 C 
HETATM    4  C4  UNL     1     -32.407   6.955   3.281  1.00 20.00     0.011 C 
HETATM    5  O8  UNL     1     -32.407   9.203   2.538  1.00 20.00    -0.391 OA
ENDROOT
BRANCH   4   6
HETATM    6  C5  UNL     1     -33.076   5.603   3.125  1.00 20.00     0.008 C 
BRANCH   6   7
HETATM    7  C6  UNL     1     -34.416   5.549   3.861  1.00 20.00     0.015 C 
BRANCH   7   8
HETATM    8  C7  UNL     1     -34.336   4.647   5.088  1.00 20.00     0.114 C 
HETATM    9 CL9  UNL     1     -34.688   5.576   6.564  1.00 20.00    -0.130 Cl
ENDBRANCH   7   8
ENDBRANCH   6   7
ENDBRANCH   4   6
TORSDOF 3
ENDMDL
