MODEL 1
REMARK VINA RESULT:      -5.5      0.000      0.000
REMARK  2 active torsions:
REMARK  status: ('A' for Active; 'I' for Inactive)
REMARK    1  A    between atoms: C8_8  and  C10_10 
REMARK    2  A    between atoms: C9_9  and  O11_11 
ROOT
HETATM    1  C1  UNL     1     -32.822   9.554   0.901  1.00 20.00     0.012 C 
HETATM    2  C2  UNL     1     -32.724   9.390   2.086  1.00 20.00    -0.117 C 
HETATM    3  C10 UNL     1     -32.594   9.206   3.532  1.00 20.00     0.097 C 
ENDROOT
BRANCH   3   4
HETATM    4  C8  UNL     1     -33.353   7.954   3.991  1.00 20.00    -0.001 C 
HETATM    5  C5  UNL     1     -33.536   8.015   5.515  1.00 20.00     0.005 C 
HETATM    6  C3  UNL     1     -33.935   6.724   6.226  1.00 20.00     0.000 C 
HETATM    7  C4  UNL     1     -34.897   5.825   5.459  1.00 20.00     0.002 C 
HETATM    8  C6  UNL     1     -34.175   4.874   4.510  1.00 20.00     0.032 C 
HETATM    9  C9  UNL     1     -33.591   5.517   3.254  1.00 20.00     0.118 C 
HETATM   10  C7  UNL     1     -32.636   6.690   3.499  1.00 20.00     0.037 C 
BRANCH   9  11
HETATM   11  O11 UNL     1     -32.858   4.513   2.545  1.00 20.00    -0.396 OA
HETATM   12  H27 UNL     1     -33.426   3.730   2.525  1.00 20.00     0.210 HD
ENDBRANCH   9  11
ENDBRANCH   3   4
TORSDOF 2
ENDMDL
MODEL 2
REMARK VINA RESULT:      -5.3      1.190      1.710
REMARK  2 active torsions:
REMARK  status: ('A' for Active; 'I' for Inactive)
REMARK    1  A    between atoms: C8_8  and  C10_10 
REMARK    2  A    between atoms: C9_9  and  O11_11 
ROOT
HETATM    1  C1  UNL     1     -32.790   9.554   0.323  1.00 20.00     0.012 C 
HETATM    2  C2  UNL     1     -32.460   8.614   0.993  1.00 20.00    -0.117 C 
HETATM    3  C10 UNL     1     -32.044   7.465   1.797  1.00 20.00     0.097 C 
ENDROOT
BRANCH   3   4
HETATM    4  C8  UNL     1     -32.894   7.355   3.069  1.00 20.00    -0.001 C 
HETATM    5  C5  UNL     1     -32.354   8.340   4.116  1.00 20.00     0.005 C 
HETATM    6  C3  UNL     1     -32.809   8.148   5.562  1.00 20.00     0.000 C 
HETATM    7  C4  UNL     1     -34.250   7.687   5.739  1.00 20.00     0.002 C 
HETATM    8  C6  UNL     1     -34.390   6.170   5.675  1.00 20.00     0.032 C 
HETATM    9  C9  UNL     1     -34.240   5.553   4.287  1.00 20.00     0.118 C 
HETATM   10  C7  UNL     1     -32.942   5.898   3.549  1.00 20.00     0.037 C 
BRANCH   9  11
HETATM   11  O11 UNL     1     -34.283   4.130   4.430  1.00 20.00    -0.396 OA
HETATM   12  H27 UNL     1     -34.276   3.769   3.532  1.00 20.00     0.210 HD
ENDBRANCH   9  11
ENDBRANCH   3   4
TORSDOF 2
ENDMDL
MODEL 3
REMARK VINA RESULT:      -4.4      1.939      2.790
REMARK  2 active torsions:
REMARK  status: ('A' for Active; 'I' for Inactive)
REMARK    1  A    between atoms: C8_8  and  C10_10 
REMARK    2  A    between atoms: C9_9  and  O11_11 
ROOT
HETATM    1  C1  UNL     1     -32.860   9.508   1.508  1.00 20.00     0.012 C 
HETATM    2  C2  UNL     1     -32.520   8.411   1.858  1.00 20.00    -0.117 C 
HETATM    3  C10 UNL     1     -32.093   7.074   2.271  1.00 20.00     0.097 C 
ENDROOT
BRANCH   3   4
HETATM    4  C8  UNL     1     -32.732   6.688   3.611  1.00 20.00    -0.001 C 
HETATM    5  C5  UNL     1     -33.625   5.456   3.401  1.00 20.00     0.005 C 
HETATM    6  C3  UNL     1     -34.630   5.120   4.501  1.00 20.00     0.000 C 
HETATM    7  C4  UNL     1     -34.153   5.380   5.924  1.00 20.00     0.002 C 
HETATM    8  C6  UNL     1     -34.406   6.817   6.371  1.00 20.00     0.032 C 
HETATM    9  C9  UNL     1     -33.493   7.870   5.748  1.00 20.00     0.118 C 
HETATM   10  C7  UNL     1     -33.464   7.893   4.216  1.00 20.00     0.037 C 
BRANCH   9  11
HETATM   11  O11 UNL     1     -33.942   9.157   6.184  1.00 20.00    -0.396 OA
HETATM   12  H27 UNL     1     -34.283   9.603   5.397  1.00 20.00     0.210 HD
ENDBRANCH   9  11
ENDBRANCH   3   4
TORSDOF 2
ENDMDL
MODEL 4
REMARK VINA RESULT:      -4.4     11.264     12.463
REMARK  2 active torsions:
REMARK  status: ('A' for Active; 'I' for Inactive)
REMARK    1  A    between atoms: C8_8  and  C10_10 
REMARK    2  A    between atoms: C9_9  and  O11_11 
ROOT
HETATM    1  C1  UNL     1     -34.042  17.763  -0.090  1.00 20.00     0.012 C 
HETATM    2  C2  UNL     1     -33.373  17.826  -1.084  1.00 20.00    -0.117 C 
HETATM    3  C10 UNL     1     -32.543  17.908  -2.286  1.00 20.00     0.097 C 
ENDROOT
BRANCH   3   4
HETATM    4  C8  UNL     1     -33.293  17.355  -3.505  1.00 20.00    -0.001 C 
HETATM    5  C5  UNL     1     -34.639  18.083  -3.634  1.00 20.00     0.005 C 
HETATM    6  C3  UNL     1     -35.693  17.455  -4.543  1.00 20.00     0.000 C 
HETATM    7  C4  UNL     1     -35.156  16.786  -5.803  1.00 20.00     0.002 C 
HETATM    8  C6  UNL     1     -34.748  15.336  -5.565  1.00 20.00     0.032 C 
HETATM    9  C9  UNL     1     -33.459  15.138  -4.770  1.00 20.00     0.118 C 
HETATM   10  C7  UNL     1     -33.417  15.829  -3.403  1.00 20.00     0.037 C 
BRANCH   9  11
HETATM   11  O11 UNL     1     -33.293  13.735  -4.543  1.00 20.00    -0.396 OA
HETATM   12  H27 UNL     1     -33.961  13.294  -5.086  1.00 20.00     0.210 HD
ENDBRANCH   9  11
ENDBRANCH   3   4
TORSDOF 2
ENDMDL
MODEL 5
REMARK VINA RESULT:      -4.3     14.799     16.268
REMARK  2 active torsions:
REMARK  status: ('A' for Active; 'I' for Inactive)
REMARK    1  A    between atoms: C8_8  and  C10_10 
REMARK    2  A    between atoms: C9_9  and  O11_11 
ROOT
HETATM    1  C1  UNL     1     -26.409  19.263   7.366  1.00 20.00     0.012 C 
HETATM    2  C2  UNL     1     -25.231  19.261   7.599  1.00 20.00    -0.117 C 
HETATM    3  C10 UNL     1     -23.793  19.263   7.866  1.00 20.00     0.097 C 
ENDROOT
BRANCH   3   4
HETATM    4  C8  UNL     1     -23.514  19.017   9.354  1.00 20.00    -0.001 C 
HETATM    5  C5  UNL     1     -21.998  19.075   9.593  1.00 20.00     0.005 C 
HETATM    6  C3  UNL     1     -21.473  18.508  10.910  1.00 20.00     0.000 C 
HETATM    7  C4  UNL     1     -22.363  18.741  12.125  1.00 20.00     0.002 C 
HETATM    8  C6  UNL     1     -23.427  17.659  12.284  1.00 20.00     0.032 C 
HETATM    9  C9  UNL     1     -24.579  17.717  11.282  1.00 20.00     0.118 C 
HETATM   10  C7  UNL     1     -24.168  17.705   9.806  1.00 20.00     0.037 C 
BRANCH   9  11
HETATM   11  O11 UNL     1     -25.411  16.574  11.502  1.00 20.00    -0.396 OA
HETATM   12  H27 UNL     1     -26.320  16.906  11.533  1.00 20.00     0.210 HD
ENDBRANCH   9  11
ENDBRANCH   3   4
TORSDOF 2
ENDMDL
MODEL 6
REMARK VINA RESULT:      -4.1     11.629     13.224
REMARK  2 active torsions:
REMARK  status: ('A' for Active; 'I' for Inactive)
REMARK    1  A    between atoms: C8_8  and  C10_10 
REMARK    2  A    between atoms: C9_9  and  O11_11 
ROOT
HETATM    1  C1  UNL     1     -33.666  17.401  -1.302  1.00 20.00     0.012 C 
HETATM    2  C2  UNL     1     -33.482  16.724  -2.276  1.00 20.00    -0.117 C 
HETATM    3  C10 UNL     1     -33.247  15.887  -3.453  1.00 20.00     0.097 C 
ENDROOT
BRANCH   3   4
HETATM    4  C8  UNL     1     -34.120  16.344  -4.629  1.00 20.00    -0.001 C 
HETATM    5  C5  UNL     1     -34.901  17.599  -4.212  1.00 20.00     0.005 C 
HETATM    6  C3  UNL     1     -36.087  18.010  -5.081  1.00 20.00     0.000 C 
HETATM    7  C4  UNL     1     -35.911  17.783  -6.578  1.00 20.00     0.002 C 
HETATM    8  C6  UNL     1     -36.308  16.374  -7.004  1.00 20.00     0.032 C 
HETATM    9  C9  UNL     1     -35.336  15.266  -6.604  1.00 20.00     0.118 C 
HETATM   10  C7  UNL     1     -35.008  15.188  -5.110  1.00 20.00     0.037 C 
BRANCH   9  11
HETATM   11  O11 UNL     1     -35.917  14.013  -6.978  1.00 20.00    -0.396 OA
HETATM   12  H27 UNL     1     -35.189  13.465  -7.302  1.00 20.00     0.210 HD
ENDBRANCH   9  11
ENDBRANCH   3   4
TORSDOF 2
ENDMDL
MODEL 7
REMARK VINA RESULT:      -4.0     11.872     12.868
REMARK  2 active torsions:
REMARK  status: ('A' for Active; 'I' for Inactive)
REMARK    1  A    between atoms: C8_8  and  C10_10 
REMARK    2  A    between atoms: C9_9  and  O11_11 
ROOT
HETATM    1  C1  UNL     1     -33.965  17.924  -0.157  1.00 20.00     0.012 C 
HETATM    2  C2  UNL     1     -33.448  17.581  -1.184  1.00 20.00    -0.117 C 
HETATM    3  C10 UNL     1     -32.801  17.168  -2.430  1.00 20.00     0.097 C 
ENDROOT
BRANCH   3   4
HETATM    4  C8  UNL     1     -33.821  16.547  -3.393  1.00 20.00    -0.001 C 
HETATM    5  C5  UNL     1     -33.201  15.299  -4.038  1.00 20.00     0.005 C 
HETATM    6  C3  UNL     1     -33.887  14.737  -5.281  1.00 20.00     0.000 C 
HETATM    7  C4  UNL     1     -35.408  14.821  -5.284  1.00 20.00     0.002 C 
HETATM    8  C6  UNL     1     -35.917  16.156  -5.819  1.00 20.00     0.032 C 
HETATM    9  C9  UNL     1     -35.736  17.350  -4.885  1.00 20.00     0.118 C 
HETATM   10  C7  UNL     1     -34.304  17.597  -4.403  1.00 20.00     0.037 C 
BRANCH   9  11
HETATM   11  O11 UNL     1     -36.157  18.525  -5.586  1.00 20.00    -0.396 OA
HETATM   12  H27 UNL     1     -35.701  19.267  -5.165  1.00 20.00     0.210 HD
ENDBRANCH   9  11
ENDBRANCH   3   4
TORSDOF 2
ENDMDL
MODEL 8
REMARK VINA RESULT:      -4.0     11.704     12.810
REMARK  2 active torsions:
REMARK  status: ('A' for Active; 'I' for Inactive)
REMARK    1  A    between atoms: C8_8  and  C10_10 
REMARK    2  A    between atoms: C9_9  and  O11_11 
ROOT
HETATM    1  C1  UNL     1     -30.962  18.571   0.223  1.00 20.00     0.012 C 
HETATM    2  C2  UNL     1     -32.137  18.420   0.027  1.00 20.00    -0.117 C 
HETATM    3  C10 UNL     1     -33.571  18.237  -0.193  1.00 20.00     0.097 C 
ENDROOT
BRANCH   3   4
HETATM    4  C8  UNL     1     -33.899  18.258  -1.692  1.00 20.00    -0.001 C 
HETATM    5  C5  UNL     1     -35.330  18.783  -1.881  1.00 20.00     0.005 C 
HETATM    6  C3  UNL     1     -35.989  18.552  -3.239  1.00 20.00     0.000 C 
HETATM    7  C4  UNL     1     -35.062  18.654  -4.443  1.00 20.00     0.002 C 
HETATM    8  C6  UNL     1     -34.360  17.335  -4.752  1.00 20.00     0.032 C 
HETATM    9  C9  UNL     1     -33.250  16.938  -3.783  1.00 20.00     0.118 C 
HETATM   10  C7  UNL     1     -33.656  16.874  -2.307  1.00 20.00     0.037 C 
BRANCH   9  11
HETATM   11  O11 UNL     1     -32.787  15.635  -4.154  1.00 20.00    -0.396 OA
HETATM   12  H27 UNL     1     -31.995  15.774  -4.691  1.00 20.00     0.210 HD
ENDBRANCH   9  11
ENDBRANCH   3   4
TORSDOF 2
ENDMDL
MODEL 9
REMARK VINA RESULT:      -3.8     10.150     10.973
REMARK  2 active torsions:
REMARK  status: ('A' for Active; 'I' for Inactive)
REMARK    1  A    between atoms: C8_8  and  C10_10 
REMARK    2  A    between atoms: C9_9  and  O11_11 
ROOT
HETATM    1  C1  UNL     1     -38.917  11.451   3.676  1.00 20.00     0.012 C 
HETATM    2  C2  UNL     1     -39.123  11.763   4.817  1.00 20.00    -0.117 C 
HETATM    3  C10 UNL     1     -39.357  12.138   6.211  1.00 20.00     0.097 C 
ENDROOT
BRANCH   3   4
HETATM    4  C8  UNL     1     -40.729  12.805   6.373  1.00 20.00    -0.001 C 
HETATM    5  C5  UNL     1     -41.166  13.379   5.017  1.00 20.00     0.005 C 
HETATM    6  C3  UNL     1     -42.311  14.389   5.018  1.00 20.00     0.000 C 
HETATM    7  C4  UNL     1     -43.416  14.125   6.034  1.00 20.00     0.002 C 
HETATM    8  C6  UNL     1     -43.109  14.732   7.399  1.00 20.00     0.032 C 
HETATM    9  C9  UNL     1     -42.031  14.017   8.211  1.00 20.00     0.118 C 
HETATM   10  C7  UNL     1     -40.683  13.842   7.504  1.00 20.00     0.037 C 
BRANCH   9  11
HETATM   11  O11 UNL     1     -41.793  14.780   9.397  1.00 20.00    -0.396 OA
HETATM   12  H27 UNL     1     -42.326  15.583   9.311  1.00 20.00     0.210 HD
ENDBRANCH   9  11
ENDBRANCH   3   4
TORSDOF 2
ENDMDL
