MODEL 1
REMARK VINA RESULT:      -3.7      0.000      0.000
REMARK  1 active torsions:
REMARK  status: ('A' for Active; 'I' for Inactive)
REMARK    1  A    between atoms: C7_7  and  C8_8 
ROOT
HETATM    1  C1  UNL     1     -33.183  18.886  -4.005  1.00 20.00     0.002 C 
HETATM    2  C2  UNL     1     -34.430  18.015  -3.857  1.00 20.00     0.005 C 
HETATM    3  C5  UNL     1     -32.595  19.263  -2.648  1.00 20.00     0.016 C 
HETATM    4  C6  UNL     1     -33.575  17.160  -1.636  1.00 20.00     0.020 C 
HETATM    5  C8  UNL     1     -34.199  16.771  -2.986  1.00 20.00    -0.009 C 
HETATM    6  C9  UNL     1     -32.327  18.025  -1.798  1.00 20.00     0.058 C 
HETATM    7 BR10 UNL     1     -31.700  18.585  -0.031  1.00 20.00    -0.091 Br
ENDROOT
BRANCH   5   8
HETATM    8  C7  UNL     1     -33.359  15.718  -3.714  1.00 20.00    -0.010 A 
HETATM    9  C3  UNL     1     -33.939  14.365  -4.020  1.00 20.00     0.005 A 
HETATM   10  C4  UNL     1     -33.682  15.342  -5.133  1.00 20.00     0.005 A 
ENDBRANCH   5   8
TORSDOF 1
ENDMDL
MODEL 2
REMARK VINA RESULT:      -3.7     11.667     12.780
REMARK  1 active torsions:
REMARK  status: ('A' for Active; 'I' for Inactive)
REMARK    1  A    between atoms: C7_7  and  C8_8 
ROOT
HETATM    1  C1  UNL     1     -42.744  13.777   5.935  1.00 20.00     0.002 C 
HETATM    2  C2  UNL     1     -42.039  12.591   6.591  1.00 20.00     0.005 C 
HETATM    3  C5  UNL     1     -42.577  15.055   6.754  1.00 20.00     0.016 C 
HETATM    4  C6  UNL     1     -40.401  14.169   7.696  1.00 20.00     0.020 C 
HETATM    5  C8  UNL     1     -40.559  12.863   6.901  1.00 20.00    -0.009 C 
HETATM    6  C9  UNL     1     -41.106  15.348   7.027  1.00 20.00     0.058 C 
HETATM    7 BR10 UNL     1     -40.969  16.918   8.187  1.00 20.00    -0.091 Br
ENDROOT
BRANCH   5   8
HETATM    8  C7  UNL     1     -39.706  12.868   5.630  1.00 20.00    -0.010 A 
HETATM    9  C3  UNL     1     -38.430  12.075   5.571  1.00 20.00     0.005 A 
HETATM   10  C4  UNL     1     -39.624  11.639   4.770  1.00 20.00     0.005 A 
ENDBRANCH   5   8
TORSDOF 1
ENDMDL
MODEL 3
REMARK VINA RESULT:      -3.5      2.502      3.985
REMARK  1 active torsions:
REMARK  status: ('A' for Active; 'I' for Inactive)
REMARK    1  A    between atoms: C7_7  and  C8_8 
ROOT
HETATM    1  C1  UNL     1     -33.964  19.116  -4.067  1.00 20.00     0.002 C 
HETATM    2  C2  UNL     1     -32.832  19.001  -3.047  1.00 20.00     0.005 C 
HETATM    3  C5  UNL     1     -34.115  17.838  -4.889  1.00 20.00     0.016 C 
HETATM    4  C6  UNL     1     -33.143  16.492  -2.978  1.00 20.00     0.020 C 
HETATM    5  C8  UNL     1     -32.958  17.768  -2.140  1.00 20.00    -0.009 C 
HETATM    6  C9  UNL     1     -34.281  16.618  -3.989  1.00 20.00     0.058 C 
HETATM    7 BR10 UNL     1     -34.335  15.006  -5.097  1.00 20.00    -0.091 Br
ENDROOT
BRANCH   5   8
HETATM    8  C7  UNL     1     -34.079  17.935  -1.111  1.00 20.00    -0.010 A 
HETATM    9  C3  UNL     1     -33.754  18.029   0.355  1.00 20.00     0.005 A 
HETATM   10  C4  UNL     1     -34.251  19.240  -0.385  1.00 20.00     0.005 A 
ENDBRANCH   5   8
TORSDOF 1
ENDMDL
MODEL 4
REMARK VINA RESULT:      -3.5     10.451     12.074
REMARK  1 active torsions:
REMARK  status: ('A' for Active; 'I' for Inactive)
REMARK    1  A    between atoms: C7_7  and  C8_8 
ROOT
HETATM    1  C1  UNL     1     -33.071   5.666   2.553  1.00 20.00     0.002 C 
HETATM    2  C2  UNL     1     -31.904   6.652   2.542  1.00 20.00     0.005 C 
HETATM    3  C5  UNL     1     -33.621   5.458   3.962  1.00 20.00     0.016 C 
HETATM    4  C6  UNL     1     -32.822   7.769   4.616  1.00 20.00     0.020 C 
HETATM    5  C8  UNL     1     -32.239   7.992   3.212  1.00 20.00    -0.009 C 
HETATM    6  C9  UNL     1     -33.992   6.787   4.612  1.00 20.00     0.058 C 
HETATM    7 BR10 UNL     1     -34.563   6.461   6.455  1.00 20.00    -0.091 Br
ENDROOT
BRANCH   5   8
HETATM    8  C7  UNL     1     -33.168   8.843   2.343  1.00 20.00    -0.010 A 
HETATM    9  C3  UNL     1     -32.773  10.240   1.952  1.00 20.00     0.005 A 
HETATM   10  C4  UNL     1     -32.801   9.150   0.918  1.00 20.00     0.005 A 
ENDBRANCH   5   8
TORSDOF 1
ENDMDL
MODEL 5
REMARK VINA RESULT:      -3.3      2.052      2.922
REMARK  1 active torsions:
REMARK  status: ('A' for Active; 'I' for Inactive)
REMARK    1  A    between atoms: C7_7  and  C8_8 
ROOT
HETATM    1  C1  UNL     1     -31.700  18.494  -0.479  1.00 20.00     0.002 C 
HETATM    2  C2  UNL     1     -32.214  19.020  -1.818  1.00 20.00     0.005 C 
HETATM    3  C5  UNL     1     -32.589  18.937   0.680  1.00 20.00     0.016 C 
HETATM    4  C6  UNL     1     -34.566  19.089  -0.893  1.00 20.00     0.020 C 
HETATM    5  C8  UNL     1     -33.686  18.669  -2.081  1.00 20.00    -0.009 C 
HETATM    6  C9  UNL     1     -34.045  18.552   0.438  1.00 20.00     0.058 C 
HETATM    7 BR10 UNL     1     -35.145  19.263   1.892  1.00 20.00    -0.091 Br
ENDROOT
BRANCH   5   8
HETATM    8  C7  UNL     1     -33.863  17.186  -2.418  1.00 20.00    -0.010 A 
HETATM    9  C3  UNL     1     -34.334  16.771  -3.784  1.00 20.00     0.005 A 
HETATM   10  C4  UNL     1     -32.914  16.508  -3.367  1.00 20.00     0.005 A 
ENDBRANCH   5   8
TORSDOF 1
ENDMDL
MODEL 6
REMARK VINA RESULT:      -3.1     24.119     25.452
REMARK  1 active torsions:
REMARK  status: ('A' for Active; 'I' for Inactive)
REMARK    1  A    between atoms: C7_7  and  C8_8 
ROOT
HETATM    1  C1  UNL     1     -24.307  -1.512  11.757  1.00 20.00     0.002 C 
HETATM    2  C2  UNL     1     -25.588  -2.114  12.332  1.00 20.00     0.005 C 
HETATM    3  C5  UNL     1     -23.474  -2.557  11.019  1.00 20.00     0.016 C 
HETATM    4  C6  UNL     1     -25.573  -3.883  10.525  1.00 20.00     0.020 C 
HETATM    5  C8  UNL     1     -26.430  -2.858  11.284  1.00 20.00    -0.009 C 
HETATM    6  C9  UNL     1     -24.299  -3.267   9.950  1.00 20.00     0.058 C 
HETATM    7 BR10 UNL     1     -23.215  -4.678   9.136  1.00 20.00    -0.091 Br
ENDROOT
BRANCH   5   8
HETATM    8  C7  UNL     1     -27.130  -1.888  10.328  1.00 20.00    -0.010 A 
HETATM    9  C3  UNL     1     -28.625  -1.735  10.364  1.00 20.00     0.005 A 
HETATM   10  C4  UNL     1     -27.743  -0.620  10.853  1.00 20.00     0.005 A 
ENDBRANCH   5   8
TORSDOF 1
ENDMDL
MODEL 7
REMARK VINA RESULT:      -3.1     12.284     13.295
REMARK  1 active torsions:
REMARK  status: ('A' for Active; 'I' for Inactive)
REMARK    1  A    between atoms: C7_7  and  C8_8 
ROOT
HETATM    1  C1  UNL     1     -43.090  14.717   7.375  1.00 20.00     0.002 C 
HETATM    2  C2  UNL     1     -42.134  13.804   8.142  1.00 20.00     0.005 C 
HETATM    3  C5  UNL     1     -42.715  16.188   7.536  1.00 20.00     0.016 C 
HETATM    4  C6  UNL     1     -40.302  15.533   7.928  1.00 20.00     0.020 C 
HETATM    5  C8  UNL     1     -40.658  14.044   7.794  1.00 20.00    -0.009 C 
HETATM    6  C9  UNL     1     -41.260  16.434   7.151  1.00 20.00     0.058 C 
HETATM    7 BR10 UNL     1     -40.811  18.306   7.506  1.00 20.00    -0.091 Br
ENDROOT
BRANCH   5   8
HETATM    8  C7  UNL     1     -40.308  13.502   6.406  1.00 20.00    -0.010 A 
HETATM    9  C3  UNL     1     -39.341  12.360   6.259  1.00 20.00     0.005 A 
HETATM   10  C4  UNL     1     -40.802  12.149   5.976  1.00 20.00     0.005 A 
ENDBRANCH   5   8
TORSDOF 1
ENDMDL
MODEL 8
REMARK VINA RESULT:      -3.1     12.947     14.458
REMARK  1 active torsions:
REMARK  status: ('A' for Active; 'I' for Inactive)
REMARK    1  A    between atoms: C7_7  and  C8_8 
ROOT
HETATM    1  C1  UNL     1     -42.873  12.930   7.765  1.00 20.00     0.002 C 
HETATM    2  C2  UNL     1     -42.623  14.423   7.971  1.00 20.00     0.005 C 
HETATM    3  C5  UNL     1     -42.113  12.393   6.555  1.00 20.00     0.016 C 
HETATM    4  C6  UNL     1     -40.372  14.208   6.841  1.00 20.00     0.020 C 
HETATM    5  C8  UNL     1     -41.132  14.782   8.047  1.00 20.00    -0.009 C 
HETATM    6  C9  UNL     1     -40.625  12.714   6.649  1.00 20.00     0.058 C 
HETATM    7 BR10 UNL     1     -39.735  12.117   5.011  1.00 20.00    -0.091 Br
ENDROOT
BRANCH   5   8
HETATM    8  C7  UNL     1     -40.508  14.336   9.372  1.00 20.00    -0.010 A 
HETATM    9  C3  UNL     1     -40.111  15.355  10.404  1.00 20.00     0.005 A 
HETATM   10  C4  UNL     1     -41.288  14.453  10.652  1.00 20.00     0.005 A 
ENDBRANCH   5   8
TORSDOF 1
ENDMDL
MODEL 9
REMARK VINA RESULT:      -3.1      2.119      3.435
REMARK  1 active torsions:
REMARK  status: ('A' for Active; 'I' for Inactive)
REMARK    1  A    between atoms: C7_7  and  C8_8 
ROOT
HETATM    1  C1  UNL     1     -34.082  15.035  -4.456  1.00 20.00     0.002 C 
HETATM    2  C2  UNL     1     -34.285  15.845  -5.737  1.00 20.00     0.005 C 
HETATM    3  C5  UNL     1     -33.268  15.809  -3.423  1.00 20.00     0.016 C 
HETATM    4  C6  UNL     1     -34.076  17.992  -4.418  1.00 20.00     0.020 C 
HETATM    5  C8  UNL     1     -34.885  17.236  -5.484  1.00 20.00    -0.009 C 
HETATM    6  C9  UNL     1     -33.886  17.175  -3.142  1.00 20.00     0.058 C 
HETATM    7 BR10 UNL     1     -32.726  18.163  -1.914  1.00 20.00    -0.091 Br
ENDROOT
BRANCH   5   8
HETATM    8  C7  UNL     1     -36.368  17.154  -5.115  1.00 20.00    -0.010 A 
HETATM    9  C3  UNL     1     -37.402  17.817  -5.983  1.00 20.00     0.005 A 
HETATM   10  C4  UNL     1     -37.307  16.317  -5.938  1.00 20.00     0.005 A 
ENDBRANCH   5   8
TORSDOF 1
ENDMDL
