MODEL 1
REMARK VINA RESULT:      -4.5      0.000      0.000
REMARK  2 active torsions:
REMARK  status: ('A' for Active; 'I' for Inactive)
REMARK    1  A    between atoms: C6_6  and  C7_7 
REMARK    2  A    between atoms: C8_8  and  O9_9 
ROOT
HETATM    1  C3  UNL     1     -34.758   5.285   5.797  1.00 20.00     0.007 C 
HETATM    2  C4  UNL     1     -33.879   6.248   6.586  1.00 20.00     0.032 C 
HETATM    3  C5  UNL     1     -34.573   7.250   4.455  1.00 20.00     0.036 C 
HETATM    4  C7  UNL     1     -34.601   5.724   4.342  1.00 20.00    -0.008 C 
HETATM    5  C8  UNL     1     -33.874   7.551   5.783  1.00 20.00     0.118 C 
ENDROOT
BRANCH   4   6
HETATM    6  C6  UNL     1     -33.333   5.165   3.699  1.00 20.00    -0.010 A 
HETATM    7  C1  UNL     1     -33.316   4.816   2.236  1.00 20.00     0.005 A 
HETATM    8  C2  UNL     1     -32.542   6.005   2.734  1.00 20.00     0.005 A 
ENDBRANCH   4   6
BRANCH   5   9
HETATM    9  O9  UNL     1     -32.539   7.971   5.536  1.00 20.00    -0.396 OA
HETATM   10  H23 UNL     1     -32.450   8.856   5.924  1.00 20.00     0.210 HD
ENDBRANCH   5   9
TORSDOF 2
ENDMDL
MODEL 2
REMARK VINA RESULT:      -4.5      1.871      2.656
REMARK  2 active torsions:
REMARK  status: ('A' for Active; 'I' for Inactive)
REMARK    1  A    between atoms: C6_6  and  C7_7 
REMARK    2  A    between atoms: C8_8  and  O9_9 
ROOT
HETATM    1  C3  UNL     1     -34.996   6.196   4.237  1.00 20.00     0.007 C 
HETATM    2  C4  UNL     1     -34.649   4.912   4.983  1.00 20.00     0.032 C 
HETATM    3  C5  UNL     1     -34.528   6.851   6.484  1.00 20.00     0.036 C 
HETATM    4  C7  UNL     1     -34.312   7.302   5.037  1.00 20.00    -0.008 C 
HETATM    5  C8  UNL     1     -34.481   5.322   6.449  1.00 20.00     0.118 C 
ENDROOT
BRANCH   4   6
HETATM    6  C6  UNL     1     -32.832   7.445   4.688  1.00 20.00    -0.010 A 
HETATM    7  C1  UNL     1     -32.418   7.998   3.352  1.00 20.00     0.005 A 
HETATM    8  C2  UNL     1     -32.203   8.808   4.601  1.00 20.00     0.005 A 
ENDBRANCH   4   6
BRANCH   5   9
HETATM    9  O9  UNL     1     -33.228   4.870   6.944  1.00 20.00    -0.396 OA
HETATM   10  H23 UNL     1     -33.420   4.292   7.699  1.00 20.00     0.210 HD
ENDBRANCH   5   9
TORSDOF 2
ENDMDL
MODEL 3
REMARK VINA RESULT:      -4.4      1.744      2.839
REMARK  2 active torsions:
REMARK  status: ('A' for Active; 'I' for Inactive)
REMARK    1  A    between atoms: C6_6  and  C7_7 
REMARK    2  A    between atoms: C8_8  and  O9_9 
ROOT
HETATM    1  C3  UNL     1     -33.576   5.051   3.232  1.00 20.00     0.007 C 
HETATM    2  C4  UNL     1     -33.675   4.265   4.535  1.00 20.00     0.032 C 
HETATM    3  C5  UNL     1     -35.080   6.275   4.623  1.00 20.00     0.036 C 
HETATM    4  C7  UNL     1     -33.945   6.482   3.618  1.00 20.00    -0.008 C 
HETATM    5  C8  UNL     1     -34.740   4.982   5.368  1.00 20.00     0.118 C 
ENDROOT
BRANCH   4   6
HETATM    6  C6  UNL     1     -32.767   7.245   4.220  1.00 20.00    -0.010 A 
HETATM    7  C1  UNL     1     -32.503   8.670   3.820  1.00 20.00     0.005 A 
HETATM    8  C2  UNL     1     -33.010   8.359   5.201  1.00 20.00     0.005 A 
ENDBRANCH   4   6
BRANCH   5   9
HETATM    9  O9  UNL     1     -34.228   5.294   6.657  1.00 20.00    -0.396 OA
HETATM   10  H23 UNL     1     -34.552   6.182   6.876  1.00 20.00     0.210 HD
ENDBRANCH   5   9
TORSDOF 2
ENDMDL
MODEL 4
REMARK VINA RESULT:      -4.1      2.051      2.976
REMARK  2 active torsions:
REMARK  status: ('A' for Active; 'I' for Inactive)
REMARK    1  A    between atoms: C6_6  and  C7_7 
REMARK    2  A    between atoms: C8_8  and  O9_9 
ROOT
HETATM    1  C3  UNL     1     -33.523   6.266   6.373  1.00 20.00     0.007 C 
HETATM    2  C4  UNL     1     -35.011   5.947   6.280  1.00 20.00     0.032 C 
HETATM    3  C5  UNL     1     -33.892   5.508   4.140  1.00 20.00     0.036 C 
HETATM    4  C7  UNL     1     -33.101   6.551   4.933  1.00 20.00    -0.008 C 
HETATM    5  C8  UNL     1     -35.214   5.336   4.891  1.00 20.00     0.118 C 
ENDROOT
BRANCH   4   6
HETATM    6  C6  UNL     1     -33.428   7.979   4.501  1.00 20.00    -0.010 A 
HETATM    7  C1  UNL     1     -32.481   9.103   4.819  1.00 20.00     0.005 A 
HETATM    8  C2  UNL     1     -32.643   8.635   3.399  1.00 20.00     0.005 A 
ENDBRANCH   4   6
BRANCH   5   9
HETATM    9  O9  UNL     1     -36.249   6.024   4.200  1.00 20.00    -0.396 OA
HETATM   10  H23 UNL     1     -36.288   6.917   4.577  1.00 20.00     0.210 HD
ENDBRANCH   5   9
TORSDOF 2
ENDMDL
MODEL 5
REMARK VINA RESULT:      -4.0      1.845      3.323
REMARK  2 active torsions:
REMARK  status: ('A' for Active; 'I' for Inactive)
REMARK    1  A    between atoms: C6_6  and  C7_7 
REMARK    2  A    between atoms: C8_8  and  O9_9 
ROOT
HETATM    1  C3  UNL     1     -32.540   8.709   5.297  1.00 20.00     0.007 C 
HETATM    2  C4  UNL     1     -31.698   8.154   4.153  1.00 20.00     0.032 C 
HETATM    3  C5  UNL     1     -34.089   7.799   3.726  1.00 20.00     0.036 C 
HETATM    4  C7  UNL     1     -33.845   7.918   5.232  1.00 20.00    -0.008 C 
HETATM    5  C8  UNL     1     -32.700   7.694   3.092  1.00 20.00     0.118 C 
ENDROOT
BRANCH   4   6
HETATM    6  C6  UNL     1     -33.736   6.555   5.913  1.00 20.00    -0.010 A 
HETATM    7  C1  UNL     1     -34.904   5.992   6.674  1.00 20.00     0.005 A 
HETATM    8  C2  UNL     1     -34.491   5.375   5.367  1.00 20.00     0.005 A 
ENDBRANCH   4   6
BRANCH   5   9
HETATM    9  O9  UNL     1     -32.443   6.345   2.726  1.00 20.00    -0.396 OA
HETATM   10  H23 UNL     1     -33.183   5.819   3.070  1.00 20.00     0.210 HD
ENDBRANCH   5   9
TORSDOF 2
ENDMDL
MODEL 6
REMARK VINA RESULT:      -3.9      9.114     10.216
REMARK  2 active torsions:
REMARK  status: ('A' for Active; 'I' for Inactive)
REMARK    1  A    between atoms: C6_6  and  C7_7 
REMARK    2  A    between atoms: C8_8  and  O9_9 
ROOT
HETATM    1  C3  UNL     1     -42.583  13.278   6.358  1.00 20.00     0.007 C 
HETATM    2  C4  UNL     1     -42.446  13.369   7.874  1.00 20.00     0.032 C 
HETATM    3  C5  UNL     1     -40.554  14.467   6.762  1.00 20.00     0.036 C 
HETATM    4  C7  UNL     1     -41.154  13.408   5.834  1.00 20.00    -0.008 C 
HETATM    5  C8  UNL     1     -41.217  14.246   8.123  1.00 20.00     0.118 C 
ENDROOT
BRANCH   4   6
HETATM    6  C6  UNL     1     -40.390  12.087   5.891  1.00 20.00    -0.010 A 
HETATM    7  C1  UNL     1     -39.487  11.684   4.758  1.00 20.00     0.005 A 
HETATM    8  C2  UNL     1     -38.898  12.083   6.083  1.00 20.00     0.005 A 
ENDBRANCH   4   6
BRANCH   5   9
HETATM    9  O9  UNL     1     -40.310  13.583   8.994  1.00 20.00    -0.396 OA
HETATM   10  H23 UNL     1     -40.764  12.786   9.312  1.00 20.00     0.210 HD
ENDBRANCH   5   9
TORSDOF 2
ENDMDL
MODEL 7
REMARK VINA RESULT:      -3.9     15.936     16.845
REMARK  2 active torsions:
REMARK  status: ('A' for Active; 'I' for Inactive)
REMARK    1  A    between atoms: C6_6  and  C7_7 
REMARK    2  A    between atoms: C8_8  and  O9_9 
ROOT
HETATM    1  C3  UNL     1     -24.925  18.574  10.485  1.00 20.00     0.007 C 
HETATM    2  C4  UNL     1     -25.053  17.417  11.469  1.00 20.00     0.032 C 
HETATM    3  C5  UNL     1     -22.870  18.515  11.697  1.00 20.00     0.036 C 
HETATM    4  C7  UNL     1     -23.421  18.746  10.287  1.00 20.00    -0.008 C 
HETATM    5  C8  UNL     1     -23.789  17.469  12.331  1.00 20.00     0.118 C 
ENDROOT
BRANCH   4   6
HETATM    6  C6  UNL     1     -22.849  17.759   9.272  1.00 20.00    -0.010 A 
HETATM    7  C1  UNL     1     -22.041  18.255   8.105  1.00 20.00     0.005 A 
HETATM    8  C2  UNL     1     -21.369  17.500   9.218  1.00 20.00     0.005 A 
ENDBRANCH   4   6
BRANCH   5   9
HETATM    9  O9  UNL     1     -23.143  16.203  12.332  1.00 20.00    -0.396 OA
HETATM   10  H23 UNL     1     -23.288  15.819  13.212  1.00 20.00     0.210 HD
ENDBRANCH   5   9
TORSDOF 2
ENDMDL
MODEL 8
REMARK VINA RESULT:      -3.8     15.681     16.913
REMARK  2 active torsions:
REMARK  status: ('A' for Active; 'I' for Inactive)
REMARK    1  A    between atoms: C6_6  and  C7_7 
REMARK    2  A    between atoms: C8_8  and  O9_9 
ROOT
HETATM    1  C3  UNL     1     -22.237  18.754  10.863  1.00 20.00     0.007 C 
HETATM    2  C4  UNL     1     -21.295  18.051   9.892  1.00 20.00     0.032 C 
HETATM    3  C5  UNL     1     -23.370  18.715   8.763  1.00 20.00     0.036 C 
HETATM    4  C7  UNL     1     -23.627  18.553  10.263  1.00 20.00    -0.008 C 
HETATM    5  C8  UNL     1     -21.969  18.148   8.522  1.00 20.00     0.118 C 
ENDROOT
BRANCH   4   6
HETATM    6  C6  UNL     1     -24.218  17.187  10.607  1.00 20.00    -0.010 A 
HETATM    7  C1  UNL     1     -23.860  16.510  11.901  1.00 20.00     0.005 A 
HETATM    8  C2  UNL     1     -25.245  17.060  11.698  1.00 20.00     0.005 A 
ENDBRANCH   4   6
BRANCH   5   9
HETATM    9  O9  UNL     1     -22.071  16.859   7.932  1.00 20.00    -0.396 OA
HETATM   10  H23 UNL     1     -22.434  16.989   7.041  1.00 20.00     0.210 HD
ENDBRANCH   5   9
TORSDOF 2
ENDMDL
MODEL 9
REMARK VINA RESULT:      -3.7      9.039      9.826
REMARK  2 active torsions:
REMARK  status: ('A' for Active; 'I' for Inactive)
REMARK    1  A    between atoms: C6_6  and  C7_7 
REMARK    2  A    between atoms: C8_8  and  O9_9 
ROOT
HETATM    1  C3  UNL     1     -43.417   6.512  -0.340  1.00 20.00     0.007 C 
HETATM    2  C4  UNL     1     -43.088   5.024  -0.308  1.00 20.00     0.032 C 
HETATM    3  C5  UNL     1     -43.191   5.941   1.966  1.00 20.00     0.036 C 
HETATM    4  C7  UNL     1     -42.860   7.058   0.973  1.00 20.00    -0.008 C 
HETATM    5  C8  UNL     1     -43.077   4.637   1.173  1.00 20.00     0.118 C 
ENDROOT
BRANCH   4   6
HETATM    6  C6  UNL     1     -41.360   7.341   0.897  1.00 20.00    -0.010 A 
HETATM    7  C1  UNL     1     -40.597   7.049  -0.365  1.00 20.00     0.005 A 
HETATM    8  C2  UNL     1     -40.847   8.472   0.051  1.00 20.00     0.005 A 
ENDBRANCH   4   6
BRANCH   5   9
HETATM    9  O9  UNL     1     -41.857   3.984   1.500  1.00 20.00    -0.396 OA
HETATM   10  H23 UNL     1     -41.242   4.164   0.771  1.00 20.00     0.210 HD
ENDBRANCH   5   9
TORSDOF 2
ENDMDL
