MODEL 1
REMARK VINA RESULT:      -5.1      0.000      0.000
REMARK  1 active torsions:
REMARK  status: ('A' for Active; 'I' for Inactive)
REMARK    1  A    between atoms: C4_4  and  C8_8 
ROOT
HETATM    1  C1  UNL     1     -33.137   8.358   5.239  1.00 20.00     0.006 C 
HETATM    2  C2  UNL     1     -32.532   8.907   3.943  1.00 20.00     0.020 C 
HETATM    3  C3  UNL     1     -33.177   6.650   3.512  1.00 20.00     0.025 C 
HETATM    4  C4  UNL     1     -33.318   6.848   5.022  1.00 20.00    -0.010 C 
HETATM    5  C5  UNL     1     -32.110   7.674   3.154  1.00 20.00     0.082 C 
HETATM    6 CL9  UNL     1     -32.029   7.981   1.413  1.00 20.00    -0.125 Cl
ENDROOT
BRANCH   4   7
HETATM    7  C8  UNL     1     -34.633   6.317   5.570  1.00 20.00    -0.019 C 
HETATM    8  C6  UNL     1     -35.532   5.823   4.436  1.00 20.00     0.010 C 
HETATM    9  C7  UNL     1     -34.385   5.197   6.580  1.00 20.00     0.010 C 
ENDBRANCH   4   7
TORSDOF 1
ENDMDL
MODEL 2
REMARK VINA RESULT:      -5.0      1.707      2.172
REMARK  1 active torsions:
REMARK  status: ('A' for Active; 'I' for Inactive)
REMARK    1  A    between atoms: C4_4  and  C8_8 
ROOT
HETATM    1  C1  UNL     1     -33.145   6.241   3.204  1.00 20.00     0.006 C 
HETATM    2  C2  UNL     1     -32.184   7.426   3.344  1.00 20.00     0.020 C 
HETATM    3  C3  UNL     1     -33.754   7.583   5.133  1.00 20.00     0.025 C 
HETATM    4  C4  UNL     1     -34.283   6.490   4.205  1.00 20.00    -0.010 C 
HETATM    5  C5  UNL     1     -32.942   8.448   4.181  1.00 20.00     0.082 C 
HETATM    6 CL9  UNL     1     -31.860   9.558   5.035  1.00 20.00    -0.125 Cl
ENDROOT
BRANCH   4   7
HETATM    7  C8  UNL     1     -34.714   5.236   4.948  1.00 20.00    -0.019 C 
HETATM    8  C6  UNL     1     -33.884   4.031   4.504  1.00 20.00     0.010 C 
HETATM    9  C7  UNL     1     -34.599   5.436   6.459  1.00 20.00     0.010 C 
ENDBRANCH   4   7
TORSDOF 1
ENDMDL
MODEL 3
REMARK VINA RESULT:      -4.3      2.367      3.938
REMARK  1 active torsions:
REMARK  status: ('A' for Active; 'I' for Inactive)
REMARK    1  A    between atoms: C4_4  and  C8_8 
ROOT
HETATM    1  C1  UNL     1     -33.244   8.467   5.563  1.00 20.00     0.006 C 
HETATM    2  C2  UNL     1     -33.723   7.342   6.486  1.00 20.00     0.020 C 
HETATM    3  C3  UNL     1     -33.844   6.513   4.252  1.00 20.00     0.025 C 
HETATM    4  C4  UNL     1     -33.557   8.009   4.130  1.00 20.00    -0.010 C 
HETATM    5  C5  UNL     1     -34.557   6.431   5.593  1.00 20.00     0.082 C 
HETATM    6 CL9  UNL     1     -34.643   4.775   6.211  1.00 20.00    -0.125 Cl
ENDROOT
BRANCH   4   7
HETATM    7  C8  UNL     1     -32.443   8.323   3.144  1.00 20.00    -0.019 C 
HETATM    8  C6  UNL     1     -31.999   7.057   2.410  1.00 20.00     0.010 C 
HETATM    9  C7  UNL     1     -32.890   9.390   2.145  1.00 20.00     0.010 C 
ENDBRANCH   4   7
TORSDOF 1
ENDMDL
MODEL 4
REMARK VINA RESULT:      -4.1      2.152      3.797
REMARK  1 active torsions:
REMARK  status: ('A' for Active; 'I' for Inactive)
REMARK    1  A    between atoms: C4_4  and  C8_8 
ROOT
HETATM    1  C1  UNL     1     -33.966   7.435   5.982  1.00 20.00     0.006 C 
HETATM    2  C2  UNL     1     -34.086   5.927   6.225  1.00 20.00     0.020 C 
HETATM    3  C3  UNL     1     -33.696   6.231   3.891  1.00 20.00     0.025 C 
HETATM    4  C4  UNL     1     -33.962   7.626   4.458  1.00 20.00    -0.010 C 
HETATM    5  C5  UNL     1     -34.448   5.339   4.867  1.00 20.00     0.082 C 
HETATM    6 CL9  UNL     1     -33.983   3.638   4.721  1.00 20.00    -0.125 Cl
ENDROOT
BRANCH   4   7
HETATM    7  C8  UNL     1     -32.954   8.661   3.986  1.00 20.00    -0.019 C 
HETATM    8  C6  UNL     1     -32.078   9.133   5.147  1.00 20.00     0.010 C 
HETATM    9  C7  UNL     1     -32.087   8.098   2.859  1.00 20.00     0.010 C 
ENDBRANCH   4   7
TORSDOF 1
ENDMDL
MODEL 5
REMARK VINA RESULT:      -3.9      1.780      3.197
REMARK  1 active torsions:
REMARK  status: ('A' for Active; 'I' for Inactive)
REMARK    1  A    between atoms: C4_4  and  C8_8 
ROOT
HETATM    1  C1  UNL     1     -34.654   5.694   5.147  1.00 20.00     0.006 C 
HETATM    2  C2  UNL     1     -34.109   4.507   4.345  1.00 20.00     0.020 C 
HETATM    3  C3  UNL     1     -33.144   6.482   3.415  1.00 20.00     0.025 C 
HETATM    4  C4  UNL     1     -34.222   6.959   4.389  1.00 20.00    -0.010 C 
HETATM    5  C5  UNL     1     -33.656   5.106   3.019  1.00 20.00     0.082 C 
HETATM    6 CL9  UNL     1     -32.414   4.127   2.225  1.00 20.00    -0.125 Cl
ENDROOT
BRANCH   4   7
HETATM    7  C8  UNL     1     -33.744   8.073   5.306  1.00 20.00    -0.019 C 
HETATM    8  C6  UNL     1     -33.647   7.581   6.751  1.00 20.00     0.010 C 
HETATM    9  C7  UNL     1     -32.396   8.619   4.837  1.00 20.00     0.010 C 
ENDBRANCH   4   7
TORSDOF 1
ENDMDL
MODEL 6
REMARK VINA RESULT:      -3.9     12.070     12.632
REMARK  1 active torsions:
REMARK  status: ('A' for Active; 'I' for Inactive)
REMARK    1  A    between atoms: C4_4  and  C8_8 
ROOT
HETATM    1  C1  UNL     1     -31.544  18.431  -0.685  1.00 20.00     0.006 C 
HETATM    2  C2  UNL     1     -30.810  18.526   0.656  1.00 20.00     0.020 C 
HETATM    3  C3  UNL     1     -33.138  18.778   1.115  1.00 20.00     0.025 C 
HETATM    4  C4  UNL     1     -33.000  18.837  -0.407  1.00 20.00    -0.010 C 
HETATM    5  C5  UNL     1     -31.773  19.263   1.579  1.00 20.00     0.082 C 
HETATM    6 CL9  UNL     1     -31.476  18.906   3.287  1.00 20.00    -0.125 Cl
ENDROOT
BRANCH   4   7
HETATM    7  C8  UNL     1     -34.014  17.965  -1.129  1.00 20.00    -0.019 C 
HETATM    8  C6  UNL     1     -34.989  18.823  -1.937  1.00 20.00     0.010 C 
HETATM    9  C7  UNL     1     -33.311  16.957  -2.038  1.00 20.00     0.010 C 
ENDBRANCH   4   7
TORSDOF 1
ENDMDL
MODEL 7
REMARK VINA RESULT:      -3.8      1.213      2.290
REMARK  1 active torsions:
REMARK  status: ('A' for Active; 'I' for Inactive)
REMARK    1  A    between atoms: C4_4  and  C8_8 
ROOT
HETATM    1  C1  UNL     1     -33.933   4.864   3.900  1.00 20.00     0.006 C 
HETATM    2  C2  UNL     1     -32.922   5.287   2.830  1.00 20.00     0.020 C 
HETATM    3  C3  UNL     1     -33.602   7.269   3.969  1.00 20.00     0.025 C 
HETATM    4  C4  UNL     1     -34.539   6.163   4.453  1.00 20.00    -0.010 C 
HETATM    5  C5  UNL     1     -33.197   6.766   2.592  1.00 20.00     0.082 C 
HETATM    6 CL9  UNL     1     -31.786   7.621   1.951  1.00 20.00    -0.125 Cl
ENDROOT
BRANCH   4   7
HETATM    7  C8  UNL     1     -34.711   6.148   5.964  1.00 20.00    -0.019 C 
HETATM    8  C6  UNL     1     -34.186   4.840   6.556  1.00 20.00     0.010 C 
HETATM    9  C7  UNL     1     -34.003   7.344   6.601  1.00 20.00     0.010 C 
ENDBRANCH   4   7
TORSDOF 1
ENDMDL
MODEL 8
REMARK VINA RESULT:      -3.7     11.709     12.716
REMARK  1 active torsions:
REMARK  status: ('A' for Active; 'I' for Inactive)
REMARK    1  A    between atoms: C4_4  and  C8_8 
ROOT
HETATM    1  C1  UNL     1     -33.939  18.377  -3.766  1.00 20.00     0.006 C 
HETATM    2  C2  UNL     1     -34.491  17.144  -4.488  1.00 20.00     0.020 C 
HETATM    3  C3  UNL     1     -33.236  16.356  -2.619  1.00 20.00     0.025 C 
HETATM    4  C4  UNL     1     -32.942  17.853  -2.721  1.00 20.00    -0.010 C 
HETATM    5  C5  UNL     1     -33.585  15.998  -4.055  1.00 20.00     0.082 C 
HETATM    6 CL9  UNL     1     -34.381  14.423  -4.183  1.00 20.00    -0.125 Cl
ENDROOT
BRANCH   4   7
HETATM    7  C8  UNL     1     -33.040  18.570  -1.385  1.00 20.00    -0.019 C 
HETATM    8  C6  UNL     1     -33.976  17.821  -0.435  1.00 20.00     0.010 C 
HETATM    9  C7  UNL     1     -31.657  18.731  -0.754  1.00 20.00     0.010 C 
ENDBRANCH   4   7
TORSDOF 1
ENDMDL
MODEL 9
REMARK VINA RESULT:      -3.5     12.175     12.601
REMARK  1 active torsions:
REMARK  status: ('A' for Active; 'I' for Inactive)
REMARK    1  A    between atoms: C4_4  and  C8_8 
ROOT
HETATM    1  C1  UNL     1     -31.668  19.038   3.513  1.00 20.00     0.006 C 
HETATM    2  C2  UNL     1     -30.384  19.262   4.318  1.00 20.00     0.020 C 
HETATM    3  C3  UNL     1     -29.728  18.777   2.076  1.00 20.00     0.025 C 
HETATM    4  C4  UNL     1     -31.228  18.491   2.147  1.00 20.00    -0.010 C 
HETATM    5  C5  UNL     1     -29.292  18.563   3.518  1.00 20.00     0.082 C 
HETATM    6 CL9  UNL     1     -27.685  19.228   3.842  1.00 20.00    -0.125 Cl
ENDROOT
BRANCH   4   7
HETATM    7  C8  UNL     1     -32.002  19.090   0.984  1.00 20.00    -0.019 C 
HETATM    8  C6  UNL     1     -31.323  18.760  -0.346  1.00 20.00     0.010 C 
HETATM    9  C7  UNL     1     -33.447  18.592   0.982  1.00 20.00     0.010 C 
ENDBRANCH   4   7
TORSDOF 1
ENDMDL
