MODEL 1
REMARK VINA RESULT:      -3.6      0.000      0.000
REMARK  1 active torsions:
REMARK  status: ('A' for Active; 'I' for Inactive)
REMARK    1  A    between atoms: C4_4  and  C9_9 
ROOT
HETATM    1  C1  UNL     1     -34.123  18.276  -0.111  1.00 20.00     0.006 C 
HETATM    2  C2  UNL     1     -33.406  18.871   1.104  1.00 20.00     0.016 C 
HETATM    3  C3  UNL     1     -31.995  19.028  -0.882  1.00 20.00     0.021 C 
HETATM    4  C4  UNL     1     -33.010  17.901  -1.084  1.00 20.00    -0.006 C 
HETATM    5  C5  UNL     1     -32.009  19.263   0.623  1.00 20.00     0.058 C 
HETATM    6 BR10 UNL     1     -30.661  18.137   1.485  1.00 20.00    -0.091 Br
ENDROOT
BRANCH   4   7
HETATM    7  C9  UNL     1     -33.487  17.780  -2.521  1.00 20.00    -0.048 C 
HETATM    8  C6  UNL     1     -33.286  16.338  -3.025  1.00 20.00     0.015 C 
HETATM    9  C7  UNL     1     -32.691  18.740  -3.425  1.00 20.00     0.015 C 
HETATM   10  C8  UNL     1     -34.984  18.135  -2.611  1.00 20.00     0.015 C 
ENDBRANCH   4   7
TORSDOF 1
ENDMDL
MODEL 2
REMARK VINA RESULT:      -3.5      3.160      4.611
REMARK  1 active torsions:
REMARK  status: ('A' for Active; 'I' for Inactive)
REMARK    1  A    between atoms: C4_4  and  C9_9 
ROOT
HETATM    1  C1  UNL     1     -33.656  15.563  -3.814  1.00 20.00     0.006 C 
HETATM    2  C2  UNL     1     -33.293  16.485  -2.645  1.00 20.00     0.016 C 
HETATM    3  C3  UNL     1     -35.029  17.501  -4.030  1.00 20.00     0.021 C 
HETATM    4  C4  UNL     1     -34.259  16.483  -4.871  1.00 20.00    -0.006 C 
HETATM    5  C5  UNL     1     -34.108  17.763  -2.845  1.00 20.00     0.058 C 
HETATM    6 BR10 UNL     1     -32.917  19.263  -3.246  1.00 20.00    -0.091 Br
ENDROOT
BRANCH   4   7
HETATM    7  C9  UNL     1     -35.138  15.749  -5.869  1.00 20.00    -0.048 C 
HETATM    8  C6  UNL     1     -34.363  15.512  -7.181  1.00 20.00     0.015 C 
HETATM    9  C7  UNL     1     -36.397  16.582  -6.178  1.00 20.00     0.015 C 
HETATM   10  C8  UNL     1     -35.569  14.387  -5.292  1.00 20.00     0.015 C 
ENDBRANCH   4   7
TORSDOF 1
ENDMDL
MODEL 3
REMARK VINA RESULT:      -3.5     12.029     12.950
REMARK  1 active torsions:
REMARK  status: ('A' for Active; 'I' for Inactive)
REMARK    1  A    between atoms: C4_4  and  C9_9 
ROOT
HETATM    1  C1  UNL     1     -32.730   5.995   2.999  1.00 20.00     0.006 C 
HETATM    2  C2  UNL     1     -31.846   7.125   2.466  1.00 20.00     0.016 C 
HETATM    3  C3  UNL     1     -33.104   7.875   4.420  1.00 20.00     0.021 C 
HETATM    4  C4  UNL     1     -33.838   6.694   3.781  1.00 20.00    -0.006 C 
HETATM    5  C5  UNL     1     -32.162   8.352   3.322  1.00 20.00     0.058 C 
HETATM    6 BR10 UNL     1     -33.044   9.720   2.235  1.00 20.00    -0.091 Br
ENDROOT
BRANCH   4   7
HETATM    7  C9  UNL     1     -34.512   5.791   4.800  1.00 20.00    -0.048 C 
HETATM    8  C6  UNL     1     -34.305   6.351   6.221  1.00 20.00     0.015 C 
HETATM    9  C7  UNL     1     -33.911   4.374   4.729  1.00 20.00     0.015 C 
HETATM   10  C8  UNL     1     -36.024   5.707   4.513  1.00 20.00     0.015 C 
ENDBRANCH   4   7
TORSDOF 1
ENDMDL
MODEL 4
REMARK VINA RESULT:      -3.4      3.390      5.109
REMARK  1 active torsions:
REMARK  status: ('A' for Active; 'I' for Inactive)
REMARK    1  A    between atoms: C4_4  and  C9_9 
ROOT
HETATM    1  C1  UNL     1     -33.190  15.864  -3.410  1.00 20.00     0.006 C 
HETATM    2  C2  UNL     1     -33.537  14.997  -4.624  1.00 20.00     0.016 C 
HETATM    3  C3  UNL     1     -34.350  17.278  -4.942  1.00 20.00     0.021 C 
HETATM    4  C4  UNL     1     -34.194  17.013  -3.444  1.00 20.00    -0.006 C 
HETATM    5  C5  UNL     1     -34.361  15.884  -5.557  1.00 20.00     0.058 C 
HETATM    6 BR10 UNL     1     -36.199  15.220  -5.666  1.00 20.00    -0.091 Br
ENDROOT
BRANCH   4   7
HETATM    7  C9  UNL     1     -33.731  18.234  -2.668  1.00 20.00    -0.048 C 
HETATM    8  C6  UNL     1     -34.944  18.967  -2.063  1.00 20.00     0.015 C 
HETATM    9  C7  UNL     1     -32.980  19.201  -3.604  1.00 20.00     0.015 C 
HETATM   10  C8  UNL     1     -32.786  17.808  -1.528  1.00 20.00     0.015 C 
ENDBRANCH   4   7
TORSDOF 1
ENDMDL
MODEL 5
REMARK VINA RESULT:      -3.4      3.381      5.061
REMARK  1 active torsions:
REMARK  status: ('A' for Active; 'I' for Inactive)
REMARK    1  A    between atoms: C4_4  and  C9_9 
ROOT
HETATM    1  C1  UNL     1     -33.182  15.884  -3.405  1.00 20.00     0.006 C 
HETATM    2  C2  UNL     1     -33.548  15.036  -4.626  1.00 20.00     0.016 C 
HETATM    3  C3  UNL     1     -34.353  17.325  -4.902  1.00 20.00     0.021 C 
HETATM    4  C4  UNL     1     -34.180  17.038  -3.410  1.00 20.00    -0.006 C 
HETATM    5  C5  UNL     1     -34.379  15.940  -5.537  1.00 20.00     0.058 C 
HETATM    6 BR10 UNL     1     -36.222  15.287  -5.632  1.00 20.00    -0.091 Br
ENDROOT
BRANCH   4   7
HETATM    7  C9  UNL     1     -33.701  18.246  -2.623  1.00 20.00    -0.048 C 
HETATM    8  C6  UNL     1     -32.976  19.232  -3.559  1.00 20.00     0.015 C 
HETATM    9  C7  UNL     1     -32.727  17.802  -1.514  1.00 20.00     0.015 C 
HETATM   10  C8  UNL     1     -34.901  18.964  -1.975  1.00 20.00     0.015 C 
ENDBRANCH   4   7
TORSDOF 1
ENDMDL
MODEL 6
REMARK VINA RESULT:      -3.4      3.017      4.704
REMARK  1 active torsions:
REMARK  status: ('A' for Active; 'I' for Inactive)
REMARK    1  A    between atoms: C4_4  and  C9_9 
ROOT
HETATM    1  C1  UNL     1     -34.382  17.748  -5.082  1.00 20.00     0.006 C 
HETATM    2  C2  UNL     1     -33.480  18.406  -4.035  1.00 20.00     0.016 C 
HETATM    3  C3  UNL     1     -33.477  15.979  -3.761  1.00 20.00     0.021 C 
HETATM    4  C4  UNL     1     -34.758  16.394  -4.487  1.00 20.00    -0.006 C 
HETATM    5  C5  UNL     1     -32.979  17.276  -3.135  1.00 20.00     0.058 C 
HETATM    6 BR10 UNL     1     -33.721  17.472  -1.334  1.00 20.00    -0.091 Br
ENDROOT
BRANCH   4   7
HETATM    7  C9  UNL     1     -35.204  15.385  -5.531  1.00 20.00    -0.048 C 
HETATM    8  C6  UNL     1     -36.429  15.924  -6.296  1.00 20.00     0.015 C 
HETATM    9  C7  UNL     1     -35.586  14.055  -4.852  1.00 20.00     0.015 C 
HETATM   10  C8  UNL     1     -34.064  15.125  -6.534  1.00 20.00     0.015 C 
ENDBRANCH   4   7
TORSDOF 1
ENDMDL
MODEL 7
REMARK VINA RESULT:      -3.4      3.038      4.594
REMARK  1 active torsions:
REMARK  status: ('A' for Active; 'I' for Inactive)
REMARK    1  A    between atoms: C4_4  and  C9_9 
ROOT
HETATM    1  C1  UNL     1     -34.404  17.772  -5.102  1.00 20.00     0.006 C 
HETATM    2  C2  UNL     1     -33.497  18.423  -4.054  1.00 20.00     0.016 C 
HETATM    3  C3  UNL     1     -33.487  15.995  -3.803  1.00 20.00     0.021 C 
HETATM    4  C4  UNL     1     -34.773  16.412  -4.517  1.00 20.00    -0.006 C 
HETATM    5  C5  UNL     1     -32.989  17.287  -3.167  1.00 20.00     0.058 C 
HETATM    6 BR10 UNL     1     -33.721  17.466  -1.361  1.00 20.00    -0.091 Br
ENDROOT
BRANCH   4   7
HETATM    7  C9  UNL     1     -35.223  15.412  -5.567  1.00 20.00    -0.048 C 
HETATM    8  C6  UNL     1     -34.079  15.142  -6.564  1.00 20.00     0.015 C 
HETATM    9  C7  UNL     1     -36.437  15.965  -6.339  1.00 20.00     0.015 C 
HETATM   10  C8  UNL     1     -35.622  14.084  -4.895  1.00 20.00     0.015 C 
ENDBRANCH   4   7
TORSDOF 1
ENDMDL
MODEL 8
REMARK VINA RESULT:      -3.4     11.429     12.300
REMARK  1 active torsions:
REMARK  status: ('A' for Active; 'I' for Inactive)
REMARK    1  A    between atoms: C4_4  and  C9_9 
ROOT
HETATM    1  C1  UNL     1     -40.320  14.341   8.385  1.00 20.00     0.006 C 
HETATM    2  C2  UNL     1     -40.580  15.659   9.120  1.00 20.00     0.016 C 
HETATM    3  C3  UNL     1     -41.971  15.509   7.119  1.00 20.00     0.021 C 
HETATM    4  C4  UNL     1     -40.753  14.599   6.945  1.00 20.00    -0.006 C 
HETATM    5  C5  UNL     1     -41.567  16.442   8.254  1.00 20.00     0.058 C 
HETATM    6 BR10 UNL     1     -40.701  18.039   7.526  1.00 20.00    -0.091 Br
ENDROOT
BRANCH   4   7
HETATM    7  C9  UNL     1     -41.066  13.326   6.178  1.00 20.00    -0.048 C 
HETATM    8  C6  UNL     1     -41.477  13.667   4.732  1.00 20.00     0.015 C 
HETATM    9  C7  UNL     1     -42.222  12.568   6.860  1.00 20.00     0.015 C 
HETATM   10  C8  UNL     1     -39.824  12.413   6.141  1.00 20.00     0.015 C 
ENDBRANCH   4   7
TORSDOF 1
ENDMDL
MODEL 9
REMARK VINA RESULT:      -3.2      3.303      4.823
REMARK  1 active torsions:
REMARK  status: ('A' for Active; 'I' for Inactive)
REMARK    1  A    between atoms: C4_4  and  C9_9 
ROOT
HETATM    1  C1  UNL     1     -34.473  17.697  -5.706  1.00 20.00     0.006 C 
HETATM    2  C2  UNL     1     -34.128  18.929  -4.865  1.00 20.00     0.016 C 
HETATM    3  C3  UNL     1     -33.698  16.884  -3.602  1.00 20.00     0.021 C 
HETATM    4  C4  UNL     1     -34.727  16.584  -4.694  1.00 20.00    -0.006 C 
HETATM    5  C5  UNL     1     -33.723  18.403  -3.488  1.00 20.00     0.058 C 
HETATM    6 BR10 UNL     1     -35.040  18.949  -2.147  1.00 20.00    -0.091 Br
ENDROOT
BRANCH   4   7
HETATM    7  C9  UNL     1     -34.579  15.193  -5.285  1.00 20.00    -0.048 C 
HETATM    8  C6  UNL     1     -35.954  14.500  -5.354  1.00 20.00     0.015 C 
HETATM    9  C7  UNL     1     -33.635  14.345  -4.412  1.00 20.00     0.015 C 
HETATM   10  C8  UNL     1     -33.995  15.284  -6.708  1.00 20.00     0.015 C 
ENDBRANCH   4   7
TORSDOF 1
ENDMDL
