MODEL 1
REMARK VINA RESULT:      -5.3      0.000      0.000
REMARK  2 active torsions:
REMARK  status: ('A' for Active; 'I' for Inactive)
REMARK    1  A    between atoms: C2_2  and  C9_9 
REMARK    2  A    between atoms: C7_7  and  C9_9 
ROOT
HETATM    1  C1  UNL     1     -32.595   8.870   2.118  1.00 20.00    -0.111 C 
HETATM    2  C2  UNL     1     -32.646   8.829   3.318  1.00 20.00    -0.107 C 
HETATM    3  C8  UNL     1     -32.533   8.920   0.658  1.00 20.00     0.112 C 
ENDROOT
BRANCH   2   4
HETATM    4  C9  UNL     1     -32.712   8.781   4.783  1.00 20.00     0.099 C 
BRANCH   4   5
HETATM    5  C7  UNL     1     -33.034   7.379   5.275  1.00 20.00     0.004 C 
HETATM    6  C5  UNL     1     -33.695   6.510   4.204  1.00 20.00     0.083 C 
HETATM    7  C3  UNL     1     -34.463   5.521   5.042  1.00 20.00     0.127 C 
HETATM    8  C4  UNL     1     -34.529   5.930   6.490  1.00 20.00     0.079 C 
HETATM    9  O10 UNL     1     -34.973   4.500   4.597  1.00 20.00    -0.298 OA
HETATM   10  C6  UNL     1     -34.037   7.371   6.429  1.00 20.00     0.013 C 
ENDBRANCH   4   5
ENDBRANCH   2   4
TORSDOF 2
ENDMDL
MODEL 2
REMARK VINA RESULT:      -5.2      0.969      1.591
REMARK  2 active torsions:
REMARK  status: ('A' for Active; 'I' for Inactive)
REMARK    1  A    between atoms: C2_2  and  C9_9 
REMARK    2  A    between atoms: C7_7  and  C9_9 
ROOT
HETATM    1  C1  UNL     1     -32.611   8.981   1.736  1.00 20.00    -0.111 C 
HETATM    2  C2  UNL     1     -32.605   8.704   2.905  1.00 20.00    -0.107 C 
HETATM    3  C8  UNL     1     -32.618   9.319   0.313  1.00 20.00     0.112 C 
ENDROOT
BRANCH   2   4
HETATM    4  C9  UNL     1     -32.601   8.365   4.333  1.00 20.00     0.099 C 
BRANCH   4   5
HETATM    5  C7  UNL     1     -33.775   7.468   4.689  1.00 20.00     0.004 C 
HETATM    6  C5  UNL     1     -33.749   7.004   6.147  1.00 20.00     0.083 C 
HETATM    7  C3  UNL     1     -34.530   5.717   6.074  1.00 20.00     0.127 C 
HETATM    8  C4  UNL     1     -34.750   5.263   4.654  1.00 20.00     0.079 C 
HETATM    9  O10 UNL     1     -34.942   5.112   7.055  1.00 20.00    -0.298 OA
HETATM   10  C6  UNL     1     -33.791   6.166   3.887  1.00 20.00     0.013 C 
ENDBRANCH   4   5
ENDBRANCH   2   4
TORSDOF 2
ENDMDL
MODEL 3
REMARK VINA RESULT:      -4.5     11.932     12.910
REMARK  2 active torsions:
REMARK  status: ('A' for Active; 'I' for Inactive)
REMARK    1  A    between atoms: C2_2  and  C9_9 
REMARK    2  A    between atoms: C7_7  and  C9_9 
ROOT
HETATM    1  C1  UNL     1     -33.547  17.269  -1.480  1.00 20.00    -0.111 C 
HETATM    2  C2  UNL     1     -33.374  16.663  -2.502  1.00 20.00    -0.107 C 
HETATM    3  C8  UNL     1     -33.757  18.006  -0.234  1.00 20.00     0.112 C 
ENDROOT
BRANCH   2   4
HETATM    4  C9  UNL     1     -33.166  15.922  -3.752  1.00 20.00     0.099 C 
BRANCH   4   5
HETATM    5  C7  UNL     1     -34.490  15.578  -4.416  1.00 20.00     0.004 C 
HETATM    6  C5  UNL     1     -34.323  14.701  -5.657  1.00 20.00     0.083 C 
HETATM    7  C3  UNL     1     -35.563  15.041  -6.443  1.00 20.00     0.127 C 
HETATM    8  C4  UNL     1     -36.274  16.250  -5.892  1.00 20.00     0.079 C 
HETATM    9  O10 UNL     1     -35.950  14.406  -7.416  1.00 20.00    -0.298 OA
HETATM   10  C6  UNL     1     -35.232  16.812  -4.932  1.00 20.00     0.013 C 
ENDBRANCH   4   5
ENDBRANCH   2   4
TORSDOF 2
ENDMDL
MODEL 4
REMARK VINA RESULT:      -4.5      2.332      4.615
REMARK  2 active torsions:
REMARK  status: ('A' for Active; 'I' for Inactive)
REMARK    1  A    between atoms: C2_2  and  C9_9 
REMARK    2  A    between atoms: C7_7  and  C9_9 
ROOT
HETATM    1  C1  UNL     1     -34.143   6.399   5.970  1.00 20.00    -0.111 C 
HETATM    2  C2  UNL     1     -33.601   7.430   5.677  1.00 20.00    -0.107 C 
HETATM    3  C8  UNL     1     -34.802   5.144   6.327  1.00 20.00     0.112 C 
ENDROOT
BRANCH   2   4
HETATM    4  C9  UNL     1     -32.941   8.690   5.315  1.00 20.00     0.099 C 
BRANCH   4   5
HETATM    5  C7  UNL     1     -32.266   8.589   3.956  1.00 20.00     0.004 C 
HETATM    6  C5  UNL     1     -32.868   9.540   2.921  1.00 20.00     0.083 C 
HETATM    7  C3  UNL     1     -32.541   8.835   1.629  1.00 20.00     0.127 C 
HETATM    8  C4  UNL     1     -32.061   7.425   1.855  1.00 20.00     0.079 C 
HETATM    9  O10 UNL     1     -32.649   9.351   0.524  1.00 20.00    -0.298 OA
HETATM   10  C6  UNL     1     -32.417   7.206   3.320  1.00 20.00     0.013 C 
ENDBRANCH   4   5
ENDBRANCH   2   4
TORSDOF 2
ENDMDL
MODEL 5
REMARK VINA RESULT:      -4.3      1.571      2.196
REMARK  2 active torsions:
REMARK  status: ('A' for Active; 'I' for Inactive)
REMARK    1  A    between atoms: C2_2  and  C9_9 
REMARK    2  A    between atoms: C7_7  and  C9_9 
ROOT
HETATM    1  C1  UNL     1     -32.536   8.373   1.163  1.00 20.00    -0.111 C 
HETATM    2  C2  UNL     1     -32.529   7.416   1.889  1.00 20.00    -0.107 C 
HETATM    3  C8  UNL     1     -32.543   9.539   0.281  1.00 20.00     0.112 C 
ENDROOT
BRANCH   2   4
HETATM    4  C9  UNL     1     -32.526   6.247   2.777  1.00 20.00     0.099 C 
BRANCH   4   5
HETATM    5  C7  UNL     1     -33.675   6.304   3.769  1.00 20.00     0.004 C 
HETATM    6  C5  UNL     1     -33.371   7.186   4.981  1.00 20.00     0.083 C 
HETATM    7  C3  UNL     1     -34.276   6.591   6.030  1.00 20.00     0.127 C 
HETATM    8  C4  UNL     1     -34.852   5.267   5.600  1.00 20.00     0.079 C 
HETATM    9  O10 UNL     1     -34.517   7.124   7.105  1.00 20.00    -0.298 OA
HETATM   10  C6  UNL     1     -34.003   4.940   4.378  1.00 20.00     0.013 C 
ENDBRANCH   4   5
ENDBRANCH   2   4
TORSDOF 2
ENDMDL
MODEL 6
REMARK VINA RESULT:      -4.3     11.829     12.544
REMARK  2 active torsions:
REMARK  status: ('A' for Active; 'I' for Inactive)
REMARK    1  A    between atoms: C2_2  and  C9_9 
REMARK    2  A    between atoms: C7_7  and  C9_9 
ROOT
HETATM    1  C1  UNL     1     -33.552  16.219  -3.491  1.00 20.00    -0.111 C 
HETATM    2  C2  UNL     1     -34.054  17.160  -2.939  1.00 20.00    -0.107 C 
HETATM    3  C8  UNL     1     -32.940  15.074  -4.163  1.00 20.00     0.112 C 
ENDROOT
BRANCH   2   4
HETATM    4  C9  UNL     1     -34.669  18.312  -2.267  1.00 20.00     0.099 C 
BRANCH   4   5
HETATM    5  C7  UNL     1     -33.766  18.860  -1.175  1.00 20.00     0.004 C 
HETATM    6  C5  UNL     1     -32.286  18.846  -1.563  1.00 20.00     0.083 C 
HETATM    7  C3  UNL     1     -31.616  18.786  -0.214  1.00 20.00     0.127 C 
HETATM    8  C4  UNL     1     -32.588  18.473   0.893  1.00 20.00     0.079 C 
HETATM    9  O10 UNL     1     -30.419  18.974  -0.039  1.00 20.00    -0.298 OA
HETATM   10  C6  UNL     1     -33.819  18.033   0.110  1.00 20.00     0.013 C 
ENDBRANCH   4   5
ENDBRANCH   2   4
TORSDOF 2
ENDMDL
MODEL 7
REMARK VINA RESULT:      -4.2     12.095     13.031
REMARK  2 active torsions:
REMARK  status: ('A' for Active; 'I' for Inactive)
REMARK    1  A    between atoms: C2_2  and  C9_9 
REMARK    2  A    between atoms: C7_7  and  C9_9 
ROOT
HETATM    1  C1  UNL     1     -30.981  18.535   1.772  1.00 20.00    -0.111 C 
HETATM    2  C2  UNL     1     -31.936  18.429   1.053  1.00 20.00    -0.107 C 
HETATM    3  C8  UNL     1     -29.817  18.664   2.648  1.00 20.00     0.112 C 
ENDROOT
BRANCH   2   4
HETATM    4  C9  UNL     1     -33.107  18.297   0.177  1.00 20.00     0.099 C 
BRANCH   4   5
HETATM    5  C7  UNL     1     -32.692  18.014  -1.258  1.00 20.00     0.004 C 
HETATM    6  C5  UNL     1     -32.936  19.199  -2.193  1.00 20.00     0.083 C 
HETATM    7  C3  UNL     1     -33.085  18.513  -3.527  1.00 20.00     0.127 C 
HETATM    8  C4  UNL     1     -33.235  17.021  -3.387  1.00 20.00     0.079 C 
HETATM    9  O10 UNL     1     -33.081  19.101  -4.601  1.00 20.00    -0.298 OA
HETATM   10  C6  UNL     1     -33.489  16.873  -1.891  1.00 20.00     0.013 C 
ENDBRANCH   4   5
ENDBRANCH   2   4
TORSDOF 2
ENDMDL
MODEL 8
REMARK VINA RESULT:      -4.2     11.763     12.747
REMARK  2 active torsions:
REMARK  status: ('A' for Active; 'I' for Inactive)
REMARK    1  A    between atoms: C2_2  and  C9_9 
REMARK    2  A    between atoms: C7_7  and  C9_9 
ROOT
HETATM    1  C1  UNL     1     -32.274  18.284  -1.161  1.00 20.00    -0.111 C 
HETATM    2  C2  UNL     1     -33.137  18.119  -1.980  1.00 20.00    -0.107 C 
HETATM    3  C8  UNL     1     -31.224  18.484  -0.163  1.00 20.00     0.112 C 
ENDROOT
BRANCH   2   4
HETATM    4  C9  UNL     1     -34.188  17.918  -2.984  1.00 20.00     0.099 C 
BRANCH   4   5
HETATM    5  C7  UNL     1     -33.761  16.907  -4.035  1.00 20.00     0.004 C 
HETATM    6  C5  UNL     1     -34.835  16.660  -5.095  1.00 20.00     0.083 C 
HETATM    7  C3  UNL     1     -34.490  15.269  -5.564  1.00 20.00     0.127 C 
HETATM    8  C4  UNL     1     -33.493  14.594  -4.660  1.00 20.00     0.079 C 
HETATM    9  O10 UNL     1     -34.964  14.750  -6.567  1.00 20.00    -0.298 OA
HETATM   10  C6  UNL     1     -33.493  15.520  -3.449  1.00 20.00     0.013 C 
ENDBRANCH   4   5
ENDBRANCH   2   4
TORSDOF 2
ENDMDL
MODEL 9
REMARK VINA RESULT:      -4.1     12.020     12.570
REMARK  2 active torsions:
REMARK  status: ('A' for Active; 'I' for Inactive)
REMARK    1  A    between atoms: C2_2  and  C9_9 
REMARK    2  A    between atoms: C7_7  and  C9_9 
ROOT
HETATM    1  C1  UNL     1     -29.034  18.952   3.346  1.00 20.00    -0.111 C 
HETATM    2  C2  UNL     1     -30.218  18.938   3.144  1.00 20.00    -0.107 C 
HETATM    3  C8  UNL     1     -27.593  18.969   3.592  1.00 20.00     0.112 C 
ENDROOT
BRANCH   2   4
HETATM    4  C9  UNL     1     -31.665  18.924   2.895  1.00 20.00     0.099 C 
BRANCH   4   5
HETATM    5  C7  UNL     1     -31.973  19.155   1.425  1.00 20.00     0.004 C 
HETATM    6  C5  UNL     1     -33.341  18.609   1.011  1.00 20.00     0.083 C 
HETATM    7  C3  UNL     1     -33.140  18.361  -0.462  1.00 20.00     0.127 C 
HETATM    8  C4  UNL     1     -31.690  18.444  -0.862  1.00 20.00     0.079 C 
HETATM    9  O10 UNL     1     -34.051  18.121  -1.244  1.00 20.00    -0.298 OA
HETATM   10  C6  UNL     1     -30.993  18.440   0.494  1.00 20.00     0.013 C 
ENDBRANCH   4   5
ENDBRANCH   2   4
TORSDOF 2
ENDMDL
