MODEL 1
REMARK VINA RESULT:      -5.3      0.000      0.000
REMARK  1 active torsions:
REMARK  status: ('A' for Active; 'I' for Inactive)
REMARK    1  A    between atoms: C8_8  and  C9_9 
ROOT
HETATM    1  C1  UNL     1     -32.864   9.519   1.031  1.00 20.00     0.012 C 
HETATM    2  C2  UNL     1     -32.534   8.670   1.811  1.00 20.00    -0.117 C 
HETATM    3  C9  UNL     1     -32.120   7.631   2.760  1.00 20.00     0.098 C 
ENDROOT
BRANCH   3   4
HETATM    4  C8  UNL     1     -33.222   7.350   3.779  1.00 20.00     0.004 C 
HETATM    5  C5  UNL     1     -33.466   5.845   3.905  1.00 20.00     0.083 C 
HETATM    6  C3  UNL     1     -34.479   5.556   4.992  1.00 20.00     0.127 C 
HETATM    7  C4  UNL     1     -34.231   6.205   6.334  1.00 20.00     0.078 C 
HETATM    8  O10 UNL     1     -35.396   4.755   4.822  1.00 20.00    -0.298 OA
HETATM    9  C6  UNL     1     -33.970   7.695   6.167  1.00 20.00     0.008 C 
HETATM   10  C7  UNL     1     -32.870   7.967   5.142  1.00 20.00     0.006 C 
ENDBRANCH   3   4
TORSDOF 1
ENDMDL
MODEL 2
REMARK VINA RESULT:      -4.8      1.161      2.008
REMARK  1 active torsions:
REMARK  status: ('A' for Active; 'I' for Inactive)
REMARK    1  A    between atoms: C8_8  and  C9_9 
ROOT
HETATM    1  C1  UNL     1     -32.479   8.786   0.780  1.00 20.00     0.012 C 
HETATM    2  C2  UNL     1     -32.436   8.797   1.979  1.00 20.00    -0.117 C 
HETATM    3  C9  UNL     1     -32.381   8.822   3.444  1.00 20.00     0.098 C 
ENDROOT
BRANCH   3   4
HETATM    4  C8  UNL     1     -32.717   7.452   4.028  1.00 20.00     0.004 C 
HETATM    5  C5  UNL     1     -33.937   7.544   4.947  1.00 20.00     0.083 C 
HETATM    6  C3  UNL     1     -34.339   6.171   5.441  1.00 20.00     0.127 C 
HETATM    7  C4  UNL     1     -34.500   5.097   4.391  1.00 20.00     0.078 C 
HETATM    8  O10 UNL     1     -34.621   5.968   6.621  1.00 20.00    -0.298 OA
HETATM    9  C6  UNL     1     -33.279   5.050   3.483  1.00 20.00     0.008 C 
HETATM   10  C7  UNL     1     -32.947   6.427   2.907  1.00 20.00     0.006 C 
ENDBRANCH   3   4
TORSDOF 1
ENDMDL
MODEL 3
REMARK VINA RESULT:      -4.4     11.620     12.437
REMARK  1 active torsions:
REMARK  status: ('A' for Active; 'I' for Inactive)
REMARK    1  A    between atoms: C8_8  and  C9_9 
ROOT
HETATM    1  C1  UNL     1     -33.607  15.120  -3.814  1.00 20.00     0.012 C 
HETATM    2  C2  UNL     1     -33.451  16.259  -3.472  1.00 20.00    -0.117 C 
HETATM    3  C9  UNL     1     -33.262  17.655  -3.064  1.00 20.00     0.098 C 
ENDROOT
BRANCH   3   4
HETATM    4  C8  UNL     1     -32.937  17.751  -1.575  1.00 20.00     0.004 C 
HETATM    5  C5  UNL     1     -31.819  18.768  -1.334  1.00 20.00     0.083 C 
HETATM    6  C3  UNL     1     -31.569  18.946   0.148  1.00 20.00     0.127 C 
HETATM    7  C4  UNL     1     -32.781  19.221   1.008  1.00 20.00     0.078 C 
HETATM    8  O10 UNL     1     -30.430  18.969   0.612  1.00 20.00    -0.298 OA
HETATM    9  C6  UNL     1     -33.879  18.205   0.725  1.00 20.00     0.008 C 
HETATM   10  C7  UNL     1     -34.194  18.112  -0.768  1.00 20.00     0.006 C 
ENDBRANCH   3   4
TORSDOF 1
ENDMDL
MODEL 4
REMARK VINA RESULT:      -4.2     11.885     13.000
REMARK  1 active torsions:
REMARK  status: ('A' for Active; 'I' for Inactive)
REMARK    1  A    between atoms: C8_8  and  C9_9 
ROOT
HETATM    1  C1  UNL     1     -33.701  17.368  -1.494  1.00 20.00     0.012 C 
HETATM    2  C2  UNL     1     -33.421  16.676  -2.434  1.00 20.00    -0.117 C 
HETATM    3  C9  UNL     1     -33.070  15.826  -3.576  1.00 20.00     0.098 C 
ENDROOT
BRANCH   3   4
HETATM    4  C8  UNL     1     -34.038  16.043  -4.737  1.00 20.00     0.004 C 
HETATM    5  C5  UNL     1     -34.836  14.767  -5.016  1.00 20.00     0.083 C 
HETATM    6  C3  UNL     1     -35.872  15.008  -6.092  1.00 20.00     0.127 C 
HETATM    7  C4  UNL     1     -36.770  16.210  -5.906  1.00 20.00     0.078 C 
HETATM    8  O10 UNL     1     -36.042  14.211  -7.013  1.00 20.00    -0.298 OA
HETATM    9  C6  UNL     1     -35.943  17.453  -5.609  1.00 20.00     0.008 C 
HETATM   10  C7  UNL     1     -34.974  17.226  -4.449  1.00 20.00     0.006 C 
ENDBRANCH   3   4
TORSDOF 1
ENDMDL
MODEL 5
REMARK VINA RESULT:      -4.2      2.279      4.678
REMARK  1 active torsions:
REMARK  status: ('A' for Active; 'I' for Inactive)
REMARK    1  A    between atoms: C8_8  and  C9_9 
ROOT
HETATM    1  C1  UNL     1     -34.751   5.360   6.655  1.00 20.00     0.012 C 
HETATM    2  C2  UNL     1     -34.246   6.379   6.270  1.00 20.00    -0.117 C 
HETATM    3  C9  UNL     1     -33.628   7.627   5.810  1.00 20.00     0.098 C 
ENDROOT
BRANCH   3   4
HETATM    4  C8  UNL     1     -33.540   7.665   4.286  1.00 20.00     0.004 C 
HETATM    5  C5  UNL     1     -32.829   8.939   3.821  1.00 20.00     0.083 C 
HETATM    6  C3  UNL     1     -32.642   8.929   2.320  1.00 20.00     0.127 C 
HETATM    7  C4  UNL     1     -32.025   7.685   1.724  1.00 20.00     0.078 C 
HETATM    8  O10 UNL     1     -32.884   9.921   1.634  1.00 20.00    -0.298 OA
HETATM    9  C6  UNL     1     -32.743   6.440   2.226  1.00 20.00     0.008 C 
HETATM   10  C7  UNL     1     -32.831   6.412   3.752  1.00 20.00     0.006 C 
ENDBRANCH   3   4
TORSDOF 1
ENDMDL
MODEL 6
REMARK VINA RESULT:      -4.1      2.267      4.491
REMARK  1 active torsions:
REMARK  status: ('A' for Active; 'I' for Inactive)
REMARK    1  A    between atoms: C8_8  and  C9_9 
ROOT
HETATM    1  C1  UNL     1     -34.516   4.969   6.942  1.00 20.00     0.012 C 
HETATM    2  C2  UNL     1     -34.823   5.361   5.850  1.00 20.00    -0.117 C 
HETATM    3  C9  UNL     1     -35.209   5.833   4.516  1.00 20.00     0.098 C 
ENDROOT
BRANCH   3   4
HETATM    4  C8  UNL     1     -34.190   6.833   3.974  1.00 20.00     0.004 C 
HETATM    5  C5  UNL     1     -33.486   7.558   5.123  1.00 20.00     0.083 C 
HETATM    6  C3  UNL     1     -32.400   8.470   4.595  1.00 20.00     0.127 C 
HETATM    7  C4  UNL     1     -31.417   7.856   3.624  1.00 20.00     0.078 C 
HETATM    8  O10 UNL     1     -32.263   9.619   5.012  1.00 20.00    -0.298 OA
HETATM    9  C6  UNL     1     -32.153   7.126   2.509  1.00 20.00     0.008 C 
HETATM   10  C7  UNL     1     -33.174   6.131   3.061  1.00 20.00     0.006 C 
ENDBRANCH   3   4
TORSDOF 1
ENDMDL
MODEL 7
REMARK VINA RESULT:      -4.1     11.702     12.752
REMARK  1 active torsions:
REMARK  status: ('A' for Active; 'I' for Inactive)
REMARK    1  A    between atoms: C8_8  and  C9_9 
ROOT
HETATM    1  C1  UNL     1     -33.813  17.903   0.042  1.00 20.00     0.012 C 
HETATM    2  C2  UNL     1     -33.440  17.784  -1.093  1.00 20.00    -0.117 C 
HETATM    3  C9  UNL     1     -32.975  17.646  -2.477  1.00 20.00     0.098 C 
ENDROOT
BRANCH   3   4
HETATM    4  C8  UNL     1     -33.842  16.655  -3.249  1.00 20.00     0.004 C 
HETATM    5  C5  UNL     1     -34.589  17.364  -4.381  1.00 20.00     0.083 C 
HETATM    6  C3  UNL     1     -35.364  16.368  -5.217  1.00 20.00     0.127 C 
HETATM    7  C4  UNL     1     -34.599  15.161  -5.709  1.00 20.00     0.078 C 
HETATM    8  O10 UNL     1     -36.525  16.581  -5.562  1.00 20.00    -0.298 OA
HETATM    9  C6  UNL     1     -33.852  14.497  -4.562  1.00 20.00     0.008 C 
HETATM   10  C7  UNL     1     -32.990  15.497  -3.791  1.00 20.00     0.006 C 
ENDBRANCH   3   4
TORSDOF 1
ENDMDL
MODEL 8
REMARK VINA RESULT:      -4.0     11.644     12.905
REMARK  1 active torsions:
REMARK  status: ('A' for Active; 'I' for Inactive)
REMARK    1  A    between atoms: C8_8  and  C9_9 
ROOT
HETATM    1  C1  UNL     1     -30.779  18.818   1.094  1.00 20.00     0.012 C 
HETATM    2  C2  UNL     1     -31.815  18.589   0.534  1.00 20.00    -0.117 C 
HETATM    3  C9  UNL     1     -33.087  18.309  -0.141  1.00 20.00     0.098 C 
ENDROOT
BRANCH   3   4
HETATM    4  C8  UNL     1     -32.873  18.065  -1.633  1.00 20.00     0.004 C 
HETATM    5  C5  UNL     1     -33.451  16.708  -2.043  1.00 20.00     0.083 C 
HETATM    6  C3  UNL     1     -33.339  16.509  -3.539  1.00 20.00     0.127 C 
HETATM    7  C4  UNL     1     -33.854  17.632  -4.409  1.00 20.00     0.078 C 
HETATM    8  O10 UNL     1     -32.945  15.448  -4.020  1.00 20.00    -0.298 OA
HETATM    9  C6  UNL     1     -33.276  18.966  -3.958  1.00 20.00     0.008 C 
HETATM   10  C7  UNL     1     -33.490  19.201  -2.463  1.00 20.00     0.006 C 
ENDBRANCH   3   4
TORSDOF 1
ENDMDL
MODEL 9
REMARK VINA RESULT:      -4.0      9.899     10.812
REMARK  1 active torsions:
REMARK  status: ('A' for Active; 'I' for Inactive)
REMARK    1  A    between atoms: C8_8  and  C9_9 
ROOT
HETATM    1  C1  UNL     1     -38.913  11.625   3.860  1.00 20.00     0.012 C 
HETATM    2  C2  UNL     1     -39.573  11.857   4.835  1.00 20.00    -0.117 C 
HETATM    3  C9  UNL     1     -40.381  12.128   6.028  1.00 20.00     0.098 C 
ENDROOT
BRANCH   3   4
HETATM    4  C8  UNL     1     -40.574  13.629   6.229  1.00 20.00     0.004 C 
HETATM    5  C5  UNL     1     -41.943  14.069   5.703  1.00 20.00     0.083 C 
HETATM    6  C3  UNL     1     -42.183  15.534   5.998  1.00 20.00     0.127 C 
HETATM    7  C4  UNL     1     -41.951  15.982   7.423  1.00 20.00     0.078 C 
HETATM    8  O10 UNL     1     -42.641  16.296   5.148  1.00 20.00    -0.298 OA
HETATM    9  C6  UNL     1     -40.592  15.507   7.918  1.00 20.00     0.008 C 
HETATM   10  C7  UNL     1     -40.406  14.005   7.709  1.00 20.00     0.006 C 
ENDBRANCH   3   4
TORSDOF 1
ENDMDL
