MODEL 1
REMARK VINA RESULT:      -4.1      0.000      0.000
REMARK  5 active torsions:
REMARK  status: ('A' for Active; 'I' for Inactive)
REMARK    1  A    between atoms: C6_6  and  C7_7 
REMARK    2  A    between atoms: C7_7  and  C8_8 
REMARK    3  A    between atoms: C8_8  and  C9_9 
REMARK    4  A    between atoms: C9_9  and  C10_10 
REMARK    5  A    between atoms: C10_10  and  C11_11 
ROOT
HETATM    1  C1  UNL     1     -32.738   9.509   0.351  1.00 20.00     0.012 C 
HETATM    2  C2  UNL     1     -32.454   8.574   1.048  1.00 20.00    -0.117 C 
HETATM    3  C6  UNL     1     -32.106   7.426   1.897  1.00 20.00     0.093 C 
ENDROOT
BRANCH   3   4
HETATM    4  C7  UNL     1     -31.641   7.854   3.291  1.00 20.00     0.012 C 
BRANCH   4   5
HETATM    5  C8  UNL     1     -32.577   8.881   3.942  1.00 20.00     0.002 C 
BRANCH   5   6
HETATM    6  C9  UNL     1     -33.892   8.225   4.390  1.00 20.00     0.021 C 
BRANCH   6   7
HETATM    7  C10 UNL     1     -33.685   7.004   5.312  1.00 20.00     0.089 C 
HETATM    8 CL12 UNL     1     -34.079   7.479   7.008  1.00 20.00    -0.124 Cl
BRANCH   7   9
HETATM    9  C11 UNL     1     -34.467   5.714   4.882  1.00 20.00    -0.035 C 
HETATM   10  C3  UNL     1     -34.803   4.855   6.121  1.00 20.00     0.016 C 
HETATM   11  C4  UNL     1     -35.812   6.094   4.220  1.00 20.00     0.016 C 
HETATM   12  C5  UNL     1     -33.666   4.841   3.895  1.00 20.00     0.016 C 
ENDBRANCH   7   9
ENDBRANCH   6   7
ENDBRANCH   5   6
ENDBRANCH   4   5
ENDBRANCH   3   4
TORSDOF 5
ENDMDL
MODEL 2
REMARK VINA RESULT:      -4.0      0.032      1.243
REMARK  5 active torsions:
REMARK  status: ('A' for Active; 'I' for Inactive)
REMARK    1  A    between atoms: C6_6  and  C7_7 
REMARK    2  A    between atoms: C7_7  and  C8_8 
REMARK    3  A    between atoms: C8_8  and  C9_9 
REMARK    4  A    between atoms: C9_9  and  C10_10 
REMARK    5  A    between atoms: C10_10  and  C11_11 
ROOT
HETATM    1  C1  UNL     1     -32.727   9.516   0.362  1.00 20.00     0.012 C 
HETATM    2  C2  UNL     1     -32.459   8.578   1.063  1.00 20.00    -0.117 C 
HETATM    3  C6  UNL     1     -32.131   7.428   1.916  1.00 20.00     0.093 C 
ENDROOT
BRANCH   3   4
HETATM    4  C7  UNL     1     -31.625   7.853   3.297  1.00 20.00     0.012 C 
BRANCH   4   5
HETATM    5  C8  UNL     1     -32.543   8.877   3.978  1.00 20.00     0.002 C 
BRANCH   5   6
HETATM    6  C9  UNL     1     -33.870   8.232   4.403  1.00 20.00     0.021 C 
BRANCH   6   7
HETATM    7  C10 UNL     1     -33.690   7.006   5.324  1.00 20.00     0.089 C 
HETATM    8 CL12 UNL     1     -34.062   7.490   7.022  1.00 20.00    -0.124 Cl
BRANCH   7   9
HETATM    9  C11 UNL     1     -34.508   5.736   4.898  1.00 20.00    -0.035 C 
HETATM   10  C3  UNL     1     -33.674   4.862   3.936  1.00 20.00     0.016 C 
HETATM   11  C4  UNL     1     -34.833   4.865   6.133  1.00 20.00     0.016 C 
HETATM   12  C5  UNL     1     -35.831   6.097   4.194  1.00 20.00     0.016 C 
ENDBRANCH   7   9
ENDBRANCH   6   7
ENDBRANCH   5   6
ENDBRANCH   4   5
ENDBRANCH   3   4
TORSDOF 5
ENDMDL
MODEL 3
REMARK VINA RESULT:      -3.9     11.565     12.848
REMARK  5 active torsions:
REMARK  status: ('A' for Active; 'I' for Inactive)
REMARK    1  A    between atoms: C6_6  and  C7_7 
REMARK    2  A    between atoms: C7_7  and  C8_8 
REMARK    3  A    between atoms: C8_8  and  C9_9 
REMARK    4  A    between atoms: C9_9  and  C10_10 
REMARK    5  A    between atoms: C10_10  and  C11_11 
ROOT
HETATM    1  C1  UNL     1     -30.966  18.502   1.195  1.00 20.00     0.012 C 
HETATM    2  C2  UNL     1     -31.497  18.533   0.118  1.00 20.00    -0.117 C 
HETATM    3  C6  UNL     1     -32.143  18.571  -1.201  1.00 20.00     0.093 C 
ENDROOT
BRANCH   3   4
HETATM    4  C7  UNL     1     -33.414  17.720  -1.252  1.00 20.00     0.012 C 
BRANCH   4   5
HETATM    5  C8  UNL     1     -33.352  16.620  -2.320  1.00 20.00     0.002 C 
BRANCH   5   6
HETATM    6  C9  UNL     1     -33.873  17.133  -3.671  1.00 20.00     0.021 C 
BRANCH   6   7
HETATM    7  C10 UNL     1     -34.000  16.027  -4.740  1.00 20.00     0.089 C 
HETATM    8 CL12 UNL     1     -33.994  14.418  -3.923  1.00 20.00    -0.124 Cl
BRANCH   7   9
HETATM    9  C11 UNL     1     -35.232  16.178  -5.701  1.00 20.00    -0.035 C 
HETATM   10  C3  UNL     1     -36.251  17.176  -5.108  1.00 20.00     0.016 C 
HETATM   11  C4  UNL     1     -34.784  16.749  -7.066  1.00 20.00     0.016 C 
HETATM   12  C5  UNL     1     -35.956  14.840  -5.945  1.00 20.00     0.016 C 
ENDBRANCH   7   9
ENDBRANCH   6   7
ENDBRANCH   5   6
ENDBRANCH   4   5
ENDBRANCH   3   4
TORSDOF 5
ENDMDL
MODEL 4
REMARK VINA RESULT:      -3.9     11.468     12.637
REMARK  5 active torsions:
REMARK  status: ('A' for Active; 'I' for Inactive)
REMARK    1  A    between atoms: C6_6  and  C7_7 
REMARK    2  A    between atoms: C7_7  and  C8_8 
REMARK    3  A    between atoms: C8_8  and  C9_9 
REMARK    4  A    between atoms: C9_9  and  C10_10 
REMARK    5  A    between atoms: C10_10  and  C11_11 
ROOT
HETATM    1  C1  UNL     1     -30.632  18.515   1.425  1.00 20.00     0.012 C 
HETATM    2  C2  UNL     1     -31.624  18.523   0.747  1.00 20.00    -0.117 C 
HETATM    3  C6  UNL     1     -32.840  18.536  -0.078  1.00 20.00     0.093 C 
ENDROOT
BRANCH   3   4
HETATM    4  C7  UNL     1     -32.579  18.047  -1.504  1.00 20.00     0.012 C 
BRANCH   4   5
HETATM    5  C8  UNL     1     -33.549  16.941  -1.942  1.00 20.00     0.002 C 
BRANCH   5   6
HETATM    6  C9  UNL     1     -33.252  16.483  -3.378  1.00 20.00     0.021 C 
BRANCH   6   7
HETATM    7  C10 UNL     1     -34.438  16.686  -4.345  1.00 20.00     0.089 C 
HETATM    8 CL12 UNL     1     -34.079  18.085  -5.427  1.00 20.00    -0.124 Cl
BRANCH   7   9
HETATM    9  C11 UNL     1     -34.842  15.413  -5.168  1.00 20.00    -0.035 C 
HETATM   10  C3  UNL     1     -34.565  14.136  -4.345  1.00 20.00     0.016 C 
HETATM   11  C4  UNL     1     -36.357  15.430  -5.478  1.00 20.00     0.016 C 
HETATM   12  C5  UNL     1     -34.072  15.304  -6.499  1.00 20.00     0.016 C 
ENDBRANCH   7   9
ENDBRANCH   6   7
ENDBRANCH   5   6
ENDBRANCH   4   5
ENDBRANCH   3   4
TORSDOF 5
ENDMDL
MODEL 5
REMARK VINA RESULT:      -3.8     11.607     12.957
REMARK  5 active torsions:
REMARK  status: ('A' for Active; 'I' for Inactive)
REMARK    1  A    between atoms: C6_6  and  C7_7 
REMARK    2  A    between atoms: C7_7  and  C8_8 
REMARK    3  A    between atoms: C8_8  and  C9_9 
REMARK    4  A    between atoms: C9_9  and  C10_10 
REMARK    5  A    between atoms: C10_10  and  C11_11 
ROOT
HETATM    1  C1  UNL     1     -31.502  18.663  -0.559  1.00 20.00     0.012 C 
HETATM    2  C2  UNL     1     -32.441  18.047  -0.984  1.00 20.00    -0.117 C 
HETATM    3  C6  UNL     1     -33.590  17.291  -1.500  1.00 20.00     0.093 C 
ENDROOT
BRANCH   3   4
HETATM    4  C7  UNL     1     -34.343  18.051  -2.595  1.00 20.00     0.012 C 
BRANCH   4   5
HETATM    5  C8  UNL     1     -33.485  18.307  -3.841  1.00 20.00     0.002 C 
BRANCH   5   6
HETATM    6  C9  UNL     1     -34.201  17.827  -5.112  1.00 20.00     0.021 C 
BRANCH   6   7
HETATM    7  C10 UNL     1     -35.238  16.713  -4.849  1.00 20.00     0.089 C 
HETATM    8 CL12 UNL     1     -36.782  17.142  -5.680  1.00 20.00    -0.124 Cl
BRANCH   7   9
HETATM    9  C11 UNL     1     -34.762  15.268  -5.232  1.00 20.00    -0.035 C 
HETATM   10  C3  UNL     1     -35.979  14.326  -5.370  1.00 20.00     0.016 C 
HETATM   11  C4  UNL     1     -34.045  15.281  -6.602  1.00 20.00     0.016 C 
HETATM   12  C5  UNL     1     -33.804  14.666  -4.185  1.00 20.00     0.016 C 
ENDBRANCH   7   9
ENDBRANCH   6   7
ENDBRANCH   5   6
ENDBRANCH   4   5
ENDBRANCH   3   4
TORSDOF 5
ENDMDL
MODEL 6
REMARK VINA RESULT:      -3.6     10.107     11.351
REMARK  5 active torsions:
REMARK  status: ('A' for Active; 'I' for Inactive)
REMARK    1  A    between atoms: C6_6  and  C7_7 
REMARK    2  A    between atoms: C7_7  and  C8_8 
REMARK    3  A    between atoms: C8_8  and  C9_9 
REMARK    4  A    between atoms: C9_9  and  C10_10 
REMARK    5  A    between atoms: C10_10  and  C11_11 
ROOT
HETATM    1  C1  UNL     1     -38.942  11.647   3.766  1.00 20.00     0.012 C 
HETATM    2  C2  UNL     1     -39.312  11.887   4.883  1.00 20.00    -0.117 C 
HETATM    3  C6  UNL     1     -39.760  12.181   6.251  1.00 20.00     0.093 C 
ENDROOT
BRANCH   3   4
HETATM    4  C7  UNL     1     -41.240  12.566   6.309  1.00 20.00     0.012 C 
BRANCH   4   5
HETATM    5  C8  UNL     1     -41.580  13.766   5.415  1.00 20.00     0.002 C 
BRANCH   5   6
HETATM    6  C9  UNL     1     -42.294  14.865   6.215  1.00 20.00     0.021 C 
BRANCH   6   7
HETATM    7  C10 UNL     1     -41.335  15.734   7.057  1.00 20.00     0.089 C 
HETATM    8 CL12 UNL     1     -41.561  17.465   6.602  1.00 20.00    -0.124 Cl
BRANCH   7   9
HETATM    9  C11 UNL     1     -41.450  15.528   8.608  1.00 20.00    -0.035 C 
HETATM   10  C3  UNL     1     -40.207  14.784   9.142  1.00 20.00     0.016 C 
HETATM   11  C4  UNL     1     -41.501  16.895   9.330  1.00 20.00     0.016 C 
HETATM   12  C5  UNL     1     -42.701  14.720   9.004  1.00 20.00     0.016 C 
ENDBRANCH   7   9
ENDBRANCH   6   7
ENDBRANCH   5   6
ENDBRANCH   4   5
ENDBRANCH   3   4
TORSDOF 5
ENDMDL
MODEL 7
REMARK VINA RESULT:      -3.6     10.254     11.565
REMARK  5 active torsions:
REMARK  status: ('A' for Active; 'I' for Inactive)
REMARK    1  A    between atoms: C6_6  and  C7_7 
REMARK    2  A    between atoms: C7_7  and  C8_8 
REMARK    3  A    between atoms: C8_8  and  C9_9 
REMARK    4  A    between atoms: C9_9  and  C10_10 
REMARK    5  A    between atoms: C10_10  and  C11_11 
ROOT
HETATM    1  C1  UNL     1     -38.914  11.612   4.084  1.00 20.00     0.012 C 
HETATM    2  C2  UNL     1     -39.682  12.008   4.918  1.00 20.00    -0.117 C 
HETATM    3  C6  UNL     1     -40.619  12.490   5.943  1.00 20.00     0.093 C 
ENDROOT
BRANCH   3   4
HETATM    4  C7  UNL     1     -41.486  13.647   5.440  1.00 20.00     0.012 C 
BRANCH   4   5
HETATM    5  C8  UNL     1     -42.815  13.767   6.197  1.00 20.00     0.002 C 
BRANCH   5   6
HETATM    6  C9  UNL     1     -42.961  15.156   6.838  1.00 20.00     0.021 C 
BRANCH   6   7
HETATM    7  C10 UNL     1     -42.628  15.175   8.345  1.00 20.00     0.089 C 
HETATM    8 CL12 UNL     1     -42.791  13.502   9.002  1.00 20.00    -0.124 Cl
BRANCH   7   9
HETATM    9  C11 UNL     1     -41.232  15.798   8.702  1.00 20.00    -0.035 C 
HETATM   10  C3  UNL     1     -41.346  16.665   9.975  1.00 20.00     0.016 C 
HETATM   11  C4  UNL     1     -40.207  14.682   9.008  1.00 20.00     0.016 C 
HETATM   12  C5  UNL     1     -40.672  16.678   7.568  1.00 20.00     0.016 C 
ENDBRANCH   7   9
ENDBRANCH   6   7
ENDBRANCH   5   6
ENDBRANCH   4   5
ENDBRANCH   3   4
TORSDOF 5
ENDMDL
MODEL 8
REMARK VINA RESULT:      -3.6     10.257     11.569
REMARK  5 active torsions:
REMARK  status: ('A' for Active; 'I' for Inactive)
REMARK    1  A    between atoms: C6_6  and  C7_7 
REMARK    2  A    between atoms: C7_7  and  C8_8 
REMARK    3  A    between atoms: C8_8  and  C9_9 
REMARK    4  A    between atoms: C9_9  and  C10_10 
REMARK    5  A    between atoms: C10_10  and  C11_11 
ROOT
HETATM    1  C1  UNL     1     -38.914  11.609   4.061  1.00 20.00     0.012 C 
HETATM    2  C2  UNL     1     -39.668  12.020   4.901  1.00 20.00    -0.117 C 
HETATM    3  C6  UNL     1     -40.587  12.520   5.932  1.00 20.00     0.093 C 
ENDROOT
BRANCH   3   4
HETATM    4  C7  UNL     1     -41.469  13.661   5.421  1.00 20.00     0.012 C 
BRANCH   4   5
HETATM    5  C8  UNL     1     -42.786  13.790   6.197  1.00 20.00     0.002 C 
BRANCH   5   6
HETATM    6  C9  UNL     1     -42.921  15.183   6.829  1.00 20.00     0.021 C 
BRANCH   6   7
HETATM    7  C10 UNL     1     -42.623  15.202   8.343  1.00 20.00     0.089 C 
HETATM    8 CL12 UNL     1     -42.817  13.532   8.999  1.00 20.00    -0.124 Cl
BRANCH   7   9
HETATM    9  C11 UNL     1     -41.231  15.814   8.733  1.00 20.00    -0.035 C 
HETATM   10  C3  UNL     1     -40.210  14.687   9.002  1.00 20.00     0.016 C 
HETATM   11  C4  UNL     1     -40.670  16.662   7.568  1.00 20.00     0.016 C 
HETATM   12  C5  UNL     1     -41.310  16.702   9.991  1.00 20.00     0.016 C 
ENDBRANCH   7   9
ENDBRANCH   6   7
ENDBRANCH   5   6
ENDBRANCH   4   5
ENDBRANCH   3   4
TORSDOF 5
ENDMDL
MODEL 9
REMARK VINA RESULT:      -3.6     10.284     11.599
REMARK  5 active torsions:
REMARK  status: ('A' for Active; 'I' for Inactive)
REMARK    1  A    between atoms: C6_6  and  C7_7 
REMARK    2  A    between atoms: C7_7  and  C8_8 
REMARK    3  A    between atoms: C8_8  and  C9_9 
REMARK    4  A    between atoms: C9_9  and  C10_10 
REMARK    5  A    between atoms: C10_10  and  C11_11 
ROOT
HETATM    1  C1  UNL     1     -38.916  11.641   4.073  1.00 20.00     0.012 C 
HETATM    2  C2  UNL     1     -39.669  12.040   4.919  1.00 20.00    -0.117 C 
HETATM    3  C6  UNL     1     -40.587  12.526   5.958  1.00 20.00     0.093 C 
ENDROOT
BRANCH   3   4
HETATM    4  C7  UNL     1     -41.462  13.682   5.466  1.00 20.00     0.012 C 
BRANCH   4   5
HETATM    5  C8  UNL     1     -42.793  13.785   6.223  1.00 20.00     0.002 C 
BRANCH   5   6
HETATM    6  C9  UNL     1     -42.969  15.182   6.839  1.00 20.00     0.021 C 
BRANCH   6   7
HETATM    7  C10 UNL     1     -42.652  15.231   8.349  1.00 20.00     0.089 C 
HETATM    8 CL12 UNL     1     -42.873  13.582   9.048  1.00 20.00    -0.124 Cl
BRANCH   7   9
HETATM    9  C11 UNL     1     -41.243  15.821   8.707  1.00 20.00    -0.035 C 
HETATM   10  C3  UNL     1     -40.714  16.683   7.540  1.00 20.00     0.016 C 
HETATM   11  C4  UNL     1     -41.345  16.748   9.941  1.00 20.00     0.016 C 
HETATM   12  C5  UNL     1     -40.203  14.723   9.005  1.00 20.00     0.016 C 
ENDBRANCH   7   9
ENDBRANCH   6   7
ENDBRANCH   5   6
ENDBRANCH   4   5
ENDBRANCH   3   4
TORSDOF 5
ENDMDL
