MODEL 1
REMARK VINA RESULT:      -3.9      0.000      0.000
REMARK  1 active torsions:
REMARK  status: ('A' for Active; 'I' for Inactive)
REMARK    1  A    between atoms: C8_8  and  C9_9 
ROOT
HETATM    1  C1  UNL     1     -32.605   9.489   3.959  1.00 20.00     0.002 C 
HETATM    2  C2  UNL     1     -31.818   8.219   4.289  1.00 20.00     0.005 C 
HETATM    3  C3  UNL     1     -33.073   9.563   2.504  1.00 20.00     0.020 C 
HETATM    4  C5  UNL     1     -32.446   7.156   2.056  1.00 20.00     0.025 C 
HETATM    5  C8  UNL     1     -32.361   6.970   3.586  1.00 20.00    -0.007 C 
HETATM    6  C10 UNL     1     -32.290   8.613   1.605  1.00 20.00     0.082 C 
HETATM    7 CL12 UNL     1     -32.824   8.786  -0.092  1.00 20.00    -0.125 Cl
ENDROOT
BRANCH   5   8
HETATM    8  C9  UNL     1     -33.703   6.558   4.159  1.00 20.00     0.015 C 
HETATM    9  C4  UNL     1     -33.808   6.708   5.662  1.00 20.00     0.033 C 
HETATM   10  C6  UNL     1     -34.981   5.804   5.978  1.00 20.00     0.168 C 
HETATM   11  O11 UNL     1     -34.961   4.744   5.013  1.00 20.00    -0.391 OA
HETATM   12  C7  UNL     1     -34.021   5.084   3.982  1.00 20.00     0.172 C 
ENDBRANCH   5   8
TORSDOF 1
ENDMDL
MODEL 2
REMARK VINA RESULT:      -3.6     11.278     12.570
REMARK  1 active torsions:
REMARK  status: ('A' for Active; 'I' for Inactive)
REMARK    1  A    between atoms: C8_8  and  C9_9 
ROOT
HETATM    1  C1  UNL     1     -35.081  18.605  -4.726  1.00 20.00     0.002 C 
HETATM    2  C2  UNL     1     -33.594  18.890  -4.513  1.00 20.00     0.005 C 
HETATM    3  C3  UNL     1     -35.454  17.128  -4.566  1.00 20.00     0.020 C 
HETATM    4  C5  UNL     1     -33.191  16.540  -3.607  1.00 20.00     0.025 C 
HETATM    5  C8  UNL     1     -32.970  18.052  -3.392  1.00 20.00    -0.007 C 
HETATM    6  C10 UNL     1     -34.236  16.219  -4.682  1.00 20.00     0.082 C 
HETATM    7 CL12 UNL     1     -34.730  14.505  -4.559  1.00 20.00    -0.125 Cl
ENDROOT
BRANCH   5   8
HETATM    8  C9  UNL     1     -33.481  18.488  -2.032  1.00 20.00     0.015 C 
HETATM    9  C4  UNL     1     -32.473  19.263  -1.210  1.00 20.00     0.033 C 
HETATM   10  C6  UNL     1     -33.044  19.122   0.185  1.00 20.00     0.168 C 
HETATM   11  O11 UNL     1     -33.708  17.852   0.236  1.00 20.00    -0.391 OA
HETATM   12  C7  UNL     1     -33.804  17.334  -1.099  1.00 20.00     0.172 C 
ENDBRANCH   5   8
TORSDOF 1
ENDMDL
MODEL 3
REMARK VINA RESULT:      -3.6     11.745     13.337
REMARK  1 active torsions:
REMARK  status: ('A' for Active; 'I' for Inactive)
REMARK    1  A    between atoms: C8_8  and  C9_9 
ROOT
HETATM    1  C1  UNL     1     -34.111  16.314  -7.725  1.00 20.00     0.002 C 
HETATM    2  C2  UNL     1     -34.040  15.138  -6.750  1.00 20.00     0.005 C 
HETATM    3  C3  UNL     1     -35.465  17.029  -7.730  1.00 20.00     0.020 C 
HETATM    4  C5  UNL     1     -36.256  15.797  -5.669  1.00 20.00     0.025 C 
HETATM    5  C8  UNL     1     -34.784  15.396  -5.434  1.00 20.00    -0.007 C 
HETATM    6  C10 UNL     1     -36.566  16.165  -7.125  1.00 20.00     0.082 C 
HETATM    7 CL12 UNL     1     -38.138  17.013  -7.216  1.00 20.00    -0.125 Cl
ENDROOT
BRANCH   5   8
HETATM    8  C9  UNL     1     -34.066  16.432  -4.592  1.00 20.00     0.015 C 
HETATM    9  C4  UNL     1     -33.478  15.888  -3.307  1.00 20.00     0.033 C 
HETATM   10  C6  UNL     1     -33.292  17.153  -2.496  1.00 20.00     0.168 C 
HETATM   11  O11 UNL     1     -34.334  18.056  -2.891  1.00 20.00    -0.391 OA
HETATM   12  C7  UNL     1     -34.973  17.530  -4.064  1.00 20.00     0.172 C 
ENDBRANCH   5   8
TORSDOF 1
ENDMDL
MODEL 4
REMARK VINA RESULT:      -3.5     11.601     13.542
REMARK  1 active torsions:
REMARK  status: ('A' for Active; 'I' for Inactive)
REMARK    1  A    between atoms: C8_8  and  C9_9 
ROOT
HETATM    1  C1  UNL     1     -34.215  14.836  -5.645  1.00 20.00     0.002 C 
HETATM    2  C2  UNL     1     -34.385  16.127  -6.447  1.00 20.00     0.005 C 
HETATM    3  C3  UNL     1     -34.052  15.063  -4.139  1.00 20.00     0.020 C 
HETATM    4  C5  UNL     1     -34.689  17.502  -4.319  1.00 20.00     0.025 C 
HETATM    5  C8  UNL     1     -35.234  17.181  -5.726  1.00 20.00    -0.007 C 
HETATM    6  C10 UNL     1     -33.644  16.496  -3.821  1.00 20.00     0.082 C 
HETATM    7 CL12 UNL     1     -33.398  16.694  -2.061  1.00 20.00    -0.125 Cl
ENDROOT
BRANCH   5   8
HETATM    8  C9  UNL     1     -36.690  16.761  -5.662  1.00 20.00     0.015 C 
HETATM    9  C4  UNL     1     -37.455  16.975  -6.951  1.00 20.00     0.033 C 
HETATM   10  C6  UNL     1     -38.888  16.953  -6.464  1.00 20.00     0.168 C 
HETATM   11  O11 UNL     1     -38.882  17.479  -5.130  1.00 20.00    -0.391 OA
HETATM   12  C7  UNL     1     -37.521  17.573  -4.683  1.00 20.00     0.172 C 
ENDBRANCH   5   8
TORSDOF 1
ENDMDL
MODEL 5
REMARK VINA RESULT:      -3.5      3.010      4.841
REMARK  1 active torsions:
REMARK  status: ('A' for Active; 'I' for Inactive)
REMARK    1  A    between atoms: C8_8  and  C9_9 
ROOT
HETATM    1  C1  UNL     1     -33.921   5.313   3.269  1.00 20.00     0.002 C 
HETATM    2  C2  UNL     1     -32.461   5.697   3.021  1.00 20.00     0.005 C 
HETATM    3  C3  UNL     1     -34.564   6.060   4.440  1.00 20.00     0.020 C 
HETATM    4  C5  UNL     1     -32.624   7.669   4.632  1.00 20.00     0.025 C 
HETATM    5  C8  UNL     1     -32.183   7.190   3.233  1.00 20.00    -0.007 C 
HETATM    6  C10 UNL     1     -33.520   6.667   5.370  1.00 20.00     0.082 C 
HETATM    7 CL12 UNL     1     -34.316   7.468   6.756  1.00 20.00    -0.125 Cl
ENDROOT
BRANCH   5   8
HETATM    8  C9  UNL     1     -32.825   8.027   2.144  1.00 20.00     0.015 C 
HETATM    9  C4  UNL     1     -32.042   8.067   0.849  1.00 20.00     0.033 C 
HETATM   10  C6  UNL     1     -32.617   9.298   0.181  1.00 20.00     0.168 C 
HETATM   11  O11 UNL     1     -32.989  10.204   1.229  1.00 20.00    -0.391 OA
HETATM   12  C7  UNL     1     -32.922   9.504   2.481  1.00 20.00     0.172 C 
ENDBRANCH   5   8
TORSDOF 1
ENDMDL
MODEL 6
REMARK VINA RESULT:      -3.4     11.131     12.048
REMARK  1 active torsions:
REMARK  status: ('A' for Active; 'I' for Inactive)
REMARK    1  A    between atoms: C8_8  and  C9_9 
ROOT
HETATM    1  C1  UNL     1     -43.299  13.379   6.785  1.00 20.00     0.002 C 
HETATM    2  C2  UNL     1     -42.829  14.802   6.477  1.00 20.00     0.005 C 
HETATM    3  C3  UNL     1     -42.180  12.336   6.732  1.00 20.00     0.020 C 
HETATM    4  C5  UNL     1     -40.379  14.103   6.599  1.00 20.00     0.025 C 
HETATM    5  C8  UNL     1     -41.445  15.121   7.054  1.00 20.00    -0.007 C 
HETATM    6  C10 UNL     1     -40.968  12.841   5.958  1.00 20.00     0.082 C 
HETATM    7 CL12 UNL     1     -39.719  11.566   5.863  1.00 20.00    -0.125 Cl
ENDROOT
BRANCH   5   8
HETATM    8  C9  UNL     1     -41.491  15.221   8.566  1.00 20.00     0.015 C 
HETATM    9  C4  UNL     1     -41.624  16.634   9.091  1.00 20.00     0.033 C 
HETATM   10  C6  UNL     1     -41.157  16.474  10.523  1.00 20.00     0.168 C 
HETATM   11  O11 UNL     1     -40.179  15.425  10.526  1.00 20.00    -0.391 OA
HETATM   12  C7  UNL     1     -40.214  14.766   9.251  1.00 20.00     0.172 C 
ENDBRANCH   5   8
TORSDOF 1
ENDMDL
MODEL 7
REMARK VINA RESULT:      -3.4     11.551     12.796
REMARK  1 active torsions:
REMARK  status: ('A' for Active; 'I' for Inactive)
REMARK    1  A    between atoms: C8_8  and  C9_9 
ROOT
HETATM    1  C1  UNL     1     -33.269  14.562  -4.990  1.00 20.00     0.002 C 
HETATM    2  C2  UNL     1     -34.197  14.868  -3.814  1.00 20.00     0.005 C 
HETATM    3  C3  UNL     1     -33.521  15.442  -6.218  1.00 20.00     0.020 C 
HETATM    4  C5  UNL     1     -35.056  16.990  -4.940  1.00 20.00     0.025 C 
HETATM    5  C8  UNL     1     -34.493  16.363  -3.647  1.00 20.00    -0.007 C 
HETATM    6  C10 UNL     1     -34.897  16.096  -6.176  1.00 20.00     0.082 C 
HETATM    7 CL12 UNL     1     -35.171  17.055  -7.660  1.00 20.00    -0.125 Cl
ENDROOT
BRANCH   5   8
HETATM    8  C9  UNL     1     -33.266  17.115  -3.169  1.00 20.00     0.015 C 
HETATM    9  C4  UNL     1     -33.252  17.396  -1.681  1.00 20.00     0.033 C 
HETATM   10  C6  UNL     1     -32.242  18.520  -1.592  1.00 20.00     0.168 C 
HETATM   11  O11 UNL     1     -32.337  19.263  -2.815  1.00 20.00    -0.391 OA
HETATM   12  C7  UNL     1     -33.143  18.517  -3.740  1.00 20.00     0.172 C 
ENDBRANCH   5   8
TORSDOF 1
ENDMDL
MODEL 8
REMARK VINA RESULT:      -3.4     10.079     10.961
REMARK  1 active torsions:
REMARK  status: ('A' for Active; 'I' for Inactive)
REMARK    1  A    between atoms: C8_8  and  C9_9 
ROOT
HETATM    1  C1  UNL     1     -42.481  14.954   5.719  1.00 20.00     0.002 C 
HETATM    2  C2  UNL     1     -42.459  13.520   6.252  1.00 20.00     0.005 C 
HETATM    3  C3  UNL     1     -41.819  15.969   6.655  1.00 20.00     0.020 C 
HETATM    4  C5  UNL     1     -40.846  14.157   8.124  1.00 20.00     0.025 C 
HETATM    5  C8  UNL     1     -41.159  13.165   6.983  1.00 20.00    -0.007 C 
HETATM    6  C10 UNL     1     -41.694  15.434   8.077  1.00 20.00     0.082 C 
HETATM    7 CL12 UNL     1     -40.980  16.677   9.145  1.00 20.00    -0.125 Cl
ENDROOT
BRANCH   5   8
HETATM    8  C9  UNL     1     -39.996  13.066   6.015  1.00 20.00     0.015 C 
HETATM    9  C4  UNL     1     -40.292  12.255   4.771  1.00 20.00     0.033 C 
HETATM   10  C6  UNL     1     -38.897  11.924   4.283  1.00 20.00     0.168 C 
HETATM   11  O11 UNL     1     -38.063  11.823   5.446  1.00 20.00    -0.391 OA
HETATM   12  C7  UNL     1     -38.793  12.326   6.575  1.00 20.00     0.172 C 
ENDBRANCH   5   8
TORSDOF 1
ENDMDL
MODEL 9
REMARK VINA RESULT:      -3.4     10.474     11.408
REMARK  1 active torsions:
REMARK  status: ('A' for Active; 'I' for Inactive)
REMARK    1  A    between atoms: C8_8  and  C9_9 
ROOT
HETATM    1  C1  UNL     1     -40.625  16.402   7.650  1.00 20.00     0.002 C 
HETATM    2  C2  UNL     1     -41.713  15.763   6.784  1.00 20.00     0.005 C 
HETATM    3  C3  UNL     1     -40.395  15.680   8.981  1.00 20.00     0.020 C 
HETATM    4  C5  UNL     1     -41.817  13.708   8.293  1.00 20.00     0.025 C 
HETATM    5  C8  UNL     1     -41.713  14.231   6.844  1.00 20.00    -0.007 C 
HETATM    6  C10 UNL     1     -41.572  14.787   9.354  1.00 20.00     0.082 C 
HETATM    7 CL12 UNL     1     -41.287  14.021  10.945  1.00 20.00    -0.125 Cl
ENDROOT
BRANCH   5   8
HETATM    8  C9  UNL     1     -40.498  13.655   6.144  1.00 20.00     0.015 C 
HETATM    9  C4  UNL     1     -40.813  12.928   4.853  1.00 20.00     0.033 C 
HETATM   10  C6  UNL     1     -39.570  12.083   4.667  1.00 20.00     0.168 C 
HETATM   11  O11 UNL     1     -39.085  11.763   5.979  1.00 20.00    -0.391 OA
HETATM   12  C7  UNL     1     -39.792  12.568   6.935  1.00 20.00     0.172 C 
ENDBRANCH   5   8
TORSDOF 1
ENDMDL
