MODEL 1
REMARK VINA RESULT:      -4.5      0.000      0.000
REMARK  3 active torsions:
REMARK  status: ('A' for Active; 'I' for Inactive)
REMARK    1  A    between atoms: C5_5  and  C9_9 
REMARK    2  A    between atoms: C9_9  and  C11_11 
REMARK    3  A    between atoms: C10_10  and  C11_11 
ROOT
HETATM    1  C1  UNL     1     -33.524   6.335   6.671  1.00 20.00     0.002 C 
HETATM    2  C2  UNL     1     -33.691   7.656   5.926  1.00 20.00     0.005 C 
HETATM    3  C3  UNL     1     -34.713   5.409   6.431  1.00 20.00     0.020 C 
HETATM    4  C4  UNL     1     -35.049   6.461   4.143  1.00 20.00     0.024 C 
HETATM    5  C5  UNL     1     -33.924   7.475   4.420  1.00 20.00    -0.013 C 
HETATM    6  C6  UNL     1     -34.989   5.158   4.949  1.00 20.00     0.082 C 
HETATM    7 CL12 UNL     1     -33.783   4.025   4.268  1.00 20.00    -0.125 Cl
ENDROOT
BRANCH   5   8
HETATM    8  C9  UNL     1     -32.622   7.149   3.685  1.00 20.00     0.009 C 
BRANCH   8   9
HETATM    9  C11 UNL     1     -32.092   8.311   2.821  1.00 20.00    -0.019 C 
HETATM   10  C8  UNL     1     -32.824   9.622   3.124  1.00 20.00     0.010 C 
BRANCH   9  11
HETATM   11  C10 UNL     1     -32.221   7.919   1.334  1.00 20.00    -0.000 C 
HETATM   12  C7  UNL     1     -32.607   9.076   0.423  1.00 20.00     0.005 C 
ENDBRANCH   9  11
ENDBRANCH   8   9
ENDBRANCH   5   8
TORSDOF 3
ENDMDL
MODEL 2
REMARK VINA RESULT:      -3.8     12.045     13.379
REMARK  3 active torsions:
REMARK  status: ('A' for Active; 'I' for Inactive)
REMARK    1  A    between atoms: C5_5  and  C9_9 
REMARK    2  A    between atoms: C9_9  and  C11_11 
REMARK    3  A    between atoms: C10_10  and  C11_11 
ROOT
HETATM    1  C1  UNL     1     -33.365  16.087  -3.977  1.00 20.00     0.002 C 
HETATM    2  C2  UNL     1     -33.593  16.306  -2.484  1.00 20.00     0.005 C 
HETATM    3  C3  UNL     1     -34.532  16.625  -4.801  1.00 20.00     0.020 C 
HETATM    4  C4  UNL     1     -34.963  18.379  -3.014  1.00 20.00     0.024 C 
HETATM    5  C5  UNL     1     -33.862  17.773  -2.124  1.00 20.00    -0.013 C 
HETATM    6  C6  UNL     1     -34.841  18.094  -4.515  1.00 20.00     0.082 C 
HETATM    7 CL12 UNL     1     -33.620  19.154  -5.283  1.00 20.00    -0.125 Cl
ENDROOT
BRANCH   5   8
HETATM    8  C9  UNL     1     -32.572  18.596  -2.114  1.00 20.00     0.009 C 
BRANCH   8   9
HETATM    9  C11 UNL     1     -32.236  19.204  -0.738  1.00 20.00    -0.019 C 
HETATM   10  C8  UNL     1     -31.037  18.506  -0.089  1.00 20.00     0.010 C 
BRANCH   9  11
HETATM   11  C10 UNL     1     -33.492  19.126   0.156  1.00 20.00    -0.000 C 
HETATM   12  C7  UNL     1     -33.198  19.263   1.643  1.00 20.00     0.005 C 
ENDBRANCH   9  11
ENDBRANCH   8   9
ENDBRANCH   5   8
TORSDOF 3
ENDMDL
MODEL 3
REMARK VINA RESULT:      -3.7     10.816     11.678
REMARK  3 active torsions:
REMARK  status: ('A' for Active; 'I' for Inactive)
REMARK    1  A    between atoms: C5_5  and  C9_9 
REMARK    2  A    between atoms: C9_9  and  C11_11 
REMARK    3  A    between atoms: C10_10  and  C11_11 
ROOT
HETATM    1  C1  UNL     1     -42.223  15.153  10.032  1.00 20.00     0.002 C 
HETATM    2  C2  UNL     1     -40.923  14.381   9.824  1.00 20.00     0.005 C 
HETATM    3  C3  UNL     1     -42.072  16.614   9.618  1.00 20.00     0.020 C 
HETATM    4  C4  UNL     1     -40.330  15.930   7.900  1.00 20.00     0.024 C 
HETATM    5  C5  UNL     1     -40.391  14.470   8.388  1.00 20.00    -0.013 C 
HETATM    6  C6  UNL     1     -41.572  16.782   8.183  1.00 20.00     0.082 C 
HETATM    7 CL12 UNL     1     -42.882  16.434   7.015  1.00 20.00    -0.125 Cl
ENDROOT
BRANCH   5   8
HETATM    8  C9  UNL     1     -41.166  13.550   7.443  1.00 20.00     0.009 C 
BRANCH   8   9
HETATM    9  C11 UNL     1     -40.530  13.422   6.044  1.00 20.00    -0.019 C 
HETATM   10  C8  UNL     1     -41.534  13.746   4.934  1.00 20.00     0.010 C 
BRANCH   9  11
HETATM   11  C10 UNL     1     -39.954  11.998   5.892  1.00 20.00    -0.000 C 
HETATM   12  C7  UNL     1     -39.286  11.745   4.548  1.00 20.00     0.005 C 
ENDBRANCH   9  11
ENDBRANCH   8   9
ENDBRANCH   5   8
TORSDOF 3
ENDMDL
MODEL 4
REMARK VINA RESULT:      -3.6     11.893     13.539
REMARK  3 active torsions:
REMARK  status: ('A' for Active; 'I' for Inactive)
REMARK    1  A    between atoms: C5_5  and  C9_9 
REMARK    2  A    between atoms: C9_9  and  C11_11 
REMARK    3  A    between atoms: C10_10  and  C11_11 
ROOT
HETATM    1  C1  UNL     1     -33.609  16.646  -1.981  1.00 20.00     0.002 C 
HETATM    2  C2  UNL     1     -33.239  16.380  -3.437  1.00 20.00     0.005 C 
HETATM    3  C3  UNL     1     -33.286  18.083  -1.581  1.00 20.00     0.020 C 
HETATM    4  C4  UNL     1     -33.681  18.822  -3.979  1.00 20.00     0.024 C 
HETATM    5  C5  UNL     1     -33.898  17.361  -4.416  1.00 20.00    -0.013 C 
HETATM    6  C6  UNL     1     -33.934  19.121  -2.497  1.00 20.00     0.082 C 
HETATM    7 CL12 UNL     1     -35.683  19.263  -2.149  1.00 20.00    -0.125 Cl
ENDROOT
BRANCH   5   8
HETATM    8  C9  UNL     1     -35.368  17.015  -4.657  1.00 20.00     0.009 C 
BRANCH   8   9
HETATM    9  C11 UNL     1     -35.618  16.262  -5.979  1.00 20.00    -0.019 C 
HETATM   10  C8  UNL     1     -35.610  14.744  -5.778  1.00 20.00     0.010 C 
BRANCH   9  11
HETATM   11  C10 UNL     1     -34.554  16.705  -7.007  1.00 20.00    -0.000 C 
HETATM   12  C7  UNL     1     -33.856  15.548  -7.707  1.00 20.00     0.005 C 
ENDBRANCH   9  11
ENDBRANCH   8   9
ENDBRANCH   5   8
TORSDOF 3
ENDMDL
MODEL 5
REMARK VINA RESULT:      -3.6     10.770     11.580
REMARK  3 active torsions:
REMARK  status: ('A' for Active; 'I' for Inactive)
REMARK    1  A    between atoms: C5_5  and  C9_9 
REMARK    2  A    between atoms: C9_9  and  C11_11 
REMARK    3  A    between atoms: C10_10  and  C11_11 
ROOT
HETATM    1  C1  UNL     1     -40.087  15.147   9.567  1.00 20.00     0.002 C 
HETATM    2  C2  UNL     1     -40.431  15.668   8.174  1.00 20.00     0.005 C 
HETATM    3  C3  UNL     1     -41.177  15.501  10.575  1.00 20.00     0.020 C 
HETATM    4  C4  UNL     1     -42.902  15.428   8.711  1.00 20.00     0.024 C 
HETATM    5  C5  UNL     1     -41.796  15.183   7.668  1.00 20.00    -0.013 C 
HETATM    6  C6  UNL     1     -42.565  15.022  10.151  1.00 20.00     0.082 C 
HETATM    7 CL12 UNL     1     -42.719  13.255  10.384  1.00 20.00    -0.125 Cl
ENDROOT
BRANCH   5   8
HETATM    8  C9  UNL     1     -41.734  13.733   7.183  1.00 20.00     0.009 C 
BRANCH   8   9
HETATM    9  C11 UNL     1     -40.846  13.535   5.939  1.00 20.00    -0.019 C 
HETATM   10  C8  UNL     1     -41.604  13.847   4.645  1.00 20.00     0.010 C 
BRANCH   9  11
HETATM   11  C10 UNL     1     -40.303  12.089   5.945  1.00 20.00    -0.000 C 
HETATM   12  C7  UNL     1     -39.398  11.766   4.764  1.00 20.00     0.005 C 
ENDBRANCH   9  11
ENDBRANCH   8   9
ENDBRANCH   5   8
TORSDOF 3
ENDMDL
MODEL 6
REMARK VINA RESULT:      -3.5     12.579     14.255
REMARK  3 active torsions:
REMARK  status: ('A' for Active; 'I' for Inactive)
REMARK    1  A    between atoms: C5_5  and  C9_9 
REMARK    2  A    between atoms: C9_9  and  C11_11 
REMARK    3  A    between atoms: C10_10  and  C11_11 
ROOT
HETATM    1  C1  UNL     1     -28.666  -3.450  10.060  1.00 20.00     0.002 C 
HETATM    2  C2  UNL     1     -27.568  -4.202  10.809  1.00 20.00     0.005 C 
HETATM    3  C3  UNL     1     -29.248  -2.327  10.913  1.00 20.00     0.020 C 
HETATM    4  C4  UNL     1     -27.009  -2.080  12.087  1.00 20.00     0.024 C 
HETATM    5  C5  UNL     1     -26.446  -3.286  11.313  1.00 20.00    -0.013 C 
HETATM    6  C6  UNL     1     -28.188  -1.354  11.429  1.00 20.00     0.082 C 
HETATM    7 CL12 UNL     1     -27.636  -0.270  10.117  1.00 20.00    -0.125 Cl
ENDROOT
BRANCH   5   8
HETATM    8  C9  UNL     1     -25.494  -2.888  10.184  1.00 20.00     0.009 C 
BRANCH   8   9
HETATM    9  C11 UNL     1     -24.176  -3.688  10.174  1.00 20.00    -0.019 C 
HETATM   10  C8  UNL     1     -23.667  -3.958  11.593  1.00 20.00     0.010 C 
BRANCH   9  11
HETATM   11  C10 UNL     1     -23.136  -2.916   9.334  1.00 20.00    -0.000 C 
HETATM   12  C7  UNL     1     -23.167  -3.257   7.850  1.00 20.00     0.005 C 
ENDBRANCH   9  11
ENDBRANCH   8   9
ENDBRANCH   5   8
TORSDOF 3
ENDMDL
MODEL 7
REMARK VINA RESULT:      -3.5     11.680     13.277
REMARK  3 active torsions:
REMARK  status: ('A' for Active; 'I' for Inactive)
REMARK    1  A    between atoms: C5_5  and  C9_9 
REMARK    2  A    between atoms: C9_9  and  C11_11 
REMARK    3  A    between atoms: C10_10  and  C11_11 
ROOT
HETATM    1  C1  UNL     1     -33.703  16.652  -1.954  1.00 20.00     0.002 C 
HETATM    2  C2  UNL     1     -33.013  16.648  -3.315  1.00 20.00     0.005 C 
HETATM    3  C3  UNL     1     -33.749  18.057  -1.361  1.00 20.00     0.020 C 
HETATM    4  C4  UNL     1     -33.806  19.029  -3.707  1.00 20.00     0.024 C 
HETATM    5  C5  UNL     1     -33.646  17.624  -4.316  1.00 20.00    -0.013 C 
HETATM    6  C6  UNL     1     -34.395  19.082  -2.293  1.00 20.00     0.082 C 
HETATM    7 CL12 UNL     1     -36.172  18.876  -2.319  1.00 20.00    -0.125 Cl
ENDROOT
BRANCH   5   8
HETATM    8  C9  UNL     1     -34.945  17.066  -4.900  1.00 20.00     0.009 C 
BRANCH   8   9
HETATM    9  C11 UNL     1     -34.757  15.755  -5.689  1.00 20.00    -0.019 C 
HETATM   10  C8  UNL     1     -34.434  16.021  -7.162  1.00 20.00     0.010 C 
BRANCH   9  11
HETATM   11  C10 UNL     1     -36.032  14.898  -5.533  1.00 20.00    -0.000 C 
HETATM   12  C7  UNL     1     -35.854  13.691  -4.623  1.00 20.00     0.005 C 
ENDBRANCH   9  11
ENDBRANCH   8   9
ENDBRANCH   5   8
TORSDOF 3
ENDMDL
MODEL 8
REMARK VINA RESULT:      -3.5     12.200     13.941
REMARK  3 active torsions:
REMARK  status: ('A' for Active; 'I' for Inactive)
REMARK    1  A    between atoms: C5_5  and  C9_9 
REMARK    2  A    between atoms: C9_9  and  C11_11 
REMARK    3  A    between atoms: C10_10  and  C11_11 
ROOT
HETATM    1  C1  UNL     1     -33.751  15.356  -7.021  1.00 20.00     0.002 C 
HETATM    2  C2  UNL     1     -34.273  14.843  -5.682  1.00 20.00     0.005 C 
HETATM    3  C3  UNL     1     -34.764  16.279  -7.693  1.00 20.00     0.020 C 
HETATM    4  C4  UNL     1     -35.621  16.978  -5.406  1.00 20.00     0.024 C 
HETATM    5  C5  UNL     1     -34.682  15.968  -4.722  1.00 20.00    -0.013 C 
HETATM    6  C6  UNL     1     -35.198  17.444  -6.804  1.00 20.00     0.082 C 
HETATM    7 CL12 UNL     1     -33.908  18.682  -6.717  1.00 20.00    -0.125 Cl
ENDROOT
BRANCH   5   8
HETATM    8  C9  UNL     1     -33.462  16.622  -4.070  1.00 20.00     0.009 C 
BRANCH   8   9
HETATM    9  C11 UNL     1     -33.821  17.653  -2.982  1.00 20.00    -0.019 C 
HETATM   10  C8  UNL     1     -33.046  18.962  -3.164  1.00 20.00     0.010 C 
BRANCH   9  11
HETATM   11  C10 UNL     1     -33.554  17.023  -1.598  1.00 20.00    -0.000 C 
HETATM   12  C7  UNL     1     -33.769  17.980  -0.434  1.00 20.00     0.005 C 
ENDBRANCH   9  11
ENDBRANCH   8   9
ENDBRANCH   5   8
TORSDOF 3
ENDMDL
MODEL 9
REMARK VINA RESULT:      -3.5     11.913     13.957
REMARK  3 active torsions:
REMARK  status: ('A' for Active; 'I' for Inactive)
REMARK    1  A    between atoms: C5_5  and  C9_9 
REMARK    2  A    between atoms: C9_9  and  C11_11 
REMARK    3  A    between atoms: C10_10  and  C11_11 
ROOT
HETATM    1  C1  UNL     1     -35.984  17.880  -7.288  1.00 20.00     0.002 C 
HETATM    2  C2  UNL     1     -34.844  16.889  -7.072  1.00 20.00     0.005 C 
HETATM    3  C3  UNL     1     -37.343  17.201  -7.146  1.00 20.00     0.020 C 
HETATM    4  C4  UNL     1     -36.327  15.549  -5.505  1.00 20.00     0.024 C 
HETATM    5  C5  UNL     1     -34.930  16.155  -5.728  1.00 20.00    -0.013 C 
HETATM    6  C6  UNL     1     -37.513  16.471  -5.814  1.00 20.00     0.082 C 
HETATM    7 CL12 UNL     1     -37.794  17.639  -4.487  1.00 20.00    -0.125 Cl
ENDROOT
BRANCH   5   8
HETATM    8  C9  UNL     1     -34.464  17.042  -4.571  1.00 20.00     0.009 C 
BRANCH   8   9
HETATM    9  C11 UNL     1     -33.282  16.453  -3.776  1.00 20.00    -0.019 C 
HETATM   10  C8  UNL     1     -33.032  14.986  -4.137  1.00 20.00     0.010 C 
BRANCH   9  11
HETATM   11  C10 UNL     1     -33.566  16.627  -2.268  1.00 20.00    -0.000 C 
HETATM   12  C7  UNL     1     -32.798  17.774  -1.626  1.00 20.00     0.005 C 
ENDBRANCH   9  11
ENDBRANCH   8   9
ENDBRANCH   5   8
TORSDOF 3
ENDMDL
