MODEL 1
REMARK VINA RESULT:      -5.4      0.000      0.000
REMARK  1 active torsions:
REMARK  status: ('A' for Active; 'I' for Inactive)
REMARK    1  A    between atoms: C8_8  and  C10_10 
ROOT
HETATM    1  C1  UNL     1     -32.967   9.498   0.162  1.00 20.00     0.012 C 
HETATM    2  C2  UNL     1     -32.464   8.764   0.967  1.00 20.00    -0.117 C 
HETATM    3  C10 UNL     1     -31.835   7.869   1.938  1.00 20.00     0.097 C 
ENDROOT
BRANCH   3   4
HETATM    4  C8  UNL     1     -32.789   7.576   3.105  1.00 20.00    -0.002 C 
HETATM    5  C5  UNL     1     -32.276   8.308   4.358  1.00 20.00     0.005 C 
HETATM    6  C3  UNL     1     -33.248   8.376   5.533  1.00 20.00     0.000 C 
HETATM    7  C4  UNL     1     -33.787   7.033   6.025  1.00 20.00     0.001 C 
HETATM    8  C6  UNL     1     -34.788   6.416   5.051  1.00 20.00     0.020 C 
HETATM    9  C9  UNL     1     -34.172   5.556   3.948  1.00 20.00     0.082 C 
HETATM   10  C7  UNL     1     -32.862   6.055   3.331  1.00 20.00     0.025 C 
HETATM   11 CL11 UNL     1     -33.910   3.883   4.555  1.00 20.00    -0.125 Cl
ENDBRANCH   3   4
TORSDOF 1
ENDMDL
MODEL 2
REMARK VINA RESULT:      -4.2     11.275     12.596
REMARK  1 active torsions:
REMARK  status: ('A' for Active; 'I' for Inactive)
REMARK    1  A    between atoms: C8_8  and  C10_10 
ROOT
HETATM    1  C1  UNL     1     -30.859  18.850   0.408  1.00 20.00     0.012 C 
HETATM    2  C2  UNL     1     -32.010  18.571   0.213  1.00 20.00    -0.117 C 
HETATM    3  C10 UNL     1     -33.415  18.231  -0.006  1.00 20.00     0.097 C 
ENDROOT
BRANCH   3   4
HETATM    4  C8  UNL     1     -33.738  18.194  -1.506  1.00 20.00    -0.002 C 
HETATM    5  C5  UNL     1     -35.157  18.752  -1.719  1.00 20.00     0.005 C 
HETATM    6  C3  UNL     1     -35.538  19.067  -3.163  1.00 20.00     0.000 C 
HETATM    7  C4  UNL     1     -35.389  17.914  -4.154  1.00 20.00     0.001 C 
HETATM    8  C6  UNL     1     -33.928  17.596  -4.461  1.00 20.00     0.020 C 
HETATM    9  C9  UNL     1     -33.263  16.612  -3.499  1.00 20.00     0.082 C 
HETATM   10  C7  UNL     1     -33.620  16.747  -2.016  1.00 20.00     0.025 C 
HETATM   11 CL11 UNL     1     -33.617  14.924  -4.014  1.00 20.00    -0.125 Cl
ENDBRANCH   3   4
TORSDOF 1
ENDMDL
MODEL 3
REMARK VINA RESULT:      -4.1     11.697     12.903
REMARK  1 active torsions:
REMARK  status: ('A' for Active; 'I' for Inactive)
REMARK    1  A    between atoms: C8_8  and  C10_10 
ROOT
HETATM    1  C1  UNL     1     -34.042  18.004   0.035  1.00 20.00     0.012 C 
HETATM    2  C2  UNL     1     -33.483  17.733  -0.993  1.00 20.00    -0.117 C 
HETATM    3  C10 UNL     1     -32.787  17.409  -2.237  1.00 20.00     0.097 C 
ENDROOT
BRANCH   3   4
HETATM    4  C8  UNL     1     -33.748  16.770  -3.248  1.00 20.00    -0.002 C 
HETATM    5  C5  UNL     1     -33.102  15.486  -3.800  1.00 20.00     0.005 C 
HETATM    6  C3  UNL     1     -34.026  14.563  -4.590  1.00 20.00     0.000 C 
HETATM    7  C4  UNL     1     -34.753  15.205  -5.770  1.00 20.00     0.001 C 
HETATM    8  C6  UNL     1     -35.857  16.160  -5.324  1.00 20.00     0.020 C 
HETATM    9  C9  UNL     1     -35.405  17.595  -5.058  1.00 20.00     0.082 C 
HETATM   10  C7  UNL     1     -34.048  17.777  -4.372  1.00 20.00     0.025 C 
HETATM   11 CL11 UNL     1     -35.388  18.523  -6.600  1.00 20.00    -0.125 Cl
ENDBRANCH   3   4
TORSDOF 1
ENDMDL
MODEL 4
REMARK VINA RESULT:      -4.1      9.991     10.906
REMARK  1 active torsions:
REMARK  status: ('A' for Active; 'I' for Inactive)
REMARK    1  A    between atoms: C8_8  and  C10_10 
ROOT
HETATM    1  C1  UNL     1     -38.932  11.745   3.475  1.00 20.00     0.012 C 
HETATM    2  C2  UNL     1     -39.322  11.711   4.609  1.00 20.00    -0.117 C 
HETATM    3  C10 UNL     1     -39.786  11.655   5.995  1.00 20.00     0.097 C 
ENDROOT
BRANCH   3   4
HETATM    4  C8  UNL     1     -40.812  12.763   6.270  1.00 20.00    -0.002 C 
HETATM    5  C5  UNL     1     -41.176  13.441   4.937  1.00 20.00     0.005 C 
HETATM    6  C3  UNL     1     -42.393  14.361   4.969  1.00 20.00     0.000 C 
HETATM    7  C4  UNL     1     -42.350  15.480   6.008  1.00 20.00     0.001 C 
HETATM    8  C6  UNL     1     -42.531  14.959   7.431  1.00 20.00     0.020 C 
HETATM    9  C9  UNL     1     -41.245  14.514   8.127  1.00 20.00     0.082 C 
HETATM   10  C7  UNL     1     -40.217  13.770   7.270  1.00 20.00     0.025 C 
HETATM   11 CL11 UNL     1     -40.435  15.936   8.876  1.00 20.00    -0.125 Cl
ENDBRANCH   3   4
TORSDOF 1
ENDMDL
MODEL 5
REMARK VINA RESULT:      -4.1     12.770     13.887
REMARK  1 active torsions:
REMARK  status: ('A' for Active; 'I' for Inactive)
REMARK    1  A    between atoms: C8_8  and  C10_10 
ROOT
HETATM    1  C1  UNL     1     -23.199  -3.220   7.864  1.00 20.00     0.012 C 
HETATM    2  C2  UNL     1     -23.713  -3.331   8.942  1.00 20.00    -0.117 C 
HETATM    3  C10 UNL     1     -24.327  -3.480  10.262  1.00 20.00     0.097 C 
ENDROOT
BRANCH   3   4
HETATM    4  C8  UNL     1     -25.519  -2.526  10.418  1.00 20.00    -0.002 C 
HETATM    5  C5  UNL     1     -25.323  -1.697  11.700  1.00 20.00     0.005 C 
HETATM    6  C3  UNL     1     -26.252  -0.497  11.864  1.00 20.00     0.000 C 
HETATM    7  C4  UNL     1     -27.747  -0.800  11.786  1.00 20.00     0.001 C 
HETATM    8  C6  UNL     1     -28.200  -1.134  10.367  1.00 20.00     0.020 C 
HETATM    9  C9  UNL     1     -28.068  -2.605   9.974  1.00 20.00     0.082 C 
HETATM   10  C7  UNL     1     -26.821  -3.345  10.469  1.00 20.00     0.025 C 
HETATM   11 CL11 UNL     1     -29.520  -3.515  10.526  1.00 20.00    -0.125 Cl
ENDBRANCH   3   4
TORSDOF 1
ENDMDL
MODEL 6
REMARK VINA RESULT:      -4.0      1.860      2.671
REMARK  1 active torsions:
REMARK  status: ('A' for Active; 'I' for Inactive)
REMARK    1  A    between atoms: C8_8  and  C10_10 
ROOT
HETATM    1  C1  UNL     1     -32.898   9.427   1.227  1.00 20.00     0.012 C 
HETATM    2  C2  UNL     1     -32.477   8.380   1.637  1.00 20.00    -0.117 C 
HETATM    3  C10 UNL     1     -31.951   7.104   2.120  1.00 20.00     0.097 C 
ENDROOT
BRANCH   3   4
HETATM    4  C8  UNL     1     -32.603   6.719   3.456  1.00 20.00    -0.002 C 
HETATM    5  C5  UNL     1     -33.734   5.712   3.181  1.00 20.00     0.005 C 
HETATM    6  C3  UNL     1     -34.298   4.995   4.404  1.00 20.00     0.000 C 
HETATM    7  C4  UNL     1     -34.807   5.898   5.526  1.00 20.00     0.001 C 
HETATM    8  C6  UNL     1     -33.671   6.587   6.279  1.00 20.00     0.020 C 
HETATM    9  C9  UNL     1     -33.202   7.910   5.675  1.00 20.00     0.082 C 
HETATM   10  C7  UNL     1     -33.133   7.987   4.147  1.00 20.00     0.025 C 
HETATM   11 CL11 UNL     1     -34.247   9.252   6.262  1.00 20.00    -0.125 Cl
ENDBRANCH   3   4
TORSDOF 1
ENDMDL
MODEL 7
REMARK VINA RESULT:      -3.8     11.478     12.760
REMARK  1 active torsions:
REMARK  status: ('A' for Active; 'I' for Inactive)
REMARK    1  A    between atoms: C8_8  and  C10_10 
ROOT
HETATM    1  C1  UNL     1     -35.640  13.753  -4.547  1.00 20.00     0.012 C 
HETATM    2  C2  UNL     1     -34.546  14.234  -4.434  1.00 20.00    -0.117 C 
HETATM    3  C10 UNL     1     -33.205  14.803  -4.303  1.00 20.00     0.097 C 
ENDROOT
BRANCH   3   4
HETATM    4  C8  UNL     1     -33.278  16.268  -3.851  1.00 20.00    -0.002 C 
HETATM    5  C5  UNL     1     -33.591  16.305  -2.344  1.00 20.00     0.005 C 
HETATM    6  C3  UNL     1     -33.412  17.658  -1.661  1.00 20.00     0.000 C 
HETATM    7  C4  UNL     1     -34.188  18.821  -2.278  1.00 20.00     0.001 C 
HETATM    8  C6  UNL     1     -33.607  19.263  -3.618  1.00 20.00     0.020 C 
HETATM    9  C9  UNL     1     -34.135  18.505  -4.835  1.00 20.00     0.082 C 
HETATM   10  C7  UNL     1     -34.358  16.998  -4.669  1.00 20.00     0.025 C 
HETATM   11 CL11 UNL     1     -35.676  19.247  -5.393  1.00 20.00    -0.125 Cl
ENDBRANCH   3   4
TORSDOF 1
ENDMDL
MODEL 8
REMARK VINA RESULT:      -3.8     10.428     11.463
REMARK  1 active torsions:
REMARK  status: ('A' for Active; 'I' for Inactive)
REMARK    1  A    between atoms: C8_8  and  C10_10 
ROOT
HETATM    1  C1  UNL     1     -38.633  11.758   4.858  1.00 20.00     0.012 C 
HETATM    2  C2  UNL     1     -39.670  12.347   4.995  1.00 20.00    -0.117 C 
HETATM    3  C10 UNL     1     -40.936  13.064   5.144  1.00 20.00     0.097 C 
ENDROOT
BRANCH   3   4
HETATM    4  C8  UNL     1     -41.247  13.315   6.626  1.00 20.00    -0.002 C 
HETATM    5  C5  UNL     1     -42.717  12.942   6.892  1.00 20.00     0.005 C 
HETATM    6  C3  UNL     1     -43.124  12.846   8.360  1.00 20.00     0.000 C 
HETATM    7  C4  UNL     1     -42.847  14.087   9.207  1.00 20.00     0.001 C 
HETATM    8  C6  UNL     1     -41.359  14.282   9.487  1.00 20.00     0.020 C 
HETATM    9  C9  UNL     1     -40.596  15.066   8.419  1.00 20.00     0.082 C 
HETATM   10  C7  UNL     1     -40.971  14.792   6.960  1.00 20.00     0.025 C 
HETATM   11 CL11 UNL     1     -40.764  16.831   8.724  1.00 20.00    -0.125 Cl
ENDBRANCH   3   4
TORSDOF 1
ENDMDL
MODEL 9
REMARK VINA RESULT:      -3.7     10.947     12.002
REMARK  1 active torsions:
REMARK  status: ('A' for Active; 'I' for Inactive)
REMARK    1  A    between atoms: C8_8  and  C10_10 
ROOT
HETATM    1  C1  UNL     1     -38.900  12.141   5.155  1.00 20.00     0.012 C 
HETATM    2  C2  UNL     1     -39.972  12.216   5.690  1.00 20.00    -0.117 C 
HETATM    3  C10 UNL     1     -41.276  12.289   6.348  1.00 20.00     0.097 C 
ENDROOT
BRANCH   3   4
HETATM    4  C8  UNL     1     -41.896  13.682   6.174  1.00 20.00    -0.002 C 
HETATM    5  C5  UNL     1     -41.969  14.006   4.671  1.00 20.00     0.005 C 
HETATM    6  C3  UNL     1     -42.821  15.214   4.291  1.00 20.00     0.000 C 
HETATM    7  C4  UNL     1     -42.455  16.526   4.984  1.00 20.00     0.001 C 
HETATM    8  C6  UNL     1     -42.849  16.535   6.459  1.00 20.00     0.020 C 
HETATM    9  C9  UNL     1     -41.805  15.954   7.412  1.00 20.00     0.082 C 
HETATM   10  C7  UNL     1     -41.043  14.715   6.932  1.00 20.00     0.025 C 
HETATM   11 CL11 UNL     1     -40.605  17.223   7.846  1.00 20.00    -0.125 Cl
ENDBRANCH   3   4
TORSDOF 1
ENDMDL
