MODEL 1
REMARK VINA RESULT:      -4.3      0.000      0.000
REMARK  2 active torsions:
REMARK  status: ('A' for Active; 'I' for Inactive)
REMARK    1  A    between atoms: C4_4  and  C10_10 
REMARK    2  A    between atoms: C8_8  and  C10_10 
ROOT
HETATM    1  C5  UNL     1     -33.174  15.916  -3.427  1.00 20.00     0.006 C 
HETATM    2  C6  UNL     1     -34.457  16.116  -4.224  1.00 20.00     0.016 C 
HETATM    3  C7  UNL     1     -33.322  18.266  -3.868  1.00 20.00     0.020 C 
HETATM    4  C8  UNL     1     -32.921  17.272  -2.772  1.00 20.00    -0.009 C 
HETATM    5  C9  UNL     1     -34.394  17.565  -4.702  1.00 20.00     0.058 C 
HETATM    6 BR12 UNL     1     -36.124  18.432  -4.485  1.00 20.00    -0.091 Br
ENDROOT
BRANCH   4   7
HETATM    7  C10 UNL     1     -33.732  17.462  -1.492  1.00 20.00     0.043 C 
BRANCH   7   8
HETATM    8  C4  UNL     1     -32.929  18.147  -0.416  1.00 20.00    -0.051 A 
HETATM    9  C1  UNL     1     -31.556  18.500  -0.552  1.00 20.00     0.014 A 
HETATM   10  C2  UNL     1     -31.065  19.114   0.579  1.00 20.00     0.050 A 
HETATM   11  S11 UNL     1     -32.257  19.263   1.798  1.00 20.00    -0.113 SA
HETATM   12  C3  UNL     1     -33.435  18.505   0.815  1.00 20.00     0.056 A 
ENDBRANCH   7   8
ENDBRANCH   4   7
TORSDOF 2
ENDMDL
MODEL 2
REMARK VINA RESULT:      -4.2      3.409      5.327
REMARK  2 active torsions:
REMARK  status: ('A' for Active; 'I' for Inactive)
REMARK    1  A    between atoms: C4_4  and  C10_10 
REMARK    2  A    between atoms: C8_8  and  C10_10 
ROOT
HETATM    1  C5  UNL     1     -34.536  18.770  -0.719  1.00 20.00     0.006 C 
HETATM    2  C6  UNL     1     -33.783  18.704   0.603  1.00 20.00     0.016 C 
HETATM    3  C7  UNL     1     -32.249  19.262  -1.234  1.00 20.00     0.020 C 
HETATM    4  C8  UNL     1     -33.467  18.507  -1.777  1.00 20.00    -0.009 C 
HETATM    5  C9  UNL     1     -32.398  19.263   0.288  1.00 20.00     0.058 C 
HETATM    6 BR12 UNL     1     -31.015  18.177   1.125  1.00 20.00    -0.091 Br
ENDROOT
BRANCH   4   7
HETATM    7  C10 UNL     1     -33.188  17.018  -1.968  1.00 20.00     0.043 C 
BRANCH   7   8
HETATM    8  C4  UNL     1     -33.665  16.524  -3.309  1.00 20.00    -0.051 A 
HETATM    9  C1  UNL     1     -33.467  15.196  -3.784  1.00 20.00     0.014 A 
HETATM   10  C2  UNL     1     -34.002  15.010  -5.039  1.00 20.00     0.050 A 
HETATM   11  S11 UNL     1     -34.740  16.433  -5.640  1.00 20.00    -0.113 SA
HETATM   12  C3  UNL     1     -34.345  17.303  -4.220  1.00 20.00     0.056 A 
ENDBRANCH   7   8
ENDBRANCH   4   7
TORSDOF 2
ENDMDL
MODEL 3
REMARK VINA RESULT:      -3.5      2.216      3.325
REMARK  2 active torsions:
REMARK  status: ('A' for Active; 'I' for Inactive)
REMARK    1  A    between atoms: C4_4  and  C10_10 
REMARK    2  A    between atoms: C8_8  and  C10_10 
ROOT
HETATM    1  C5  UNL     1     -34.790  14.575  -4.600  1.00 20.00     0.006 C 
HETATM    2  C6  UNL     1     -35.951  14.481  -5.582  1.00 20.00     0.016 C 
HETATM    3  C7  UNL     1     -34.085  15.735  -6.574  1.00 20.00     0.020 C 
HETATM    4  C8  UNL     1     -34.019  15.816  -5.045  1.00 20.00    -0.009 C 
HETATM    5  C9  UNL     1     -35.385  15.000  -6.901  1.00 20.00     0.058 C 
HETATM    6 BR12 UNL     1     -36.659  16.189  -7.771  1.00 20.00    -0.091 Br
ENDROOT
BRANCH   4   7
HETATM    7  C10 UNL     1     -34.629  17.108  -4.505  1.00 20.00     0.043 C 
BRANCH   7   8
HETATM    8  C4  UNL     1     -33.822  17.678  -3.369  1.00 20.00    -0.051 A 
HETATM    9  C1  UNL     1     -33.572  16.989  -2.148  1.00 20.00     0.014 A 
HETATM   10  C2  UNL     1     -32.807  17.736  -1.279  1.00 20.00     0.050 A 
HETATM   11  S11 UNL     1     -32.395  19.262  -1.936  1.00 20.00    -0.113 SA
HETATM   12  C3  UNL     1     -33.239  18.927  -3.387  1.00 20.00     0.056 A 
ENDBRANCH   7   8
ENDBRANCH   4   7
TORSDOF 2
ENDMDL
MODEL 4
REMARK VINA RESULT:      -3.5      2.946      5.052
REMARK  2 active torsions:
REMARK  status: ('A' for Active; 'I' for Inactive)
REMARK    1  A    between atoms: C4_4  and  C10_10 
REMARK    2  A    between atoms: C8_8  and  C10_10 
ROOT
HETATM    1  C5  UNL     1     -31.730  18.342  -0.964  1.00 20.00     0.006 C 
HETATM    2  C6  UNL     1     -32.746  19.262  -0.302  1.00 20.00     0.016 C 
HETATM    3  C7  UNL     1     -33.765  17.087  -0.819  1.00 20.00     0.020 C 
HETATM    4  C8  UNL     1     -32.579  17.347  -1.753  1.00 20.00    -0.009 C 
HETATM    5  C9  UNL     1     -33.942  18.363   0.004  1.00 20.00     0.058 C 
HETATM    6 BR12 UNL     1     -35.608  19.263  -0.451  1.00 20.00    -0.091 Br
ENDROOT
BRANCH   4   7
HETATM    7  C10 UNL     1     -33.017  17.900  -3.108  1.00 20.00     0.043 C 
BRANCH   7   8
HETATM    8  C4  UNL     1     -33.634  16.834  -3.976  1.00 20.00    -0.051 A 
HETATM    9  C1  UNL     1     -33.144  15.500  -4.066  1.00 20.00     0.014 A 
HETATM   10  C2  UNL     1     -33.891  14.731  -4.930  1.00 20.00     0.050 A 
HETATM   11  S11 UNL     1     -35.178  15.618  -5.629  1.00 20.00    -0.113 SA
HETATM   12  C3  UNL     1     -34.738  17.034  -4.776  1.00 20.00     0.056 A 
ENDBRANCH   7   8
ENDBRANCH   4   7
TORSDOF 2
ENDMDL
MODEL 5
REMARK VINA RESULT:      -3.4      1.425      2.073
REMARK  2 active torsions:
REMARK  status: ('A' for Active; 'I' for Inactive)
REMARK    1  A    between atoms: C4_4  and  C10_10 
REMARK    2  A    between atoms: C8_8  and  C10_10 
ROOT
HETATM    1  C5  UNL     1     -34.804  18.477  -1.291  1.00 20.00     0.006 C 
HETATM    2  C6  UNL     1     -35.047  19.151  -2.635  1.00 20.00     0.016 C 
HETATM    3  C7  UNL     1     -33.630  17.164  -2.915  1.00 20.00     0.020 C 
HETATM    4  C8  UNL     1     -33.501  17.705  -1.487  1.00 20.00    -0.009 C 
HETATM    5  C9  UNL     1     -34.507  18.165  -3.667  1.00 20.00     0.058 C 
HETATM    6 BR12 UNL     1     -33.485  19.099  -5.036  1.00 20.00    -0.091 Br
ENDROOT
BRANCH   4   7
HETATM    7  C10 UNL     1     -32.267  18.588  -1.310  1.00 20.00     0.043 C 
BRANCH   7   8
HETATM    8  C4  UNL     1     -31.876  18.723   0.138  1.00 20.00    -0.051 A 
HETATM    9  C1  UNL     1     -30.598  18.364   0.654  1.00 20.00     0.014 A 
HETATM   10  C2  UNL     1     -30.505  18.588   2.010  1.00 20.00     0.050 A 
HETATM   11  S11 UNL     1     -31.955  19.230   2.656  1.00 20.00    -0.113 SA
HETATM   12  C3  UNL     1     -32.712  19.209   1.121  1.00 20.00     0.056 A 
ENDBRANCH   7   8
ENDBRANCH   4   7
TORSDOF 2
ENDMDL
MODEL 6
REMARK VINA RESULT:      -3.3      3.131      5.066
REMARK  2 active torsions:
REMARK  status: ('A' for Active; 'I' for Inactive)
REMARK    1  A    between atoms: C4_4  and  C10_10 
REMARK    2  A    between atoms: C8_8  and  C10_10 
ROOT
HETATM    1  C5  UNL     1     -31.540  18.530  -0.771  1.00 20.00     0.006 C 
HETATM    2  C6  UNL     1     -32.292  19.057   0.444  1.00 20.00     0.016 C 
HETATM    3  C7  UNL     1     -33.681  17.455  -0.798  1.00 20.00     0.020 C 
HETATM    4  C8  UNL     1     -32.641  18.083  -1.732  1.00 20.00    -0.009 C 
HETATM    5  C9  UNL     1     -33.536  18.178   0.542  1.00 20.00     0.058 C 
HETATM    6 BR12 UNL     1     -35.109  19.258   0.927  1.00 20.00    -0.091 Br
ENDROOT
BRANCH   4   7
HETATM    7  C10 UNL     1     -33.214  19.243  -2.543  1.00 20.00     0.043 C 
BRANCH   7   8
HETATM    8  C4  UNL     1     -34.418  18.825  -3.346  1.00 20.00    -0.051 A 
HETATM    9  C1  UNL     1     -35.749  19.245  -3.061  1.00 20.00     0.014 A 
HETATM   10  C2  UNL     1     -36.660  18.718  -3.950  1.00 20.00     0.050 A 
HETATM   11  S11 UNL     1     -35.910  17.721  -5.123  1.00 20.00    -0.113 SA
HETATM   12  C3  UNL     1     -34.363  17.993  -4.443  1.00 20.00     0.056 A 
ENDBRANCH   7   8
ENDBRANCH   4   7
TORSDOF 2
ENDMDL
MODEL 7
REMARK VINA RESULT:      -3.2      3.697      5.714
REMARK  2 active torsions:
REMARK  status: ('A' for Active; 'I' for Inactive)
REMARK    1  A    between atoms: C4_4  and  C10_10 
REMARK    2  A    between atoms: C8_8  and  C10_10 
ROOT
HETATM    1  C5  UNL     1     -32.837  18.878  -3.694  1.00 20.00     0.006 C 
HETATM    2  C6  UNL     1     -32.625  19.263  -2.236  1.00 20.00     0.016 C 
HETATM    3  C7  UNL     1     -33.351  16.922  -2.411  1.00 20.00     0.020 C 
HETATM    4  C8  UNL     1     -33.820  17.711  -3.638  1.00 20.00    -0.009 C 
HETATM    5  C9  UNL     1     -32.713  17.944  -1.471  1.00 20.00     0.058 C 
HETATM    6 BR12 UNL     1     -33.773  18.162   0.148  1.00 20.00    -0.091 Br
ENDROOT
BRANCH   4   7
HETATM    7  C10 UNL     1     -35.270  18.175  -3.511  1.00 20.00     0.043 C 
BRANCH   7   8
HETATM    8  C4  UNL     1     -36.134  17.627  -4.617  1.00 20.00    -0.051 A 
HETATM    9  C1  UNL     1     -35.639  16.842  -5.697  1.00 20.00     0.014 A 
HETATM   10  C2  UNL     1     -36.639  16.471  -6.569  1.00 20.00     0.050 A 
HETATM   11  S11 UNL     1     -38.168  17.069  -6.083  1.00 20.00    -0.113 SA
HETATM   12  C3  UNL     1     -37.494  17.827  -4.704  1.00 20.00     0.056 A 
ENDBRANCH   7   8
ENDBRANCH   4   7
TORSDOF 2
ENDMDL
MODEL 8
REMARK VINA RESULT:      -3.2     11.752     12.550
REMARK  2 active torsions:
REMARK  status: ('A' for Active; 'I' for Inactive)
REMARK    1  A    between atoms: C4_4  and  C10_10 
REMARK    2  A    between atoms: C8_8  and  C10_10 
ROOT
HETATM    1  C5  UNL     1     -42.349  14.885   5.886  1.00 20.00     0.006 C 
HETATM    2  C6  UNL     1     -41.574  13.848   5.084  1.00 20.00     0.016 C 
HETATM    3  C7  UNL     1     -41.614  13.239   7.463  1.00 20.00     0.020 C 
HETATM    4  C8  UNL     1     -41.800  14.752   7.305  1.00 20.00    -0.009 C 
HETATM    5  C9  UNL     1     -41.340  12.698   6.060  1.00 20.00     0.058 C 
HETATM    6 BR12 UNL     1     -39.515  12.036   5.911  1.00 20.00    -0.091 Br
ENDROOT
BRANCH   4   7
HETATM    7  C10 UNL     1     -40.495  15.520   7.501  1.00 20.00     0.043 C 
BRANCH   7   8
HETATM    8  C4  UNL     1     -40.740  16.945   7.923  1.00 20.00    -0.051 A 
HETATM    9  C1  UNL     1     -40.450  18.077   7.109  1.00 20.00     0.014 A 
HETATM   10  C2  UNL     1     -40.770  19.262   7.735  1.00 20.00     0.050 A 
HETATM   11  S11 UNL     1     -41.419  19.006   9.298  1.00 20.00    -0.113 SA
HETATM   12  C3  UNL     1     -41.272  17.308   9.142  1.00 20.00     0.056 A 
ENDBRANCH   7   8
ENDBRANCH   4   7
TORSDOF 2
ENDMDL
MODEL 9
REMARK VINA RESULT:      -3.2      1.499      2.037
REMARK  2 active torsions:
REMARK  status: ('A' for Active; 'I' for Inactive)
REMARK    1  A    between atoms: C4_4  and  C10_10 
REMARK    2  A    between atoms: C8_8  and  C10_10 
ROOT
HETATM    1  C5  UNL     1     -34.049  19.262  -4.133  1.00 20.00     0.006 C 
HETATM    2  C6  UNL     1     -33.864  18.513  -5.446  1.00 20.00     0.016 C 
HETATM    3  C7  UNL     1     -35.723  17.549  -4.162  1.00 20.00     0.020 C 
HETATM    4  C8  UNL     1     -34.743  18.255  -3.219  1.00 20.00    -0.009 C 
HETATM    5  C9  UNL     1     -35.087  17.606  -5.551  1.00 20.00     0.058 C 
HETATM    6 BR12 UNL     1     -34.570  15.829  -6.155  1.00 20.00    -0.091 Br
ENDROOT
BRANCH   4   7
HETATM    7  C10 UNL     1     -33.760  17.282  -2.569  1.00 20.00     0.043 C 
BRANCH   7   8
HETATM    8  C4  UNL     1     -33.141  17.858  -1.323  1.00 20.00    -0.051 A 
HETATM    9  C1  UNL     1     -31.778  18.259  -1.224  1.00 20.00     0.014 A 
HETATM   10  C2  UNL     1     -31.472  18.752   0.026  1.00 20.00     0.050 A 
HETATM   11  S11 UNL     1     -32.826  18.730   1.073  1.00 20.00    -0.113 SA
HETATM   12  C3  UNL     1     -33.826  18.061  -0.144  1.00 20.00     0.056 A 
ENDBRANCH   7   8
ENDBRANCH   4   7
TORSDOF 2
ENDMDL
