MODEL 1
REMARK VINA RESULT:      -4.2      0.000      0.000
REMARK  4 active torsions:
REMARK  status: ('A' for Active; 'I' for Inactive)
REMARK    1  A    between atoms: C2_2  and  C5_5 
REMARK    2  A    between atoms: C5_5  and  C6_6 
REMARK    3  A    between atoms: C6_6  and  C7_7 
REMARK    4  A    between atoms: C7_7  and  C8_8 
ROOT
HETATM    1  C1  UNL     1     -32.391   7.960   4.050  1.00 20.00    -0.111 C 
HETATM    2  C2  UNL     1     -32.480   6.970   3.378  1.00 20.00    -0.107 C 
HETATM    3  C3  UNL     1     -32.284   9.165   4.872  1.00 20.00     0.112 C 
ENDROOT
BRANCH   2   4
HETATM    4  C5  UNL     1     -32.588   5.758   2.554  1.00 20.00     0.094 C 
BRANCH   4   5
HETATM    5  C6  UNL     1     -33.760   4.871   2.980  1.00 20.00     0.014 C 
BRANCH   5   6
HETATM    6  C7  UNL     1     -33.725   4.518   4.474  1.00 20.00     0.020 C 
BRANCH   6   7
HETATM    7  C8  UNL     1     -34.892   5.121   5.266  1.00 20.00     0.078 C 
HETATM    8  C4  UNL     1     -34.388   5.944   6.447  1.00 20.00     0.026 C 
HETATM    9 CL9  UNL     1     -35.904   6.168   4.224  1.00 20.00    -0.125 Cl
ENDBRANCH   6   7
ENDBRANCH   5   6
ENDBRANCH   4   5
ENDBRANCH   2   4
TORSDOF 4
ENDMDL
MODEL 2
REMARK VINA RESULT:      -4.2      1.660      2.727
REMARK  4 active torsions:
REMARK  status: ('A' for Active; 'I' for Inactive)
REMARK    1  A    between atoms: C2_2  and  C5_5 
REMARK    2  A    between atoms: C5_5  and  C6_6 
REMARK    3  A    between atoms: C6_6  and  C7_7 
REMARK    4  A    between atoms: C7_7  and  C8_8 
ROOT
HETATM    1  C1  UNL     1     -32.426   7.839   3.305  1.00 20.00    -0.111 C 
HETATM    2  C2  UNL     1     -32.669   7.897   4.480  1.00 20.00    -0.107 C 
HETATM    3  C3  UNL     1     -32.128   7.768   1.876  1.00 20.00     0.112 C 
ENDROOT
BRANCH   2   4
HETATM    4  C5  UNL     1     -32.966   7.968   5.917  1.00 20.00     0.094 C 
BRANCH   4   5
HETATM    5  C6  UNL     1     -34.283   7.272   6.271  1.00 20.00     0.014 C 
BRANCH   5   6
HETATM    6  C7  UNL     1     -34.149   5.744   6.333  1.00 20.00     0.020 C 
BRANCH   6   7
HETATM    7  C8  UNL     1     -34.871   5.025   5.186  1.00 20.00     0.078 C 
HETATM    8  C4  UNL     1     -35.673   6.008   4.340  1.00 20.00     0.026 C 
HETATM    9 CL9  UNL     1     -33.707   4.171   4.128  1.00 20.00    -0.125 Cl
ENDBRANCH   6   7
ENDBRANCH   5   6
ENDBRANCH   4   5
ENDBRANCH   2   4
TORSDOF 4
ENDMDL
MODEL 3
REMARK VINA RESULT:      -4.1      1.900      2.757
REMARK  4 active torsions:
REMARK  status: ('A' for Active; 'I' for Inactive)
REMARK    1  A    between atoms: C2_2  and  C5_5 
REMARK    2  A    between atoms: C5_5  and  C6_6 
REMARK    3  A    between atoms: C6_6  and  C7_7 
REMARK    4  A    between atoms: C7_7  and  C8_8 
ROOT
HETATM    1  C1  UNL     1     -32.509   8.564   1.326  1.00 20.00    -0.111 C 
HETATM    2  C2  UNL     1     -32.382   8.058   2.407  1.00 20.00    -0.107 C 
HETATM    3  C3  UNL     1     -32.666   9.180   0.009  1.00 20.00     0.112 C 
ENDROOT
BRANCH   2   4
HETATM    4  C5  UNL     1     -32.226   7.439   3.731  1.00 20.00     0.094 C 
BRANCH   4   5
HETATM    5  C6  UNL     1     -32.745   8.339   4.855  1.00 20.00     0.014 C 
BRANCH   5   6
HETATM    6  C7  UNL     1     -33.932   7.723   5.609  1.00 20.00     0.020 C 
BRANCH   6   7
HETATM    7  C8  UNL     1     -34.183   6.253   5.247  1.00 20.00     0.078 C 
HETATM    8  C4  UNL     1     -34.329   5.396   6.499  1.00 20.00     0.026 C 
HETATM    9 CL9  UNL     1     -35.661   6.079   4.253  1.00 20.00    -0.125 Cl
ENDBRANCH   6   7
ENDBRANCH   5   6
ENDBRANCH   4   5
ENDBRANCH   2   4
TORSDOF 4
ENDMDL
MODEL 4
REMARK VINA RESULT:      -4.0      2.125      4.376
REMARK  4 active torsions:
REMARK  status: ('A' for Active; 'I' for Inactive)
REMARK    1  A    between atoms: C2_2  and  C5_5 
REMARK    2  A    between atoms: C5_5  and  C6_6 
REMARK    3  A    between atoms: C6_6  and  C7_7 
REMARK    4  A    between atoms: C7_7  and  C8_8 
ROOT
HETATM    1  C1  UNL     1     -34.231   6.324   6.052  1.00 20.00    -0.111 C 
HETATM    2  C2  UNL     1     -33.763   7.426   5.976  1.00 20.00    -0.107 C 
HETATM    3  C3  UNL     1     -34.802   4.981   6.147  1.00 20.00     0.112 C 
ENDROOT
BRANCH   2   4
HETATM    4  C5  UNL     1     -33.189   8.776   5.882  1.00 20.00     0.094 C 
BRANCH   4   5
HETATM    5  C6  UNL     1     -32.251   8.925   4.682  1.00 20.00     0.014 C 
BRANCH   5   6
HETATM    6  C7  UNL     1     -32.908   8.504   3.360  1.00 20.00     0.020 C 
BRANCH   6   7
HETATM    7  C8  UNL     1     -32.085   7.471   2.577  1.00 20.00     0.078 C 
HETATM    8  C4  UNL     1     -32.730   6.091   2.645  1.00 20.00     0.026 C 
HETATM    9 CL9  UNL     1     -31.922   7.948   0.860  1.00 20.00    -0.125 Cl
ENDBRANCH   6   7
ENDBRANCH   5   6
ENDBRANCH   4   5
ENDBRANCH   2   4
TORSDOF 4
ENDMDL
MODEL 5
REMARK VINA RESULT:      -4.0      1.630      2.903
REMARK  4 active torsions:
REMARK  status: ('A' for Active; 'I' for Inactive)
REMARK    1  A    between atoms: C2_2  and  C5_5 
REMARK    2  A    between atoms: C5_5  and  C6_6 
REMARK    3  A    between atoms: C6_6  and  C7_7 
REMARK    4  A    between atoms: C7_7  and  C8_8 
ROOT
HETATM    1  C1  UNL     1     -32.953   8.326   4.832  1.00 20.00    -0.111 C 
HETATM    2  C2  UNL     1     -33.531   7.661   5.647  1.00 20.00    -0.107 C 
HETATM    3  C3  UNL     1     -32.250   9.136   3.838  1.00 20.00     0.112 C 
ENDROOT
BRANCH   2   4
HETATM    4  C5  UNL     1     -34.239   6.848   6.646  1.00 20.00     0.094 C 
BRANCH   4   5
HETATM    5  C6  UNL     1     -34.815   5.564   6.044  1.00 20.00     0.014 C 
BRANCH   5   6
HETATM    6  C7  UNL     1     -34.975   5.643   4.519  1.00 20.00     0.020 C 
BRANCH   6   7
HETATM    7  C8  UNL     1     -34.116   4.618   3.766  1.00 20.00     0.078 C 
HETATM    8  C4  UNL     1     -33.114   5.310   2.849  1.00 20.00     0.026 C 
HETATM    9 CL9  UNL     1     -33.224   3.565   4.906  1.00 20.00    -0.125 Cl
ENDBRANCH   6   7
ENDBRANCH   5   6
ENDBRANCH   4   5
ENDBRANCH   2   4
TORSDOF 4
ENDMDL
MODEL 6
REMARK VINA RESULT:      -3.9      1.241      1.341
REMARK  4 active torsions:
REMARK  status: ('A' for Active; 'I' for Inactive)
REMARK    1  A    between atoms: C2_2  and  C5_5 
REMARK    2  A    between atoms: C5_5  and  C6_6 
REMARK    3  A    between atoms: C6_6  and  C7_7 
REMARK    4  A    between atoms: C7_7  and  C8_8 
ROOT
HETATM    1  C1  UNL     1     -32.345   8.032   3.995  1.00 20.00    -0.111 C 
HETATM    2  C2  UNL     1     -32.628   6.986   3.478  1.00 20.00    -0.107 C 
HETATM    3  C3  UNL     1     -32.000   9.307   4.622  1.00 20.00     0.112 C 
ENDROOT
BRANCH   2   4
HETATM    4  C5  UNL     1     -32.976   5.706   2.846  1.00 20.00     0.094 C 
BRANCH   4   5
HETATM    5  C6  UNL     1     -33.919   4.869   3.714  1.00 20.00     0.014 C 
BRANCH   5   6
HETATM    6  C7  UNL     1     -34.964   5.721   4.448  1.00 20.00     0.020 C 
BRANCH   6   7
HETATM    7  C8  UNL     1     -34.807   5.690   5.974  1.00 20.00     0.078 C 
HETATM    8  C4  UNL     1     -33.741   4.685   6.396  1.00 20.00     0.026 C 
HETATM    9 CL9  UNL     1     -34.362   7.304   6.608  1.00 20.00    -0.125 Cl
ENDBRANCH   6   7
ENDBRANCH   5   6
ENDBRANCH   4   5
ENDBRANCH   2   4
TORSDOF 4
ENDMDL
MODEL 7
REMARK VINA RESULT:      -3.7      2.070      4.157
REMARK  4 active torsions:
REMARK  status: ('A' for Active; 'I' for Inactive)
REMARK    1  A    between atoms: C2_2  and  C5_5 
REMARK    2  A    between atoms: C5_5  and  C6_6 
REMARK    3  A    between atoms: C6_6  and  C7_7 
REMARK    4  A    between atoms: C7_7  and  C8_8 
ROOT
HETATM    1  C1  UNL     1     -33.674   4.811   3.496  1.00 20.00    -0.111 C 
HETATM    2  C2  UNL     1     -34.161   5.142   4.542  1.00 20.00    -0.107 C 
HETATM    3  C3  UNL     1     -33.077   4.411   2.222  1.00 20.00     0.112 C 
ENDROOT
BRANCH   2   4
HETATM    4  C5  UNL     1     -34.759   5.546   5.823  1.00 20.00     0.094 C 
BRANCH   4   5
HETATM    5  C6  UNL     1     -34.147   6.840   6.364  1.00 20.00     0.014 C 
BRANCH   5   6
HETATM    6  C7  UNL     1     -34.009   7.927   5.289  1.00 20.00     0.020 C 
BRANCH   6   7
HETATM    7  C8  UNL     1     -32.562   8.140   4.825  1.00 20.00     0.078 C 
HETATM    8  C4  UNL     1     -32.457   8.069   3.306  1.00 20.00     0.026 C 
HETATM    9 CL9  UNL     1     -31.937   9.724   5.374  1.00 20.00    -0.125 Cl
ENDBRANCH   6   7
ENDBRANCH   5   6
ENDBRANCH   4   5
ENDBRANCH   2   4
TORSDOF 4
ENDMDL
MODEL 8
REMARK VINA RESULT:      -3.5      1.623      3.156
REMARK  4 active torsions:
REMARK  status: ('A' for Active; 'I' for Inactive)
REMARK    1  A    between atoms: C2_2  and  C5_5 
REMARK    2  A    between atoms: C5_5  and  C6_6 
REMARK    3  A    between atoms: C6_6  and  C7_7 
REMARK    4  A    between atoms: C7_7  and  C8_8 
ROOT
HETATM    1  C1  UNL     1     -32.683   5.622   2.590  1.00 20.00    -0.111 C 
HETATM    2  C2  UNL     1     -32.582   6.695   3.118  1.00 20.00    -0.107 C 
HETATM    3  C3  UNL     1     -32.804   4.316   1.944  1.00 20.00     0.112 C 
ENDROOT
BRANCH   2   4
HETATM    4  C5  UNL     1     -32.459   8.009   3.767  1.00 20.00     0.094 C 
BRANCH   4   5
HETATM    5  C6  UNL     1     -33.597   8.275   4.755  1.00 20.00     0.014 C 
BRANCH   5   6
HETATM    6  C7  UNL     1     -33.500   7.409   6.019  1.00 20.00     0.020 C 
BRANCH   6   7
HETATM    7  C8  UNL     1     -34.613   6.356   6.118  1.00 20.00     0.078 C 
HETATM    8  C4  UNL     1     -35.376   6.238   4.804  1.00 20.00     0.026 C 
HETATM    9 CL9  UNL     1     -33.944   4.751   6.543  1.00 20.00    -0.125 Cl
ENDBRANCH   6   7
ENDBRANCH   5   6
ENDBRANCH   4   5
ENDBRANCH   2   4
TORSDOF 4
ENDMDL
MODEL 9
REMARK VINA RESULT:      -3.5     12.703     13.176
REMARK  4 active torsions:
REMARK  status: ('A' for Active; 'I' for Inactive)
REMARK    1  A    between atoms: C2_2  and  C5_5 
REMARK    2  A    between atoms: C5_5  and  C6_6 
REMARK    3  A    between atoms: C6_6  and  C7_7 
REMARK    4  A    between atoms: C7_7  and  C8_8 
ROOT
HETATM    1  C1  UNL     1     -30.447  18.647   1.889  1.00 20.00    -0.111 C 
HETATM    2  C2  UNL     1     -30.955  18.530   0.808  1.00 20.00    -0.107 C 
HETATM    3  C3  UNL     1     -29.826  18.793   3.205  1.00 20.00     0.112 C 
ENDROOT
BRANCH   2   4
HETATM    4  C5  UNL     1     -31.578  18.385  -0.515  1.00 20.00     0.094 C 
BRANCH   4   5
HETATM    5  C6  UNL     1     -33.106  18.345  -0.434  1.00 20.00     0.014 C 
BRANCH   5   6
HETATM    6  C7  UNL     1     -33.721  17.285  -1.359  1.00 20.00     0.020 C 
BRANCH   6   7
HETATM    7  C8  UNL     1     -32.988  17.153  -2.701  1.00 20.00     0.078 C 
HETATM    8  C4  UNL     1     -33.457  15.919  -3.464  1.00 20.00     0.026 C 
HETATM    9 CL9  UNL     1     -33.253  18.598  -3.724  1.00 20.00    -0.125 Cl
ENDBRANCH   6   7
ENDBRANCH   5   6
ENDBRANCH   4   5
ENDBRANCH   2   4
TORSDOF 4
ENDMDL
