MODEL 1
REMARK VINA RESULT:      -5.0      0.000      0.000
REMARK  2 active torsions:
REMARK  status: ('A' for Active; 'I' for Inactive)
REMARK    1  A    between atoms: C7_7  and  C10_10 
REMARK    2  A    between atoms: C9_9  and  C10_10 
ROOT
HETATM    1  C1  UNL     1     -32.851   9.536   0.241  1.00 20.00     0.012 C 
HETATM    2  C2  UNL     1     -32.507   8.763   1.093  1.00 20.00    -0.117 C 
HETATM    3  C9  UNL     1     -32.084   7.814   2.132  1.00 20.00     0.093 C 
ENDROOT
BRANCH   3   4
HETATM    4  C10 UNL     1     -32.482   8.328   3.502  1.00 20.00     0.017 C 
BRANCH   4   5
HETATM    5  C7  UNL     1     -32.980   7.185   4.385  1.00 20.00    -0.012 C 
HETATM    6  C4  UNL     1     -33.416   7.714   5.758  1.00 20.00     0.005 C 
HETATM    7  C3  UNL     1     -33.976   6.604   6.644  1.00 20.00     0.002 C 
HETATM    8  C5  UNL     1     -35.117   5.856   5.956  1.00 20.00     0.020 C 
HETATM    9  C8  UNL     1     -34.738   5.332   4.570  1.00 20.00     0.082 C 
HETATM   10  C6  UNL     1     -34.133   6.435   3.697  1.00 20.00     0.024 C 
HETATM   11 CL11 UNL     1     -33.602   3.953   4.712  1.00 20.00    -0.125 Cl
ENDBRANCH   4   5
ENDBRANCH   3   4
TORSDOF 2
ENDMDL
MODEL 2
REMARK VINA RESULT:      -4.5     12.082     12.735
REMARK  2 active torsions:
REMARK  status: ('A' for Active; 'I' for Inactive)
REMARK    1  A    between atoms: C7_7  and  C10_10 
REMARK    2  A    between atoms: C9_9  and  C10_10 
ROOT
HETATM    1  C1  UNL     1     -28.330  18.689   3.706  1.00 20.00     0.012 C 
HETATM    2  C2  UNL     1     -29.424  18.667   3.213  1.00 20.00    -0.117 C 
HETATM    3  C9  UNL     1     -30.765  18.639   2.615  1.00 20.00     0.093 C 
ENDROOT
BRANCH   3   4
HETATM    4  C10 UNL     1     -30.672  18.850   1.115  1.00 20.00     0.017 C 
BRANCH   4   5
HETATM    5  C7  UNL     1     -31.982  18.460   0.432  1.00 20.00    -0.012 C 
HETATM    6  C4  UNL     1     -33.168  19.175   1.092  1.00 20.00     0.005 C 
HETATM    7  C3  UNL     1     -34.487  18.853   0.393  1.00 20.00     0.002 C 
HETATM    8  C5  UNL     1     -34.422  19.162  -1.102  1.00 20.00     0.020 C 
HETATM    9  C8  UNL     1     -33.237  18.492  -1.800  1.00 20.00     0.082 C 
HETATM   10  C6  UNL     1     -31.921  18.777  -1.071  1.00 20.00     0.024 C 
HETATM   11 CL11 UNL     1     -33.508  16.725  -1.934  1.00 20.00    -0.125 Cl
ENDBRANCH   4   5
ENDBRANCH   3   4
TORSDOF 2
ENDMDL
MODEL 3
REMARK VINA RESULT:      -4.4     11.871     12.893
REMARK  2 active torsions:
REMARK  status: ('A' for Active; 'I' for Inactive)
REMARK    1  A    between atoms: C7_7  and  C10_10 
REMARK    2  A    between atoms: C9_9  and  C10_10 
ROOT
HETATM    1  C1  UNL     1     -31.272  18.583  -0.296  1.00 20.00     0.012 C 
HETATM    2  C2  UNL     1     -32.206  18.125  -0.895  1.00 20.00    -0.117 C 
HETATM    3  C9  UNL     1     -33.351  17.563  -1.624  1.00 20.00     0.093 C 
ENDROOT
BRANCH   3   4
HETATM    4  C10 UNL     1     -33.424  18.154  -3.019  1.00 20.00     0.017 C 
BRANCH   4   5
HETATM    5  C7  UNL     1     -33.634  17.056  -4.062  1.00 20.00    -0.012 C 
HETATM    6  C4  UNL     1     -33.423  15.672  -3.436  1.00 20.00     0.005 C 
HETATM    7  C3  UNL     1     -33.685  14.549  -4.438  1.00 20.00     0.002 C 
HETATM    8  C5  UNL     1     -35.074  14.665  -5.063  1.00 20.00     0.020 C 
HETATM    9  C8  UNL     1     -35.342  16.040  -5.676  1.00 20.00     0.082 C 
HETATM   10  C6  UNL     1     -35.034  17.167  -4.686  1.00 20.00     0.024 C 
HETATM   11 CL11 UNL     1     -34.388  16.251  -7.179  1.00 20.00    -0.125 Cl
ENDBRANCH   4   5
ENDBRANCH   3   4
TORSDOF 2
ENDMDL
MODEL 4
REMARK VINA RESULT:      -4.3      1.516      2.213
REMARK  2 active torsions:
REMARK  status: ('A' for Active; 'I' for Inactive)
REMARK    1  A    between atoms: C7_7  and  C10_10 
REMARK    2  A    between atoms: C9_9  and  C10_10 
ROOT
HETATM    1  C1  UNL     1     -32.750   9.141   0.343  1.00 20.00     0.012 C 
HETATM    2  C2  UNL     1     -32.773   9.398   1.516  1.00 20.00    -0.117 C 
HETATM    3  C9  UNL     1     -32.804   9.717   2.949  1.00 20.00     0.093 C 
ENDROOT
BRANCH   3   4
HETATM    4  C10 UNL     1     -32.291   8.540   3.757  1.00 20.00     0.017 C 
BRANCH   4   5
HETATM    5  C7  UNL     1     -33.237   7.346   3.635  1.00 20.00    -0.012 C 
HETATM    6  C4  UNL     1     -32.501   6.133   3.051  1.00 20.00     0.005 C 
HETATM    7  C3  UNL     1     -33.403   4.904   2.973  1.00 20.00     0.002 C 
HETATM    8  C5  UNL     1     -34.020   4.571   4.330  1.00 20.00     0.020 C 
HETATM    9  C8  UNL     1     -34.743   5.759   4.967  1.00 20.00     0.082 C 
HETATM   10  C6  UNL     1     -33.853   7.005   5.002  1.00 20.00     0.024 C 
HETATM   11 CL11 UNL     1     -36.268   6.105   4.091  1.00 20.00    -0.125 Cl
ENDBRANCH   4   5
ENDBRANCH   3   4
TORSDOF 2
ENDMDL
MODEL 5
REMARK VINA RESULT:      -4.2     11.794     12.789
REMARK  2 active torsions:
REMARK  status: ('A' for Active; 'I' for Inactive)
REMARK    1  A    between atoms: C7_7  and  C10_10 
REMARK    2  A    between atoms: C9_9  and  C10_10 
ROOT
HETATM    1  C1  UNL     1     -31.473  18.594  -0.118  1.00 20.00     0.012 C 
HETATM    2  C2  UNL     1     -32.367  18.138  -0.776  1.00 20.00    -0.117 C 
HETATM    3  C9  UNL     1     -33.466  17.585  -1.578  1.00 20.00     0.093 C 
ENDROOT
BRANCH   3   4
HETATM    4  C10 UNL     1     -32.917  16.645  -2.636  1.00 20.00     0.017 C 
BRANCH   4   5
HETATM    5  C7  UNL     1     -34.001  16.282  -3.651  1.00 20.00    -0.012 C 
HETATM    6  C4  UNL     1     -34.375  17.503  -4.501  1.00 20.00     0.005 C 
HETATM    7  C3  UNL     1     -35.412  17.159  -5.566  1.00 20.00     0.002 C 
HETATM    8  C5  UNL     1     -34.952  15.997  -6.446  1.00 20.00     0.020 C 
HETATM    9  C8  UNL     1     -34.541  14.763  -5.641  1.00 20.00     0.082 C 
HETATM   10  C6  UNL     1     -33.536  15.118  -4.541  1.00 20.00     0.024 C 
HETATM   11 CL11 UNL     1     -35.985  13.969  -4.935  1.00 20.00    -0.125 Cl
ENDBRANCH   4   5
ENDBRANCH   3   4
TORSDOF 2
ENDMDL
MODEL 6
REMARK VINA RESULT:      -4.1     10.542     11.214
REMARK  2 active torsions:
REMARK  status: ('A' for Active; 'I' for Inactive)
REMARK    1  A    between atoms: C7_7  and  C10_10 
REMARK    2  A    between atoms: C9_9  and  C10_10 
ROOT
HETATM    1  C1  UNL     1     -38.931  11.762   3.795  1.00 20.00     0.012 C 
HETATM    2  C2  UNL     1     -39.300  11.937   4.924  1.00 20.00    -0.117 C 
HETATM    3  C9  UNL     1     -39.746  12.151   6.307  1.00 20.00     0.093 C 
ENDROOT
BRANCH   3   4
HETATM    4  C10 UNL     1     -41.222  12.500   6.331  1.00 20.00     0.017 C 
BRANCH   4   5
HETATM    5  C7  UNL     1     -41.460  13.789   7.119  1.00 20.00    -0.012 C 
HETATM    6  C4  UNL     1     -40.285  14.067   8.065  1.00 20.00     0.005 C 
HETATM    7  C3  UNL     1     -40.465  15.380   8.823  1.00 20.00     0.002 C 
HETATM    8  C5  UNL     1     -40.694  16.553   7.871  1.00 20.00     0.020 C 
HETATM    9  C8  UNL     1     -41.840  16.310   6.887  1.00 20.00     0.082 C 
HETATM   10  C6  UNL     1     -41.684  14.971   6.162  1.00 20.00     0.024 C 
HETATM   11 CL11 UNL     1     -43.417  16.382   7.737  1.00 20.00    -0.125 Cl
ENDBRANCH   4   5
ENDBRANCH   3   4
TORSDOF 2
ENDMDL
MODEL 7
REMARK VINA RESULT:      -4.0     10.437     11.104
REMARK  2 active torsions:
REMARK  status: ('A' for Active; 'I' for Inactive)
REMARK    1  A    between atoms: C7_7  and  C10_10 
REMARK    2  A    between atoms: C9_9  and  C10_10 
ROOT
HETATM    1  C1  UNL     1     -38.918  11.685   3.861  1.00 20.00     0.012 C 
HETATM    2  C2  UNL     1     -39.593  11.866   4.837  1.00 20.00    -0.117 C 
HETATM    3  C9  UNL     1     -40.415  12.083   6.035  1.00 20.00     0.093 C 
ENDROOT
BRANCH   3   4
HETATM    4  C10 UNL     1     -41.425  13.186   5.781  1.00 20.00     0.017 C 
BRANCH   4   5
HETATM    5  C7  UNL     1     -41.609  14.050   7.029  1.00 20.00    -0.012 C 
HETATM    6  C4  UNL     1     -42.581  13.381   8.009  1.00 20.00     0.005 C 
HETATM    7  C3  UNL     1     -42.740  14.190   9.294  1.00 20.00     0.002 C 
HETATM    8  C5  UNL     1     -41.391  14.462   9.958  1.00 20.00     0.020 C 
HETATM    9  C8  UNL     1     -40.376  15.105   9.010  1.00 20.00     0.082 C 
HETATM   10  C6  UNL     1     -40.253  14.318   7.702  1.00 20.00     0.024 C 
HETATM   11 CL11 UNL     1     -40.825  16.808   8.676  1.00 20.00    -0.125 Cl
ENDBRANCH   4   5
ENDBRANCH   3   4
TORSDOF 2
ENDMDL
MODEL 8
REMARK VINA RESULT:      -4.0     10.733     11.368
REMARK  2 active torsions:
REMARK  status: ('A' for Active; 'I' for Inactive)
REMARK    1  A    between atoms: C7_7  and  C10_10 
REMARK    2  A    between atoms: C9_9  and  C10_10 
ROOT
HETATM    1  C1  UNL     1     -38.929  11.657   3.644  1.00 20.00     0.012 C 
HETATM    2  C2  UNL     1     -39.247  11.831   4.788  1.00 20.00    -0.117 C 
HETATM    3  C9  UNL     1     -39.630  12.043   6.190  1.00 20.00     0.093 C 
ENDROOT
BRANCH   3   4
HETATM    4  C10 UNL     1     -41.106  12.381   6.282  1.00 20.00     0.017 C 
BRANCH   4   5
HETATM    5  C7  UNL     1     -41.321  13.892   6.210  1.00 20.00    -0.012 C 
HETATM    6  C4  UNL     1     -42.309  14.244   5.090  1.00 20.00     0.005 C 
HETATM    7  C3  UNL     1     -42.592  15.743   5.032  1.00 20.00     0.002 C 
HETATM    8  C5  UNL     1     -43.076  16.278   6.379  1.00 20.00     0.020 C 
HETATM    9  C8  UNL     1     -42.135  15.928   7.533  1.00 20.00     0.082 C 
HETATM   10  C6  UNL     1     -41.814  14.431   7.563  1.00 20.00     0.024 C 
HETATM   11 CL11 UNL     1     -40.626  16.889   7.424  1.00 20.00    -0.125 Cl
ENDBRANCH   4   5
ENDBRANCH   3   4
TORSDOF 2
ENDMDL
MODEL 9
REMARK VINA RESULT:      -3.9     12.863     14.069
REMARK  2 active torsions:
REMARK  status: ('A' for Active; 'I' for Inactive)
REMARK    1  A    between atoms: C7_7  and  C10_10 
REMARK    2  A    between atoms: C9_9  and  C10_10 
ROOT
HETATM    1  C1  UNL     1     -23.139  -3.255   7.806  1.00 20.00     0.012 C 
HETATM    2  C2  UNL     1     -23.272  -3.060   8.983  1.00 20.00    -0.117 C 
HETATM    3  C9  UNL     1     -23.432  -2.817  10.423  1.00 20.00     0.093 C 
ENDROOT
BRANCH   3   4
HETATM    4  C10 UNL     1     -24.572  -3.654  10.971  1.00 20.00     0.017 C 
BRANCH   4   5
HETATM    5  C7  UNL     1     -25.777  -2.775  11.306  1.00 20.00    -0.012 C 
HETATM    6  C4  UNL     1     -25.317  -1.393  11.787  1.00 20.00     0.005 C 
HETATM    7  C3  UNL     1     -26.498  -0.468  12.073  1.00 20.00     0.002 C 
HETATM    8  C5  UNL     1     -27.426  -0.350  10.865  1.00 20.00     0.020 C 
HETATM    9  C8  UNL     1     -27.889  -1.706  10.331  1.00 20.00     0.082 C 
HETATM   10  C6  UNL     1     -26.707  -2.649  10.089  1.00 20.00     0.024 C 
HETATM   11 CL11 UNL     1     -29.064  -2.454  11.460  1.00 20.00    -0.125 Cl
ENDBRANCH   4   5
ENDBRANCH   3   4
TORSDOF 2
ENDMDL
