MODEL 1
REMARK VINA RESULT:      -5.4      0.000      0.000
REMARK  2 active torsions:
REMARK  status: ('A' for Active; 'I' for Inactive)
REMARK    1  A    between atoms: C6_6  and  C7_7 
REMARK    2  A    between atoms: C8_8  and  O9_9 
ROOT
HETATM    1  C3  UNL     1     -33.810   6.895   6.304  1.00 20.00     0.007 C 
HETATM    2  C4  UNL     1     -34.695   5.646   6.365  1.00 20.00     0.032 C 
HETATM    3  C5  UNL     1     -33.808   5.926   4.120  1.00 20.00     0.036 C 
HETATM    4  C7  UNL     1     -33.749   7.280   4.826  1.00 20.00    -0.008 C 
HETATM    5  C8  UNL     1     -34.859   5.166   4.921  1.00 20.00     0.118 C 
ENDROOT
BRANCH   4   6
HETATM    6  C6  UNL     1     -32.513   8.087   4.468  1.00 20.00    -0.010 A 
HETATM    7  C1  UNL     1     -31.817   7.863   3.155  1.00 20.00     0.005 A 
HETATM    8  C2  UNL     1     -32.581   9.136   3.392  1.00 20.00     0.005 A 
ENDBRANCH   4   6
BRANCH   5   9
HETATM    9  O9  UNL     1     -36.151   5.522   4.439  1.00 20.00    -0.396 OA
HETATM   10  H23 UNL     1     -36.544   4.713   4.076  1.00 20.00     0.210 HD
ENDBRANCH   5   9
TORSDOF 2
ENDMDL
MODEL 2
REMARK VINA RESULT:      -4.4      1.374      1.997
REMARK  2 active torsions:
REMARK  status: ('A' for Active; 'I' for Inactive)
REMARK    1  A    between atoms: C6_6  and  C7_7 
REMARK    2  A    between atoms: C8_8  and  O9_9 
ROOT
HETATM    1  C3  UNL     1     -34.580   6.172   4.129  1.00 20.00     0.007 C 
HETATM    2  C4  UNL     1     -35.117   5.099   5.082  1.00 20.00     0.032 C 
HETATM    3  C5  UNL     1     -34.206   6.959   6.353  1.00 20.00     0.036 C 
HETATM    4  C7  UNL     1     -33.591   6.993   4.955  1.00 20.00    -0.008 C 
HETATM    5  C8  UNL     1     -34.674   5.515   6.487  1.00 20.00     0.118 C 
ENDROOT
BRANCH   4   6
HETATM    6  C6  UNL     1     -33.392   8.402   4.423  1.00 20.00    -0.010 A 
HETATM    7  C1  UNL     1     -32.152   9.176   4.775  1.00 20.00     0.005 A 
HETATM    8  C2  UNL     1     -32.351   8.674   3.372  1.00 20.00     0.005 A 
ENDBRANCH   4   6
BRANCH   5   9
HETATM    9  O9  UNL     1     -33.576   4.710   6.904  1.00 20.00    -0.396 OA
HETATM   10  H23 UNL     1     -33.233   5.109   7.719  1.00 20.00     0.210 HD
ENDBRANCH   5   9
TORSDOF 2
ENDMDL
MODEL 3
REMARK VINA RESULT:      -4.4      1.926      3.924
REMARK  2 active torsions:
REMARK  status: ('A' for Active; 'I' for Inactive)
REMARK    1  A    between atoms: C6_6  and  C7_7 
REMARK    2  A    between atoms: C8_8  and  O9_9 
ROOT
HETATM    1  C3  UNL     1     -33.250   5.918   3.259  1.00 20.00     0.007 C 
HETATM    2  C4  UNL     1     -32.106   6.827   2.799  1.00 20.00     0.032 C 
HETATM    3  C5  UNL     1     -33.138   7.738   4.801  1.00 20.00     0.036 C 
HETATM    4  C7  UNL     1     -34.141   6.795   4.138  1.00 20.00    -0.008 C 
HETATM    5  C8  UNL     1     -32.190   8.089   3.661  1.00 20.00     0.118 C 
ENDROOT
BRANCH   4   6
HETATM    6  C6  UNL     1     -34.966   6.001   5.136  1.00 20.00    -0.010 A 
HETATM    7  C1  UNL     1     -34.368   4.813   5.837  1.00 20.00     0.005 A 
HETATM    8  C2  UNL     1     -34.652   6.075   6.605  1.00 20.00     0.005 A 
ENDBRANCH   4   6
BRANCH   5   9
HETATM    9  O9  UNL     1     -32.755   9.153   2.902  1.00 20.00    -0.396 OA
HETATM   10  H23 UNL     1     -32.252   9.201   2.074  1.00 20.00     0.210 HD
ENDBRANCH   5   9
TORSDOF 2
ENDMDL
MODEL 4
REMARK VINA RESULT:      -4.1      2.079      3.910
REMARK  2 active torsions:
REMARK  status: ('A' for Active; 'I' for Inactive)
REMARK    1  A    between atoms: C6_6  and  C7_7 
REMARK    2  A    between atoms: C8_8  and  O9_9 
ROOT
HETATM    1  C3  UNL     1     -33.476   8.639   5.446  1.00 20.00     0.007 C 
HETATM    2  C4  UNL     1     -32.597   9.217   4.332  1.00 20.00     0.032 C 
HETATM    3  C5  UNL     1     -33.233   6.936   3.789  1.00 20.00     0.036 C 
HETATM    4  C7  UNL     1     -33.375   7.122   5.299  1.00 20.00    -0.008 C 
HETATM    5  C8  UNL     1     -32.273   8.052   3.394  1.00 20.00     0.118 C 
ENDROOT
BRANCH   4   6
HETATM    6  C6  UNL     1     -34.567   6.383   5.883  1.00 20.00    -0.010 A 
HETATM    7  C1  UNL     1     -35.172   5.220   5.147  1.00 20.00     0.005 A 
HETATM    8  C2  UNL     1     -34.404   4.987   6.418  1.00 20.00     0.005 A 
ENDBRANCH   4   6
BRANCH   5   9
HETATM    9  O9  UNL     1     -30.938   7.611   3.617  1.00 20.00    -0.396 OA
HETATM   10  H23 UNL     1     -30.730   6.985   2.907  1.00 20.00     0.210 HD
ENDBRANCH   5   9
TORSDOF 2
ENDMDL
MODEL 5
REMARK VINA RESULT:      -4.1     12.296     13.131
REMARK  2 active torsions:
REMARK  status: ('A' for Active; 'I' for Inactive)
REMARK    1  A    between atoms: C6_6  and  C7_7 
REMARK    2  A    between atoms: C8_8  and  O9_9 
ROOT
HETATM    1  C3  UNL     1     -33.704  17.595  -0.331  1.00 20.00     0.007 C 
HETATM    2  C4  UNL     1     -32.890  18.663   0.407  1.00 20.00     0.032 C 
HETATM    3  C5  UNL     1     -32.445  18.782  -1.978  1.00 20.00     0.036 C 
HETATM    4  C7  UNL     1     -32.989  17.389  -1.666  1.00 20.00    -0.008 C 
HETATM    5  C8  UNL     1     -31.933  19.263  -0.625  1.00 20.00     0.118 C 
ENDROOT
BRANCH   4   6
HETATM    6  C6  UNL     1     -33.898  16.845  -2.754  1.00 20.00    -0.010 A 
HETATM    7  C1  UNL     1     -33.615  17.148  -4.199  1.00 20.00     0.005 A 
HETATM    8  C2  UNL     1     -33.413  15.755  -3.670  1.00 20.00     0.005 A 
ENDBRANCH   4   6
BRANCH   5   9
HETATM    9  O9  UNL     1     -30.620  18.748  -0.421  1.00 20.00    -0.396 OA
HETATM   10  H23 UNL     1     -30.698  17.782  -0.425  1.00 20.00     0.210 HD
ENDBRANCH   5   9
TORSDOF 2
ENDMDL
MODEL 6
REMARK VINA RESULT:      -3.9      9.687     10.097
REMARK  2 active torsions:
REMARK  status: ('A' for Active; 'I' for Inactive)
REMARK    1  A    between atoms: C6_6  and  C7_7 
REMARK    2  A    between atoms: C8_8  and  O9_9 
ROOT
HETATM    1  C3  UNL     1     -42.156  12.489   6.745  1.00 20.00     0.007 C 
HETATM    2  C4  UNL     1     -43.202  13.571   6.461  1.00 20.00     0.032 C 
HETATM    3  C5  UNL     1     -41.437  13.663   4.794  1.00 20.00     0.036 C 
HETATM    4  C7  UNL     1     -40.888  12.948   6.027  1.00 20.00    -0.008 C 
HETATM    5  C8  UNL     1     -42.620  14.447   5.348  1.00 20.00     0.118 C 
ENDROOT
BRANCH   4   6
HETATM    6  C6  UNL     1     -39.946  11.806   5.687  1.00 20.00    -0.010 A 
HETATM    7  C1  UNL     1     -39.257  11.765   4.351  1.00 20.00     0.005 A 
HETATM    8  C2  UNL     1     -38.464  12.050   5.596  1.00 20.00     0.005 A 
ENDBRANCH   4   6
BRANCH   5   9
HETATM    9  O9  UNL     1     -42.144  15.671   5.899  1.00 20.00    -0.396 OA
HETATM   10  H23 UNL     1     -42.603  16.384   5.429  1.00 20.00     0.210 HD
ENDBRANCH   5   9
TORSDOF 2
ENDMDL
MODEL 7
REMARK VINA RESULT:      -3.8     12.133     13.142
REMARK  2 active torsions:
REMARK  status: ('A' for Active; 'I' for Inactive)
REMARK    1  A    between atoms: C6_6  and  C7_7 
REMARK    2  A    between atoms: C8_8  and  O9_9 
ROOT
HETATM    1  C3  UNL     1     -34.231  17.624  -4.506  1.00 20.00     0.007 C 
HETATM    2  C4  UNL     1     -34.373  16.283  -5.233  1.00 20.00     0.032 C 
HETATM    3  C5  UNL     1     -33.556  15.921  -2.973  1.00 20.00     0.036 C 
HETATM    4  C7  UNL     1     -33.251  17.367  -3.362  1.00 20.00    -0.008 C 
HETATM    5  C8  UNL     1     -33.734  15.232  -4.321  1.00 20.00     0.118 C 
ENDROOT
BRANCH   4   6
HETATM    6  C6  UNL     1     -33.407  18.342  -2.209  1.00 20.00    -0.010 A 
HETATM    7  C1  UNL     1     -33.436  17.841  -0.791  1.00 20.00     0.005 A 
HETATM    8  C2  UNL     1     -32.249  18.618  -1.289  1.00 20.00     0.005 A 
ENDBRANCH   4   6
BRANCH   5   9
HETATM    9  O9  UNL     1     -32.453  14.871  -4.827  1.00 20.00    -0.396 OA
HETATM   10  H23 UNL     1     -32.601  14.173  -5.483  1.00 20.00     0.210 HD
ENDBRANCH   5   9
TORSDOF 2
ENDMDL
MODEL 8
REMARK VINA RESULT:      -3.7     12.255     13.019
REMARK  2 active torsions:
REMARK  status: ('A' for Active; 'I' for Inactive)
REMARK    1  A    between atoms: C6_6  and  C7_7 
REMARK    2  A    between atoms: C8_8  and  O9_9 
ROOT
HETATM    1  C3  UNL     1     -33.123  15.168  -4.069  1.00 20.00     0.007 C 
HETATM    2  C4  UNL     1     -33.915  14.946  -5.361  1.00 20.00     0.032 C 
HETATM    3  C5  UNL     1     -34.466  17.114  -4.413  1.00 20.00     0.036 C 
HETATM    4  C7  UNL     1     -33.894  16.240  -3.298  1.00 20.00    -0.008 C 
HETATM    5  C8  UNL     1     -34.923  16.094  -5.449  1.00 20.00     0.118 C 
ENDROOT
BRANCH   4   6
HETATM    6  C6  UNL     1     -33.027  17.011  -2.318  1.00 20.00    -0.010 A 
HETATM    7  C1  UNL     1     -33.235  18.488  -2.123  1.00 20.00     0.005 A 
HETATM    8  C2  UNL     1     -33.614  17.525  -1.032  1.00 20.00     0.005 A 
ENDBRANCH   4   6
BRANCH   5   9
HETATM    9  O9  UNL     1     -36.220  15.624  -5.092  1.00 20.00    -0.396 OA
HETATM   10  H23 UNL     1     -36.807  15.842  -5.833  1.00 20.00     0.210 HD
ENDBRANCH   5   9
TORSDOF 2
ENDMDL
MODEL 9
REMARK VINA RESULT:      -3.6      1.251      1.905
REMARK  2 active torsions:
REMARK  status: ('A' for Active; 'I' for Inactive)
REMARK    1  A    between atoms: C6_6  and  C7_7 
REMARK    2  A    between atoms: C8_8  and  O9_9 
ROOT
HETATM    1  C3  UNL     1     -33.701   5.774   3.605  1.00 20.00     0.007 C 
HETATM    2  C4  UNL     1     -34.800   5.105   4.436  1.00 20.00     0.032 C 
HETATM    3  C5  UNL     1     -34.040   7.131   5.541  1.00 20.00     0.036 C 
HETATM    4  C7  UNL     1     -32.944   6.675   4.579  1.00 20.00    -0.008 C 
HETATM    5  C8  UNL     1     -34.850   5.860   5.767  1.00 20.00     0.118 C 
ENDROOT
BRANCH   4   6
HETATM    6  C6  UNL     1     -32.230   7.829   3.897  1.00 20.00    -0.010 A 
HETATM    7  C1  UNL     1     -33.011   9.005   3.380  1.00 20.00     0.005 A 
HETATM    8  C2  UNL     1     -32.122   9.164   4.582  1.00 20.00     0.005 A 
ENDBRANCH   4   6
BRANCH   5   9
HETATM    9  O9  UNL     1     -34.220   5.087   6.783  1.00 20.00    -0.396 OA
HETATM   10  H23 UNL     1     -33.735   4.379   6.332  1.00 20.00     0.210 HD
ENDBRANCH   5   9
TORSDOF 2
ENDMDL
