MODEL 1
REMARK VINA RESULT:      -4.4      0.000      0.000
REMARK  6 active torsions:
REMARK  status: ('A' for Active; 'I' for Inactive)
REMARK    1  A    between atoms: C1_1  and  C4_4 
REMARK    2  A    between atoms: C1_1  and  C8_8 
REMARK    3  A    between atoms: C8_8  and  C9_9 
REMARK    4  A    between atoms: C9_9  and  C10_10 
REMARK    5  A    between atoms: C10_10  and  C11_11 
REMARK    6  A    between atoms: C11_11  and  C12_12 
ROOT
HETATM    1  C9  UNL     1     -33.578  16.585  -2.000  1.00 20.00     0.007 C 
ENDROOT
BRANCH   1   2
HETATM    2  C8  UNL     1     -33.751  18.041  -1.570  1.00 20.00     0.079 C 
BRANCH   2   3
HETATM    3  C1  UNL     1     -33.591  18.250  -0.077  1.00 20.00     0.131 C 
HETATM    4  O13 UNL     1     -34.374  17.841   0.772  1.00 20.00    -0.298 OA
BRANCH   3   5
HETATM    5  C4  UNL     1     -32.398  19.046   0.332  1.00 20.00     0.055 A 
HETATM    6  C2  UNL     1     -31.480  18.478   1.363  1.00 20.00     0.013 A 
HETATM    7  C3  UNL     1     -31.046  18.559  -0.070  1.00 20.00     0.013 A 
ENDBRANCH   3   5
ENDBRANCH   2   3
ENDBRANCH   1   2
BRANCH   1   8
HETATM    8  C10 UNL     1     -33.223  16.453  -3.486  1.00 20.00     0.001 C 
BRANCH   8   9
HETATM    9  C11 UNL     1     -33.783  15.149  -4.071  1.00 20.00     0.008 C 
BRANCH   9  10
HETATM   10  C12 UNL     1     -34.795  15.311  -5.236  1.00 20.00    -0.051 C 
HETATM   11  C5  UNL     1     -34.025  15.166  -6.564  1.00 20.00     0.014 C 
HETATM   12  C6  UNL     1     -35.460  16.696  -5.208  1.00 20.00     0.014 C 
HETATM   13  C7  UNL     1     -35.883  14.225  -5.184  1.00 20.00     0.014 C 
ENDBRANCH   9  10
ENDBRANCH   8   9
ENDBRANCH   1   8
TORSDOF 6
ENDMDL
MODEL 2
REMARK VINA RESULT:      -4.4      2.360      5.716
REMARK  6 active torsions:
REMARK  status: ('A' for Active; 'I' for Inactive)
REMARK    1  A    between atoms: C1_1  and  C4_4 
REMARK    2  A    between atoms: C1_1  and  C8_8 
REMARK    3  A    between atoms: C8_8  and  C9_9 
REMARK    4  A    between atoms: C9_9  and  C10_10 
REMARK    5  A    between atoms: C10_10  and  C11_11 
REMARK    6  A    between atoms: C11_11  and  C12_12 
ROOT
HETATM    1  C9  UNL     1     -33.859  14.857  -4.083  1.00 20.00     0.007 C 
ENDROOT
BRANCH   1   2
HETATM    2  C8  UNL     1     -34.435  15.095  -5.477  1.00 20.00     0.079 C 
BRANCH   2   3
HETATM    3  C1  UNL     1     -35.936  15.309  -5.480  1.00 20.00     0.131 C 
HETATM    4  O13 UNL     1     -36.765  14.427  -5.295  1.00 20.00    -0.298 OA
BRANCH   3   5
HETATM    5  C4  UNL     1     -36.382  16.703  -5.768  1.00 20.00     0.055 A 
HETATM    6  C2  UNL     1     -36.182  17.747  -4.720  1.00 20.00     0.013 A 
HETATM    7  C3  UNL     1     -35.343  17.756  -5.963  1.00 20.00     0.013 A 
ENDBRANCH   3   5
ENDBRANCH   2   3
ENDBRANCH   1   2
BRANCH   1   8
HETATM    8  C10 UNL     1     -33.023  16.043  -3.585  1.00 20.00     0.001 C 
BRANCH   8   9
HETATM    9  C11 UNL     1     -33.569  16.580  -2.255  1.00 20.00     0.008 C 
BRANCH   9  10
HETATM   10  C12 UNL     1     -33.325  18.088  -1.984  1.00 20.00    -0.051 C 
HETATM   11  C5  UNL     1     -32.169  18.213  -0.972  1.00 20.00     0.014 C 
HETATM   12  C6  UNL     1     -34.573  18.755  -1.385  1.00 20.00     0.014 C 
HETATM   13  C7  UNL     1     -32.925  18.827  -3.272  1.00 20.00     0.014 C 
ENDBRANCH   9  10
ENDBRANCH   8   9
ENDBRANCH   1   8
TORSDOF 6
ENDMDL
MODEL 3
REMARK VINA RESULT:      -4.2     11.229     12.346
REMARK  6 active torsions:
REMARK  status: ('A' for Active; 'I' for Inactive)
REMARK    1  A    between atoms: C1_1  and  C4_4 
REMARK    2  A    between atoms: C1_1  and  C8_8 
REMARK    3  A    between atoms: C8_8  and  C9_9 
REMARK    4  A    between atoms: C9_9  and  C10_10 
REMARK    5  A    between atoms: C10_10  and  C11_11 
REMARK    6  A    between atoms: C11_11  and  C12_12 
ROOT
HETATM    1  C9  UNL     1     -32.542   8.842   4.433  1.00 20.00     0.007 C 
ENDROOT
BRANCH   1   2
HETATM    2  C8  UNL     1     -31.678   7.841   3.669  1.00 20.00     0.079 C 
BRANCH   2   3
HETATM    3  C1  UNL     1     -32.217   7.506   2.293  1.00 20.00     0.131 C 
HETATM    4  O13 UNL     1     -32.823   6.479   2.014  1.00 20.00    -0.298 OA
BRANCH   3   5
HETATM    5  C4  UNL     1     -31.933   8.515   1.232  1.00 20.00     0.055 A 
HETATM    6  C2  UNL     1     -32.798   8.533   0.015  1.00 20.00     0.013 A 
HETATM    7  C3  UNL     1     -32.906   9.630   1.032  1.00 20.00     0.013 A 
ENDBRANCH   3   5
ENDBRANCH   2   3
ENDBRANCH   1   2
BRANCH   1   8
HETATM    8  C10 UNL     1     -33.762   8.182   5.087  1.00 20.00     0.001 C 
BRANCH   8   9
HETATM    9  C11 UNL     1     -33.415   6.781   5.608  1.00 20.00     0.008 C 
BRANCH   9  10
HETATM   10  C12 UNL     1     -34.443   5.665   5.281  1.00 20.00    -0.051 C 
HETATM   11  C5  UNL     1     -35.020   5.140   6.610  1.00 20.00     0.014 C 
HETATM   12  C6  UNL     1     -33.777   4.494   4.542  1.00 20.00     0.014 C 
HETATM   13  C7  UNL     1     -35.602   6.208   4.429  1.00 20.00     0.014 C 
ENDBRANCH   9  10
ENDBRANCH   8   9
ENDBRANCH   1   8
TORSDOF 6
ENDMDL
MODEL 4
REMARK VINA RESULT:      -4.1     11.053     13.095
REMARK  6 active torsions:
REMARK  status: ('A' for Active; 'I' for Inactive)
REMARK    1  A    between atoms: C1_1  and  C4_4 
REMARK    2  A    between atoms: C1_1  and  C8_8 
REMARK    3  A    between atoms: C8_8  and  C9_9 
REMARK    4  A    between atoms: C9_9  and  C10_10 
REMARK    5  A    between atoms: C10_10  and  C11_11 
REMARK    6  A    between atoms: C11_11  and  C12_12 
ROOT
HETATM    1  C9  UNL     1     -42.614  14.338   5.364  1.00 20.00     0.007 C 
ENDROOT
BRANCH   1   2
HETATM    2  C8  UNL     1     -41.240  13.687   5.218  1.00 20.00     0.079 C 
BRANCH   2   3
HETATM    3  C1  UNL     1     -41.042  12.487   6.123  1.00 20.00     0.131 C 
HETATM    4  O13 UNL     1     -41.719  12.244   7.114  1.00 20.00    -0.298 OA
BRANCH   3   5
HETATM    5  C4  UNL     1     -39.910  11.589   5.756  1.00 20.00     0.055 A 
HETATM    6  C2  UNL     1     -39.287  11.739   4.407  1.00 20.00     0.013 A 
HETATM    7  C3  UNL     1     -38.544  12.180   5.633  1.00 20.00     0.013 A 
ENDBRANCH   3   5
ENDBRANCH   2   3
ENDBRANCH   1   2
BRANCH   1   8
HETATM    8  C10 UNL     1     -42.535  15.737   5.989  1.00 20.00     0.001 C 
BRANCH   8   9
HETATM    9  C11 UNL     1     -42.542  15.655   7.521  1.00 20.00     0.008 C 
BRANCH   9  10
HETATM   10  C12 UNL     1     -41.319  16.288   8.237  1.00 20.00    -0.051 C 
HETATM   11  C5  UNL     1     -40.699  17.336   7.291  1.00 20.00     0.014 C 
HETATM   12  C6  UNL     1     -40.252  15.229   8.557  1.00 20.00     0.014 C 
HETATM   13  C7  UNL     1     -41.739  16.993   9.537  1.00 20.00     0.014 C 
ENDBRANCH   9  10
ENDBRANCH   8   9
ENDBRANCH   1   8
TORSDOF 6
ENDMDL
MODEL 5
REMARK VINA RESULT:      -4.1     11.609     13.848
REMARK  6 active torsions:
REMARK  status: ('A' for Active; 'I' for Inactive)
REMARK    1  A    between atoms: C1_1  and  C4_4 
REMARK    2  A    between atoms: C1_1  and  C8_8 
REMARK    3  A    between atoms: C8_8  and  C9_9 
REMARK    4  A    between atoms: C9_9  and  C10_10 
REMARK    5  A    between atoms: C10_10  and  C11_11 
REMARK    6  A    between atoms: C11_11  and  C12_12 
ROOT
HETATM    1  C9  UNL     1     -41.062  15.196   6.859  1.00 20.00     0.007 C 
ENDROOT
BRANCH   1   2
HETATM    2  C8  UNL     1     -41.148  13.672   6.788  1.00 20.00     0.079 C 
BRANCH   2   3
HETATM    3  C1  UNL     1     -40.826  13.114   5.416  1.00 20.00     0.131 C 
HETATM    4  O13 UNL     1     -41.248  13.572   4.361  1.00 20.00    -0.298 OA
BRANCH   3   5
HETATM    5  C4  UNL     1     -39.958  11.901   5.407  1.00 20.00     0.055 A 
HETATM    6  C2  UNL     1     -39.094  11.651   4.215  1.00 20.00     0.013 A 
HETATM    7  C3  UNL     1     -38.480  12.084   5.513  1.00 20.00     0.013 A 
ENDBRANCH   3   5
ENDBRANCH   2   3
ENDBRANCH   1   2
BRANCH   1   8
HETATM    8  C10 UNL     1     -40.377  15.684   8.142  1.00 20.00     0.001 C 
BRANCH   8   9
HETATM    9  C11 UNL     1     -40.317  14.567   9.192  1.00 20.00     0.008 C 
BRANCH   9  10
HETATM   10  C12 UNL     1     -41.055  14.854  10.527  1.00 20.00    -0.051 C 
HETATM   11  C5  UNL     1     -42.044  13.700  10.785  1.00 20.00     0.014 C 
HETATM   12  C6  UNL     1     -41.847  16.168  10.453  1.00 20.00     0.014 C 
HETATM   13  C7  UNL     1     -40.068  14.922  11.704  1.00 20.00     0.014 C 
ENDBRANCH   9  10
ENDBRANCH   8   9
ENDBRANCH   1   8
TORSDOF 6
ENDMDL
MODEL 6
REMARK VINA RESULT:      -4.0      1.509      2.280
REMARK  6 active torsions:
REMARK  status: ('A' for Active; 'I' for Inactive)
REMARK    1  A    between atoms: C1_1  and  C4_4 
REMARK    2  A    between atoms: C1_1  and  C8_8 
REMARK    3  A    between atoms: C8_8  and  C9_9 
REMARK    4  A    between atoms: C9_9  and  C10_10 
REMARK    5  A    between atoms: C10_10  and  C11_11 
REMARK    6  A    between atoms: C11_11  and  C12_12 
ROOT
HETATM    1  C9  UNL     1     -33.602  16.000  -2.991  1.00 20.00     0.007 C 
ENDROOT
BRANCH   1   2
HETATM    2  C8  UNL     1     -33.456  17.487  -3.310  1.00 20.00     0.079 C 
BRANCH   2   3
HETATM    3  C1  UNL     1     -32.869  18.293  -2.169  1.00 20.00     0.131 C 
HETATM    4  O13 UNL     1     -32.132  19.262  -2.307  1.00 20.00    -0.298 OA
BRANCH   3   5
HETATM    5  C4  UNL     1     -33.217  17.812  -0.801  1.00 20.00     0.055 A 
HETATM    6  C2  UNL     1     -32.669  18.548   0.376  1.00 20.00     0.013 A 
HETATM    7  C3  UNL     1     -34.127  18.648   0.037  1.00 20.00     0.013 A 
ENDBRANCH   3   5
ENDBRANCH   2   3
ENDBRANCH   1   2
BRANCH   1   8
HETATM    8  C10 UNL     1     -33.611  15.128  -4.253  1.00 20.00     0.001 C 
BRANCH   8   9
HETATM    9  C11 UNL     1     -34.235  15.881  -5.436  1.00 20.00     0.008 C 
BRANCH   9  10
HETATM   10  C12 UNL     1     -35.674  15.451  -5.827  1.00 20.00    -0.051 C 
HETATM   11  C5  UNL     1     -35.989  14.122  -5.111  1.00 20.00     0.014 C 
HETATM   12  C6  UNL     1     -35.797  15.229  -7.342  1.00 20.00     0.014 C 
HETATM   13  C7  UNL     1     -36.708  16.499  -5.383  1.00 20.00     0.014 C 
ENDBRANCH   9  10
ENDBRANCH   8   9
ENDBRANCH   1   8
TORSDOF 6
ENDMDL
MODEL 7
REMARK VINA RESULT:      -3.9     11.562     13.607
REMARK  6 active torsions:
REMARK  status: ('A' for Active; 'I' for Inactive)
REMARK    1  A    between atoms: C1_1  and  C4_4 
REMARK    2  A    between atoms: C1_1  and  C8_8 
REMARK    3  A    between atoms: C8_8  and  C9_9 
REMARK    4  A    between atoms: C9_9  and  C10_10 
REMARK    5  A    between atoms: C10_10  and  C11_11 
REMARK    6  A    between atoms: C11_11  and  C12_12 
ROOT
HETATM    1  C9  UNL     1     -42.883  12.770   7.270  1.00 20.00     0.007 C 
ENDROOT
BRANCH   1   2
HETATM    2  C8  UNL     1     -42.647  13.679   6.065  1.00 20.00     0.079 C 
BRANCH   2   3
HETATM    3  C1  UNL     1     -41.468  13.256   5.212  1.00 20.00     0.131 C 
HETATM    4  O13 UNL     1     -41.213  13.708   4.103  1.00 20.00    -0.298 OA
BRANCH   3   5
HETATM    5  C4  UNL     1     -40.608  12.185   5.795  1.00 20.00     0.055 A 
HETATM    6  C2  UNL     1     -39.382  11.771   5.052  1.00 20.00     0.013 A 
HETATM    7  C3  UNL     1     -39.263  12.561   6.322  1.00 20.00     0.013 A 
ENDBRANCH   3   5
ENDBRANCH   2   3
ENDBRANCH   1   2
BRANCH   1   8
HETATM    8  C10 UNL     1     -42.770  13.522   8.602  1.00 20.00     0.001 C 
BRANCH   8   9
HETATM    9  C11 UNL     1     -42.529  15.019   8.369  1.00 20.00     0.008 C 
BRANCH   9  10
HETATM   10  C12 UNL     1     -41.154  15.563   8.839  1.00 20.00    -0.051 C 
HETATM   11  C5  UNL     1     -40.413  16.122   7.608  1.00 20.00     0.014 C 
HETATM   12  C6  UNL     1     -40.297  14.448   9.459  1.00 20.00     0.014 C 
HETATM   13  C7  UNL     1     -41.324  16.699   9.861  1.00 20.00     0.014 C 
ENDBRANCH   9  10
ENDBRANCH   8   9
ENDBRANCH   1   8
TORSDOF 6
ENDMDL
MODEL 8
REMARK VINA RESULT:      -3.8      2.997      4.919
REMARK  6 active torsions:
REMARK  status: ('A' for Active; 'I' for Inactive)
REMARK    1  A    between atoms: C1_1  and  C4_4 
REMARK    2  A    between atoms: C1_1  and  C8_8 
REMARK    3  A    between atoms: C8_8  and  C9_9 
REMARK    4  A    between atoms: C9_9  and  C10_10 
REMARK    5  A    between atoms: C10_10  and  C11_11 
REMARK    6  A    between atoms: C11_11  and  C12_12 
ROOT
HETATM    1  C9  UNL     1     -35.652  14.887  -6.369  1.00 20.00     0.007 C 
ENDROOT
BRANCH   1   2
HETATM    2  C8  UNL     1     -34.199  15.117  -5.960  1.00 20.00     0.079 C 
BRANCH   2   3
HETATM    3  C1  UNL     1     -33.921  14.778  -4.509  1.00 20.00     0.131 C 
HETATM    4  O13 UNL     1     -34.377  13.804  -3.922  1.00 20.00    -0.298 OA
BRANCH   3   5
HETATM    5  C4  UNL     1     -33.052  15.747  -3.781  1.00 20.00     0.055 A 
HETATM    6  C2  UNL     1     -33.410  17.196  -3.821  1.00 20.00     0.013 A 
HETATM    7  C3  UNL     1     -33.595  16.409  -2.558  1.00 20.00     0.013 A 
ENDBRANCH   3   5
ENDBRANCH   2   3
ENDBRANCH   1   2
BRANCH   1   8
HETATM    8  C10 UNL     1     -36.410  16.201  -6.599  1.00 20.00     0.001 C 
BRANCH   8   9
HETATM    9  C11 UNL     1     -37.041  16.706  -5.294  1.00 20.00     0.008 C 
BRANCH   9  10
HETATM   10  C12 UNL     1     -37.062  18.247  -5.106  1.00 20.00    -0.051 C 
HETATM   11  C5  UNL     1     -36.835  18.551  -3.612  1.00 20.00     0.014 C 
HETATM   12  C6  UNL     1     -38.416  18.840  -5.524  1.00 20.00     0.014 C 
HETATM   13  C7  UNL     1     -35.942  18.922  -5.916  1.00 20.00     0.014 C 
ENDBRANCH   9  10
ENDBRANCH   8   9
ENDBRANCH   1   8
TORSDOF 6
ENDMDL
MODEL 9
REMARK VINA RESULT:      -3.6     10.557     12.521
REMARK  6 active torsions:
REMARK  status: ('A' for Active; 'I' for Inactive)
REMARK    1  A    between atoms: C1_1  and  C4_4 
REMARK    2  A    between atoms: C1_1  and  C8_8 
REMARK    3  A    between atoms: C8_8  and  C9_9 
REMARK    4  A    between atoms: C9_9  and  C10_10 
REMARK    5  A    between atoms: C10_10  and  C11_11 
REMARK    6  A    between atoms: C11_11  and  C12_12 
ROOT
HETATM    1  C9  UNL     1     -40.418  14.790   7.383  1.00 20.00     0.007 C 
ENDROOT
BRANCH   1   2
HETATM    2  C8  UNL     1     -41.183  13.542   6.944  1.00 20.00     0.079 C 
BRANCH   2   3
HETATM    3  C1  UNL     1     -40.835  13.085   5.541  1.00 20.00     0.131 C 
HETATM    4  O13 UNL     1     -41.247  13.612   4.515  1.00 20.00    -0.298 OA
BRANCH   3   5
HETATM    5  C4  UNL     1     -39.954  11.884   5.460  1.00 20.00     0.055 A 
HETATM    6  C2  UNL     1     -39.149  11.673   4.221  1.00 20.00     0.013 A 
HETATM    7  C3  UNL     1     -38.475  12.084   5.496  1.00 20.00     0.013 A 
ENDBRANCH   3   5
ENDBRANCH   2   3
ENDBRANCH   1   2
BRANCH   1   8
HETATM    8  C10 UNL     1     -41.353  15.933   7.797  1.00 20.00     0.001 C 
BRANCH   8   9
HETATM    9  C11 UNL     1     -42.014  16.574   6.570  1.00 20.00     0.008 C 
BRANCH   9  10
HETATM   10  C12 UNL     1     -41.805  18.103   6.411  1.00 20.00    -0.051 C 
HETATM   11  C5  UNL     1     -42.893  18.824   7.230  1.00 20.00     0.014 C 
HETATM   12  C6  UNL     1     -41.936  18.533   4.941  1.00 20.00     0.014 C 
HETATM   13  C7  UNL     1     -40.428  18.535   6.943  1.00 20.00     0.014 C 
ENDBRANCH   9  10
ENDBRANCH   8   9
ENDBRANCH   1   8
TORSDOF 6
ENDMDL
