MODEL 1
REMARK VINA RESULT:      -5.4      0.000      0.000
REMARK  3 active torsions:
REMARK  status: ('A' for Active; 'I' for Inactive)
REMARK    1  A    between atoms: C1_1  and  C4_4 
REMARK    2  A    between atoms: C1_1  and  C5_5 
REMARK    3  A    between atoms: C5_5  and  C6_6 
ROOT
HETATM    1  C1  UNL     1     -33.812   7.036   5.822  1.00 20.00     0.139 C 
HETATM    2  O7  UNL     1     -33.062   7.098   6.787  1.00 20.00    -0.297 OA
ENDROOT
BRANCH   1   3
HETATM    3  C4  UNL     1     -34.773   5.901   5.695  1.00 20.00     0.056 A 
HETATM    4  C2  UNL     1     -35.535   5.752   4.420  1.00 20.00     0.013 A 
HETATM    5  C3  UNL     1     -34.439   4.787   4.760  1.00 20.00     0.013 A 
ENDBRANCH   1   3
BRANCH   1   6
HETATM    6  C5  UNL     1     -33.854   8.047   4.697  1.00 20.00     0.196 C 
BRANCH   6   7
HETATM    7  C6  UNL     1     -32.598   8.037   3.855  1.00 20.00     0.394 C 
HETATM    8  F8  UNL     1     -32.388   6.828   3.295  1.00 20.00    -0.171 F 
HETATM    9  F9  UNL     1     -31.511   8.360   4.586  1.00 20.00    -0.171 F 
HETATM   10  F10 UNL     1     -32.699   8.939   2.853  1.00 20.00    -0.171 F 
ENDBRANCH   6   7
ENDBRANCH   1   6
TORSDOF 3
ENDMDL
MODEL 2
REMARK VINA RESULT:      -5.0      2.675      3.871
REMARK  3 active torsions:
REMARK  status: ('A' for Active; 'I' for Inactive)
REMARK    1  A    between atoms: C1_1  and  C4_4 
REMARK    2  A    between atoms: C1_1  and  C5_5 
REMARK    3  A    between atoms: C5_5  and  C6_6 
ROOT
HETATM    1  C1  UNL     1     -33.390   6.396   3.838  1.00 20.00     0.139 C 
HETATM    2  O7  UNL     1     -33.367   5.349   3.205  1.00 20.00    -0.297 OA
ENDROOT
BRANCH   1   3
HETATM    3  C4  UNL     1     -32.318   7.415   3.633  1.00 20.00     0.056 A 
HETATM    4  C2  UNL     1     -32.681   8.711   2.988  1.00 20.00     0.013 A 
HETATM    5  C3  UNL     1     -32.356   8.662   4.451  1.00 20.00     0.013 A 
ENDBRANCH   1   3
BRANCH   1   6
HETATM    6  C5  UNL     1     -34.449   6.769   4.852  1.00 20.00     0.196 C 
BRANCH   6   7
HETATM    7  C6  UNL     1     -34.207   6.142   6.206  1.00 20.00     0.394 C 
HETATM    8  F8  UNL     1     -33.072   6.607   6.770  1.00 20.00    -0.171 F 
HETATM    9  F9  UNL     1     -34.117   4.799   6.121  1.00 20.00    -0.171 F 
HETATM   10  F10 UNL     1     -35.227   6.431   7.045  1.00 20.00    -0.171 F 
ENDBRANCH   6   7
ENDBRANCH   1   6
TORSDOF 3
ENDMDL
MODEL 3
REMARK VINA RESULT:      -4.9      2.749      3.914
REMARK  3 active torsions:
REMARK  status: ('A' for Active; 'I' for Inactive)
REMARK    1  A    between atoms: C1_1  and  C4_4 
REMARK    2  A    between atoms: C1_1  and  C5_5 
REMARK    3  A    between atoms: C5_5  and  C6_6 
ROOT
HETATM    1  C1  UNL     1     -33.721   6.557   4.067  1.00 20.00     0.139 C 
HETATM    2  O7  UNL     1     -32.998   5.937   3.297  1.00 20.00    -0.297 OA
ENDROOT
BRANCH   1   3
HETATM    3  C4  UNL     1     -33.524   8.024   4.257  1.00 20.00     0.056 A 
HETATM    4  C2  UNL     1     -32.251   8.498   4.876  1.00 20.00     0.013 A 
HETATM    5  C3  UNL     1     -32.507   8.720   3.416  1.00 20.00     0.013 A 
ENDBRANCH   1   3
BRANCH   1   6
HETATM    6  C5  UNL     1     -34.842   5.946   4.878  1.00 20.00     0.196 C 
BRANCH   6   7
HETATM    7  C6  UNL     1     -34.540   5.913   6.359  1.00 20.00     0.394 C 
HETATM    8  F8  UNL     1     -35.375   5.081   7.016  1.00 20.00    -0.171 F 
HETATM    9  F9  UNL     1     -34.643   7.139   6.913  1.00 20.00    -0.171 F 
HETATM   10  F10 UNL     1     -33.278   5.475   6.571  1.00 20.00    -0.171 F 
ENDBRANCH   6   7
ENDBRANCH   1   6
TORSDOF 3
ENDMDL
MODEL 4
REMARK VINA RESULT:      -4.9      2.549      3.600
REMARK  3 active torsions:
REMARK  status: ('A' for Active; 'I' for Inactive)
REMARK    1  A    between atoms: C1_1  and  C4_4 
REMARK    2  A    between atoms: C1_1  and  C5_5 
REMARK    3  A    between atoms: C5_5  and  C6_6 
ROOT
HETATM    1  C1  UNL     1     -32.959   7.916   4.557  1.00 20.00     0.139 C 
HETATM    2  O7  UNL     1     -32.699   8.981   5.101  1.00 20.00    -0.297 OA
ENDROOT
BRANCH   1   3
HETATM    3  C4  UNL     1     -32.053   7.377   3.501  1.00 20.00     0.056 A 
HETATM    4  C2  UNL     1     -32.564   6.295   2.608  1.00 20.00     0.013 A 
HETATM    5  C3  UNL     1     -32.365   7.681   2.074  1.00 20.00     0.013 A 
ENDBRANCH   1   3
BRANCH   1   6
HETATM    6  C5  UNL     1     -34.166   7.059   4.871  1.00 20.00     0.196 C 
BRANCH   6   7
HETATM    7  C6  UNL     1     -34.188   6.586   6.307  1.00 20.00     0.394 C 
HETATM    8  F8  UNL     1     -34.649   7.544   7.137  1.00 20.00    -0.171 F 
HETATM    9  F9  UNL     1     -32.959   6.218   6.725  1.00 20.00    -0.171 F 
HETATM   10  F10 UNL     1     -35.000   5.511   6.433  1.00 20.00    -0.171 F 
ENDBRANCH   6   7
ENDBRANCH   1   6
TORSDOF 3
ENDMDL
MODEL 5
REMARK VINA RESULT:      -4.8      1.610      1.870
REMARK  3 active torsions:
REMARK  status: ('A' for Active; 'I' for Inactive)
REMARK    1  A    between atoms: C1_1  and  C4_4 
REMARK    2  A    between atoms: C1_1  and  C5_5 
REMARK    3  A    between atoms: C5_5  and  C6_6 
ROOT
HETATM    1  C1  UNL     1     -33.982   6.353   4.062  1.00 20.00     0.139 C 
HETATM    2  O7  UNL     1     -33.442   5.527   3.338  1.00 20.00    -0.297 OA
ENDROOT
BRANCH   1   3
HETATM    3  C4  UNL     1     -34.895   5.905   5.154  1.00 20.00     0.056 A 
HETATM    4  C2  UNL     1     -34.387   4.911   6.145  1.00 20.00     0.013 A 
HETATM    5  C3  UNL     1     -34.600   6.338   6.551  1.00 20.00     0.013 A 
ENDBRANCH   1   3
BRANCH   1   6
HETATM    6  C5  UNL     1     -33.800   7.851   3.947  1.00 20.00     0.196 C 
BRANCH   6   7
HETATM    7  C6  UNL     1     -32.398   8.297   4.295  1.00 20.00     0.394 C 
HETATM    8  F8  UNL     1     -31.472   7.609   3.595  1.00 20.00    -0.171 F 
HETATM    9  F9  UNL     1     -32.140   8.137   5.610  1.00 20.00    -0.171 F 
HETATM   10  F10 UNL     1     -32.238   9.608   4.004  1.00 20.00    -0.171 F 
ENDBRANCH   6   7
ENDBRANCH   1   6
TORSDOF 3
ENDMDL
MODEL 6
REMARK VINA RESULT:      -4.8      2.508      3.705
REMARK  3 active torsions:
REMARK  status: ('A' for Active; 'I' for Inactive)
REMARK    1  A    between atoms: C1_1  and  C4_4 
REMARK    2  A    between atoms: C1_1  and  C5_5 
REMARK    3  A    between atoms: C5_5  and  C6_6 
ROOT
HETATM    1  C1  UNL     1     -33.641   7.874   5.087  1.00 20.00     0.139 C 
HETATM    2  O7  UNL     1     -33.980   8.732   5.891  1.00 20.00    -0.297 OA
ENDROOT
BRANCH   1   3
HETATM    3  C4  UNL     1     -32.391   8.050   4.291  1.00 20.00     0.056 A 
HETATM    4  C2  UNL     1     -32.209   7.228   3.058  1.00 20.00     0.013 A 
HETATM    5  C3  UNL     1     -32.486   8.697   2.950  1.00 20.00     0.013 A 
ENDBRANCH   1   3
BRANCH   1   6
HETATM    6  C5  UNL     1     -34.406   6.597   4.814  1.00 20.00     0.196 C 
BRANCH   6   7
HETATM    7  C6  UNL     1     -34.319   5.610   5.956  1.00 20.00     0.394 C 
HETATM    8  F8  UNL     1     -34.132   4.351   5.508  1.00 20.00    -0.171 F 
HETATM    9  F9  UNL     1     -35.437   5.629   6.712  1.00 20.00    -0.171 F 
HETATM   10  F10 UNL     1     -33.277   5.915   6.761  1.00 20.00    -0.171 F 
ENDBRANCH   6   7
ENDBRANCH   1   6
TORSDOF 3
ENDMDL
MODEL 7
REMARK VINA RESULT:      -4.8      2.574      3.289
REMARK  3 active torsions:
REMARK  status: ('A' for Active; 'I' for Inactive)
REMARK    1  A    between atoms: C1_1  and  C4_4 
REMARK    2  A    between atoms: C1_1  and  C5_5 
REMARK    3  A    between atoms: C5_5  and  C6_6 
ROOT
HETATM    1  C1  UNL     1     -34.271   5.120   4.540  1.00 20.00     0.139 C 
HETATM    2  O7  UNL     1     -33.952   3.959   4.758  1.00 20.00    -0.297 OA
ENDROOT
BRANCH   1   3
HETATM    3  C4  UNL     1     -33.899   5.766   3.247  1.00 20.00     0.056 A 
HETATM    4  C2  UNL     1     -32.556   6.408   3.131  1.00 20.00     0.013 A 
HETATM    5  C3  UNL     1     -32.843   5.125   2.410  1.00 20.00     0.013 A 
ENDBRANCH   1   3
BRANCH   1   6
HETATM    6  C5  UNL     1     -35.040   5.999   5.502  1.00 20.00     0.196 C 
BRANCH   6   7
HETATM    7  C6  UNL     1     -34.149   6.964   6.251  1.00 20.00     0.394 C 
HETATM    8  F8  UNL     1     -33.948   8.098   5.549  1.00 20.00    -0.171 F 
HETATM    9  F9  UNL     1     -32.945   6.417   6.524  1.00 20.00    -0.171 F 
HETATM   10  F10 UNL     1     -34.716   7.308   7.429  1.00 20.00    -0.171 F 
ENDBRANCH   6   7
ENDBRANCH   1   6
TORSDOF 3
ENDMDL
MODEL 8
REMARK VINA RESULT:      -4.5      1.749      2.206
REMARK  3 active torsions:
REMARK  status: ('A' for Active; 'I' for Inactive)
REMARK    1  A    between atoms: C1_1  and  C4_4 
REMARK    2  A    between atoms: C1_1  and  C5_5 
REMARK    3  A    between atoms: C5_5  and  C6_6 
ROOT
HETATM    1  C1  UNL     1     -34.113   5.958   4.162  1.00 20.00     0.139 C 
HETATM    2  O7  UNL     1     -35.301   5.905   3.873  1.00 20.00    -0.297 OA
ENDROOT
BRANCH   1   3
HETATM    3  C4  UNL     1     -33.691   5.902   5.593  1.00 20.00     0.056 A 
HETATM    4  C2  UNL     1     -34.180   6.962   6.523  1.00 20.00     0.013 A 
HETATM    5  C3  UNL     1     -34.715   5.565   6.624  1.00 20.00     0.013 A 
ENDBRANCH   1   3
BRANCH   1   6
HETATM    6  C5  UNL     1     -32.986   6.082   3.161  1.00 20.00     0.196 C 
BRANCH   6   7
HETATM    7  C6  UNL     1     -32.403   7.476   3.108  1.00 20.00     0.394 C 
HETATM    8  F8  UNL     1     -31.255   7.559   3.812  1.00 20.00    -0.171 F 
HETATM    9  F9  UNL     1     -33.265   8.392   3.596  1.00 20.00    -0.171 F 
HETATM   10  F10 UNL     1     -32.123   7.819   1.830  1.00 20.00    -0.171 F 
ENDBRANCH   6   7
ENDBRANCH   1   6
TORSDOF 3
ENDMDL
MODEL 9
REMARK VINA RESULT:      -4.4      1.995      3.421
REMARK  3 active torsions:
REMARK  status: ('A' for Active; 'I' for Inactive)
REMARK    1  A    between atoms: C1_1  and  C4_4 
REMARK    2  A    between atoms: C1_1  and  C5_5 
REMARK    3  A    between atoms: C5_5  and  C6_6 
ROOT
HETATM    1  C1  UNL     1     -33.845   7.152   5.757  1.00 20.00     0.139 C 
HETATM    2  O7  UNL     1     -34.413   7.491   6.787  1.00 20.00    -0.297 OA
ENDROOT
BRANCH   1   3
HETATM    3  C4  UNL     1     -33.494   8.175   4.729  1.00 20.00     0.056 A 
HETATM    4  C2  UNL     1     -32.325   9.069   4.983  1.00 20.00     0.013 A 
HETATM    5  C3  UNL     1     -32.238   7.991   3.944  1.00 20.00     0.013 A 
ENDBRANCH   1   3
BRANCH   1   6
HETATM    6  C5  UNL     1     -33.451   5.732   5.416  1.00 20.00     0.196 C 
BRANCH   6   7
HETATM    7  C6  UNL     1     -34.307   5.135   4.322  1.00 20.00     0.394 C 
HETATM    8  F8  UNL     1     -34.345   3.789   4.402  1.00 20.00    -0.171 F 
HETATM    9  F9  UNL     1     -33.852   5.473   3.098  1.00 20.00    -0.171 F 
HETATM   10  F10 UNL     1     -35.578   5.586   4.423  1.00 20.00    -0.171 F 
ENDBRANCH   6   7
ENDBRANCH   1   6
TORSDOF 3
ENDMDL
