MODEL 1
REMARK VINA RESULT:      -5.3      0.000      0.000
REMARK  1 active torsions:
REMARK  status: ('A' for Active; 'I' for Inactive)
REMARK    1  A    between atoms: C9_9  and  C10_10 
ROOT
HETATM    1  C1  UNL     1     -32.523   9.149   0.465  1.00 20.00     0.012 C 
HETATM    2  C2  UNL     1     -32.314   8.273   1.259  1.00 20.00    -0.117 C 
HETATM    3  C10 UNL     1     -32.045   7.202   2.218  1.00 20.00     0.098 C 
ENDROOT
BRANCH   3   4
HETATM    4  C9  UNL     1     -33.105   7.182   3.324  1.00 20.00     0.004 C 
HETATM    5  C5  UNL     1     -32.562   7.920   4.550  1.00 20.00     0.083 C 
HETATM    6  C3  UNL     1     -33.533   7.907   5.709  1.00 20.00     0.127 C 
HETATM    7  C4  UNL     1     -33.618   6.622   6.493  1.00 20.00     0.078 C 
HETATM    8  O11 UNL     1     -34.247   8.874   5.971  1.00 20.00    -0.298 OA
HETATM    9  C6  UNL     1     -34.675   5.678   5.945  1.00 20.00     0.007 C 
HETATM   10  C7  UNL     1     -34.827   5.625   4.423  1.00 20.00     0.001 C 
HETATM   11  C8  UNL     1     -33.531   5.728   3.613  1.00 20.00     0.006 C 
ENDBRANCH   3   4
TORSDOF 1
ENDMDL
MODEL 2
REMARK VINA RESULT:      -5.1      1.687      2.508
REMARK  1 active torsions:
REMARK  status: ('A' for Active; 'I' for Inactive)
REMARK    1  A    between atoms: C9_9  and  C10_10 
ROOT
HETATM    1  C1  UNL     1     -32.164   8.338   0.828  1.00 20.00     0.012 C 
HETATM    2  C2  UNL     1     -32.290   8.552   2.003  1.00 20.00    -0.117 C 
HETATM    3  C10 UNL     1     -32.440   8.830   3.432  1.00 20.00     0.098 C 
ENDROOT
BRANCH   3   4
HETATM    4  C9  UNL     1     -32.813   7.556   4.198  1.00 20.00     0.004 C 
HETATM    5  C5  UNL     1     -33.598   6.626   3.270  1.00 20.00     0.083 C 
HETATM    6  C3  UNL     1     -34.046   5.360   3.965  1.00 20.00     0.127 C 
HETATM    7  C4  UNL     1     -35.237   5.489   4.882  1.00 20.00     0.078 C 
HETATM    8  O11 UNL     1     -33.447   4.295   3.828  1.00 20.00    -0.298 OA
HETATM    9  C6  UNL     1     -34.836   5.813   6.311  1.00 20.00     0.007 C 
HETATM   10  C7  UNL     1     -33.658   6.772   6.494  1.00 20.00     0.001 C 
HETATM   11  C8  UNL     1     -33.568   7.927   5.490  1.00 20.00     0.006 C 
ENDBRANCH   3   4
TORSDOF 1
ENDMDL
MODEL 3
REMARK VINA RESULT:      -4.6     11.811     13.682
REMARK  1 active torsions:
REMARK  status: ('A' for Active; 'I' for Inactive)
REMARK    1  A    between atoms: C9_9  and  C10_10 
ROOT
HETATM    1  C1  UNL     1     -33.633  17.345  -1.395  1.00 20.00     0.012 C 
HETATM    2  C2  UNL     1     -33.420  16.689  -2.378  1.00 20.00    -0.117 C 
HETATM    3  C10 UNL     1     -33.145  15.885  -3.569  1.00 20.00     0.098 C 
ENDROOT
BRANCH   3   4
HETATM    4  C9  UNL     1     -34.284  16.013  -4.587  1.00 20.00     0.004 C 
HETATM    5  C5  UNL     1     -34.027  15.051  -5.748  1.00 20.00     0.083 C 
HETATM    6  C3  UNL     1     -35.086  15.148  -6.823  1.00 20.00     0.127 C 
HETATM    7  C4  UNL     1     -34.984  16.331  -7.753  1.00 20.00     0.078 C 
HETATM    8  O11 UNL     1     -36.003  14.334  -6.908  1.00 20.00    -0.298 OA
HETATM    9  C6  UNL     1     -35.767  17.532  -7.249  1.00 20.00     0.007 C 
HETATM   10  C7  UNL     1     -35.753  17.777  -5.739  1.00 20.00     0.001 C 
HETATM   11  C8  UNL     1     -34.431  17.486  -5.021  1.00 20.00     0.006 C 
ENDBRANCH   3   4
TORSDOF 1
ENDMDL
MODEL 4
REMARK VINA RESULT:      -4.6     11.325     12.672
REMARK  1 active torsions:
REMARK  status: ('A' for Active; 'I' for Inactive)
REMARK    1  A    between atoms: C9_9  and  C10_10 
ROOT
HETATM    1  C1  UNL     1     -33.895  18.017   0.125  1.00 20.00     0.012 C 
HETATM    2  C2  UNL     1     -33.445  17.850  -0.976  1.00 20.00    -0.117 C 
HETATM    3  C10 UNL     1     -32.882  17.655  -2.312  1.00 20.00     0.098 C 
ENDROOT
BRANCH   3   4
HETATM    4  C9  UNL     1     -33.840  16.845  -3.193  1.00 20.00     0.004 C 
HETATM    5  C5  UNL     1     -33.145  15.555  -3.632  1.00 20.00     0.083 C 
HETATM    6  C3  UNL     1     -34.009  14.716  -4.546  1.00 20.00     0.127 C 
HETATM    7  C4  UNL     1     -34.106  15.177  -5.979  1.00 20.00     0.078 C 
HETATM    8  O11 UNL     1     -34.633  13.739  -4.136  1.00 20.00    -0.298 OA
HETATM    9  C6  UNL     1     -35.266  16.133  -6.202  1.00 20.00     0.007 C 
HETATM   10  C7  UNL     1     -35.555  17.136  -5.083  1.00 20.00     0.001 C 
HETATM   11  C8  UNL     1     -34.331  17.717  -4.367  1.00 20.00     0.006 C 
ENDBRANCH   3   4
TORSDOF 1
ENDMDL
MODEL 5
REMARK VINA RESULT:      -4.2     11.906     13.095
REMARK  1 active torsions:
REMARK  status: ('A' for Active; 'I' for Inactive)
REMARK    1  A    between atoms: C9_9  and  C10_10 
ROOT
HETATM    1  C1  UNL     1     -31.266  18.349  -0.445  1.00 20.00     0.012 C 
HETATM    2  C2  UNL     1     -32.254  18.508  -1.110  1.00 20.00    -0.117 C 
HETATM    3  C10 UNL     1     -33.462  18.715  -1.908  1.00 20.00     0.098 C 
ENDROOT
BRANCH   3   4
HETATM    4  C9  UNL     1     -33.434  17.847  -3.171  1.00 20.00     0.004 C 
HETATM    5  C5  UNL     1     -34.620  18.222  -4.062  1.00 20.00     0.083 C 
HETATM    6  C3  UNL     1     -34.693  17.376  -5.313  1.00 20.00     0.127 C 
HETATM    7  C4  UNL     1     -35.236  15.980  -5.142  1.00 20.00     0.078 C 
HETATM    8  O11 UNL     1     -34.292  17.787  -6.400  1.00 20.00    -0.298 OA
HETATM    9  C6  UNL     1     -34.144  14.967  -4.844  1.00 20.00     0.007 C 
HETATM   10  C7  UNL     1     -33.005  15.432  -3.934  1.00 20.00     0.001 C 
HETATM   11  C8  UNL     1     -33.401  16.355  -2.778  1.00 20.00     0.006 C 
ENDBRANCH   3   4
TORSDOF 1
ENDMDL
MODEL 6
REMARK VINA RESULT:      -4.2      9.911     10.948
REMARK  1 active torsions:
REMARK  status: ('A' for Active; 'I' for Inactive)
REMARK    1  A    between atoms: C9_9  and  C10_10 
ROOT
HETATM    1  C1  UNL     1     -38.968  11.665   4.499  1.00 20.00     0.012 C 
HETATM    2  C2  UNL     1     -39.890  12.361   4.827  1.00 20.00    -0.117 C 
HETATM    3  C10 UNL     1     -41.016  13.212   5.211  1.00 20.00     0.098 C 
ENDROOT
BRANCH   3   4
HETATM    4  C9  UNL     1     -41.188  13.234   6.734  1.00 20.00     0.004 C 
HETATM    5  C5  UNL     1     -42.675  13.108   7.071  1.00 20.00     0.083 C 
HETATM    6  C3  UNL     1     -42.936  13.168   8.559  1.00 20.00     0.127 C 
HETATM    7  C4  UNL     1     -42.887  14.538   9.190  1.00 20.00     0.078 C 
HETATM    8  O11 UNL     1     -43.133  12.155   9.227  1.00 20.00    -0.298 OA
HETATM    9  C6  UNL     1     -41.498  14.895   9.690  1.00 20.00     0.007 C 
HETATM   10  C7  UNL     1     -40.318  14.435   8.831  1.00 20.00     0.001 C 
HETATM   11  C8  UNL     1     -40.524  14.500   7.314  1.00 20.00     0.006 C 
ENDBRANCH   3   4
TORSDOF 1
ENDMDL
MODEL 7
REMARK VINA RESULT:      -4.2      9.828     10.756
REMARK  1 active torsions:
REMARK  status: ('A' for Active; 'I' for Inactive)
REMARK    1  A    between atoms: C9_9  and  C10_10 
ROOT
HETATM    1  C1  UNL     1     -38.924  11.616   3.821  1.00 20.00     0.012 C 
HETATM    2  C2  UNL     1     -39.279  11.894   4.934  1.00 20.00    -0.117 C 
HETATM    3  C10 UNL     1     -39.706  12.218   6.295  1.00 20.00     0.098 C 
ENDROOT
BRANCH   3   4
HETATM    4  C9  UNL     1     -40.370  13.598   6.344  1.00 20.00     0.004 C 
HETATM    5  C5  UNL     1     -40.410  14.083   7.794  1.00 20.00     0.083 C 
HETATM    6  C3  UNL     1     -41.094  15.424   7.936  1.00 20.00     0.127 C 
HETATM    7  C4  UNL     1     -42.601  15.412   7.877  1.00 20.00     0.078 C 
HETATM    8  O11 UNL     1     -40.459  16.470   8.049  1.00 20.00    -0.298 OA
HETATM    9  C6  UNL     1     -43.126  15.595   6.463  1.00 20.00     0.007 C 
HETATM   10  C7  UNL     1     -42.338  14.911   5.343  1.00 20.00     0.001 C 
HETATM   11  C8  UNL     1     -41.758  13.532   5.673  1.00 20.00     0.006 C 
ENDBRANCH   3   4
TORSDOF 1
ENDMDL
MODEL 8
REMARK VINA RESULT:      -3.9     11.265     12.519
REMARK  1 active torsions:
REMARK  status: ('A' for Active; 'I' for Inactive)
REMARK    1  A    between atoms: C9_9  and  C10_10 
ROOT
HETATM    1  C1  UNL     1     -35.853  14.007  -4.888  1.00 20.00     0.012 C 
HETATM    2  C2  UNL     1     -34.742  14.349  -4.585  1.00 20.00    -0.117 C 
HETATM    3  C10 UNL     1     -33.383  14.750  -4.219  1.00 20.00     0.098 C 
ENDROOT
BRANCH   3   4
HETATM    4  C9  UNL     1     -33.341  16.228  -3.819  1.00 20.00     0.004 C 
HETATM    5  C5  UNL     1     -33.518  16.341  -2.303  1.00 20.00     0.083 C 
HETATM    6  C3  UNL     1     -33.535  17.777  -1.829  1.00 20.00     0.127 C 
HETATM    7  C4  UNL     1     -34.816  18.540  -2.058  1.00 20.00     0.078 C 
HETATM    8  O11 UNL     1     -32.546  18.307  -1.326  1.00 20.00    -0.298 OA
HETATM    9  C6  UNL     1     -34.828  19.262  -3.394  1.00 20.00     0.007 C 
HETATM   10  C7  UNL     1     -34.182  18.535  -4.575  1.00 20.00     0.001 C 
HETATM   11  C8  UNL     1     -34.391  17.018  -4.628  1.00 20.00     0.006 C 
ENDBRANCH   3   4
TORSDOF 1
ENDMDL
MODEL 9
REMARK VINA RESULT:      -3.8     11.892     13.192
REMARK  1 active torsions:
REMARK  status: ('A' for Active; 'I' for Inactive)
REMARK    1  A    between atoms: C9_9  and  C10_10 
ROOT
HETATM    1  C1  UNL     1     -34.242  18.371   0.723  1.00 20.00     0.012 C 
HETATM    2  C2  UNL     1     -33.298  18.386  -0.020  1.00 20.00    -0.117 C 
HETATM    3  C10 UNL     1     -32.138  18.410  -0.911  1.00 20.00     0.098 C 
ENDROOT
BRANCH   3   4
HETATM    4  C9  UNL     1     -32.533  17.986  -2.329  1.00 20.00     0.004 C 
HETATM    5  C5  UNL     1     -33.332  19.114  -2.985  1.00 20.00     0.083 C 
HETATM    6  C3  UNL     1     -33.801  18.756  -4.377  1.00 20.00     0.127 C 
HETATM    7  C4  UNL     1     -34.992  17.835  -4.462  1.00 20.00     0.078 C 
HETATM    8  O11 UNL     1     -33.219  19.157  -5.383  1.00 20.00    -0.298 OA
HETATM    9  C6  UNL     1     -34.589  16.371  -4.511  1.00 20.00     0.007 C 
HETATM   10  C7  UNL     1     -33.396  15.957  -3.647  1.00 20.00     0.001 C 
HETATM   11  C8  UNL     1     -33.285  16.640  -2.280  1.00 20.00     0.006 C 
ENDBRANCH   3   4
TORSDOF 1
ENDMDL
