MODEL 1
REMARK VINA RESULT:      -4.1      0.000      0.000
REMARK  1 active torsions:
REMARK  status: ('A' for Active; 'I' for Inactive)
REMARK    1  A    between atoms: C4_4  and  C8_8 
ROOT
HETATM    1  C1  UNL     1     -35.320  14.426  -5.154  1.00 20.00     0.135 A 
HETATM    2  C2  UNL     1     -35.677  15.724  -5.448  1.00 20.00     0.136 A 
HETATM    3  C3  UNL     1     -33.649  15.192  -3.795  1.00 20.00     0.143 A 
HETATM    4  C4  UNL     1     -34.005  16.490  -4.088  1.00 20.00     0.056 A 
HETATM    5  N10 UNL     1     -34.300  14.137  -4.323  1.00 20.00    -0.270 NA
HETATM    6  N11 UNL     1     -35.026  16.779  -4.919  1.00 20.00    -0.262 NA
ENDROOT
BRANCH   4   7
HETATM    7  C8  UNL     1     -33.248  17.656  -3.474  1.00 20.00     0.041 C 
HETATM    8  C5  UNL     1     -34.001  18.995  -3.392  1.00 20.00     0.012 C 
HETATM    9  C6  UNL     1     -34.543  19.114  -1.962  1.00 20.00     0.021 C 
HETATM   10  C9  UNL     1     -34.082  17.855  -1.232  1.00 20.00     0.083 C 
HETATM   11  C7  UNL     1     -32.863  17.383  -2.013  1.00 20.00     0.031 C 
HETATM   12 CL12 UNL     1     -33.707  18.161   0.473  1.00 20.00    -0.125 Cl
ENDBRANCH   4   7
TORSDOF 1
ENDMDL
MODEL 2
REMARK VINA RESULT:      -4.0     11.422     12.565
REMARK  1 active torsions:
REMARK  status: ('A' for Active; 'I' for Inactive)
REMARK    1  A    between atoms: C4_4  and  C8_8 
ROOT
HETATM    1  C1  UNL     1     -39.518  12.018   4.793  1.00 20.00     0.135 A 
HETATM    2  C2  UNL     1     -39.227  11.897   6.134  1.00 20.00     0.136 A 
HETATM    3  C3  UNL     1     -41.158  13.534   5.286  1.00 20.00     0.143 A 
HETATM    4  C4  UNL     1     -40.867  13.413   6.627  1.00 20.00     0.056 A 
HETATM    5  N10 UNL     1     -40.489  12.838   4.345  1.00 20.00    -0.270 NA
HETATM    6  N11 UNL     1     -39.896  12.594   7.075  1.00 20.00    -0.262 NA
ENDROOT
BRANCH   4   7
HETATM    7  C8  UNL     1     -41.643  14.213   7.659  1.00 20.00     0.041 C 
HETATM    8  C5  UNL     1     -41.004  14.334   9.053  1.00 20.00     0.012 C 
HETATM    9  C6  UNL     1     -40.307  15.700   9.107  1.00 20.00     0.021 C 
HETATM   10  C9  UNL     1     -40.567  16.356   7.754  1.00 20.00     0.083 C 
HETATM   11  C7  UNL     1     -41.826  15.676   7.231  1.00 20.00     0.031 C 
HETATM   12 CL12 UNL     1     -40.761  18.114   7.881  1.00 20.00    -0.125 Cl
ENDBRANCH   4   7
TORSDOF 1
ENDMDL
MODEL 3
REMARK VINA RESULT:      -3.8      0.964      1.067
REMARK  1 active torsions:
REMARK  status: ('A' for Active; 'I' for Inactive)
REMARK    1  A    between atoms: C4_4  and  C8_8 
ROOT
HETATM    1  C1  UNL     1     -36.515  15.660  -5.729  1.00 20.00     0.135 A 
HETATM    2  C2  UNL     1     -36.490  16.997  -5.397  1.00 20.00     0.136 A 
HETATM    3  C3  UNL     1     -34.470  15.378  -4.747  1.00 20.00     0.143 A 
HETATM    4  C4  UNL     1     -34.444  16.715  -4.416  1.00 20.00     0.056 A 
HETATM    5  N10 UNL     1     -35.506  14.827  -5.410  1.00 20.00    -0.270 NA
HETATM    6  N11 UNL     1     -35.453  17.548  -4.734  1.00 20.00    -0.262 NA
ENDROOT
BRANCH   4   7
HETATM    7  C8  UNL     1     -33.258  17.301  -3.668  1.00 20.00     0.041 C 
HETATM    8  C5  UNL     1     -33.193  18.836  -3.584  1.00 20.00     0.012 C 
HETATM    9  C6  UNL     1     -33.744  19.231  -2.208  1.00 20.00     0.021 C 
HETATM   10  C9  UNL     1     -34.103  17.923  -1.509  1.00 20.00     0.083 C 
HETATM   11  C7  UNL     1     -33.240  16.871  -2.194  1.00 20.00     0.031 C 
HETATM   12 CL12 UNL     1     -33.814  17.989   0.239  1.00 20.00    -0.125 Cl
ENDBRANCH   4   7
TORSDOF 1
ENDMDL
MODEL 4
REMARK VINA RESULT:      -3.6      2.859      4.547
REMARK  1 active torsions:
REMARK  status: ('A' for Active; 'I' for Inactive)
REMARK    1  A    between atoms: C4_4  and  C8_8 
ROOT
HETATM    1  C1  UNL     1     -34.958  18.907  -0.825  1.00 20.00     0.135 A 
HETATM    2  C2  UNL     1     -35.442  19.137  -2.094  1.00 20.00     0.136 A 
HETATM    3  C3  UNL     1     -33.485  17.372  -1.665  1.00 20.00     0.143 A 
HETATM    4  C4  UNL     1     -33.969  17.602  -2.934  1.00 20.00     0.056 A 
HETATM    5  N10 UNL     1     -33.971  18.020  -0.588  1.00 20.00    -0.270 NA
HETATM    6  N11 UNL     1     -34.955  18.488  -3.171  1.00 20.00    -0.262 NA
ENDROOT
BRANCH   4   7
HETATM    7  C8  UNL     1     -33.397  16.851  -4.125  1.00 20.00     0.041 C 
HETATM    8  C5  UNL     1     -32.939  15.405  -3.867  1.00 20.00     0.012 C 
HETATM    9  C6  UNL     1     -34.072  14.488  -4.344  1.00 20.00     0.021 C 
HETATM   10  C9  UNL     1     -35.160  15.411  -4.886  1.00 20.00     0.083 C 
HETATM   11  C7  UNL     1     -34.426  16.695  -5.252  1.00 20.00     0.031 C 
HETATM   12 CL12 UNL     1     -36.014  14.710  -6.272  1.00 20.00    -0.125 Cl
ENDBRANCH   4   7
TORSDOF 1
ENDMDL
MODEL 5
REMARK VINA RESULT:      -3.6     12.120     13.515
REMARK  1 active torsions:
REMARK  status: ('A' for Active; 'I' for Inactive)
REMARK    1  A    between atoms: C4_4  and  C8_8 
ROOT
HETATM    1  C1  UNL     1     -40.419  15.859   9.650  1.00 20.00     0.135 A 
HETATM    2  C2  UNL     1     -40.513  14.507   9.897  1.00 20.00     0.136 A 
HETATM    3  C3  UNL     1     -41.318  15.544   7.572  1.00 20.00     0.143 A 
HETATM    4  C4  UNL     1     -41.412  14.191   7.818  1.00 20.00     0.056 A 
HETATM    5  N10 UNL     1     -40.820  16.402   8.484  1.00 20.00    -0.270 NA
HETATM    6  N11 UNL     1     -41.013  13.649   8.984  1.00 20.00    -0.262 NA
ENDROOT
BRANCH   4   7
HETATM    7  C8  UNL     1     -41.980  13.254   6.765  1.00 20.00     0.041 C 
HETATM    8  C5  UNL     1     -42.397  13.896   5.430  1.00 20.00     0.012 C 
HETATM    9  C6  UNL     1     -41.247  13.659   4.444  1.00 20.00     0.021 C 
HETATM   10  C9  UNL     1     -40.190  12.870   5.213  1.00 20.00     0.083 C 
HETATM   11  C7  UNL     1     -40.961  12.189   6.336  1.00 20.00     0.031 C 
HETATM   12 CL12 UNL     1     -39.336  11.704   4.186  1.00 20.00    -0.125 Cl
ENDBRANCH   4   7
TORSDOF 1
ENDMDL
MODEL 6
REMARK VINA RESULT:      -3.5      2.919      4.683
REMARK  1 active torsions:
REMARK  status: ('A' for Active; 'I' for Inactive)
REMARK    1  A    between atoms: C4_4  and  C8_8 
ROOT
HETATM    1  C1  UNL     1     -33.761  18.811  -1.750  1.00 20.00     0.135 A 
HETATM    2  C2  UNL     1     -33.756  19.049  -3.107  1.00 20.00     0.136 A 
HETATM    3  C3  UNL     1     -33.553  16.568  -2.143  1.00 20.00     0.143 A 
HETATM    4  C4  UNL     1     -33.550  16.806  -3.500  1.00 20.00     0.056 A 
HETATM    5  N10 UNL     1     -33.659  17.567  -1.244  1.00 20.00    -0.270 NA
HETATM    6  N11 UNL     1     -33.650  18.050  -4.006  1.00 20.00    -0.262 NA
ENDROOT
BRANCH   4   7
HETATM    7  C8  UNL     1     -33.429  15.654  -4.484  1.00 20.00     0.041 C 
HETATM    8  C5  UNL     1     -34.163  14.355  -4.110  1.00 20.00     0.012 C 
HETATM    9  C6  UNL     1     -35.486  14.351  -4.887  1.00 20.00     0.021 C 
HETATM   10  C9  UNL     1     -35.493  15.636  -5.710  1.00 20.00     0.083 C 
HETATM   11  C7  UNL     1     -34.022  16.008  -5.855  1.00 20.00     0.031 C 
HETATM   12 CL12 UNL     1     -36.288  15.429  -7.281  1.00 20.00    -0.125 Cl
ENDBRANCH   4   7
TORSDOF 1
ENDMDL
MODEL 7
REMARK VINA RESULT:      -3.4      1.717      2.619
REMARK  1 active torsions:
REMARK  status: ('A' for Active; 'I' for Inactive)
REMARK    1  A    between atoms: C4_4  and  C8_8 
ROOT
HETATM    1  C1  UNL     1     -34.028  15.875  -4.688  1.00 20.00     0.135 A 
HETATM    2  C2  UNL     1     -33.550  15.626  -3.420  1.00 20.00     0.136 A 
HETATM    3  C3  UNL     1     -34.377  18.064  -4.126  1.00 20.00     0.143 A 
HETATM    4  C4  UNL     1     -33.901  17.815  -2.858  1.00 20.00     0.056 A 
HETATM    5  N10 UNL     1     -34.450  17.099  -5.064  1.00 20.00    -0.270 NA
HETATM    6  N11 UNL     1     -33.478  16.592  -2.483  1.00 20.00    -0.262 NA
ENDROOT
BRANCH   4   7
HETATM    7  C8  UNL     1     -33.834  18.929  -1.827  1.00 20.00     0.041 C 
HETATM    8  C5  UNL     1     -34.525  18.657  -0.480  1.00 20.00     0.012 C 
HETATM    9  C6  UNL     1     -33.429  18.226   0.504  1.00 20.00     0.021 C 
HETATM   10  C9  UNL     1     -32.121  18.271  -0.280  1.00 20.00     0.083 C 
HETATM   11  C7  UNL     1     -32.389  19.246  -1.419  1.00 20.00     0.031 C 
HETATM   12 CL12 UNL     1     -30.749  18.776   0.723  1.00 20.00    -0.125 Cl
ENDBRANCH   4   7
TORSDOF 1
ENDMDL
MODEL 8
REMARK VINA RESULT:      -3.3      2.953      4.628
REMARK  1 active torsions:
REMARK  status: ('A' for Active; 'I' for Inactive)
REMARK    1  A    between atoms: C4_4  and  C8_8 
ROOT
HETATM    1  C1  UNL     1     -33.886  17.767  -1.490  1.00 20.00     0.135 A 
HETATM    2  C2  UNL     1     -34.637  18.621  -2.268  1.00 20.00     0.136 A 
HETATM    3  C3  UNL     1     -33.519  16.433  -3.311  1.00 20.00     0.143 A 
HETATM    4  C4  UNL     1     -34.271  17.286  -4.088  1.00 20.00     0.056 A 
HETATM    5  N10 UNL     1     -33.314  16.657  -1.998  1.00 20.00    -0.270 NA
HETATM    6  N11 UNL     1     -34.842  18.395  -3.581  1.00 20.00    -0.262 NA
ENDROOT
BRANCH   4   7
HETATM    7  C8  UNL     1     -34.481  17.000  -5.566  1.00 20.00     0.041 C 
HETATM    8  C5  UNL     1     -34.611  15.519  -5.964  1.00 20.00     0.012 C 
HETATM    9  C6  UNL     1     -36.110  15.227  -6.105  1.00 20.00     0.021 C 
HETATM   10  C9  UNL     1     -36.825  16.541  -5.805  1.00 20.00     0.083 C 
HETATM   11  C7  UNL     1     -35.785  17.617  -6.089  1.00 20.00     0.031 C 
HETATM   12 CL12 UNL     1     -38.290  16.754  -6.781  1.00 20.00    -0.125 Cl
ENDBRANCH   4   7
TORSDOF 1
ENDMDL
MODEL 9
REMARK VINA RESULT:      -3.2     11.109     12.179
REMARK  1 active torsions:
REMARK  status: ('A' for Active; 'I' for Inactive)
REMARK    1  A    between atoms: C4_4  and  C8_8 
ROOT
HETATM    1  C1  UNL     1     -42.760  16.600   2.939  1.00 20.00     0.135 A 
HETATM    2  C2  UNL     1     -42.292  15.340   2.637  1.00 20.00     0.136 A 
HETATM    3  C3  UNL     1     -42.956  16.000   5.137  1.00 20.00     0.143 A 
HETATM    4  C4  UNL     1     -42.489  14.740   4.835  1.00 20.00     0.056 A 
HETATM    5  N10 UNL     1     -43.100  16.953   4.195  1.00 20.00    -0.270 NA
HETATM    6  N11 UNL     1     -42.148  14.388   3.581  1.00 20.00    -0.262 NA
ENDROOT
BRANCH   4   7
HETATM    7  C8  UNL     1     -42.341  13.691   5.925  1.00 20.00     0.041 C 
HETATM    8  C5  UNL     1     -41.145  12.732   5.793  1.00 20.00     0.012 C 
HETATM    9  C6  UNL     1     -40.041  13.267   6.715  1.00 20.00     0.021 C 
HETATM   10  C9  UNL     1     -40.618  14.514   7.379  1.00 20.00     0.083 C 
HETATM   11  C7  UNL     1     -42.128  14.326   7.306  1.00 20.00     0.031 C 
HETATM   12 CL12 UNL     1     -40.049  14.717   9.046  1.00 20.00    -0.125 Cl
ENDBRANCH   4   7
TORSDOF 1
ENDMDL
