MODEL 1
REMARK VINA RESULT:      -4.0      0.000      0.000
REMARK  4 active torsions:
REMARK  status: ('A' for Active; 'I' for Inactive)
REMARK    1  A    between atoms: C5_5  and  C8_8 
REMARK    2  A    between atoms: C6_6  and  C7_7 
REMARK    3  A    between atoms: C6_6  and  C8_8 
REMARK    4  A    between atoms: C7_7  and  C9_9 
ROOT
HETATM    1  C6  UNL     1     -33.581   8.129   4.397  1.00 20.00     0.021 C 
ENDROOT
BRANCH   1   2
HETATM    2  C7  UNL     1     -33.341   6.876   5.255  1.00 20.00     0.010 C 
BRANCH   2   3
HETATM    3  C9  UNL     1     -34.421   5.764   5.141  1.00 20.00    -0.051 C 
HETATM    4  C2  UNL     1     -34.875   5.391   6.565  1.00 20.00     0.014 C 
HETATM    5  C3  UNL     1     -33.853   4.506   4.463  1.00 20.00     0.014 C 
HETATM    6  C4  UNL     1     -35.647   6.254   4.353  1.00 20.00     0.014 C 
ENDBRANCH   2   3
ENDBRANCH   1   2
BRANCH   1   7
HETATM    7  C8  UNL     1     -32.502   8.343   3.320  1.00 20.00     0.082 C 
HETATM    8 CL10 UNL     1     -32.195   6.818   2.429  1.00 20.00    -0.125 Cl
BRANCH   7   9
HETATM    9  C5  UNL     1     -32.922   9.453   2.345  1.00 20.00     0.016 C 
HETATM   10  C1  UNL     1     -32.621   9.131   0.887  1.00 20.00     0.006 C 
ENDBRANCH   7   9
ENDBRANCH   1   7
TORSDOF 4
ENDMDL
MODEL 2
REMARK VINA RESULT:      -3.9      0.041      1.362
REMARK  4 active torsions:
REMARK  status: ('A' for Active; 'I' for Inactive)
REMARK    1  A    between atoms: C5_5  and  C8_8 
REMARK    2  A    between atoms: C6_6  and  C7_7 
REMARK    3  A    between atoms: C6_6  and  C8_8 
REMARK    4  A    between atoms: C7_7  and  C9_9 
ROOT
HETATM    1  C6  UNL     1     -33.615   8.115   4.342  1.00 20.00     0.021 C 
ENDROOT
BRANCH   1   2
HETATM    2  C7  UNL     1     -33.345   6.895   5.238  1.00 20.00     0.010 C 
BRANCH   2   3
HETATM    3  C9  UNL     1     -34.404   5.759   5.167  1.00 20.00    -0.051 C 
HETATM    4  C2  UNL     1     -35.619   6.287   4.380  1.00 20.00     0.014 C 
HETATM    5  C3  UNL     1     -34.873   5.348   6.572  1.00 20.00     0.014 C 
HETATM    6  C4  UNL     1     -33.851   4.525   4.435  1.00 20.00     0.014 C 
ENDBRANCH   2   3
ENDBRANCH   1   2
BRANCH   1   7
HETATM    7  C8  UNL     1     -32.512   8.354   3.295  1.00 20.00     0.082 C 
HETATM    8 CL10 UNL     1     -32.163   6.842   2.397  1.00 20.00    -0.125 Cl
BRANCH   7   9
HETATM    9  C5  UNL     1     -32.922   9.468   2.321  1.00 20.00     0.016 C 
HETATM   10  C1  UNL     1     -32.631   9.140   0.862  1.00 20.00     0.006 C 
ENDBRANCH   7   9
ENDBRANCH   1   7
TORSDOF 4
ENDMDL
MODEL 3
REMARK VINA RESULT:      -3.7      1.668      4.400
REMARK  4 active torsions:
REMARK  status: ('A' for Active; 'I' for Inactive)
REMARK    1  A    between atoms: C5_5  and  C8_8 
REMARK    2  A    between atoms: C6_6  and  C7_7 
REMARK    3  A    between atoms: C6_6  and  C8_8 
REMARK    4  A    between atoms: C7_7  and  C9_9 
ROOT
HETATM    1  C6  UNL     1     -33.990   7.257   5.856  1.00 20.00     0.021 C 
ENDROOT
BRANCH   1   2
HETATM    2  C7  UNL     1     -34.080   8.152   4.608  1.00 20.00     0.010 C 
BRANCH   2   3
HETATM    3  C9  UNL     1     -32.744   8.391   3.852  1.00 20.00    -0.051 C 
HETATM    4  C2  UNL     1     -31.695   8.869   4.875  1.00 20.00     0.014 C 
HETATM    5  C3  UNL     1     -32.902   9.474   2.773  1.00 20.00     0.014 C 
HETATM    6  C4  UNL     1     -32.231   7.096   3.201  1.00 20.00     0.014 C 
ENDBRANCH   2   3
ENDBRANCH   1   2
BRANCH   1   7
HETATM    7  C8  UNL     1     -34.890   6.012   5.776  1.00 20.00     0.082 C 
HETATM    8 CL10 UNL     1     -35.904   6.066   4.298  1.00 20.00    -0.125 Cl
BRANCH   7   9
HETATM    9  C5  UNL     1     -34.045   4.730   5.793  1.00 20.00     0.016 C 
HETATM   10  C1  UNL     1     -33.823   4.126   4.412  1.00 20.00     0.006 C 
ENDBRANCH   7   9
ENDBRANCH   1   7
TORSDOF 4
ENDMDL
MODEL 4
REMARK VINA RESULT:      -3.5      1.205      2.155
REMARK  4 active torsions:
REMARK  status: ('A' for Active; 'I' for Inactive)
REMARK    1  A    between atoms: C5_5  and  C8_8 
REMARK    2  A    between atoms: C6_6  and  C7_7 
REMARK    3  A    between atoms: C6_6  and  C8_8 
REMARK    4  A    between atoms: C7_7  and  C9_9 
ROOT
HETATM    1  C6  UNL     1     -32.768   6.600   3.217  1.00 20.00     0.021 C 
ENDROOT
BRANCH   1   2
HETATM    2  C7  UNL     1     -33.584   6.771   4.509  1.00 20.00     0.010 C 
BRANCH   2   3
HETATM    3  C9  UNL     1     -34.504   5.577   4.889  1.00 20.00    -0.051 C 
HETATM    4  C2  UNL     1     -35.901   5.842   4.296  1.00 20.00     0.014 C 
HETATM    5  C3  UNL     1     -34.638   5.443   6.415  1.00 20.00     0.014 C 
HETATM    6  C4  UNL     1     -33.973   4.256   4.308  1.00 20.00     0.014 C 
ENDBRANCH   2   3
ENDBRANCH   1   2
BRANCH   1   7
HETATM    7  C8  UNL     1     -32.019   7.878   2.799  1.00 20.00     0.082 C 
HETATM    8 CL10 UNL     1     -32.124   8.111   1.024  1.00 20.00    -0.125 Cl
BRANCH   7   9
HETATM    9  C5  UNL     1     -32.587   9.103   3.531  1.00 20.00     0.016 C 
HETATM   10  C1  UNL     1     -32.035   9.282   4.939  1.00 20.00     0.006 C 
ENDBRANCH   7   9
ENDBRANCH   1   7
TORSDOF 4
ENDMDL
MODEL 5
REMARK VINA RESULT:      -3.5     11.936     12.812
REMARK  4 active torsions:
REMARK  status: ('A' for Active; 'I' for Inactive)
REMARK    1  A    between atoms: C5_5  and  C8_8 
REMARK    2  A    between atoms: C6_6  and  C7_7 
REMARK    3  A    between atoms: C6_6  and  C8_8 
REMARK    4  A    between atoms: C7_7  and  C9_9 
ROOT
HETATM    1  C6  UNL     1     -31.642  18.478  -0.497  1.00 20.00     0.021 C 
ENDROOT
BRANCH   1   2
HETATM    2  C7  UNL     1     -33.040  17.893  -0.758  1.00 20.00     0.010 C 
BRANCH   2   3
HETATM    3  C9  UNL     1     -33.554  18.004  -2.220  1.00 20.00    -0.051 C 
HETATM    4  C2  UNL     1     -33.409  16.621  -2.885  1.00 20.00     0.014 C 
HETATM    5  C3  UNL     1     -32.728  19.021  -3.024  1.00 20.00     0.014 C 
HETATM    6  C4  UNL     1     -35.037  18.409  -2.262  1.00 20.00     0.014 C 
ENDBRANCH   2   3
ENDBRANCH   1   2
BRANCH   1   7
HETATM    7  C8  UNL     1     -31.486  19.070   0.915  1.00 20.00     0.082 C 
HETATM    8 CL10 UNL     1     -33.089  19.261   1.694  1.00 20.00    -0.125 Cl
BRANCH   7   9
HETATM    9  C5  UNL     1     -30.577  18.183   1.778  1.00 20.00     0.016 C 
HETATM   10  C1  UNL     1     -29.983  18.904   2.981  1.00 20.00     0.006 C 
ENDBRANCH   7   9
ENDBRANCH   1   7
TORSDOF 4
ENDMDL
MODEL 6
REMARK VINA RESULT:      -3.4     11.465     12.590
REMARK  4 active torsions:
REMARK  status: ('A' for Active; 'I' for Inactive)
REMARK    1  A    between atoms: C5_5  and  C8_8 
REMARK    2  A    between atoms: C6_6  and  C7_7 
REMARK    3  A    between atoms: C6_6  and  C8_8 
REMARK    4  A    between atoms: C7_7  and  C9_9 
ROOT
HETATM    1  C6  UNL     1     -32.951  16.592  -3.405  1.00 20.00     0.021 C 
ENDROOT
BRANCH   1   2
HETATM    2  C7  UNL     1     -33.676  16.654  -2.051  1.00 20.00     0.010 C 
BRANCH   2   3
HETATM    3  C9  UNL     1     -33.724  18.052  -1.375  1.00 20.00    -0.051 C 
HETATM    4  C2  UNL     1     -32.467  18.834  -1.804  1.00 20.00     0.014 C 
HETATM    5  C3  UNL     1     -33.722  17.929   0.158  1.00 20.00     0.014 C 
HETATM    6  C4  UNL     1     -34.963  18.846  -1.818  1.00 20.00     0.014 C 
ENDBRANCH   2   3
ENDBRANCH   1   2
BRANCH   1   7
HETATM    7  C8  UNL     1     -33.782  15.910  -4.507  1.00 20.00     0.082 C 
HETATM    8 CL10 UNL     1     -34.311  14.282  -3.976  1.00 20.00    -0.125 Cl
BRANCH   7   9
HETATM    9  C5  UNL     1     -34.999  16.770  -4.878  1.00 20.00     0.016 C 
HETATM   10  C1  UNL     1     -34.632  18.116  -5.491  1.00 20.00     0.006 C 
ENDBRANCH   7   9
ENDBRANCH   1   7
TORSDOF 4
ENDMDL
MODEL 7
REMARK VINA RESULT:      -3.4     11.768     12.776
REMARK  4 active torsions:
REMARK  status: ('A' for Active; 'I' for Inactive)
REMARK    1  A    between atoms: C5_5  and  C8_8 
REMARK    2  A    between atoms: C6_6  and  C7_7 
REMARK    3  A    between atoms: C6_6  and  C8_8 
REMARK    4  A    between atoms: C7_7  and  C9_9 
ROOT
HETATM    1  C6  UNL     1     -33.168  16.813  -2.981  1.00 20.00     0.021 C 
ENDROOT
BRANCH   1   2
HETATM    2  C7  UNL     1     -33.690  17.016  -1.549  1.00 20.00     0.010 C 
BRANCH   2   3
HETATM    3  C9  UNL     1     -33.564  18.459  -0.985  1.00 20.00    -0.051 C 
HETATM    4  C2  UNL     1     -33.279  18.359   0.526  1.00 20.00     0.014 C 
HETATM    5  C3  UNL     1     -34.868  19.249  -1.184  1.00 20.00     0.014 C 
HETATM    6  C4  UNL     1     -32.404  19.220  -1.648  1.00 20.00     0.014 C 
ENDBRANCH   2   3
ENDBRANCH   1   2
BRANCH   1   7
HETATM    7  C8  UNL     1     -34.252  17.008  -4.055  1.00 20.00     0.082 C 
HETATM    8 CL10 UNL     1     -33.950  18.511  -4.984  1.00 20.00    -0.125 Cl
BRANCH   7   9
HETATM    9  C5  UNL     1     -34.301  15.799  -5.001  1.00 20.00     0.016 C 
HETATM   10  C1  UNL     1     -33.737  14.522  -4.390  1.00 20.00     0.006 C 
ENDBRANCH   7   9
ENDBRANCH   1   7
TORSDOF 4
ENDMDL
MODEL 8
REMARK VINA RESULT:      -3.4     11.687     12.559
REMARK  4 active torsions:
REMARK  status: ('A' for Active; 'I' for Inactive)
REMARK    1  A    between atoms: C5_5  and  C8_8 
REMARK    2  A    between atoms: C6_6  and  C7_7 
REMARK    3  A    between atoms: C6_6  and  C8_8 
REMARK    4  A    between atoms: C7_7  and  C9_9 
ROOT
HETATM    1  C6  UNL     1     -33.629  16.397  -2.686  1.00 20.00     0.021 C 
ENDROOT
BRANCH   1   2
HETATM    2  C7  UNL     1     -33.245  15.577  -3.929  1.00 20.00     0.010 C 
BRANCH   2   3
HETATM    3  C9  UNL     1     -34.394  15.310  -4.941  1.00 20.00    -0.051 C 
HETATM    4  C2  UNL     1     -35.325  16.538  -4.943  1.00 20.00     0.014 C 
HETATM    5  C3  UNL     1     -35.215  14.075  -4.536  1.00 20.00     0.014 C 
HETATM    6  C4  UNL     1     -33.850  15.112  -6.365  1.00 20.00     0.014 C 
ENDBRANCH   2   3
ENDBRANCH   1   2
BRANCH   1   7
HETATM    7  C8  UNL     1     -32.691  17.591  -2.433  1.00 20.00     0.082 C 
HETATM    8 CL10 UNL     1     -33.089  18.944  -3.540  1.00 20.00    -0.125 Cl
BRANCH   7   9
HETATM    9  C5  UNL     1     -32.786  18.054  -0.972  1.00 20.00     0.016 C 
HETATM   10  C1  UNL     1     -31.455  18.512  -0.390  1.00 20.00     0.006 C 
ENDBRANCH   7   9
ENDBRANCH   1   7
TORSDOF 4
ENDMDL
MODEL 9
REMARK VINA RESULT:      -3.4     11.667     12.759
REMARK  4 active torsions:
REMARK  status: ('A' for Active; 'I' for Inactive)
REMARK    1  A    between atoms: C5_5  and  C8_8 
REMARK    2  A    between atoms: C6_6  and  C7_7 
REMARK    3  A    between atoms: C6_6  and  C8_8 
REMARK    4  A    between atoms: C7_7  and  C9_9 
ROOT
HETATM    1  C6  UNL     1     -33.625  17.355  -4.114  1.00 20.00     0.021 C 
ENDROOT
BRANCH   1   2
HETATM    2  C7  UNL     1     -34.848  16.716  -4.793  1.00 20.00     0.010 C 
BRANCH   2   3
HETATM    3  C9  UNL     1     -34.657  15.256  -5.289  1.00 20.00    -0.051 C 
HETATM    4  C2  UNL     1     -33.738  14.528  -4.289  1.00 20.00     0.014 C 
HETATM    5  C3  UNL     1     -33.993  15.223  -6.675  1.00 20.00     0.014 C 
HETATM    6  C4  UNL     1     -35.998  14.506  -5.351  1.00 20.00     0.014 C 
ENDBRANCH   2   3
ENDBRANCH   1   2
BRANCH   1   7
HETATM    7  C8  UNL     1     -33.971  18.082  -2.802  1.00 20.00     0.082 C 
HETATM    8 CL10 UNL     1     -35.702  18.548  -2.781  1.00 20.00    -0.125 Cl
BRANCH   7   9
HETATM    9  C5  UNL     1     -33.644  17.197  -1.590  1.00 20.00     0.016 C 
HETATM   10  C1  UNL     1     -33.723  17.933  -0.258  1.00 20.00     0.006 C 
ENDBRANCH   7   9
ENDBRANCH   1   7
TORSDOF 4
ENDMDL
