MODEL 1
REMARK VINA RESULT:      -4.6      0.000      0.000
REMARK  7 active torsions:
REMARK  status: ('A' for Active; 'I' for Inactive)
REMARK    1  A    between atoms: C4_4  and  C8_8 
REMARK    2  A    between atoms: C5_5  and  C6_6 
REMARK    3  A    between atoms: C5_5  and  C7_7 
REMARK    4  A    between atoms: C6_6  and  C9_9 
REMARK    5  A    between atoms: C7_7  and  C10_10 
REMARK    6  A    between atoms: C8_8  and  C11_11 
REMARK    7  A    between atoms: C9_9  and  C11_11 
ROOT
HETATM    1  C6  UNL     1     -32.527   8.759   4.766  1.00 20.00     0.001 C 
ENDROOT
BRANCH   1   2
HETATM    2  C5  UNL     1     -33.901   8.245   5.209  1.00 20.00     0.000 C 
BRANCH   2   3
HETATM    3  C7  UNL     1     -33.819   7.083   6.204  1.00 20.00     0.004 C 
BRANCH   3   4
HETATM    4  C10 UNL     1     -34.776   5.924   5.868  1.00 20.00    -0.023 C 
HETATM    5  C2  UNL     1     -34.006   4.601   5.854  1.00 20.00     0.009 C 
HETATM    6  C3  UNL     1     -35.486   6.124   4.528  1.00 20.00     0.009 C 
ENDBRANCH   3   4
ENDBRANCH   2   3
ENDBRANCH   1   2
BRANCH   1   7
HETATM    7  C9  UNL     1     -31.764   7.761   3.883  1.00 20.00     0.020 C 
BRANCH   7   8
HETATM    8  C11 UNL     1     -32.528   7.365   2.609  1.00 20.00     0.082 C 
HETATM    9 CL12 UNL     1     -32.736   5.581   2.541  1.00 20.00    -0.125 Cl
BRANCH   8  10
HETATM   10  C8  UNL     1     -31.823   7.811   1.317  1.00 20.00     0.020 C 
BRANCH  10  11
HETATM   11  C4  UNL     1     -32.638   8.812   0.493  1.00 20.00    -0.003 C 
HETATM   12  C1  UNL     1     -33.064  10.006   1.333  1.00 20.00     0.005 C 
ENDBRANCH  10  11
ENDBRANCH   8  10
ENDBRANCH   7   8
ENDBRANCH   1   7
TORSDOF 7
ENDMDL
MODEL 2
REMARK VINA RESULT:      -4.0      1.692      4.525
REMARK  7 active torsions:
REMARK  status: ('A' for Active; 'I' for Inactive)
REMARK    1  A    between atoms: C4_4  and  C8_8 
REMARK    2  A    between atoms: C5_5  and  C6_6 
REMARK    3  A    between atoms: C5_5  and  C7_7 
REMARK    4  A    between atoms: C6_6  and  C9_9 
REMARK    5  A    between atoms: C7_7  and  C10_10 
REMARK    6  A    between atoms: C8_8  and  C11_11 
REMARK    7  A    between atoms: C9_9  and  C11_11 
ROOT
HETATM    1  C6  UNL     1     -33.728   8.392   4.896  1.00 20.00     0.001 C 
ENDROOT
BRANCH   1   2
HETATM    2  C5  UNL     1     -32.326   8.775   4.409  1.00 20.00     0.000 C 
BRANCH   2   3
HETATM    3  C7  UNL     1     -31.918   8.056   3.118  1.00 20.00     0.004 C 
BRANCH   3   4
HETATM    4  C10 UNL     1     -32.698   8.537   1.880  1.00 20.00    -0.023 C 
HETATM    5  C2  UNL     1     -31.951   8.134   0.607  1.00 20.00     0.009 C 
HETATM    6  C3  UNL     1     -32.929  10.049   1.888  1.00 20.00     0.009 C 
ENDBRANCH   3   4
ENDBRANCH   2   3
ENDBRANCH   1   2
BRANCH   1   7
HETATM    7  C9  UNL     1     -33.712   7.382   6.052  1.00 20.00     0.020 C 
BRANCH   7   8
HETATM    8  C11 UNL     1     -34.690   6.212   5.855  1.00 20.00     0.082 C 
HETATM    9 CL12 UNL     1     -34.123   4.771   6.768  1.00 20.00    -0.125 Cl
BRANCH   8  10
HETATM   10  C8  UNL     1     -34.859   5.806   4.381  1.00 20.00     0.020 C 
BRANCH  10  11
HETATM   11  C4  UNL     1     -33.951   4.647   3.962  1.00 20.00    -0.003 C 
HETATM   12  C1  UNL     1     -33.148   4.994   2.717  1.00 20.00     0.005 C 
ENDBRANCH  10  11
ENDBRANCH   8  10
ENDBRANCH   7   8
ENDBRANCH   1   7
TORSDOF 7
ENDMDL
MODEL 3
REMARK VINA RESULT:      -3.7      1.831      2.609
REMARK  7 active torsions:
REMARK  status: ('A' for Active; 'I' for Inactive)
REMARK    1  A    between atoms: C4_4  and  C8_8 
REMARK    2  A    between atoms: C5_5  and  C6_6 
REMARK    3  A    between atoms: C5_5  and  C7_7 
REMARK    4  A    between atoms: C6_6  and  C9_9 
REMARK    5  A    between atoms: C7_7  and  C10_10 
REMARK    6  A    between atoms: C8_8  and  C11_11 
REMARK    7  A    between atoms: C9_9  and  C11_11 
ROOT
HETATM    1  C6  UNL     1     -34.050   7.182   6.317  1.00 20.00     0.001 C 
ENDROOT
BRANCH   1   2
HETATM    2  C5  UNL     1     -34.757   5.849   6.048  1.00 20.00     0.000 C 
BRANCH   2   3
HETATM    3  C7  UNL     1     -35.059   5.615   4.564  1.00 20.00     0.004 C 
BRANCH   3   4
HETATM    4  C10 UNL     1     -34.184   4.518   3.929  1.00 20.00    -0.023 C 
HETATM    5  C2  UNL     1     -33.331   3.845   5.008  1.00 20.00     0.009 C 
HETATM    6  C3  UNL     1     -33.282   5.060   2.820  1.00 20.00     0.009 C 
ENDBRANCH   3   4
ENDBRANCH   2   3
ENDBRANCH   1   2
BRANCH   1   7
HETATM    7  C9  UNL     1     -33.873   8.038   5.055  1.00 20.00     0.020 C 
BRANCH   7   8
HETATM    8  C11 UNL     1     -32.405   8.185   4.618  1.00 20.00     0.082 C 
HETATM    9 CL12 UNL     1     -31.776   9.799   5.098  1.00 20.00    -0.125 Cl
BRANCH   8  10
HETATM   10  C8  UNL     1     -32.207   8.029   3.101  1.00 20.00     0.020 C 
BRANCH  10  11
HETATM   11  C4  UNL     1     -32.801   9.182   2.287  1.00 20.00    -0.003 C 
HETATM   12  C1  UNL     1     -32.547   8.998   0.799  1.00 20.00     0.005 C 
ENDBRANCH  10  11
ENDBRANCH   8  10
ENDBRANCH   7   8
ENDBRANCH   1   7
TORSDOF 7
ENDMDL
MODEL 4
REMARK VINA RESULT:      -3.7     11.303     12.320
REMARK  7 active torsions:
REMARK  status: ('A' for Active; 'I' for Inactive)
REMARK    1  A    between atoms: C4_4  and  C8_8 
REMARK    2  A    between atoms: C5_5  and  C6_6 
REMARK    3  A    between atoms: C5_5  and  C7_7 
REMARK    4  A    between atoms: C6_6  and  C9_9 
REMARK    5  A    between atoms: C7_7  and  C10_10 
REMARK    6  A    between atoms: C8_8  and  C11_11 
REMARK    7  A    between atoms: C9_9  and  C11_11 
ROOT
HETATM    1  C6  UNL     1     -33.624  16.622  -2.266  1.00 20.00     0.001 C 
ENDROOT
BRANCH   1   2
HETATM    2  C5  UNL     1     -33.057  16.015  -3.555  1.00 20.00     0.000 C 
BRANCH   2   3
HETATM    3  C7  UNL     1     -33.881  14.834  -4.079  1.00 20.00     0.004 C 
BRANCH   3   4
HETATM    4  C10 UNL     1     -34.834  15.216  -5.227  1.00 20.00    -0.023 C 
HETATM    5  C2  UNL     1     -35.999  14.225  -5.288  1.00 20.00     0.009 C 
HETATM    6  C3  UNL     1     -34.125  15.265  -6.581  1.00 20.00     0.009 C 
ENDBRANCH   3   4
ENDBRANCH   2   3
ENDBRANCH   1   2
BRANCH   1   7
HETATM    7  C9  UNL     1     -32.778  17.781  -1.721  1.00 20.00     0.020 C 
BRANCH   7   8
HETATM    8  C11 UNL     1     -33.246  18.285  -0.346  1.00 20.00     0.082 C 
HETATM    9 CL12 UNL     1     -34.787  19.194  -0.511  1.00 20.00    -0.125 Cl
BRANCH   8  10
HETATM   10  C8  UNL     1     -32.223  19.204   0.343  1.00 20.00     0.020 C 
BRANCH  10  11
HETATM   11  C4  UNL     1     -30.881  18.521   0.620  1.00 20.00    -0.003 C 
HETATM   12  C1  UNL     1     -30.603  18.432   2.113  1.00 20.00     0.005 C 
ENDBRANCH  10  11
ENDBRANCH   8  10
ENDBRANCH   7   8
ENDBRANCH   1   7
TORSDOF 7
ENDMDL
MODEL 5
REMARK VINA RESULT:      -3.6      1.602      2.349
REMARK  7 active torsions:
REMARK  status: ('A' for Active; 'I' for Inactive)
REMARK    1  A    between atoms: C4_4  and  C8_8 
REMARK    2  A    between atoms: C5_5  and  C6_6 
REMARK    3  A    between atoms: C5_5  and  C7_7 
REMARK    4  A    between atoms: C6_6  and  C9_9 
REMARK    5  A    between atoms: C7_7  and  C10_10 
REMARK    6  A    between atoms: C8_8  and  C11_11 
REMARK    7  A    between atoms: C9_9  and  C11_11 
ROOT
HETATM    1  C6  UNL     1     -32.751   9.023   4.906  1.00 20.00     0.001 C 
ENDROOT
BRANCH   1   2
HETATM    2  C5  UNL     1     -34.038   8.350   5.396  1.00 20.00     0.000 C 
BRANCH   2   3
HETATM    3  C7  UNL     1     -33.781   7.081   6.217  1.00 20.00     0.004 C 
BRANCH   3   4
HETATM    4  C10 UNL     1     -34.811   5.966   5.954  1.00 20.00    -0.023 C 
HETATM    5  C2  UNL     1     -34.139   4.598   6.088  1.00 20.00     0.009 C 
HETATM    6  C3  UNL     1     -35.464   6.089   4.576  1.00 20.00     0.009 C 
ENDBRANCH   3   4
ENDBRANCH   2   3
ENDBRANCH   1   2
BRANCH   1   7
HETATM    7  C9  UNL     1     -31.816   8.064   4.155  1.00 20.00     0.020 C 
BRANCH   7   8
HETATM    8  C11 UNL     1     -31.931   8.172   2.625  1.00 20.00     0.082 C 
HETATM    9 CL12 UNL     1     -32.945   9.587   2.179  1.00 20.00    -0.125 Cl
BRANCH   8  10
HETATM   10  C8  UNL     1     -32.545   6.922   1.974  1.00 20.00     0.020 C 
BRANCH  10  11
HETATM   11  C4  UNL     1     -32.579   5.706   2.904  1.00 20.00    -0.003 C 
HETATM   12  C1  UNL     1     -33.114   4.475   2.188  1.00 20.00     0.005 C 
ENDBRANCH  10  11
ENDBRANCH   8  10
ENDBRANCH   7   8
ENDBRANCH   1   7
TORSDOF 7
ENDMDL
MODEL 6
REMARK VINA RESULT:      -3.6     11.181     12.444
REMARK  7 active torsions:
REMARK  status: ('A' for Active; 'I' for Inactive)
REMARK    1  A    between atoms: C4_4  and  C8_8 
REMARK    2  A    between atoms: C5_5  and  C6_6 
REMARK    3  A    between atoms: C5_5  and  C7_7 
REMARK    4  A    between atoms: C6_6  and  C9_9 
REMARK    5  A    between atoms: C7_7  and  C10_10 
REMARK    6  A    between atoms: C8_8  and  C11_11 
REMARK    7  A    between atoms: C9_9  and  C11_11 
ROOT
HETATM    1  C6  UNL     1     -33.172  15.837  -3.780  1.00 20.00     0.001 C 
ENDROOT
BRANCH   1   2
HETATM    2  C5  UNL     1     -33.468  16.551  -2.457  1.00 20.00     0.000 C 
BRANCH   2   3
HETATM    3  C7  UNL     1     -32.964  17.998  -2.426  1.00 20.00     0.004 C 
BRANCH   3   4
HETATM    4  C10 UNL     1     -32.872  18.582  -1.003  1.00 20.00    -0.023 C 
HETATM    5  C2  UNL     1     -31.432  18.484  -0.494  1.00 20.00     0.009 C 
HETATM    6  C3  UNL     1     -33.816  17.882  -0.024  1.00 20.00     0.009 C 
ENDBRANCH   3   4
ENDBRANCH   2   3
ENDBRANCH   1   2
BRANCH   1   7
HETATM    7  C9  UNL     1     -34.153  14.696  -4.084  1.00 20.00     0.020 C 
BRANCH   7   8
HETATM    8  C11 UNL     1     -34.942  14.901  -5.388  1.00 20.00     0.082 C 
HETATM    9 CL12 UNL     1     -33.812  15.145  -6.764  1.00 20.00    -0.125 Cl
BRANCH   8  10
HETATM   10  C8  UNL     1     -35.896  16.106  -5.336  1.00 20.00     0.020 C 
BRANCH  10  11
HETATM   11  C4  UNL     1     -35.490  17.244  -6.277  1.00 20.00    -0.003 C 
HETATM   12  C1  UNL     1     -35.011  18.461  -5.501  1.00 20.00     0.005 C 
ENDBRANCH  10  11
ENDBRANCH   8  10
ENDBRANCH   7   8
ENDBRANCH   1   7
TORSDOF 7
ENDMDL
MODEL 7
REMARK VINA RESULT:      -3.6     11.288     12.413
REMARK  7 active torsions:
REMARK  status: ('A' for Active; 'I' for Inactive)
REMARK    1  A    between atoms: C4_4  and  C8_8 
REMARK    2  A    between atoms: C5_5  and  C6_6 
REMARK    3  A    between atoms: C5_5  and  C7_7 
REMARK    4  A    between atoms: C6_6  and  C9_9 
REMARK    5  A    between atoms: C7_7  and  C10_10 
REMARK    6  A    between atoms: C8_8  and  C11_11 
REMARK    7  A    between atoms: C9_9  and  C11_11 
ROOT
HETATM    1  C6  UNL     1     -33.335  16.123  -3.002  1.00 20.00     0.001 C 
ENDROOT
BRANCH   1   2
HETATM    2  C5  UNL     1     -33.493  17.585  -3.437  1.00 20.00     0.000 C 
BRANCH   2   3
HETATM    3  C7  UNL     1     -32.842  18.576  -2.467  1.00 20.00     0.004 C 
BRANCH   3   4
HETATM    4  C10 UNL     1     -32.591  17.985  -1.067  1.00 20.00    -0.023 C 
HETATM    5  C2  UNL     1     -33.806  18.239  -0.171  1.00 20.00     0.009 C 
HETATM    6  C3  UNL     1     -31.335  18.558  -0.409  1.00 20.00     0.009 C 
ENDBRANCH   3   4
ENDBRANCH   2   3
ENDBRANCH   1   2
BRANCH   1   7
HETATM    7  C9  UNL     1     -33.300  15.142  -4.183  1.00 20.00     0.020 C 
BRANCH   7   8
HETATM    8  C11 UNL     1     -34.538  15.232  -5.089  1.00 20.00     0.082 C 
HETATM    9 CL12 UNL     1     -35.654  13.865  -4.751  1.00 20.00    -0.125 Cl
BRANCH   8  10
HETATM   10  C8  UNL     1     -34.195  15.206  -6.588  1.00 20.00     0.020 C 
BRANCH  10  11
HETATM   11  C4  UNL     1     -34.465  16.535  -7.298  1.00 20.00    -0.003 C 
HETATM   12  C1  UNL     1     -35.536  17.341  -6.578  1.00 20.00     0.005 C 
ENDBRANCH  10  11
ENDBRANCH   8  10
ENDBRANCH   7   8
ENDBRANCH   1   7
TORSDOF 7
ENDMDL
MODEL 8
REMARK VINA RESULT:      -3.5     11.376     12.262
REMARK  7 active torsions:
REMARK  status: ('A' for Active; 'I' for Inactive)
REMARK    1  A    between atoms: C4_4  and  C8_8 
REMARK    2  A    between atoms: C5_5  and  C6_6 
REMARK    3  A    between atoms: C5_5  and  C7_7 
REMARK    4  A    between atoms: C6_6  and  C9_9 
REMARK    5  A    between atoms: C7_7  and  C10_10 
REMARK    6  A    between atoms: C8_8  and  C11_11 
REMARK    7  A    between atoms: C9_9  and  C11_11 
ROOT
HETATM    1  C6  UNL     1     -33.127  17.233  -1.971  1.00 20.00     0.001 C 
ENDROOT
BRANCH   1   2
HETATM    2  C5  UNL     1     -32.709  18.539  -1.286  1.00 20.00     0.000 C 
BRANCH   2   3
HETATM    3  C7  UNL     1     -31.389  18.422  -0.518  1.00 20.00     0.004 C 
BRANCH   3   4
HETATM    4  C10 UNL     1     -31.433  19.079   0.875  1.00 20.00    -0.023 C 
HETATM    5  C2  UNL     1     -30.629  18.240   1.871  1.00 20.00     0.009 C 
HETATM    6  C3  UNL     1     -32.862  19.262   1.387  1.00 20.00     0.009 C 
ENDBRANCH   3   4
ENDBRANCH   2   3
ENDBRANCH   1   2
BRANCH   1   7
HETATM    7  C9  UNL     1     -33.306  17.377  -3.489  1.00 20.00     0.020 C 
BRANCH   7   8
HETATM    8  C11 UNL     1     -34.006  16.171  -4.139  1.00 20.00     0.082 C 
HETATM    9 CL12 UNL     1     -32.865  14.788  -4.265  1.00 20.00    -0.125 Cl
BRANCH   8  10
HETATM   10  C8  UNL     1     -34.547  16.472  -5.547  1.00 20.00     0.020 C 
BRANCH  10  11
HETATM   11  C4  UNL     1     -34.486  15.269  -6.492  1.00 20.00    -0.003 C 
HETATM   12  C1  UNL     1     -33.891  15.651  -7.839  1.00 20.00     0.005 C 
ENDBRANCH  10  11
ENDBRANCH   8  10
ENDBRANCH   7   8
ENDBRANCH   1   7
TORSDOF 7
ENDMDL
MODEL 9
REMARK VINA RESULT:      -3.5      1.585      4.995
REMARK  7 active torsions:
REMARK  status: ('A' for Active; 'I' for Inactive)
REMARK    1  A    between atoms: C4_4  and  C8_8 
REMARK    2  A    between atoms: C5_5  and  C6_6 
REMARK    3  A    between atoms: C5_5  and  C7_7 
REMARK    4  A    between atoms: C6_6  and  C9_9 
REMARK    5  A    between atoms: C7_7  and  C10_10 
REMARK    6  A    between atoms: C8_8  and  C11_11 
REMARK    7  A    between atoms: C9_9  and  C11_11 
ROOT
HETATM    1  C6  UNL     1     -33.454   5.341   2.803  1.00 20.00     0.001 C 
ENDROOT
BRANCH   1   2
HETATM    2  C5  UNL     1     -32.426   6.466   2.966  1.00 20.00     0.000 C 
BRANCH   2   3
HETATM    3  C7  UNL     1     -32.153   7.227   1.664  1.00 20.00     0.004 C 
BRANCH   3   4
HETATM    4  C10 UNL     1     -32.165   8.757   1.837  1.00 20.00    -0.023 C 
HETATM    5  C2  UNL     1     -32.838   9.124   3.161  1.00 20.00     0.009 C 
HETATM    6  C3  UNL     1     -32.871   9.469   0.682  1.00 20.00     0.009 C 
ENDBRANCH   3   4
ENDBRANCH   2   3
ENDBRANCH   1   2
BRANCH   1   7
HETATM    7  C9  UNL     1     -33.560   4.436   4.039  1.00 20.00     0.020 C 
BRANCH   7   8
HETATM    8  C11 UNL     1     -34.750   4.783   4.950  1.00 20.00     0.082 C 
HETATM    9 CL12 UNL     1     -35.749   6.074   4.197  1.00 20.00    -0.125 Cl
BRANCH   8  10
HETATM   10  C8  UNL     1     -34.323   5.265   6.346  1.00 20.00     0.020 C 
BRANCH  10  11
HETATM   11  C4  UNL     1     -34.512   6.770   6.554  1.00 20.00    -0.003 C 
HETATM   12  C1  UNL     1     -33.233   7.537   6.251  1.00 20.00     0.005 C 
ENDBRANCH  10  11
ENDBRANCH   8  10
ENDBRANCH   7   8
ENDBRANCH   1   7
TORSDOF 7
ENDMDL
