MODEL 1
REMARK VINA RESULT:      -4.7      0.000      0.000
REMARK  3 active torsions:
REMARK  status: ('A' for Active; 'I' for Inactive)
REMARK    1  A    between atoms: C4_4  and  C7_7 
REMARK    2  A    between atoms: C7_7  and  C9_9 
REMARK    3  A    between atoms: C8_8  and  C9_9 
ROOT
HETATM    1  C1  UNL     1     -33.632   6.463   6.524  1.00 20.00     0.006 C 
HETATM    2  C2  UNL     1     -34.782   5.454   6.505  1.00 20.00     0.020 C 
HETATM    3  C3  UNL     1     -34.773   6.489   4.366  1.00 20.00     0.024 C 
HETATM    4  C4  UNL     1     -33.556   7.056   5.107  1.00 20.00    -0.013 C 
HETATM    5  C5  UNL     1     -35.029   5.144   5.034  1.00 20.00     0.082 C 
HETATM    6 CL10 UNL     1     -33.884   3.906   4.445  1.00 20.00    -0.125 Cl
ENDROOT
BRANCH   4   7
HETATM    7  C7  UNL     1     -33.521   8.576   5.099  1.00 20.00     0.005 C 
BRANCH   7   8
HETATM    8  C9  UNL     1     -32.425   9.105   4.174  1.00 20.00     0.000 C 
BRANCH   8   9
HETATM    9  C8  UNL     1     -31.759   7.970   3.396  1.00 20.00    -0.005 C 
HETATM   10  C6  UNL     1     -32.202   7.957   1.942  1.00 20.00     0.005 C 
ENDBRANCH   8   9
ENDBRANCH   7   8
ENDBRANCH   4   7
TORSDOF 3
ENDMDL
MODEL 2
REMARK VINA RESULT:      -4.3      1.434      1.990
REMARK  3 active torsions:
REMARK  status: ('A' for Active; 'I' for Inactive)
REMARK    1  A    between atoms: C4_4  and  C7_7 
REMARK    2  A    between atoms: C7_7  and  C9_9 
REMARK    3  A    between atoms: C8_8  and  C9_9 
ROOT
HETATM    1  C1  UNL     1     -32.948   7.908   5.218  1.00 20.00     0.006 C 
HETATM    2  C2  UNL     1     -34.306   7.632   5.867  1.00 20.00     0.020 C 
HETATM    3  C3  UNL     1     -34.159   6.179   3.992  1.00 20.00     0.024 C 
HETATM    4  C4  UNL     1     -32.805   6.895   4.071  1.00 20.00    -0.013 C 
HETATM    5  C5  UNL     1     -34.696   6.229   5.417  1.00 20.00     0.082 C 
HETATM    6 CL10 UNL     1     -33.914   4.994   6.443  1.00 20.00    -0.125 Cl
ENDROOT
BRANCH   4   7
HETATM    7  C7  UNL     1     -32.405   7.540   2.753  1.00 20.00     0.005 C 
BRANCH   7   8
HETATM    8  C9  UNL     1     -32.590   9.056   2.794  1.00 20.00     0.000 C 
BRANCH   8   9
HETATM    9  C8  UNL     1     -32.936   9.611   1.412  1.00 20.00    -0.005 C 
HETATM   10  C6  UNL     1     -32.425   8.705   0.303  1.00 20.00     0.005 C 
ENDBRANCH   8   9
ENDBRANCH   7   8
ENDBRANCH   4   7
TORSDOF 3
ENDMDL
MODEL 3
REMARK VINA RESULT:      -4.0     12.316     13.108
REMARK  3 active torsions:
REMARK  status: ('A' for Active; 'I' for Inactive)
REMARK    1  A    between atoms: C4_4  and  C7_7 
REMARK    2  A    between atoms: C7_7  and  C9_9 
REMARK    3  A    between atoms: C8_8  and  C9_9 
ROOT
HETATM    1  C1  UNL     1     -33.274  15.464  -3.745  1.00 20.00     0.006 C 
HETATM    2  C2  UNL     1     -34.208  14.451  -4.409  1.00 20.00     0.020 C 
HETATM    3  C3  UNL     1     -35.105  16.597  -4.894  1.00 20.00     0.024 C 
HETATM    4  C4  UNL     1     -33.791  16.855  -4.147  1.00 20.00    -0.013 C 
HETATM    5  C5  UNL     1     -34.923  15.218  -5.515  1.00 20.00     0.082 C 
HETATM    6 CL10 UNL     1     -33.910  15.303  -6.984  1.00 20.00    -0.125 Cl
ENDROOT
BRANCH   4   7
HETATM    7  C7  UNL     1     -33.964  17.791  -2.962  1.00 20.00     0.005 C 
BRANCH   7   8
HETATM    8  C9  UNL     1     -33.590  17.106  -1.648  1.00 20.00     0.000 C 
BRANCH   8   9
HETATM    9  C8  UNL     1     -33.162  18.126  -0.592  1.00 20.00    -0.005 C 
HETATM   10  C6  UNL     1     -31.687  18.471  -0.715  1.00 20.00     0.005 C 
ENDBRANCH   8   9
ENDBRANCH   7   8
ENDBRANCH   4   7
TORSDOF 3
ENDMDL
MODEL 4
REMARK VINA RESULT:      -4.0      2.001      4.127
REMARK  3 active torsions:
REMARK  status: ('A' for Active; 'I' for Inactive)
REMARK    1  A    between atoms: C4_4  and  C7_7 
REMARK    2  A    between atoms: C7_7  and  C9_9 
REMARK    3  A    between atoms: C8_8  and  C9_9 
ROOT
HETATM    1  C1  UNL     1     -33.710   8.127   4.337  1.00 20.00     0.006 C 
HETATM    2  C2  UNL     1     -32.189   8.102   4.164  1.00 20.00     0.020 C 
HETATM    3  C3  UNL     1     -33.008   6.128   3.125  1.00 20.00     0.024 C 
HETATM    4  C4  UNL     1     -34.250   6.908   3.573  1.00 20.00    -0.013 C 
HETATM    5  C5  UNL     1     -31.929   7.193   2.969  1.00 20.00     0.082 C 
HETATM    6 CL10 UNL     1     -32.126   8.089   1.436  1.00 20.00    -0.125 Cl
ENDROOT
BRANCH   4   7
HETATM    7  C7  UNL     1     -35.206   6.063   4.400  1.00 20.00     0.005 C 
BRANCH   7   8
HETATM    8  C9  UNL     1     -34.490   4.873   5.039  1.00 20.00     0.000 C 
BRANCH   8   9
HETATM    9  C8  UNL     1     -34.191   5.133   6.516  1.00 20.00    -0.005 C 
HETATM   10  C6  UNL     1     -34.514   6.566   6.906  1.00 20.00     0.005 C 
ENDBRANCH   8   9
ENDBRANCH   7   8
ENDBRANCH   4   7
TORSDOF 3
ENDMDL
MODEL 5
REMARK VINA RESULT:      -3.9     12.344     12.874
REMARK  3 active torsions:
REMARK  status: ('A' for Active; 'I' for Inactive)
REMARK    1  A    between atoms: C4_4  and  C7_7 
REMARK    2  A    between atoms: C7_7  and  C9_9 
REMARK    3  A    between atoms: C8_8  and  C9_9 
ROOT
HETATM    1  C1  UNL     1     -34.047  18.506   0.363  1.00 20.00     0.006 C 
HETATM    2  C2  UNL     1     -34.451  18.814  -1.081  1.00 20.00     0.020 C 
HETATM    3  C3  UNL     1     -32.080  18.648  -1.076  1.00 20.00     0.024 C 
HETATM    4  C4  UNL     1     -32.525  18.292   0.348  1.00 20.00    -0.013 C 
HETATM    5  C5  UNL     1     -33.293  18.326  -1.942  1.00 20.00     0.082 C 
HETATM    6 CL10 UNL     1     -33.420  16.569  -2.241  1.00 20.00    -0.125 Cl
ENDROOT
BRANCH   4   7
HETATM    7  C7  UNL     1     -31.798  19.104   1.409  1.00 20.00     0.005 C 
BRANCH   7   8
HETATM    8  C9  UNL     1     -30.554  18.377   1.915  1.00 20.00     0.000 C 
BRANCH   8   9
HETATM    9  C8  UNL     1     -30.136  18.885   3.295  1.00 20.00    -0.005 C 
HETATM   10  C6  UNL     1     -28.662  18.627   3.561  1.00 20.00     0.005 C 
ENDBRANCH   8   9
ENDBRANCH   7   8
ENDBRANCH   4   7
TORSDOF 3
ENDMDL
MODEL 6
REMARK VINA RESULT:      -3.9     12.199     13.073
REMARK  3 active torsions:
REMARK  status: ('A' for Active; 'I' for Inactive)
REMARK    1  A    between atoms: C4_4  and  C7_7 
REMARK    2  A    between atoms: C7_7  and  C9_9 
REMARK    3  A    between atoms: C8_8  and  C9_9 
ROOT
HETATM    1  C1  UNL     1     -34.604  17.141  -4.574  1.00 20.00     0.006 C 
HETATM    2  C2  UNL     1     -34.509  16.401  -5.910  1.00 20.00     0.020 C 
HETATM    3  C3  UNL     1     -33.466  14.999  -4.299  1.00 20.00     0.024 C 
HETATM    4  C4  UNL     1     -34.027  16.190  -3.513  1.00 20.00    -0.013 C 
HETATM    5  C5  UNL     1     -34.333  14.930  -5.551  1.00 20.00     0.082 C 
HETATM    6 CL10 UNL     1     -35.910  14.170  -5.198  1.00 20.00    -0.125 Cl
ENDROOT
BRANCH   4   7
HETATM    7  C7  UNL     1     -32.983  16.851  -2.626  1.00 20.00     0.005 C 
BRANCH   7   8
HETATM    8  C9  UNL     1     -33.594  17.342  -1.315  1.00 20.00     0.000 C 
BRANCH   8   9
HETATM    9  C8  UNL     1     -32.963  18.662  -0.868  1.00 20.00    -0.005 C 
HETATM   10  C6  UNL     1     -31.504  18.479  -0.481  1.00 20.00     0.005 C 
ENDBRANCH   8   9
ENDBRANCH   7   8
ENDBRANCH   4   7
TORSDOF 3
ENDMDL
MODEL 7
REMARK VINA RESULT:      -3.9      2.015      3.974
REMARK  3 active torsions:
REMARK  status: ('A' for Active; 'I' for Inactive)
REMARK    1  A    between atoms: C4_4  and  C7_7 
REMARK    2  A    between atoms: C7_7  and  C9_9 
REMARK    3  A    between atoms: C8_8  and  C9_9 
ROOT
HETATM    1  C1  UNL     1     -32.161   8.754   4.715  1.00 20.00     0.006 C 
HETATM    2  C2  UNL     1     -31.241   7.969   3.777  1.00 20.00     0.020 C 
HETATM    3  C3  UNL     1     -33.420   7.069   3.477  1.00 20.00     0.024 C 
HETATM    4  C4  UNL     1     -33.586   8.248   4.445  1.00 20.00    -0.013 C 
HETATM    5  C5  UNL     1     -32.152   7.396   2.698  1.00 20.00     0.082 C 
HETATM    6 CL10 UNL     1     -32.473   8.610   1.428  1.00 20.00    -0.125 Cl
ENDROOT
BRANCH   4   7
HETATM    7  C7  UNL     1     -34.333   7.864   5.713  1.00 20.00     0.005 C 
BRANCH   7   8
HETATM    8  C9  UNL     1     -33.687   6.661   6.400  1.00 20.00     0.000 C 
BRANCH   8   9
HETATM    9  C8  UNL     1     -34.632   5.460   6.420  1.00 20.00    -0.005 C 
HETATM   10  C6  UNL     1     -34.600   4.703   5.102  1.00 20.00     0.005 C 
ENDBRANCH   8   9
ENDBRANCH   7   8
ENDBRANCH   4   7
TORSDOF 3
ENDMDL
MODEL 8
REMARK VINA RESULT:      -3.8      9.687     10.601
REMARK  3 active torsions:
REMARK  status: ('A' for Active; 'I' for Inactive)
REMARK    1  A    between atoms: C4_4  and  C7_7 
REMARK    2  A    between atoms: C7_7  and  C9_9 
REMARK    3  A    between atoms: C8_8  and  C9_9 
ROOT
HETATM    1  C1  UNL     1     -40.425  14.027   7.794  1.00 20.00     0.006 C 
HETATM    2  C2  UNL     1     -40.479  15.539   7.562  1.00 20.00     0.020 C 
HETATM    3  C3  UNL     1     -41.867  14.563   5.898  1.00 20.00     0.024 C 
HETATM    4  C4  UNL     1     -41.405  13.402   6.788  1.00 20.00    -0.013 C 
HETATM    5  C5  UNL     1     -41.774  15.789   6.798  1.00 20.00     0.082 C 
HETATM    6 CL10 UNL     1     -43.164  15.872   7.916  1.00 20.00    -0.125 Cl
ENDROOT
BRANCH   4   7
HETATM    7  C7  UNL     1     -40.793  12.260   5.992  1.00 20.00     0.005 C 
BRANCH   7   8
HETATM    8  C9  UNL     1     -39.361  11.970   6.440  1.00 20.00     0.000 C 
BRANCH   8   9
HETATM    9  C8  UNL     1     -38.390  12.011   5.260  1.00 20.00    -0.005 C 
HETATM   10  C6  UNL     1     -39.085  11.662   3.954  1.00 20.00     0.005 C 
ENDBRANCH   8   9
ENDBRANCH   7   8
ENDBRANCH   4   7
TORSDOF 3
ENDMDL
MODEL 9
REMARK VINA RESULT:      -3.7     15.229     16.432
REMARK  3 active torsions:
REMARK  status: ('A' for Active; 'I' for Inactive)
REMARK    1  A    between atoms: C4_4  and  C7_7 
REMARK    2  A    between atoms: C7_7  and  C9_9 
REMARK    3  A    between atoms: C8_8  and  C9_9 
ROOT
HETATM    1  C1  UNL     1     -23.978  17.033  10.450  1.00 20.00     0.006 C 
HETATM    2  C2  UNL     1     -24.879  16.762  11.657  1.00 20.00     0.020 C 
HETATM    3  C3  UNL     1     -23.720  18.781  12.134  1.00 20.00     0.024 C 
HETATM    4  C4  UNL     1     -23.308  18.392  10.708  1.00 20.00    -0.013 C 
HETATM    5  C5  UNL     1     -25.075  18.115  12.331  1.00 20.00     0.082 C 
HETATM    6 CL10 UNL     1     -26.371  19.042  11.524  1.00 20.00    -0.125 Cl
ENDROOT
BRANCH   4   7
HETATM    7  C7  UNL     1     -21.800  18.358  10.522  1.00 20.00     0.005 C 
BRANCH   7   8
HETATM    8  C9  UNL     1     -21.380  19.052   9.227  1.00 20.00     0.000 C 
BRANCH   8   9
HETATM    9  C8  UNL     1     -22.156  18.506   8.028  1.00 20.00    -0.005 C 
HETATM   10  C6  UNL     1     -21.298  17.575   7.186  1.00 20.00     0.005 C 
ENDBRANCH   8   9
ENDBRANCH   7   8
ENDBRANCH   4   7
TORSDOF 3
ENDMDL
