MODEL 1
REMARK VINA RESULT:      -4.5      0.000      0.000
REMARK  1 active torsions:
REMARK  status: ('A' for Active; 'I' for Inactive)
REMARK    1  A    between atoms: C8_8  and  C9_9 
ROOT
HETATM    1  C1  UNL     1     -33.915  18.616  -0.444  1.00 20.00     0.006 C 
HETATM    2  C2  UNL     1     -33.252  18.461   0.928  1.00 20.00     0.020 C 
HETATM    3  C5  UNL     1     -31.504  18.460  -0.696  1.00 20.00     0.025 C 
HETATM    4  C8  UNL     1     -32.776  18.855  -1.447  1.00 20.00    -0.009 C 
HETATM    5  C10 UNL     1     -31.813  18.918   0.722  1.00 20.00     0.082 C 
HETATM    6 CL12 UNL     1     -30.706  18.220   1.912  1.00 20.00    -0.125 Cl
ENDROOT
BRANCH   4   7
HETATM    7  C9  UNL     1     -32.956  18.092  -2.757  1.00 20.00    -0.006 C 
HETATM    8  C3  UNL     1     -34.039  18.739  -3.628  1.00 20.00     0.031 C 
HETATM    9  C6  UNL     1     -34.301  17.899  -4.873  1.00 20.00     0.168 C 
HETATM   10  O11 UNL     1     -34.653  16.562  -4.517  1.00 20.00    -0.391 OA
HETATM   11  C7  UNL     1     -33.609  15.902  -3.804  1.00 20.00     0.168 C 
HETATM   12  C4  UNL     1     -33.307  16.622  -2.496  1.00 20.00     0.031 C 
ENDBRANCH   4   7
TORSDOF 1
ENDMDL
MODEL 2
REMARK VINA RESULT:      -4.4      3.081      4.990
REMARK  1 active torsions:
REMARK  status: ('A' for Active; 'I' for Inactive)
REMARK    1  A    between atoms: C8_8  and  C9_9 
ROOT
HETATM    1  C1  UNL     1     -33.640  18.920  -3.143  1.00 20.00     0.006 C 
HETATM    2  C2  UNL     1     -33.436  17.812  -4.182  1.00 20.00     0.020 C 
HETATM    3  C5  UNL     1     -33.330  16.782  -2.032  1.00 20.00     0.025 C 
HETATM    4  C8  UNL     1     -33.810  18.214  -1.789  1.00 20.00    -0.009 C 
HETATM    5  C10 UNL     1     -33.800  16.524  -3.456  1.00 20.00     0.082 C 
HETATM    6 CL12 UNL     1     -33.027  15.103  -4.173  1.00 20.00    -0.125 Cl
ENDROOT
BRANCH   4   7
HETATM    7  C9  UNL     1     -33.066  18.907  -0.651  1.00 20.00    -0.006 C 
HETATM    8  C3  UNL     1     -31.613  18.427  -0.565  1.00 20.00     0.031 C 
HETATM    9  C6  UNL     1     -30.918  19.028   0.650  1.00 20.00     0.168 C 
HETATM   10  O11 UNL     1     -31.635  18.722   1.846  1.00 20.00    -0.391 OA
HETATM   11  C7  UNL     1     -32.955  19.262   1.836  1.00 20.00     0.168 C 
HETATM   12  C4  UNL     1     -33.771  18.675   0.691  1.00 20.00     0.031 C 
ENDBRANCH   4   7
TORSDOF 1
ENDMDL
MODEL 3
REMARK VINA RESULT:      -4.3      1.862      3.244
REMARK  1 active torsions:
REMARK  status: ('A' for Active; 'I' for Inactive)
REMARK    1  A    between atoms: C8_8  and  C9_9 
ROOT
HETATM    1  C1  UNL     1     -33.185  18.481  -3.808  1.00 20.00     0.006 C 
HETATM    2  C2  UNL     1     -32.917  19.118  -2.442  1.00 20.00     0.020 C 
HETATM    3  C5  UNL     1     -33.484  16.834  -2.048  1.00 20.00     0.025 C 
HETATM    4  C8  UNL     1     -33.310  16.970  -3.561  1.00 20.00    -0.009 C 
HETATM    5  C10 UNL     1     -32.592  17.948  -1.522  1.00 20.00     0.082 C 
HETATM    6 CL12 UNL     1     -32.908  18.318   0.179  1.00 20.00    -0.125 Cl
ENDROOT
BRANCH   4   7
HETATM    7  C9  UNL     1     -34.443  16.321  -4.353  1.00 20.00    -0.006 C 
HETATM    8  C3  UNL     1     -34.326  14.793  -4.334  1.00 20.00     0.031 C 
HETATM    9  C6  UNL     1     -35.384  14.161  -5.229  1.00 20.00     0.168 C 
HETATM   10  O11 UNL     1     -35.291  14.671  -6.560  1.00 20.00    -0.391 OA
HETATM   11  C7  UNL     1     -35.514  16.079  -6.615  1.00 20.00     0.168 C 
HETATM   12  C4  UNL     1     -34.463  16.824  -5.801  1.00 20.00     0.031 C 
ENDBRANCH   4   7
TORSDOF 1
ENDMDL
MODEL 4
REMARK VINA RESULT:      -4.2      1.997      3.108
REMARK  1 active torsions:
REMARK  status: ('A' for Active; 'I' for Inactive)
REMARK    1  A    between atoms: C8_8  and  C9_9 
ROOT
HETATM    1  C1  UNL     1     -33.259  18.358  -3.915  1.00 20.00     0.006 C 
HETATM    2  C2  UNL     1     -33.249  18.902  -2.483  1.00 20.00     0.020 C 
HETATM    3  C5  UNL     1     -33.652  16.555  -2.335  1.00 20.00     0.025 C 
HETATM    4  C8  UNL     1     -33.277  16.826  -3.793  1.00 20.00    -0.009 C 
HETATM    5  C10 UNL     1     -32.952  17.692  -1.607  1.00 20.00     0.082 C 
HETATM    6 CL12 UNL     1     -33.542  17.896   0.049  1.00 20.00    -0.125 Cl
ENDROOT
BRANCH   4   7
HETATM    7  C9  UNL     1     -34.220  16.154  -4.787  1.00 20.00    -0.006 C 
HETATM    8  C3  UNL     1     -35.505  16.970  -4.970  1.00 20.00     0.031 C 
HETATM    9  C6  UNL     1     -36.491  16.228  -5.863  1.00 20.00     0.168 C 
HETATM   10  O11 UNL     1     -36.773  14.931  -5.338  1.00 20.00    -0.391 OA
HETATM   11  C7  UNL     1     -35.607  14.112  -5.269  1.00 20.00     0.168 C 
HETATM   12  C4  UNL     1     -34.568  14.728  -4.340  1.00 20.00     0.031 C 
ENDBRANCH   4   7
TORSDOF 1
ENDMDL
MODEL 5
REMARK VINA RESULT:      -4.1      3.614      5.552
REMARK  1 active torsions:
REMARK  status: ('A' for Active; 'I' for Inactive)
REMARK    1  A    between atoms: C8_8  and  C9_9 
ROOT
HETATM    1  C1  UNL     1     -33.734  15.058  -3.649  1.00 20.00     0.006 C 
HETATM    2  C2  UNL     1     -34.575  14.329  -4.701  1.00 20.00     0.020 C 
HETATM    3  C5  UNL     1     -34.485  16.624  -5.347  1.00 20.00     0.025 C 
HETATM    4  C8  UNL     1     -33.485  16.470  -4.200  1.00 20.00    -0.009 C 
HETATM    5  C10 UNL     1     -34.518  15.221  -5.934  1.00 20.00     0.082 C 
HETATM    6 CL12 UNL     1     -35.899  14.974  -7.011  1.00 20.00    -0.125 Cl
ENDROOT
BRANCH   4   7
HETATM    7  C9  UNL     1     -33.617  17.563  -3.143  1.00 20.00    -0.006 C 
HETATM    8  C3  UNL     1     -33.423  16.994  -1.733  1.00 20.00     0.031 C 
HETATM    9  C6  UNL     1     -33.682  18.064  -0.680  1.00 20.00     0.168 C 
HETATM   10  O11 UNL     1     -34.986  18.623  -0.837  1.00 20.00    -0.391 OA
HETATM   11  C7  UNL     1     -35.150  19.262  -2.102  1.00 20.00     0.168 C 
HETATM   12  C4  UNL     1     -34.978  18.263  -3.239  1.00 20.00     0.031 C 
ENDBRANCH   4   7
TORSDOF 1
ENDMDL
MODEL 6
REMARK VINA RESULT:      -4.0      3.250      5.103
REMARK  1 active torsions:
REMARK  status: ('A' for Active; 'I' for Inactive)
REMARK    1  A    between atoms: C8_8  and  C9_9 
ROOT
HETATM    1  C1  UNL     1     -32.978  16.583  -2.787  1.00 20.00     0.006 C 
HETATM    2  C2  UNL     1     -34.014  16.055  -3.783  1.00 20.00     0.020 C 
HETATM    3  C5  UNL     1     -34.380  18.403  -3.576  1.00 20.00     0.025 C 
HETATM    4  C8  UNL     1     -33.067  18.116  -2.847  1.00 20.00    -0.009 C 
HETATM    5  C10 UNL     1     -34.435  17.274  -4.594  1.00 20.00     0.082 C 
HETATM    6 CL12 UNL     1     -36.043  17.088  -5.307  1.00 20.00    -0.125 Cl
ENDROOT
BRANCH   4   7
HETATM    7  C9  UNL     1     -32.990  18.778  -1.474  1.00 20.00    -0.006 C 
HETATM    8  C3  UNL     1     -31.605  18.590  -0.845  1.00 20.00     0.031 C 
HETATM    9  C6  UNL     1     -31.577  19.142   0.574  1.00 20.00     0.168 C 
HETATM   10  O11 UNL     1     -32.594  18.536   1.373  1.00 20.00    -0.391 OA
HETATM   11  C7  UNL     1     -33.903  18.799   0.869  1.00 20.00     0.168 C 
HETATM   12  C4  UNL     1     -34.068  18.226  -0.533  1.00 20.00     0.031 C 
ENDBRANCH   4   7
TORSDOF 1
ENDMDL
MODEL 7
REMARK VINA RESULT:      -3.7     11.958     13.342
REMARK  1 active torsions:
REMARK  status: ('A' for Active; 'I' for Inactive)
REMARK    1  A    between atoms: C8_8  and  C9_9 
ROOT
HETATM    1  C1  UNL     1     -41.684  14.109   5.933  1.00 20.00     0.006 C 
HETATM    2  C2  UNL     1     -41.143  13.350   4.717  1.00 20.00     0.020 C 
HETATM    3  C5  UNL     1     -39.655  12.915   6.531  1.00 20.00     0.025 C 
HETATM    4  C8  UNL     1     -40.862  13.631   7.139  1.00 20.00    -0.009 C 
HETATM    5  C10 UNL     1     -40.260  12.255   5.301  1.00 20.00     0.082 C 
HETATM    6 CL12 UNL     1     -39.028  11.701   4.159  1.00 20.00    -0.125 Cl
ENDROOT
BRANCH   4   7
HETATM    7  C9  UNL     1     -40.470  14.761   8.088  1.00 20.00    -0.006 C 
HETATM    8  C3  UNL     1     -40.682  14.354   9.550  1.00 20.00     0.031 C 
HETATM    9  C6  UNL     1     -40.410  15.529  10.481  1.00 20.00     0.168 C 
HETATM   10  O11 UNL     1     -41.224  16.649  10.133  1.00 20.00    -0.391 OA
HETATM   11  C7  UNL     1     -40.958  17.118   8.812  1.00 20.00     0.168 C 
HETATM   12  C4  UNL     1     -41.263  16.038   7.783  1.00 20.00     0.031 C 
ENDBRANCH   4   7
TORSDOF 1
ENDMDL
MODEL 8
REMARK VINA RESULT:      -3.7      2.176      3.523
REMARK  1 active torsions:
REMARK  status: ('A' for Active; 'I' for Inactive)
REMARK    1  A    between atoms: C8_8  and  C9_9 
ROOT
HETATM    1  C1  UNL     1     -33.940  18.591  -4.117  1.00 20.00     0.006 C 
HETATM    2  C2  UNL     1     -33.462  19.181  -2.787  1.00 20.00     0.020 C 
HETATM    3  C5  UNL     1     -33.535  16.812  -2.514  1.00 20.00     0.025 C 
HETATM    4  C8  UNL     1     -33.752  17.071  -4.006  1.00 20.00    -0.009 C 
HETATM    5  C10 UNL     1     -32.739  18.037  -2.088  1.00 20.00     0.082 C 
HETATM    6 CL12 UNL     1     -32.698  18.236  -0.331  1.00 20.00    -0.125 Cl
ENDROOT
BRANCH   4   7
HETATM    7  C9  UNL     1     -34.918  16.275  -4.586  1.00 20.00    -0.006 C 
HETATM    8  C3  UNL     1     -34.460  15.395  -5.755  1.00 20.00     0.031 C 
HETATM    9  C6  UNL     1     -35.650  14.704  -6.407  1.00 20.00     0.168 C 
HETATM   10  O11 UNL     1     -36.622  15.661  -6.830  1.00 20.00    -0.391 OA
HETATM   11  C7  UNL     1     -37.148  16.413  -5.738  1.00 20.00     0.168 C 
HETATM   12  C4  UNL     1     -36.046  17.206  -5.046  1.00 20.00     0.031 C 
ENDBRANCH   4   7
TORSDOF 1
ENDMDL
MODEL 9
REMARK VINA RESULT:      -3.6     11.583     13.200
REMARK  1 active torsions:
REMARK  status: ('A' for Active; 'I' for Inactive)
REMARK    1  A    between atoms: C8_8  and  C9_9 
ROOT
HETATM    1  C1  UNL     1     -41.842  13.828   5.524  1.00 20.00     0.006 C 
HETATM    2  C2  UNL     1     -40.801  13.279   4.543  1.00 20.00     0.020 C 
HETATM    3  C5  UNL     1     -40.075  12.684   6.737  1.00 20.00     0.025 C 
HETATM    4  C8  UNL     1     -41.493  13.235   6.898  1.00 20.00    -0.009 C 
HETATM    5  C10 UNL     1     -40.093  12.167   5.306  1.00 20.00     0.082 C 
HETATM    6 CL12 UNL     1     -38.467  11.851   4.684  1.00 20.00    -0.125 Cl
ENDROOT
BRANCH   4   7
HETATM    7  C9  UNL     1     -41.615  14.243   8.038  1.00 20.00    -0.006 C 
HETATM    8  C3  UNL     1     -42.112  15.600   7.526  1.00 20.00     0.031 C 
HETATM    9  C6  UNL     1     -42.108  16.632   8.646  1.00 20.00     0.168 C 
HETATM   10  O11 UNL     1     -40.809  16.743   9.228  1.00 20.00    -0.391 OA
HETATM   11  C7  UNL     1     -40.376  15.518   9.816  1.00 20.00     0.168 C 
HETATM   12  C4  UNL     1     -40.276  14.420   8.764  1.00 20.00     0.031 C 
ENDBRANCH   4   7
TORSDOF 1
ENDMDL
