MODEL 1
REMARK VINA RESULT:      -5.0      0.000      0.000
REMARK  1 active torsions:
REMARK  status: ('A' for Active; 'I' for Inactive)
REMARK    1  A    between atoms: C6_6  and  C8_8 
ROOT
HETATM    1  C1  UNL     1     -32.307   8.301   1.663  1.00 20.00     0.064 C 
HETATM    2  C2  UNL     1     -32.310   8.575   4.134  1.00 20.00     0.019 C 
HETATM    3  C3  UNL     1     -33.597   8.067   4.770  1.00 20.00     0.006 C 
HETATM    4  C4  UNL     1     -32.974   6.429   3.150  1.00 20.00     0.024 C 
HETATM    5  C5  UNL     1     -32.043   7.636   2.948  1.00 20.00     0.093 C 
HETATM    6  C6  UNL     1     -33.497   6.558   4.581  1.00 20.00    -0.014 C 
HETATM    7  N9  UNL     1     -32.514   8.826   0.650  1.00 20.00    -0.197 NA
ENDROOT
BRANCH   6   8
HETATM    8  C8  UNL     1     -34.816   5.838   4.804  1.00 20.00     0.000 C 
HETATM    9  C7  UNL     1     -34.922   5.281   6.189  1.00 20.00     0.005 C 
ENDBRANCH   6   8
TORSDOF 1
ENDMDL
MODEL 2
REMARK VINA RESULT:      -4.9      2.431      4.102
REMARK  1 active torsions:
REMARK  status: ('A' for Active; 'I' for Inactive)
REMARK    1  A    between atoms: C6_6  and  C8_8 
ROOT
HETATM    1  C1  UNL     1     -34.303   4.602   4.577  1.00 20.00     0.064 C 
HETATM    2  C2  UNL     1     -34.565   6.182   6.478  1.00 20.00     0.019 C 
HETATM    3  C3  UNL     1     -33.449   7.218   6.526  1.00 20.00     0.006 C 
HETATM    4  C4  UNL     1     -34.091   7.051   4.233  1.00 20.00     0.024 C 
HETATM    5  C5  UNL     1     -34.812   5.920   4.985  1.00 20.00     0.093 C 
HETATM    6  C6  UNL     1     -33.734   8.083   5.305  1.00 20.00    -0.014 C 
HETATM    7  N9  UNL     1     -33.902   3.563   4.255  1.00 20.00    -0.197 NA
ENDROOT
BRANCH   6   8
HETATM    8  C8  UNL     1     -32.567   8.972   4.915  1.00 20.00     0.000 C 
HETATM    9  C7  UNL     1     -32.178   8.790   3.481  1.00 20.00     0.005 C 
ENDBRANCH   6   8
TORSDOF 1
ENDMDL
MODEL 3
REMARK VINA RESULT:      -4.2      1.839      2.438
REMARK  1 active torsions:
REMARK  status: ('A' for Active; 'I' for Inactive)
REMARK    1  A    between atoms: C6_6  and  C8_8 
ROOT
HETATM    1  C1  UNL     1     -32.319   8.902   4.659  1.00 20.00     0.064 C 
HETATM    2  C2  UNL     1     -32.496   7.222   2.837  1.00 20.00     0.019 C 
HETATM    3  C3  UNL     1     -32.732   5.814   3.369  1.00 20.00     0.006 C 
HETATM    4  C4  UNL     1     -34.165   7.243   4.634  1.00 20.00     0.024 C 
HETATM    5  C5  UNL     1     -33.247   8.152   3.800  1.00 20.00     0.093 C 
HETATM    6  C6  UNL     1     -34.151   5.891   3.919  1.00 20.00    -0.014 C 
HETATM    7  N9  UNL     1     -31.587   9.494   5.337  1.00 20.00    -0.197 NA
ENDROOT
BRANCH   6   8
HETATM    8  C8  UNL     1     -34.505   4.729   4.829  1.00 20.00     0.000 C 
HETATM    9  C7  UNL     1     -34.551   5.137   6.268  1.00 20.00     0.005 C 
ENDBRANCH   6   8
TORSDOF 1
ENDMDL
MODEL 4
REMARK VINA RESULT:      -4.0     11.092     12.272
REMARK  1 active torsions:
REMARK  status: ('A' for Active; 'I' for Inactive)
REMARK    1  A    between atoms: C6_6  and  C8_8 
ROOT
HETATM    1  C1  UNL     1     -31.872  18.473  -0.922  1.00 20.00     0.064 C 
HETATM    2  C2  UNL     1     -33.383  19.046  -2.811  1.00 20.00     0.019 C 
HETATM    3  C3  UNL     1     -33.209  18.105  -3.996  1.00 20.00     0.006 C 
HETATM    4  C4  UNL     1     -33.216  16.719  -2.053  1.00 20.00     0.024 C 
HETATM    5  C5  UNL     1     -33.161  18.176  -1.565  1.00 20.00     0.093 C 
HETATM    6  C6  UNL     1     -33.777  16.791  -3.474  1.00 20.00    -0.014 C 
HETATM    7  N9  UNL     1     -30.856  18.707  -0.415  1.00 20.00    -0.197 NA
ENDROOT
BRANCH   6   8
HETATM    8  C8  UNL     1     -33.399  15.594  -4.328  1.00 20.00     0.000 C 
HETATM    9  C7  UNL     1     -34.337  14.445  -4.129  1.00 20.00     0.005 C 
ENDBRANCH   6   8
TORSDOF 1
ENDMDL
MODEL 5
REMARK VINA RESULT:      -4.0     11.549     11.928
REMARK  1 active torsions:
REMARK  status: ('A' for Active; 'I' for Inactive)
REMARK    1  A    between atoms: C6_6  and  C8_8 
ROOT
HETATM    1  C1  UNL     1     -33.092  17.326  -2.075  1.00 20.00     0.064 C 
HETATM    2  C2  UNL     1     -33.768  18.935  -0.306  1.00 20.00     0.019 C 
HETATM    3  C3  UNL     1     -33.120  18.623   1.037  1.00 20.00     0.006 C 
HETATM    4  C4  UNL     1     -31.397  18.375  -0.596  1.00 20.00     0.024 C 
HETATM    5  C5  UNL     1     -32.719  18.556  -1.361  1.00 20.00     0.093 C 
HETATM    6  C6  UNL     1     -31.653  18.959   0.794  1.00 20.00    -0.014 C 
HETATM    7  N9  UNL     1     -33.386  16.356  -2.639  1.00 20.00    -0.197 NA
ENDROOT
BRANCH   6   8
HETATM    8  C8  UNL     1     -30.727  18.399   1.859  1.00 20.00     0.000 C 
HETATM    9  C7  UNL     1     -31.072  18.904   3.224  1.00 20.00     0.005 C 
ENDBRANCH   6   8
TORSDOF 1
ENDMDL
MODEL 6
REMARK VINA RESULT:      -3.9     11.352     12.289
REMARK  1 active torsions:
REMARK  status: ('A' for Active; 'I' for Inactive)
REMARK    1  A    between atoms: C6_6  and  C8_8 
ROOT
HETATM    1  C1  UNL     1     -35.360  14.892  -5.465  1.00 20.00     0.064 C 
HETATM    2  C2  UNL     1     -34.456  17.205  -5.364  1.00 20.00     0.019 C 
HETATM    3  C3  UNL     1     -34.450  17.761  -3.946  1.00 20.00     0.006 C 
HETATM    4  C4  UNL     1     -33.654  15.518  -3.774  1.00 20.00     0.024 C 
HETATM    5  C5  UNL     1     -34.161  15.705  -5.214  1.00 20.00     0.093 C 
HETATM    6  C6  UNL     1     -33.374  16.930  -3.258  1.00 20.00    -0.014 C 
HETATM    7  N9  UNL     1     -36.305  14.250  -5.664  1.00 20.00    -0.197 NA
ENDROOT
BRANCH   6   8
HETATM    8  C8  UNL     1     -33.414  17.034  -1.744  1.00 20.00     0.000 C 
HETATM    9  C7  UNL     1     -32.508  18.109  -1.232  1.00 20.00     0.005 C 
ENDBRANCH   6   8
TORSDOF 1
ENDMDL
MODEL 7
REMARK VINA RESULT:      -3.9     15.619     16.695
REMARK  1 active torsions:
REMARK  status: ('A' for Active; 'I' for Inactive)
REMARK    1  A    between atoms: C6_6  and  C8_8 
ROOT
HETATM    1  C1  UNL     1     -24.342  16.972  11.899  1.00 20.00     0.064 C 
HETATM    2  C2  UNL     1     -22.402  18.516  11.720  1.00 20.00     0.019 C 
HETATM    3  C3  UNL     1     -21.733  18.447  10.353  1.00 20.00     0.006 C 
HETATM    4  C4  UNL     1     -24.083  18.465   9.934  1.00 20.00     0.024 C 
HETATM    5  C5  UNL     1     -23.899  18.301  11.452  1.00 20.00     0.093 C 
HETATM    6  C6  UNL     1     -22.773  19.076   9.433  1.00 20.00    -0.014 C 
HETATM    7  N9  UNL     1     -24.691  15.924  12.253  1.00 20.00    -0.197 NA
ENDROOT
BRANCH   6   8
HETATM    8  C8  UNL     1     -22.511  18.807   7.962  1.00 20.00     0.000 C 
HETATM    9  C7  UNL     1     -21.499  17.723   7.762  1.00 20.00     0.005 C 
ENDBRANCH   6   8
TORSDOF 1
ENDMDL
MODEL 8
REMARK VINA RESULT:      -3.8      9.807     10.846
REMARK  1 active torsions:
REMARK  status: ('A' for Active; 'I' for Inactive)
REMARK    1  A    between atoms: C6_6  and  C8_8 
ROOT
HETATM    1  C1  UNL     1     -41.012  16.021   7.295  1.00 20.00     0.064 C 
HETATM    2  C2  UNL     1     -42.156  14.369   5.832  1.00 20.00     0.019 C 
HETATM    3  C3  UNL     1     -41.172  13.462   5.105  1.00 20.00     0.006 C 
HETATM    4  C4  UNL     1     -40.383  13.621   7.352  1.00 20.00     0.024 C 
HETATM    5  C5  UNL     1     -41.520  14.644   7.203  1.00 20.00     0.093 C 
HETATM    6  C6  UNL     1     -40.604  12.605   6.230  1.00 20.00    -0.014 C 
HETATM    7  N9  UNL     1     -40.612  17.107   7.369  1.00 20.00    -0.197 NA
ENDROOT
BRANCH   6   8
HETATM    8  C8  UNL     1     -39.340  11.861   5.837  1.00 20.00     0.000 C 
HETATM    9  C7  UNL     1     -39.197  11.747   4.351  1.00 20.00     0.005 C 
ENDBRANCH   6   8
TORSDOF 1
ENDMDL
MODEL 9
REMARK VINA RESULT:      -3.7     11.384     12.573
REMARK  1 active torsions:
REMARK  status: ('A' for Active; 'I' for Inactive)
REMARK    1  A    between atoms: C6_6  and  C8_8 
ROOT
HETATM    1  C1  UNL     1     -34.123  15.333  -6.647  1.00 20.00     0.064 C 
HETATM    2  C2  UNL     1     -33.999  14.793  -4.224  1.00 20.00     0.019 C 
HETATM    3  C3  UNL     1     -33.151  15.795  -3.451  1.00 20.00     0.006 C 
HETATM    4  C4  UNL     1     -34.507  17.086  -4.932  1.00 20.00     0.024 C 
HETATM    5  C5  UNL     1     -34.696  15.611  -5.321  1.00 20.00     0.093 C 
HETATM    6  C6  UNL     1     -34.000  17.060  -3.489  1.00 20.00    -0.014 C 
HETATM    7  N9  UNL     1     -33.671  15.114  -7.693  1.00 20.00    -0.197 NA
ENDROOT
BRANCH   6   8
HETATM    8  C8  UNL     1     -33.229  18.310  -3.103  1.00 20.00     0.000 C 
HETATM    9  C7  UNL     1     -32.581  18.176  -1.761  1.00 20.00     0.005 C 
ENDBRANCH   6   8
TORSDOF 1
ENDMDL
