MODEL 1
REMARK VINA RESULT:      -4.6      0.000      0.000
REMARK  1 active torsions:
REMARK  status: ('A' for Active; 'I' for Inactive)
REMARK    1  A    between atoms: C7_7  and  C9_9 
ROOT
HETATM    1  C1  UNL     1     -32.547   9.279   0.307  1.00 20.00     0.012 C 
HETATM    2  C2  UNL     1     -32.371   8.421   1.128  1.00 20.00    -0.117 C 
HETATM    3  C9  UNL     1     -32.150   7.366   2.120  1.00 20.00     0.097 C 
ENDROOT
BRANCH   3   4
HETATM    4  C7  UNL     1     -32.953   7.634   3.391  1.00 20.00    -0.002 C 
HETATM    5  C4  UNL     1     -32.135   8.436   4.407  1.00 20.00     0.005 C 
HETATM    6  C3  UNL     1     -32.967   8.811   5.636  1.00 20.00     0.002 C 
HETATM    7  C5  UNL     1     -34.048   7.784   5.986  1.00 20.00     0.020 C 
HETATM    8  C8  UNL     1     -33.654   6.386   5.524  1.00 20.00     0.082 C 
HETATM    9  C6  UNL     1     -33.471   6.316   4.001  1.00 20.00     0.025 C 
HETATM   10 CL10 UNL     1     -34.867   5.187   6.052  1.00 20.00    -0.125 Cl
ENDBRANCH   3   4
TORSDOF 1
ENDMDL
MODEL 2
REMARK VINA RESULT:      -4.6      1.154      2.298
REMARK  1 active torsions:
REMARK  status: ('A' for Active; 'I' for Inactive)
REMARK    1  A    between atoms: C7_7  and  C9_9 
ROOT
HETATM    1  C1  UNL     1     -32.904   9.538   0.957  1.00 20.00     0.012 C 
HETATM    2  C2  UNL     1     -32.642   9.245   2.091  1.00 20.00    -0.117 C 
HETATM    3  C9  UNL     1     -32.317   8.901   3.477  1.00 20.00     0.097 C 
ENDROOT
BRANCH   3   4
HETATM    4  C7  UNL     1     -32.538   7.413   3.737  1.00 20.00    -0.002 C 
HETATM    5  C4  UNL     1     -32.852   6.663   2.440  1.00 20.00     0.005 C 
HETATM    6  C3  UNL     1     -32.961   5.153   2.670  1.00 20.00     0.002 C 
HETATM    7  C5  UNL     1     -33.488   4.777   4.057  1.00 20.00     0.020 C 
HETATM    8  C8  UNL     1     -34.390   5.868   4.622  1.00 20.00     0.082 C 
HETATM    9  C6  UNL     1     -33.642   7.198   4.792  1.00 20.00     0.025 C 
HETATM   10 CL10 UNL     1     -35.093   5.355   6.181  1.00 20.00    -0.125 Cl
ENDBRANCH   3   4
TORSDOF 1
ENDMDL
MODEL 3
REMARK VINA RESULT:      -4.1      1.316      1.887
REMARK  1 active torsions:
REMARK  status: ('A' for Active; 'I' for Inactive)
REMARK    1  A    between atoms: C7_7  and  C9_9 
ROOT
HETATM    1  C1  UNL     1     -32.528   8.861   1.162  1.00 20.00     0.012 C 
HETATM    2  C2  UNL     1     -32.542   8.893   2.362  1.00 20.00    -0.117 C 
HETATM    3  C9  UNL     1     -32.548   8.942   3.826  1.00 20.00     0.097 C 
ENDROOT
BRANCH   3   4
HETATM    4  C7  UNL     1     -33.488   7.885   4.403  1.00 20.00    -0.002 C 
HETATM    5  C4  UNL     1     -33.386   7.825   5.929  1.00 20.00     0.005 C 
HETATM    6  C3  UNL     1     -34.406   6.852   6.528  1.00 20.00     0.002 C 
HETATM    7  C5  UNL     1     -34.735   5.666   5.617  1.00 20.00     0.020 C 
HETATM    8  C8  UNL     1     -33.567   5.334   4.696  1.00 20.00     0.082 C 
HETATM    9  C6  UNL     1     -33.219   6.506   3.767  1.00 20.00     0.025 C 
HETATM   10 CL10 UNL     1     -33.924   3.873   3.734  1.00 20.00    -0.125 Cl
ENDBRANCH   3   4
TORSDOF 1
ENDMDL
MODEL 4
REMARK VINA RESULT:      -4.0      2.152      4.450
REMARK  1 active torsions:
REMARK  status: ('A' for Active; 'I' for Inactive)
REMARK    1  A    between atoms: C7_7  and  C9_9 
ROOT
HETATM    1  C1  UNL     1     -34.727   5.343   6.977  1.00 20.00     0.012 C 
HETATM    2  C2  UNL     1     -34.696   5.229   5.782  1.00 20.00    -0.117 C 
HETATM    3  C9  UNL     1     -34.665   5.077   4.325  1.00 20.00     0.097 C 
ENDROOT
BRANCH   3   4
HETATM    4  C7  UNL     1     -33.960   6.262   3.668  1.00 20.00    -0.002 C 
HETATM    5  C4  UNL     1     -32.808   5.798   2.773  1.00 20.00     0.005 C 
HETATM    6  C3  UNL     1     -32.169   6.967   2.019  1.00 20.00     0.002 C 
HETATM    7  C5  UNL     1     -32.215   8.293   2.783  1.00 20.00     0.020 C 
HETATM    8  C8  UNL     1     -32.238   8.064   4.290  1.00 20.00     0.082 C 
HETATM    9  C6  UNL     1     -33.477   7.271   4.729  1.00 20.00     0.025 C 
HETATM   10 CL10 UNL     1     -32.163   9.620   5.161  1.00 20.00    -0.125 Cl
ENDBRANCH   3   4
TORSDOF 1
ENDMDL
MODEL 5
REMARK VINA RESULT:      -4.0      9.798     10.830
REMARK  1 active torsions:
REMARK  status: ('A' for Active; 'I' for Inactive)
REMARK    1  A    between atoms: C7_7  and  C9_9 
ROOT
HETATM    1  C1  UNL     1     -38.948  11.675   3.889  1.00 20.00     0.012 C 
HETATM    2  C2  UNL     1     -39.553  11.894   4.902  1.00 20.00    -0.117 C 
HETATM    3  C9  UNL     1     -40.295  12.148   6.139  1.00 20.00     0.097 C 
ENDROOT
BRANCH   3   4
HETATM    4  C7  UNL     1     -40.437  13.648   6.393  1.00 20.00    -0.002 C 
HETATM    5  C4  UNL     1     -40.398  13.965   7.889  1.00 20.00     0.005 C 
HETATM    6  C3  UNL     1     -40.423  15.474   8.150  1.00 20.00     0.002 C 
HETATM    7  C5  UNL     1     -41.203  16.269   7.099  1.00 20.00     0.020 C 
HETATM    8  C8  UNL     1     -42.296  15.420   6.461  1.00 20.00     0.082 C 
HETATM    9  C6  UNL     1     -41.720  14.196   5.735  1.00 20.00     0.025 C 
HETATM   10 CL10 UNL     1     -43.271  16.401   5.332  1.00 20.00    -0.125 Cl
ENDBRANCH   3   4
TORSDOF 1
ENDMDL
MODEL 6
REMARK VINA RESULT:      -3.9     11.417     12.659
REMARK  1 active torsions:
REMARK  status: ('A' for Active; 'I' for Inactive)
REMARK    1  A    between atoms: C7_7  and  C9_9 
ROOT
HETATM    1  C1  UNL     1     -33.788  17.901   0.019  1.00 20.00     0.012 C 
HETATM    2  C2  UNL     1     -33.434  17.841  -1.127  1.00 20.00    -0.117 C 
HETATM    3  C9  UNL     1     -32.992  17.779  -2.522  1.00 20.00     0.097 C 
ENDROOT
BRANCH   3   4
HETATM    4  C7  UNL     1     -33.843  16.796  -3.321  1.00 20.00    -0.002 C 
HETATM    5  C4  UNL     1     -33.033  15.564  -3.732  1.00 20.00     0.005 C 
HETATM    6  C3  UNL     1     -33.905  14.518  -4.432  1.00 20.00     0.002 C 
HETATM    7  C5  UNL     1     -35.065  15.119  -5.232  1.00 20.00     0.020 C 
HETATM    8  C8  UNL     1     -34.735  16.526  -5.715  1.00 20.00     0.082 C 
HETATM    9  C6  UNL     1     -34.475  17.487  -4.546  1.00 20.00     0.025 C 
HETATM   10 CL10 UNL     1     -36.048  17.157  -6.748  1.00 20.00    -0.125 Cl
ENDBRANCH   3   4
TORSDOF 1
ENDMDL
MODEL 7
REMARK VINA RESULT:      -3.9      9.355     10.391
REMARK  1 active torsions:
REMARK  status: ('A' for Active; 'I' for Inactive)
REMARK    1  A    between atoms: C7_7  and  C9_9 
ROOT
HETATM    1  C1  UNL     1     -38.952  11.728   3.520  1.00 20.00     0.012 C 
HETATM    2  C2  UNL     1     -39.302  11.734   4.668  1.00 20.00    -0.117 C 
HETATM    3  C9  UNL     1     -39.721  11.730   6.072  1.00 20.00     0.097 C 
ENDROOT
BRANCH   3   4
HETATM    4  C7  UNL     1     -40.783  12.797   6.328  1.00 20.00    -0.002 C 
HETATM    5  C4  UNL     1     -41.226  13.466   5.024  1.00 20.00     0.005 C 
HETATM    6  C3  UNL     1     -42.371  14.455   5.254  1.00 20.00     0.002 C 
HETATM    7  C5  UNL     1     -42.333  15.134   6.626  1.00 20.00     0.020 C 
HETATM    8  C8  UNL     1     -40.909  15.224   7.161  1.00 20.00     0.082 C 
HETATM    9  C6  UNL     1     -40.280  13.837   7.350  1.00 20.00     0.025 C 
HETATM   10 CL10 UNL     1     -40.874  16.130   8.699  1.00 20.00    -0.125 Cl
ENDBRANCH   3   4
TORSDOF 1
ENDMDL
MODEL 8
REMARK VINA RESULT:      -3.9     11.249     12.401
REMARK  1 active torsions:
REMARK  status: ('A' for Active; 'I' for Inactive)
REMARK    1  A    between atoms: C7_7  and  C9_9 
ROOT
HETATM    1  C1  UNL     1     -31.044  18.714   0.412  1.00 20.00     0.012 C 
HETATM    2  C2  UNL     1     -32.168  18.501   0.048  1.00 20.00    -0.117 C 
HETATM    3  C9  UNL     1     -33.544  18.241  -0.383  1.00 20.00     0.097 C 
ENDROOT
BRANCH   3   4
HETATM    4  C7  UNL     1     -33.618  18.071  -1.899  1.00 20.00    -0.002 C 
HETATM    5  C4  UNL     1     -34.990  18.481  -2.438  1.00 20.00     0.005 C 
HETATM    6  C3  UNL     1     -35.039  18.426  -3.968  1.00 20.00     0.002 C 
HETATM    7  C5  UNL     1     -34.138  17.345  -4.574  1.00 20.00     0.020 C 
HETATM    8  C8  UNL     1     -33.942  16.182  -3.610  1.00 20.00     0.082 C 
HETATM    9  C6  UNL     1     -33.263  16.626  -2.307  1.00 20.00     0.025 C 
HETATM   10 CL10 UNL     1     -32.996  14.880  -4.383  1.00 20.00    -0.125 Cl
ENDBRANCH   3   4
TORSDOF 1
ENDMDL
MODEL 9
REMARK VINA RESULT:      -3.9     11.471     12.655
REMARK  1 active torsions:
REMARK  status: ('A' for Active; 'I' for Inactive)
REMARK    1  A    between atoms: C7_7  and  C9_9 
ROOT
HETATM    1  C1  UNL     1     -33.779  17.642  -0.777  1.00 20.00     0.012 C 
HETATM    2  C2  UNL     1     -33.443  17.136  -1.813  1.00 20.00    -0.117 C 
HETATM    3  C9  UNL     1     -33.021  16.522  -3.074  1.00 20.00     0.097 C 
ENDROOT
BRANCH   3   4
HETATM    4  C7  UNL     1     -34.225  16.018  -3.867  1.00 20.00    -0.002 C 
HETATM    5  C4  UNL     1     -34.109  14.521  -4.163  1.00 20.00     0.005 C 
HETATM    6  C3  UNL     1     -35.363  13.981  -4.855  1.00 20.00     0.002 C 
HETATM    7  C5  UNL     1     -36.064  15.006  -5.750  1.00 20.00     0.020 C 
HETATM    8  C8  UNL     1     -35.079  16.036  -6.290  1.00 20.00     0.082 C 
HETATM    9  C6  UNL     1     -34.411  16.835  -5.162  1.00 20.00     0.025 C 
HETATM   10 CL10 UNL     1     -35.892  17.144  -7.429  1.00 20.00    -0.125 Cl
ENDBRANCH   3   4
TORSDOF 1
ENDMDL
