MODEL 1
REMARK VINA RESULT:      -4.5      0.000      0.000
REMARK  6 active torsions:
REMARK  status: ('A' for Active; 'I' for Inactive)
REMARK    1  A    between atoms: C2_2  and  C7_7 
REMARK    2  A    between atoms: C5_5  and  C10_10 
REMARK    3  A    between atoms: C7_7  and  C8_8 
REMARK    4  A    between atoms: C8_8  and  C9_9 
REMARK    5  A    between atoms: C9_9  and  C10_10 
REMARK    6  A    between atoms: C10_10  and  O11_11 
ROOT
HETATM    1  C1  UNL     1     -32.495   8.693   1.260  1.00 20.00    -0.111 C 
HETATM    2  C2  UNL     1     -32.169   8.312   2.351  1.00 20.00    -0.107 C 
HETATM    3  C6  UNL     1     -32.893   9.157  -0.069  1.00 20.00     0.112 C 
ENDROOT
BRANCH   2   4
HETATM    4  C7  UNL     1     -31.769   7.848   3.687  1.00 20.00     0.094 C 
BRANCH   4   5
HETATM    5  C8  UNL     1     -32.345   8.750   4.779  1.00 20.00     0.014 C 
BRANCH   5   6
HETATM    6  C9  UNL     1     -33.776   8.343   5.137  1.00 20.00     0.033 C 
BRANCH   6   7
HETATM    7  C10 UNL     1     -33.880   6.928   5.719  1.00 20.00     0.122 C 
BRANCH   7   8
HETATM    8  C5  UNL     1     -34.672   5.992   4.854  1.00 20.00     0.014 A 
HETATM    9  C3  UNL     1     -34.035   5.349   3.653  1.00 20.00     0.007 A 
HETATM   10  C4  UNL     1     -34.370   4.519   4.861  1.00 20.00     0.007 A 
ENDBRANCH   7   8
BRANCH   7  11
HETATM   11  O11 UNL     1     -34.524   7.039   6.990  1.00 20.00    -0.395 OA
HETATM   12  H27 UNL     1     -34.294   7.914   7.336  1.00 20.00     0.210 HD
ENDBRANCH   7  11
ENDBRANCH   6   7
ENDBRANCH   5   6
ENDBRANCH   4   5
ENDBRANCH   2   4
TORSDOF 6
ENDMDL
MODEL 2
REMARK VINA RESULT:      -4.5      1.494      1.966
REMARK  6 active torsions:
REMARK  status: ('A' for Active; 'I' for Inactive)
REMARK    1  A    between atoms: C2_2  and  C7_7 
REMARK    2  A    between atoms: C5_5  and  C10_10 
REMARK    3  A    between atoms: C7_7  and  C8_8 
REMARK    4  A    between atoms: C8_8  and  C9_9 
REMARK    5  A    between atoms: C9_9  and  C10_10 
REMARK    6  A    between atoms: C10_10  and  O11_11 
ROOT
HETATM    1  C1  UNL     1     -32.578   5.958   2.548  1.00 20.00    -0.111 C 
HETATM    2  C2  UNL     1     -32.345   7.073   2.929  1.00 20.00    -0.107 C 
HETATM    3  C6  UNL     1     -32.860   4.601   2.083  1.00 20.00     0.112 C 
ENDROOT
BRANCH   2   4
HETATM    4  C7  UNL     1     -32.063   8.438   3.395  1.00 20.00     0.094 C 
BRANCH   4   5
HETATM    5  C8  UNL     1     -32.485   8.620   4.854  1.00 20.00     0.014 C 
BRANCH   5   6
HETATM    6  C9  UNL     1     -33.882   8.048   5.103  1.00 20.00     0.033 C 
BRANCH   6   7
HETATM    7  C10 UNL     1     -33.931   7.039   6.257  1.00 20.00     0.122 C 
BRANCH   7   8
HETATM    8  C5  UNL     1     -34.870   5.898   6.002  1.00 20.00     0.014 A 
HETATM    9  C3  UNL     1     -35.401   5.648   4.617  1.00 20.00     0.007 A 
HETATM   10  C4  UNL     1     -34.407   4.697   5.224  1.00 20.00     0.007 A 
ENDBRANCH   7   8
BRANCH   7  11
HETATM   11  O11 UNL     1     -34.367   7.746   7.419  1.00 20.00    -0.395 OA
HETATM   12  H27 UNL     1     -34.334   7.114   8.151  1.00 20.00     0.210 HD
ENDBRANCH   7  11
ENDBRANCH   6   7
ENDBRANCH   5   6
ENDBRANCH   4   5
ENDBRANCH   2   4
TORSDOF 6
ENDMDL
MODEL 3
REMARK VINA RESULT:      -4.3      1.604      2.506
REMARK  6 active torsions:
REMARK  status: ('A' for Active; 'I' for Inactive)
REMARK    1  A    between atoms: C2_2  and  C7_7 
REMARK    2  A    between atoms: C5_5  and  C10_10 
REMARK    3  A    between atoms: C7_7  and  C8_8 
REMARK    4  A    between atoms: C8_8  and  C9_9 
REMARK    5  A    between atoms: C9_9  and  C10_10 
REMARK    6  A    between atoms: C10_10  and  O11_11 
ROOT
HETATM    1  C1  UNL     1     -32.532   8.493   1.266  1.00 20.00    -0.111 C 
HETATM    2  C2  UNL     1     -32.476   7.701   2.167  1.00 20.00    -0.107 C 
HETATM    3  C6  UNL     1     -32.600   9.458   0.169  1.00 20.00     0.112 C 
ENDROOT
BRANCH   2   4
HETATM    4  C7  UNL     1     -32.407   6.733   3.271  1.00 20.00     0.094 C 
BRANCH   4   5
HETATM    5  C8  UNL     1     -32.982   5.379   2.854  1.00 20.00     0.014 C 
BRANCH   5   6
HETATM    6  C9  UNL     1     -34.029   4.888   3.855  1.00 20.00     0.033 C 
BRANCH   6   7
HETATM    7  C10 UNL     1     -34.870   6.018   4.461  1.00 20.00     0.122 C 
BRANCH   7   8
HETATM    8  C5  UNL     1     -34.800   6.067   5.959  1.00 20.00     0.014 A 
HETATM    9  C3  UNL     1     -33.515   5.739   6.668  1.00 20.00     0.007 A 
HETATM   10  C4  UNL     1     -34.020   7.155   6.645  1.00 20.00     0.007 A 
ENDBRANCH   7   8
BRANCH   7  11
HETATM   11  O11 UNL     1     -36.226   5.795   4.069  1.00 20.00    -0.395 OA
HETATM   12  H27 UNL     1     -36.355   4.835   4.071  1.00 20.00     0.210 HD
ENDBRANCH   7  11
ENDBRANCH   6   7
ENDBRANCH   5   6
ENDBRANCH   4   5
ENDBRANCH   2   4
TORSDOF 6
ENDMDL
MODEL 4
REMARK VINA RESULT:      -4.3     11.578     12.799
REMARK  6 active torsions:
REMARK  status: ('A' for Active; 'I' for Inactive)
REMARK    1  A    between atoms: C2_2  and  C7_7 
REMARK    2  A    between atoms: C5_5  and  C10_10 
REMARK    3  A    between atoms: C7_7  and  C8_8 
REMARK    4  A    between atoms: C8_8  and  C9_9 
REMARK    5  A    between atoms: C9_9  and  C10_10 
REMARK    6  A    between atoms: C10_10  and  O11_11 
ROOT
HETATM    1  C1  UNL     1     -33.698  17.645  -1.028  1.00 20.00    -0.111 C 
HETATM    2  C2  UNL     1     -33.685  17.291  -2.175  1.00 20.00    -0.107 C 
HETATM    3  C6  UNL     1     -33.713  18.076   0.370  1.00 20.00     0.112 C 
ENDROOT
BRANCH   2   4
HETATM    4  C7  UNL     1     -33.670  16.856  -3.579  1.00 20.00     0.094 C 
BRANCH   4   5
HETATM    5  C8  UNL     1     -32.990  15.495  -3.727  1.00 20.00     0.014 C 
BRANCH   5   6
HETATM    6  C9  UNL     1     -33.773  14.583  -4.674  1.00 20.00     0.033 C 
BRANCH   6   7
HETATM    7  C10 UNL     1     -34.128  15.250  -6.008  1.00 20.00     0.122 C 
BRANCH   7   8
HETATM    8  C5  UNL     1     -35.544  14.997  -6.435  1.00 20.00     0.014 A 
HETATM    9  C3  UNL     1     -36.687  15.388  -5.540  1.00 20.00     0.007 A 
HETATM   10  C4  UNL     1     -36.436  16.146  -6.814  1.00 20.00     0.007 A 
ENDBRANCH   7   8
BRANCH   7  11
HETATM   11  O11 UNL     1     -33.244  14.716  -6.996  1.00 20.00    -0.395 OA
HETATM   12  H27 UNL     1     -32.378  15.116  -6.832  1.00 20.00     0.210 HD
ENDBRANCH   7  11
ENDBRANCH   6   7
ENDBRANCH   5   6
ENDBRANCH   4   5
ENDBRANCH   2   4
TORSDOF 6
ENDMDL
MODEL 5
REMARK VINA RESULT:      -4.2      1.393      3.839
REMARK  6 active torsions:
REMARK  status: ('A' for Active; 'I' for Inactive)
REMARK    1  A    between atoms: C2_2  and  C7_7 
REMARK    2  A    between atoms: C5_5  and  C10_10 
REMARK    3  A    between atoms: C7_7  and  C8_8 
REMARK    4  A    between atoms: C8_8  and  C9_9 
REMARK    5  A    between atoms: C9_9  and  C10_10 
REMARK    6  A    between atoms: C10_10  and  O11_11 
ROOT
HETATM    1  C1  UNL     1     -33.670   4.925   3.500  1.00 20.00    -0.111 C 
HETATM    2  C2  UNL     1     -34.214   4.965   4.570  1.00 20.00    -0.107 C 
HETATM    3  C6  UNL     1     -33.008   4.875   2.197  1.00 20.00     0.112 C 
ENDROOT
BRANCH   2   4
HETATM    4  C7  UNL     1     -34.882   5.015   5.878  1.00 20.00     0.094 C 
BRANCH   4   5
HETATM    5  C8  UNL     1     -34.623   6.349   6.579  1.00 20.00     0.014 C 
BRANCH   5   6
HETATM    6  C9  UNL     1     -33.366   7.029   6.032  1.00 20.00     0.033 C 
BRANCH   6   7
HETATM    7  C10 UNL     1     -33.664   8.285   5.204  1.00 20.00     0.122 C 
BRANCH   7   8
HETATM    8  C5  UNL     1     -32.480   8.766   4.417  1.00 20.00     0.014 A 
HETATM    9  C3  UNL     1     -31.690   7.804   3.573  1.00 20.00     0.007 A 
HETATM   10  C4  UNL     1     -32.552   8.847   2.917  1.00 20.00     0.007 A 
ENDBRANCH   7   8
BRANCH   7  11
HETATM   11  O11 UNL     1     -34.059   9.310   6.118  1.00 20.00    -0.395 OA
HETATM   12  H27 UNL     1     -33.454  10.052   5.972  1.00 20.00     0.210 HD
ENDBRANCH   7  11
ENDBRANCH   6   7
ENDBRANCH   5   6
ENDBRANCH   4   5
ENDBRANCH   2   4
TORSDOF 6
ENDMDL
MODEL 6
REMARK VINA RESULT:      -4.2      0.992      1.339
REMARK  6 active torsions:
REMARK  status: ('A' for Active; 'I' for Inactive)
REMARK    1  A    between atoms: C2_2  and  C7_7 
REMARK    2  A    between atoms: C5_5  and  C10_10 
REMARK    3  A    between atoms: C7_7  and  C8_8 
REMARK    4  A    between atoms: C8_8  and  C9_9 
REMARK    5  A    between atoms: C9_9  and  C10_10 
REMARK    6  A    between atoms: C10_10  and  O11_11 
ROOT
HETATM    1  C1  UNL     1     -32.581   8.983   2.056  1.00 20.00    -0.111 C 
HETATM    2  C2  UNL     1     -32.562   8.858   3.249  1.00 20.00    -0.107 C 
HETATM    3  C6  UNL     1     -32.603   9.136   0.601  1.00 20.00     0.112 C 
ENDROOT
BRANCH   2   4
HETATM    4  C7  UNL     1     -32.542   8.705   4.711  1.00 20.00     0.094 C 
BRANCH   4   5
HETATM    5  C8  UNL     1     -33.858   8.119   5.222  1.00 20.00     0.014 C 
BRANCH   5   6
HETATM    6  C9  UNL     1     -33.611   7.025   6.263  1.00 20.00     0.033 C 
BRANCH   6   7
HETATM    7  C10 UNL     1     -34.050   5.631   5.797  1.00 20.00     0.122 C 
BRANCH   7   8
HETATM    8  C5  UNL     1     -34.279   5.550   4.317  1.00 20.00     0.014 A 
HETATM    9  C3  UNL     1     -33.112   5.474   3.372  1.00 20.00     0.007 A 
HETATM   10  C4  UNL     1     -33.993   4.272   3.577  1.00 20.00     0.007 A 
ENDBRANCH   7   8
BRANCH   7  11
HETATM   11  O11 UNL     1     -35.272   5.325   6.472  1.00 20.00    -0.395 OA
HETATM   12  H27 UNL     1     -35.973   5.389   5.807  1.00 20.00     0.210 HD
ENDBRANCH   7  11
ENDBRANCH   6   7
ENDBRANCH   5   6
ENDBRANCH   4   5
ENDBRANCH   2   4
TORSDOF 6
ENDMDL
MODEL 7
REMARK VINA RESULT:      -4.2     11.267     12.459
REMARK  6 active torsions:
REMARK  status: ('A' for Active; 'I' for Inactive)
REMARK    1  A    between atoms: C2_2  and  C7_7 
REMARK    2  A    between atoms: C5_5  and  C10_10 
REMARK    3  A    between atoms: C7_7  and  C8_8 
REMARK    4  A    between atoms: C8_8  and  C9_9 
REMARK    5  A    between atoms: C9_9  and  C10_10 
REMARK    6  A    between atoms: C10_10  and  O11_11 
ROOT
HETATM    1  C1  UNL     1     -31.803  18.516  -0.167  1.00 20.00    -0.111 C 
HETATM    2  C2  UNL     1     -32.627  18.060  -0.911  1.00 20.00    -0.107 C 
HETATM    3  C6  UNL     1     -30.798  19.070   0.740  1.00 20.00     0.112 C 
ENDROOT
BRANCH   2   4
HETATM    4  C7  UNL     1     -33.638  17.501  -1.821  1.00 20.00     0.094 C 
BRANCH   4   5
HETATM    5  C8  UNL     1     -32.982  16.743  -2.974  1.00 20.00     0.014 C 
BRANCH   5   6
HETATM    6  C9  UNL     1     -33.804  15.515  -3.370  1.00 20.00     0.033 C 
BRANCH   6   7
HETATM    7  C10 UNL     1     -33.450  14.964  -4.757  1.00 20.00     0.122 C 
BRANCH   7   8
HETATM    8  C5  UNL     1     -34.615  14.953  -5.702  1.00 20.00     0.014 A 
HETATM    9  C3  UNL     1     -35.328  16.233  -6.040  1.00 20.00     0.007 A 
HETATM   10  C4  UNL     1     -34.480  15.549  -7.076  1.00 20.00     0.007 A 
ENDBRANCH   7   8
BRANCH   7  11
HETATM   11  O11 UNL     1     -32.989  13.624  -4.575  1.00 20.00    -0.395 OA
HETATM   12  H27 UNL     1     -33.003  13.211  -5.451  1.00 20.00     0.210 HD
ENDBRANCH   7  11
ENDBRANCH   6   7
ENDBRANCH   5   6
ENDBRANCH   4   5
ENDBRANCH   2   4
TORSDOF 6
ENDMDL
MODEL 8
REMARK VINA RESULT:      -4.2     11.479     13.242
REMARK  6 active torsions:
REMARK  status: ('A' for Active; 'I' for Inactive)
REMARK    1  A    between atoms: C2_2  and  C7_7 
REMARK    2  A    between atoms: C5_5  and  C10_10 
REMARK    3  A    between atoms: C7_7  and  C8_8 
REMARK    4  A    between atoms: C8_8  and  C9_9 
REMARK    5  A    between atoms: C9_9  and  C10_10 
REMARK    6  A    between atoms: C10_10  and  O11_11 
ROOT
HETATM    1  C1  UNL     1     -33.506  16.990  -1.934  1.00 20.00    -0.111 C 
HETATM    2  C2  UNL     1     -33.310  16.265  -2.871  1.00 20.00    -0.107 C 
HETATM    3  C6  UNL     1     -33.745  17.873  -0.793  1.00 20.00     0.112 C 
ENDROOT
BRANCH   2   4
HETATM    4  C7  UNL     1     -33.072  15.378  -4.019  1.00 20.00     0.094 C 
BRANCH   4   5
HETATM    5  C8  UNL     1     -34.216  14.377  -4.188  1.00 20.00     0.014 C 
BRANCH   5   6
HETATM    6  C9  UNL     1     -35.099  14.741  -5.383  1.00 20.00     0.033 C 
BRANCH   6   7
HETATM    7  C10 UNL     1     -34.425  15.701  -6.369  1.00 20.00     0.122 C 
BRANCH   7   8
HETATM    8  C5  UNL     1     -35.155  17.004  -6.516  1.00 20.00     0.014 A 
HETATM    9  C3  UNL     1     -35.796  17.652  -5.320  1.00 20.00     0.007 A 
HETATM   10  C4  UNL     1     -34.573  18.266  -5.942  1.00 20.00     0.007 A 
ENDBRANCH   7   8
BRANCH   7  11
HETATM   11  O11 UNL     1     -34.389  15.047  -7.639  1.00 20.00    -0.395 OA
HETATM   12  H27 UNL     1     -35.109  14.399  -7.633  1.00 20.00     0.210 HD
ENDBRANCH   7  11
ENDBRANCH   6   7
ENDBRANCH   5   6
ENDBRANCH   4   5
ENDBRANCH   2   4
TORSDOF 6
ENDMDL
MODEL 9
REMARK VINA RESULT:      -4.1     11.258     12.343
REMARK  6 active torsions:
REMARK  status: ('A' for Active; 'I' for Inactive)
REMARK    1  A    between atoms: C2_2  and  C7_7 
REMARK    2  A    between atoms: C5_5  and  C10_10 
REMARK    3  A    between atoms: C7_7  and  C8_8 
REMARK    4  A    between atoms: C8_8  and  C9_9 
REMARK    5  A    between atoms: C9_9  and  C10_10 
REMARK    6  A    between atoms: C10_10  and  O11_11 
ROOT
HETATM    1  C1  UNL     1     -31.056  18.514   0.895  1.00 20.00    -0.111 C 
HETATM    2  C2  UNL     1     -31.610  18.589  -0.167  1.00 20.00    -0.107 C 
HETATM    3  C6  UNL     1     -30.381  18.422   2.189  1.00 20.00     0.112 C 
ENDROOT
BRANCH   2   4
HETATM    4  C7  UNL     1     -32.289  18.679  -1.468  1.00 20.00     0.094 C 
BRANCH   4   5
HETATM    5  C8  UNL     1     -33.476  17.717  -1.537  1.00 20.00     0.014 C 
BRANCH   5   6
HETATM    6  C9  UNL     1     -33.215  16.584  -2.531  1.00 20.00     0.033 C 
BRANCH   6   7
HETATM    7  C10 UNL     1     -33.933  16.773  -3.873  1.00 20.00     0.122 C 
BRANCH   7   8
HETATM    8  C5  UNL     1     -33.884  15.553  -4.745  1.00 20.00     0.014 A 
HETATM    9  C3  UNL     1     -34.288  14.213  -4.196  1.00 20.00     0.007 A 
HETATM   10  C4  UNL     1     -35.158  14.904  -5.209  1.00 20.00     0.007 A 
ENDBRANCH   7   8
BRANCH   7  11
HETATM   11  O11 UNL     1     -33.286  17.852  -4.551  1.00 20.00    -0.395 OA
HETATM   12  H27 UNL     1     -32.335  17.689  -4.477  1.00 20.00     0.210 HD
ENDBRANCH   7  11
ENDBRANCH   6   7
ENDBRANCH   5   6
ENDBRANCH   4   5
ENDBRANCH   2   4
TORSDOF 6
ENDMDL
