MODEL 1
REMARK VINA RESULT:      -5.3      0.000      0.000
REMARK  2 active torsions:
REMARK  status: ('A' for Active; 'I' for Inactive)
REMARK    1  A    between atoms: C2_2  and  C9_9 
REMARK    2  A    between atoms: C7_7  and  C9_9 
ROOT
HETATM    1  C3  UNL     1     -32.309   8.854   3.278  1.00 20.00     0.002 C 
HETATM    2  C4  UNL     1     -32.588   8.681   4.764  1.00 20.00     0.005 C 
HETATM    3  C5  UNL     1     -32.065   7.516   2.575  1.00 20.00     0.020 C 
HETATM    4  C6  UNL     1     -34.025   6.713   3.957  1.00 20.00     0.025 C 
HETATM    5  C7  UNL     1     -33.846   7.827   5.009  1.00 20.00    -0.010 C 
HETATM    6  C8  UNL     1     -32.698   6.328   3.307  1.00 20.00     0.082 C 
HETATM    7 CL10 UNL     1     -32.929   4.965   2.176  1.00 20.00    -0.125 Cl
ENDROOT
BRANCH   5   8
HETATM    8  C9  UNL     1     -33.823   7.255   6.427  1.00 20.00     0.031 C 
BRANCH   8   9
HETATM    9  C2  UNL     1     -34.753   6.089   6.555  1.00 20.00    -0.037 C 
HETATM   10  C1  UNL     1     -34.413   4.829   6.262  1.00 20.00     0.007 C 
ENDBRANCH   8   9
ENDBRANCH   5   8
TORSDOF 2
ENDMDL
MODEL 2
REMARK VINA RESULT:      -5.1      1.700      4.100
REMARK  2 active torsions:
REMARK  status: ('A' for Active; 'I' for Inactive)
REMARK    1  A    between atoms: C2_2  and  C9_9 
REMARK    2  A    between atoms: C7_7  and  C9_9 
ROOT
HETATM    1  C3  UNL     1     -32.790   8.375   5.414  1.00 20.00     0.002 C 
HETATM    2  C4  UNL     1     -32.529   8.690   3.947  1.00 20.00     0.005 C 
HETATM    3  C5  UNL     1     -33.912   7.349   5.594  1.00 20.00     0.020 C 
HETATM    4  C6  UNL     1     -32.793   6.152   3.667  1.00 20.00     0.025 C 
HETATM    5  C7  UNL     1     -32.097   7.435   3.166  1.00 20.00    -0.010 C 
HETATM    6  C8  UNL     1     -34.116   6.459   4.363  1.00 20.00     0.082 C 
HETATM    7 CL10 UNL     1     -34.941   4.945   4.832  1.00 20.00    -0.125 Cl
ENDROOT
BRANCH   5   8
HETATM    8  C9  UNL     1     -32.329   7.644   1.669  1.00 20.00     0.031 C 
BRANCH   8   9
HETATM    9  C2  UNL     1     -32.631   9.079   1.365  1.00 20.00    -0.037 C 
HETATM   10  C1  UNL     1     -32.946   9.532   0.147  1.00 20.00     0.007 C 
ENDBRANCH   8   9
ENDBRANCH   5   8
TORSDOF 2
ENDMDL
MODEL 3
REMARK VINA RESULT:      -4.8      1.271      3.841
REMARK  2 active torsions:
REMARK  status: ('A' for Active; 'I' for Inactive)
REMARK    1  A    between atoms: C2_2  and  C9_9 
REMARK    2  A    between atoms: C7_7  and  C9_9 
ROOT
HETATM    1  C3  UNL     1     -33.679   7.429   6.271  1.00 20.00     0.002 C 
HETATM    2  C4  UNL     1     -33.557   8.519   5.215  1.00 20.00     0.005 C 
HETATM    3  C5  UNL     1     -34.231   6.123   5.694  1.00 20.00     0.020 C 
HETATM    4  C6  UNL     1     -32.660   6.597   3.769  1.00 20.00     0.025 C 
HETATM    5  C7  UNL     1     -32.598   8.107   4.083  1.00 20.00    -0.010 C 
HETATM    6  C8  UNL     1     -33.995   5.986   4.186  1.00 20.00     0.082 C 
HETATM    7 CL10 UNL     1     -34.069   4.265   3.709  1.00 20.00    -0.125 Cl
ENDROOT
BRANCH   5   8
HETATM    8  C9  UNL     1     -32.871   8.946   2.834  1.00 20.00     0.031 C 
BRANCH   8   9
HETATM    9  C2  UNL     1     -32.265   8.319   1.618  1.00 20.00    -0.037 C 
HETATM   10  C1  UNL     1     -32.486   8.746   0.370  1.00 20.00     0.007 C 
ENDBRANCH   8   9
ENDBRANCH   5   8
TORSDOF 2
ENDMDL
MODEL 4
REMARK VINA RESULT:      -4.6      2.107      4.372
REMARK  2 active torsions:
REMARK  status: ('A' for Active; 'I' for Inactive)
REMARK    1  A    between atoms: C2_2  and  C9_9 
REMARK    2  A    between atoms: C7_7  and  C9_9 
ROOT
HETATM    1  C3  UNL     1     -34.808   5.056   6.011  1.00 20.00     0.002 C 
HETATM    2  C4  UNL     1     -33.966   4.681   4.799  1.00 20.00     0.005 C 
HETATM    3  C5  UNL     1     -34.378   6.392   6.622  1.00 20.00     0.020 C 
HETATM    4  C6  UNL     1     -34.239   7.166   4.217  1.00 20.00     0.025 C 
HETATM    5  C7  UNL     1     -34.089   5.729   3.677  1.00 20.00    -0.010 C 
HETATM    6  C8  UNL     1     -33.660   7.306   5.623  1.00 20.00     0.082 C 
HETATM    7 CL10 UNL     1     -33.754   9.005   6.170  1.00 20.00    -0.125 Cl
ENDROOT
BRANCH   5   8
HETATM    8  C9  UNL     1     -32.900   5.615   2.722  1.00 20.00     0.031 C 
BRANCH   8   9
HETATM    9  C2  UNL     1     -32.136   6.900   2.653  1.00 20.00    -0.037 C 
HETATM   10  C1  UNL     1     -32.132   7.709   1.589  1.00 20.00     0.007 C 
ENDBRANCH   8   9
ENDBRANCH   5   8
TORSDOF 2
ENDMDL
MODEL 5
REMARK VINA RESULT:      -4.5      2.046      3.885
REMARK  2 active torsions:
REMARK  status: ('A' for Active; 'I' for Inactive)
REMARK    1  A    between atoms: C2_2  and  C9_9 
REMARK    2  A    between atoms: C7_7  and  C9_9 
ROOT
HETATM    1  C3  UNL     1     -34.691   6.605   6.949  1.00 20.00     0.002 C 
HETATM    2  C4  UNL     1     -34.490   5.338   6.129  1.00 20.00     0.005 C 
HETATM    3  C5  UNL     1     -33.664   7.686   6.603  1.00 20.00     0.020 C 
HETATM    4  C6  UNL     1     -34.112   7.000   4.210  1.00 20.00     0.025 C 
HETATM    5  C7  UNL     1     -34.638   5.609   4.620  1.00 20.00    -0.010 C 
HETATM    6  C8  UNL     1     -33.074   7.527   5.197  1.00 20.00     0.082 C 
HETATM    7 CL10 UNL     1     -32.411   9.088   4.632  1.00 20.00    -0.125 Cl
ENDROOT
BRANCH   5   8
HETATM    8  C9  UNL     1     -33.958   4.499   3.819  1.00 20.00     0.031 C 
BRANCH   8   9
HETATM    9  C2  UNL     1     -33.021   5.065   2.798  1.00 20.00    -0.037 C 
HETATM   10  C1  UNL     1     -32.756   4.481   1.625  1.00 20.00     0.007 C 
ENDBRANCH   8   9
ENDBRANCH   5   8
TORSDOF 2
ENDMDL
MODEL 6
REMARK VINA RESULT:      -4.5      9.839     10.926
REMARK  2 active torsions:
REMARK  status: ('A' for Active; 'I' for Inactive)
REMARK    1  A    between atoms: C2_2  and  C9_9 
REMARK    2  A    between atoms: C7_7  and  C9_9 
ROOT
HETATM    1  C3  UNL     1     -43.169  13.613   7.263  1.00 20.00     0.002 C 
HETATM    2  C4  UNL     1     -42.356  12.443   6.726  1.00 20.00     0.005 C 
HETATM    3  C5  UNL     1     -42.429  14.372   8.369  1.00 20.00     0.020 C 
HETATM    4  C6  UNL     1     -40.417  14.120   6.857  1.00 20.00     0.025 C 
HETATM    5  C7  UNL     1     -41.024  12.912   6.113  1.00 20.00    -0.010 C 
HETATM    6  C8  UNL     1     -40.908  14.202   8.300  1.00 20.00     0.082 C 
HETATM    7 CL10 UNL     1     -40.103  15.547   9.158  1.00 20.00    -0.125 Cl
ENDROOT
BRANCH   5   8
HETATM    8  C9  UNL     1     -40.037  11.745   6.050  1.00 20.00     0.031 C 
BRANCH   8   9
HETATM    9  C2  UNL     1     -38.910  12.040   5.110  1.00 20.00    -0.037 C 
HETATM   10  C1  UNL     1     -38.896  11.674   3.825  1.00 20.00     0.007 C 
ENDBRANCH   8   9
ENDBRANCH   5   8
TORSDOF 2
ENDMDL
MODEL 7
REMARK VINA RESULT:      -4.4     11.899     12.865
REMARK  2 active torsions:
REMARK  status: ('A' for Active; 'I' for Inactive)
REMARK    1  A    between atoms: C2_2  and  C9_9 
REMARK    2  A    between atoms: C7_7  and  C9_9 
ROOT
HETATM    1  C3  UNL     1     -34.140  18.973  -3.763  1.00 20.00     0.002 C 
HETATM    2  C4  UNL     1     -33.024  19.263  -2.768  1.00 20.00     0.005 C 
HETATM    3  C5  UNL     1     -34.041  17.563  -4.349  1.00 20.00     0.020 C 
HETATM    4  C6  UNL     1     -33.527  16.876  -1.969  1.00 20.00     0.025 C 
HETATM    5  C7  UNL     1     -33.066  18.294  -1.572  1.00 20.00    -0.010 C 
HETATM    6  C8  UNL     1     -33.273  16.590  -3.447  1.00 20.00     0.082 C 
HETATM    7 CL10 UNL     1     -33.721  14.906  -3.843  1.00 20.00    -0.125 Cl
ENDROOT
BRANCH   5   8
HETATM    8  C9  UNL     1     -31.703  18.261  -0.878  1.00 20.00     0.031 C 
BRANCH   8   9
HETATM    9  C2  UNL     1     -31.823  18.636   0.566  1.00 20.00    -0.037 C 
HETATM   10  C1  UNL     1     -30.898  18.352   1.489  1.00 20.00     0.007 C 
ENDBRANCH   8   9
ENDBRANCH   5   8
TORSDOF 2
ENDMDL
MODEL 8
REMARK VINA RESULT:      -4.3     12.197     13.261
REMARK  2 active torsions:
REMARK  status: ('A' for Active; 'I' for Inactive)
REMARK    1  A    between atoms: C2_2  and  C9_9 
REMARK    2  A    between atoms: C7_7  and  C9_9 
ROOT
HETATM    1  C3  UNL     1     -33.974  14.867  -5.097  1.00 20.00     0.002 C 
HETATM    2  C4  UNL     1     -33.672  15.122  -3.627  1.00 20.00     0.005 C 
HETATM    3  C5  UNL     1     -35.113  15.749  -5.616  1.00 20.00     0.020 C 
HETATM    4  C6  UNL     1     -33.960  17.581  -4.307  1.00 20.00     0.025 C 
HETATM    5  C7  UNL     1     -33.236  16.579  -3.383  1.00 20.00    -0.010 C 
HETATM    6  C8  UNL     1     -35.297  17.034  -4.800  1.00 20.00     0.082 C 
HETATM    7 CL10 UNL     1     -36.151  18.262  -5.778  1.00 20.00    -0.125 Cl
ENDROOT
BRANCH   5   8
HETATM    8  C9  UNL     1     -33.428  16.943  -1.910  1.00 20.00     0.031 C 
BRANCH   8   9
HETATM    9  C2  UNL     1     -32.770  18.248  -1.585  1.00 20.00    -0.037 C 
HETATM   10  C1  UNL     1     -31.768  18.380  -0.711  1.00 20.00     0.007 C 
ENDBRANCH   8   9
ENDBRANCH   5   8
TORSDOF 2
ENDMDL
MODEL 9
REMARK VINA RESULT:      -4.2      1.402      1.982
REMARK  2 active torsions:
REMARK  status: ('A' for Active; 'I' for Inactive)
REMARK    1  A    between atoms: C2_2  and  C9_9 
REMARK    2  A    between atoms: C7_7  and  C9_9 
ROOT
HETATM    1  C3  UNL     1     -32.846   9.030   5.783  1.00 20.00     0.002 C 
HETATM    2  C4  UNL     1     -33.395   7.770   6.439  1.00 20.00     0.005 C 
HETATM    3  C5  UNL     1     -32.133   8.732   4.462  1.00 20.00     0.020 C 
HETATM    4  C6  UNL     1     -34.093   7.189   4.038  1.00 20.00     0.025 C 
HETATM    5  C7  UNL     1     -34.428   7.068   5.539  1.00 20.00    -0.010 C 
HETATM    6  C8  UNL     1     -32.602   7.427   3.808  1.00 20.00     0.082 C 
HETATM    7 CL10 UNL     1     -32.237   7.455   2.058  1.00 20.00    -0.125 Cl
ENDROOT
BRANCH   5   8
HETATM    8  C9  UNL     1     -34.579   5.605   5.958  1.00 20.00     0.031 C 
BRANCH   8   9
HETATM    9  C2  UNL     1     -34.691   4.709   4.764  1.00 20.00    -0.037 C 
HETATM   10  C1  UNL     1     -33.687   3.960   4.298  1.00 20.00     0.007 C 
ENDBRANCH   8   9
ENDBRANCH   5   8
TORSDOF 2
ENDMDL
