MODEL 1
REMARK VINA RESULT:      -5.3      0.000      0.000
REMARK  3 active torsions:
REMARK  status: ('A' for Active; 'I' for Inactive)
REMARK    1  A    between atoms: C6_6  and  C9_9 
REMARK    2  A    between atoms: C7_7  and  O10_10 
REMARK    3  A    between atoms: C8_8  and  C9_9 
ROOT
HETATM    1  C1  UNL     1     -32.485   8.744   0.989  1.00 20.00     0.012 C 
HETATM    2  C2  UNL     1     -32.480   8.689   2.188  1.00 20.00    -0.117 C 
HETATM    3  C8  UNL     1     -32.476   8.627   3.656  1.00 20.00     0.093 C 
ENDROOT
BRANCH   3   4
HETATM    4  C9  UNL     1     -32.889   7.243   4.131  1.00 20.00     0.017 C 
BRANCH   4   5
HETATM    5  C6  UNL     1     -34.225   7.293   4.872  1.00 20.00    -0.011 C 
HETATM    6  C3  UNL     1     -34.075   6.990   6.361  1.00 20.00     0.007 C 
HETATM    7  C4  UNL     1     -34.038   5.468   6.445  1.00 20.00     0.032 C 
HETATM    8  C7  UNL     1     -34.856   4.970   5.251  1.00 20.00     0.118 C 
HETATM    9  C5  UNL     1     -35.191   6.201   4.406  1.00 20.00     0.036 C 
BRANCH   8  10
HETATM   10  O10 UNL     1     -34.078   4.047   4.501  1.00 20.00    -0.396 OA
HETATM   11  H24 UNL     1     -34.700   3.417   4.106  1.00 20.00     0.210 HD
ENDBRANCH   8  10
ENDBRANCH   4   5
ENDBRANCH   3   4
TORSDOF 3
ENDMDL
MODEL 2
REMARK VINA RESULT:      -4.5     11.685     12.586
REMARK  3 active torsions:
REMARK  status: ('A' for Active; 'I' for Inactive)
REMARK    1  A    between atoms: C6_6  and  C9_9 
REMARK    2  A    between atoms: C7_7  and  O10_10 
REMARK    3  A    between atoms: C8_8  and  C9_9 
ROOT
HETATM    1  C1  UNL     1     -31.428  18.493  -0.448  1.00 20.00     0.012 C 
HETATM    2  C2  UNL     1     -32.487  18.176  -0.916  1.00 20.00    -0.117 C 
HETATM    3  C8  UNL     1     -33.784  17.792  -1.490  1.00 20.00     0.093 C 
ENDROOT
BRANCH   3   4
HETATM    4  C9  UNL     1     -33.686  16.432  -2.163  1.00 20.00     0.017 C 
BRANCH   4   5
HETATM    5  C6  UNL     1     -33.124  16.559  -3.578  1.00 20.00    -0.011 C 
HETATM    6  C3  UNL     1     -34.135  17.155  -4.554  1.00 20.00     0.007 C 
HETATM    7  C4  UNL     1     -35.016  15.981  -4.965  1.00 20.00     0.032 C 
HETATM    8  C7  UNL     1     -34.127  14.740  -4.852  1.00 20.00     0.118 C 
HETATM    9  C5  UNL     1     -32.817  15.198  -4.207  1.00 20.00     0.036 C 
BRANCH   8  10
HETATM   10  O10 UNL     1     -34.773  13.772  -4.036  1.00 20.00    -0.396 OA
HETATM   11  H24 UNL     1     -34.237  13.685  -3.232  1.00 20.00     0.210 HD
ENDBRANCH   8  10
ENDBRANCH   4   5
ENDBRANCH   3   4
TORSDOF 3
ENDMDL
MODEL 3
REMARK VINA RESULT:      -4.4      1.722      2.712
REMARK  3 active torsions:
REMARK  status: ('A' for Active; 'I' for Inactive)
REMARK    1  A    between atoms: C6_6  and  C9_9 
REMARK    2  A    between atoms: C7_7  and  O10_10 
REMARK    3  A    between atoms: C8_8  and  C9_9 
ROOT
HETATM    1  C1  UNL     1     -31.971   7.523   2.773  1.00 20.00     0.012 C 
HETATM    2  C2  UNL     1     -32.600   6.501   2.776  1.00 20.00    -0.117 C 
HETATM    3  C8  UNL     1     -33.369   5.249   2.774  1.00 20.00     0.093 C 
ENDROOT
BRANCH   3   4
HETATM    4  C9  UNL     1     -33.337   4.605   4.151  1.00 20.00     0.017 C 
BRANCH   4   5
HETATM    5  C6  UNL     1     -34.659   4.817   4.887  1.00 20.00    -0.011 C 
HETATM    6  C3  UNL     1     -35.440   6.012   4.346  1.00 20.00     0.007 C 
HETATM    7  C4  UNL     1     -34.818   7.223   5.031  1.00 20.00     0.032 C 
HETATM    8  C7  UNL     1     -34.290   6.713   6.373  1.00 20.00     0.118 C 
HETATM    9  C5  UNL     1     -34.453   5.191   6.357  1.00 20.00     0.036 C 
BRANCH   8  10
HETATM   10  O10 UNL     1     -32.919   7.065   6.504  1.00 20.00    -0.396 OA
HETATM   11  H24 UNL     1     -32.633   6.750   7.375  1.00 20.00     0.210 HD
ENDBRANCH   8  10
ENDBRANCH   4   5
ENDBRANCH   3   4
TORSDOF 3
ENDMDL
MODEL 4
REMARK VINA RESULT:      -4.3     12.317     13.523
REMARK  3 active torsions:
REMARK  status: ('A' for Active; 'I' for Inactive)
REMARK    1  A    between atoms: C6_6  and  C9_9 
REMARK    2  A    between atoms: C7_7  and  O10_10 
REMARK    3  A    between atoms: C8_8  and  C9_9 
ROOT
HETATM    1  C1  UNL     1     -33.676  17.348  -1.559  1.00 20.00     0.012 C 
HETATM    2  C2  UNL     1     -33.376  16.649  -2.488  1.00 20.00    -0.117 C 
HETATM    3  C8  UNL     1     -33.004  15.793  -3.623  1.00 20.00     0.093 C 
ENDROOT
BRANCH   3   4
HETATM    4  C9  UNL     1     -34.230  15.088  -4.180  1.00 20.00     0.017 C 
BRANCH   4   5
HETATM    5  C6  UNL     1     -35.108  16.056  -4.973  1.00 20.00    -0.011 C 
HETATM    6  C3  UNL     1     -36.259  15.350  -5.683  1.00 20.00     0.007 C 
HETATM    7  C4  UNL     1     -35.643  14.797  -6.963  1.00 20.00     0.032 C 
HETATM    8  C7  UNL     1     -34.493  15.745  -7.310  1.00 20.00     0.118 C 
HETATM    9  C5  UNL     1     -34.353  16.712  -6.132  1.00 20.00     0.036 C 
BRANCH   8  10
HETATM   10  O10 UNL     1     -33.299  14.991  -7.481  1.00 20.00    -0.396 OA
HETATM   11  H24 UNL     1     -33.268  14.730  -8.414  1.00 20.00     0.210 HD
ENDBRANCH   8  10
ENDBRANCH   4   5
ENDBRANCH   3   4
TORSDOF 3
ENDMDL
MODEL 5
REMARK VINA RESULT:      -4.2     11.693     12.496
REMARK  3 active torsions:
REMARK  status: ('A' for Active; 'I' for Inactive)
REMARK    1  A    between atoms: C6_6  and  C9_9 
REMARK    2  A    between atoms: C7_7  and  O10_10 
REMARK    3  A    between atoms: C8_8  and  C9_9 
ROOT
HETATM    1  C1  UNL     1     -34.273  14.360  -4.208  1.00 20.00     0.012 C 
HETATM    2  C2  UNL     1     -33.673  15.313  -3.792  1.00 20.00    -0.117 C 
HETATM    3  C8  UNL     1     -32.937  16.481  -3.288  1.00 20.00     0.093 C 
ENDROOT
BRANCH   3   4
HETATM    4  C9  UNL     1     -33.514  16.938  -1.958  1.00 20.00     0.017 C 
BRANCH   4   5
HETATM    5  C6  UNL     1     -33.245  18.424  -1.724  1.00 20.00    -0.011 C 
HETATM    6  C3  UNL     1     -31.931  18.669  -0.988  1.00 20.00     0.007 C 
HETATM    7  C4  UNL     1     -32.267  18.457   0.484  1.00 20.00     0.032 C 
HETATM    8  C7  UNL     1     -33.745  18.825   0.627  1.00 20.00     0.118 C 
HETATM    9  C5  UNL     1     -34.276  19.063  -0.789  1.00 20.00     0.036 C 
BRANCH   8  10
HETATM   10  O10 UNL     1     -34.439  17.749   1.244  1.00 20.00    -0.396 OA
HETATM   11  H24 UNL     1     -35.366  18.024   1.319  1.00 20.00     0.210 HD
ENDBRANCH   8  10
ENDBRANCH   4   5
ENDBRANCH   3   4
TORSDOF 3
ENDMDL
MODEL 6
REMARK VINA RESULT:      -4.1      1.347      4.180
REMARK  3 active torsions:
REMARK  status: ('A' for Active; 'I' for Inactive)
REMARK    1  A    between atoms: C6_6  and  C9_9 
REMARK    2  A    between atoms: C7_7  and  O10_10 
REMARK    3  A    between atoms: C8_8  and  C9_9 
ROOT
HETATM    1  C1  UNL     1     -34.795   5.028   5.740  1.00 20.00     0.012 C 
HETATM    2  C2  UNL     1     -34.289   6.105   5.900  1.00 20.00    -0.117 C 
HETATM    3  C8  UNL     1     -33.665   7.420   6.098  1.00 20.00     0.093 C 
ENDROOT
BRANCH   3   4
HETATM    4  C9  UNL     1     -33.896   8.306   4.884  1.00 20.00     0.017 C 
BRANCH   4   5
HETATM    5  C6  UNL     1     -32.571   8.783   4.292  1.00 20.00    -0.011 C 
HETATM    6  C3  UNL     1     -32.743   9.407   2.910  1.00 20.00     0.007 C 
HETATM    7  C4  UNL     1     -32.790   8.221   1.953  1.00 20.00     0.032 C 
HETATM    8  C7  UNL     1     -31.960   7.121   2.618  1.00 20.00     0.118 C 
HETATM    9  C5  UNL     1     -31.606   7.627   4.018  1.00 20.00     0.036 C 
BRANCH   8  10
HETATM   10  O10 UNL     1     -32.734   5.932   2.698  1.00 20.00    -0.396 OA
HETATM   11  H24 UNL     1     -33.235   5.871   1.870  1.00 20.00     0.210 HD
ENDBRANCH   8  10
ENDBRANCH   4   5
ENDBRANCH   3   4
TORSDOF 3
ENDMDL
MODEL 7
REMARK VINA RESULT:      -4.1     12.237     13.535
REMARK  3 active torsions:
REMARK  status: ('A' for Active; 'I' for Inactive)
REMARK    1  A    between atoms: C6_6  and  C9_9 
REMARK    2  A    between atoms: C7_7  and  O10_10 
REMARK    3  A    between atoms: C8_8  and  C9_9 
ROOT
HETATM    1  C1  UNL     1     -33.715  17.387  -1.398  1.00 20.00     0.012 C 
HETATM    2  C2  UNL     1     -33.377  16.734  -2.347  1.00 20.00    -0.117 C 
HETATM    3  C8  UNL     1     -32.958  15.935  -3.506  1.00 20.00     0.093 C 
ENDROOT
BRANCH   3   4
HETATM    4  C9  UNL     1     -34.168  15.512  -4.325  1.00 20.00     0.017 C 
BRANCH   4   5
HETATM    5  C6  UNL     1     -34.553  16.594  -5.333  1.00 20.00    -0.011 C 
HETATM    6  C3  UNL     1     -35.986  17.083  -5.143  1.00 20.00     0.007 C 
HETATM    7  C4  UNL     1     -36.846  16.049  -5.861  1.00 20.00     0.032 C 
HETATM    8  C7  UNL     1     -35.967  15.487  -6.980  1.00 20.00     0.118 C 
HETATM    9  C5  UNL     1     -34.567  16.070  -6.772  1.00 20.00     0.036 C 
BRANCH   8  10
HETATM   10  O10 UNL     1     -35.936  14.069  -6.885  1.00 20.00    -0.396 OA
HETATM   11  H24 UNL     1     -35.771  13.857  -5.953  1.00 20.00     0.210 HD
ENDBRANCH   8  10
ENDBRANCH   4   5
ENDBRANCH   3   4
TORSDOF 3
ENDMDL
MODEL 8
REMARK VINA RESULT:      -4.1     12.111     13.280
REMARK  3 active torsions:
REMARK  status: ('A' for Active; 'I' for Inactive)
REMARK    1  A    between atoms: C6_6  and  C9_9 
REMARK    2  A    between atoms: C7_7  and  O10_10 
REMARK    3  A    between atoms: C8_8  and  C9_9 
ROOT
HETATM    1  C1  UNL     1     -33.639  17.153  -1.705  1.00 20.00     0.012 C 
HETATM    2  C2  UNL     1     -33.317  16.471  -2.639  1.00 20.00    -0.117 C 
HETATM    3  C8  UNL     1     -32.918  15.635  -3.779  1.00 20.00     0.093 C 
ENDROOT
BRANCH   3   4
HETATM    4  C9  UNL     1     -34.127  14.926  -4.367  1.00 20.00     0.017 C 
BRANCH   4   5
HETATM    5  C6  UNL     1     -34.405  15.404  -5.792  1.00 20.00    -0.011 C 
HETATM    6  C3  UNL     1     -34.717  16.897  -5.855  1.00 20.00     0.007 C 
HETATM    7  C4  UNL     1     -36.193  16.999  -5.489  1.00 20.00     0.032 C 
HETATM    8  C7  UNL     1     -36.822  15.678  -5.938  1.00 20.00     0.118 C 
HETATM    9  C5  UNL     1     -35.669  14.774  -6.381  1.00 20.00     0.036 C 
BRANCH   8  10
HETATM   10  O10 UNL     1     -37.520  15.096  -4.845  1.00 20.00    -0.396 OA
HETATM   11  H24 UNL     1     -37.726  14.184  -5.102  1.00 20.00     0.210 HD
ENDBRANCH   8  10
ENDBRANCH   4   5
ENDBRANCH   3   4
TORSDOF 3
ENDMDL
MODEL 9
REMARK VINA RESULT:      -4.1     11.858     12.821
REMARK  3 active torsions:
REMARK  status: ('A' for Active; 'I' for Inactive)
REMARK    1  A    between atoms: C6_6  and  C9_9 
REMARK    2  A    between atoms: C7_7  and  O10_10 
REMARK    3  A    between atoms: C8_8  and  C9_9 
ROOT
HETATM    1  C1  UNL     1     -33.874  17.738  -0.905  1.00 20.00     0.012 C 
HETATM    2  C2  UNL     1     -33.466  17.140  -1.863  1.00 20.00    -0.117 C 
HETATM    3  C8  UNL     1     -32.963  16.405  -3.032  1.00 20.00     0.093 C 
ENDROOT
BRANCH   3   4
HETATM    4  C9  UNL     1     -34.064  16.237  -4.067  1.00 20.00     0.017 C 
BRANCH   4   5
HETATM    5  C6  UNL     1     -33.917  14.913  -4.815  1.00 20.00    -0.011 C 
HETATM    6  C3  UNL     1     -33.980  15.090  -6.330  1.00 20.00     0.007 C 
HETATM    7  C4  UNL     1     -35.470  15.152  -6.650  1.00 20.00     0.032 C 
HETATM    8  C7  UNL     1     -36.160  14.324  -5.564  1.00 20.00     0.118 C 
HETATM    9  C5  UNL     1     -35.081  13.957  -4.542  1.00 20.00     0.036 C 
BRANCH   8  10
HETATM   10  O10 UNL     1     -37.179  15.106  -4.954  1.00 20.00    -0.396 OA
HETATM   11  H24 UNL     1     -36.890  15.277  -4.044  1.00 20.00     0.210 HD
ENDBRANCH   8  10
ENDBRANCH   4   5
ENDBRANCH   3   4
TORSDOF 3
ENDMDL
