MODEL 1
REMARK VINA RESULT:      -4.2      0.000      0.000
REMARK  4 active torsions:
REMARK  status: ('A' for Active; 'I' for Inactive)
REMARK    1  A    between atoms: C5_5  and  C8_8 
REMARK    2  A    between atoms: C6_6  and  C9_9 
REMARK    3  A    between atoms: C9_9  and  C10_10 
REMARK    4  A    between atoms: C10_10  and  C11_11 
ROOT
HETATM    1  C1  UNL     1     -32.923  18.923  -3.969  1.00 20.00     0.001 C 
HETATM    2  C2  UNL     1     -32.743  19.263  -2.492  1.00 20.00     0.005 C 
HETATM    3  C3  UNL     1     -34.073  17.941  -4.185  1.00 20.00     0.005 C 
HETATM    4  C4  UNL     1     -33.726  17.023  -1.855  1.00 20.00     0.009 C 
HETATM    5  C5  UNL     1     -32.566  18.005  -1.633  1.00 20.00    -0.014 C 
HETATM    6  C6  UNL     1     -33.947  16.670  -3.334  1.00 20.00    -0.014 C 
ENDROOT
BRANCH   6   7
HETATM    7  C9  UNL     1     -32.852  15.739  -3.864  1.00 20.00     0.005 C 
BRANCH   7   8
HETATM    8  C10 UNL     1     -33.450  14.455  -4.428  1.00 20.00     0.015 C 
BRANCH   8   9
HETATM    9  C11 UNL     1     -34.601  14.768  -5.375  1.00 20.00     0.114 C 
HETATM   10 CL12 UNL     1     -36.100  13.997  -4.806  1.00 20.00    -0.130 Cl
ENDBRANCH   8   9
ENDBRANCH   7   8
ENDBRANCH   6   7
BRANCH   5  11
HETATM   11  C8  UNL     1     -32.453  18.377  -0.155  1.00 20.00     0.000 C 
HETATM   12  C7  UNL     1     -31.028  18.506   0.272  1.00 20.00     0.005 C 
ENDBRANCH   5  11
TORSDOF 4
ENDMDL
MODEL 2
REMARK VINA RESULT:      -4.1      2.772      5.136
REMARK  4 active torsions:
REMARK  status: ('A' for Active; 'I' for Inactive)
REMARK    1  A    between atoms: C5_5  and  C8_8 
REMARK    2  A    between atoms: C6_6  and  C9_9 
REMARK    3  A    between atoms: C9_9  and  C10_10 
REMARK    4  A    between atoms: C10_10  and  C11_11 
ROOT
HETATM    1  C1  UNL     1     -34.744  18.507  -4.065  1.00 20.00     0.001 C 
HETATM    2  C2  UNL     1     -34.709  17.211  -4.870  1.00 20.00     0.005 C 
HETATM    3  C3  UNL     1     -33.409  18.779  -3.376  1.00 20.00     0.005 C 
HETATM    4  C4  UNL     1     -32.931  16.296  -3.323  1.00 20.00     0.009 C 
HETATM    5  C5  UNL     1     -34.276  16.016  -4.012  1.00 20.00    -0.014 C 
HETATM    6  C6  UNL     1     -32.925  17.603  -2.515  1.00 20.00    -0.014 C 
ENDROOT
BRANCH   6   7
HETATM    7  C9  UNL     1     -33.738  17.476  -1.224  1.00 20.00     0.005 C 
BRANCH   7   8
HETATM    8  C10 UNL     1     -33.145  18.338  -0.115  1.00 20.00     0.015 C 
BRANCH   8   9
HETATM    9  C11 UNL     1     -31.636  18.460  -0.276  1.00 20.00     0.114 C 
HETATM   10 CL12 UNL     1     -30.825  18.265   1.296  1.00 20.00    -0.130 Cl
ENDBRANCH   8   9
ENDBRANCH   7   8
ENDBRANCH   6   7
BRANCH   5  11
HETATM   11  C8  UNL     1     -34.190  14.749  -4.862  1.00 20.00     0.000 C 
HETATM   12  C7  UNL     1     -34.075  15.069  -6.316  1.00 20.00     0.005 C 
ENDBRANCH   5  11
TORSDOF 4
ENDMDL
MODEL 3
REMARK VINA RESULT:      -4.0     10.829     12.019
REMARK  4 active torsions:
REMARK  status: ('A' for Active; 'I' for Inactive)
REMARK    1  A    between atoms: C5_5  and  C8_8 
REMARK    2  A    between atoms: C6_6  and  C9_9 
REMARK    3  A    between atoms: C9_9  and  C10_10 
REMARK    4  A    between atoms: C10_10  and  C11_11 
ROOT
HETATM    1  C1  UNL     1     -33.139   5.951   2.761  1.00 20.00     0.001 C 
HETATM    2  C2  UNL     1     -33.636   5.654   4.173  1.00 20.00     0.005 C 
HETATM    3  C3  UNL     1     -32.003   6.973   2.767  1.00 20.00     0.005 C 
HETATM    4  C4  UNL     1     -32.898   7.955   4.918  1.00 20.00     0.009 C 
HETATM    5  C5  UNL     1     -34.045   6.932   4.916  1.00 20.00    -0.014 C 
HETATM    6  C6  UNL     1     -32.361   8.266   3.512  1.00 20.00    -0.014 C 
ENDROOT
BRANCH   6   7
HETATM    7  C9  UNL     1     -33.338   9.130   2.711  1.00 20.00     0.005 C 
BRANCH   7   8
HETATM    8  C10 UNL     1     -32.614   9.904   1.615  1.00 20.00     0.015 C 
BRANCH   8   9
HETATM    9  C11 UNL     1     -32.913   9.307   0.246  1.00 20.00     0.114 C 
HETATM   10 CL12 UNL     1     -31.627   8.174  -0.232  1.00 20.00    -0.130 Cl
ENDBRANCH   8   9
ENDBRANCH   7   8
ENDBRANCH   6   7
BRANCH   5  11
HETATM   11  C8  UNL     1     -34.477   6.607   6.346  1.00 20.00     0.000 C 
HETATM   12  C7  UNL     1     -34.550   5.133   6.576  1.00 20.00     0.005 C 
ENDBRANCH   5  11
TORSDOF 4
ENDMDL
MODEL 4
REMARK VINA RESULT:      -3.9     11.876     12.926
REMARK  4 active torsions:
REMARK  status: ('A' for Active; 'I' for Inactive)
REMARK    1  A    between atoms: C5_5  and  C8_8 
REMARK    2  A    between atoms: C6_6  and  C9_9 
REMARK    3  A    between atoms: C9_9  and  C10_10 
REMARK    4  A    between atoms: C10_10  and  C11_11 
ROOT
HETATM    1  C1  UNL     1     -41.925  16.291   6.280  1.00 20.00     0.001 C 
HETATM    2  C2  UNL     1     -41.345  16.404   7.687  1.00 20.00     0.005 C 
HETATM    3  C3  UNL     1     -42.809  15.054   6.132  1.00 20.00     0.005 C 
HETATM    4  C4  UNL     1     -41.488  13.893   7.949  1.00 20.00     0.009 C 
HETATM    5  C5  UNL     1     -40.592  15.132   8.099  1.00 20.00    -0.014 C 
HETATM    6  C6  UNL     1     -42.103  13.756   6.547  1.00 20.00    -0.014 C 
ENDROOT
BRANCH   6   7
HETATM    7  C9  UNL     1     -41.062  13.322   5.511  1.00 20.00     0.005 C 
BRANCH   7   8
HETATM    8  C10 UNL     1     -40.310  12.080   5.977  1.00 20.00     0.015 C 
BRANCH   8   9
HETATM    9  C11 UNL     1     -38.888  12.077   5.431  1.00 20.00     0.114 C 
HETATM   10 CL12 UNL     1     -38.884  11.629   3.709  1.00 20.00    -0.130 Cl
ENDBRANCH   8   9
ENDBRANCH   7   8
ENDBRANCH   6   7
BRANCH   5  11
HETATM   11  C8  UNL     1     -40.080  15.254   9.534  1.00 20.00     0.000 C 
HETATM   12  C7  UNL     1     -40.797  14.321  10.454  1.00 20.00     0.005 C 
ENDBRANCH   5  11
TORSDOF 4
ENDMDL
MODEL 5
REMARK VINA RESULT:      -3.8     12.782     14.169
REMARK  4 active torsions:
REMARK  status: ('A' for Active; 'I' for Inactive)
REMARK    1  A    between atoms: C5_5  and  C8_8 
REMARK    2  A    between atoms: C6_6  and  C9_9 
REMARK    3  A    between atoms: C9_9  and  C10_10 
REMARK    4  A    between atoms: C10_10  and  C11_11 
ROOT
HETATM    1  C1  UNL     1     -42.359  14.251   5.247  1.00 20.00     0.001 C 
HETATM    2  C2  UNL     1     -41.167  13.343   4.958  1.00 20.00     0.005 C 
HETATM    3  C3  UNL     1     -42.048  15.251   6.359  1.00 20.00     0.005 C 
HETATM    4  C4  UNL     1     -40.361  13.640   7.335  1.00 20.00     0.009 C 
HETATM    5  C5  UNL     1     -40.672  12.629   6.222  1.00 20.00    -0.014 C 
HETATM    6  C6  UNL     1     -41.535  14.584   7.642  1.00 20.00    -0.014 C 
ENDROOT
BRANCH   6   7
HETATM    7  C9  UNL     1     -42.657  13.864   8.395  1.00 20.00     0.005 C 
BRANCH   7   8
HETATM    8  C10 UNL     1     -42.843  14.448   9.792  1.00 20.00     0.015 C 
BRANCH   8   9
HETATM    9  C11 UNL     1     -42.064  13.639  10.821  1.00 20.00     0.114 C 
HETATM   10 CL12 UNL     1     -40.482  14.391  11.134  1.00 20.00    -0.130 Cl
ENDBRANCH   8   9
ENDBRANCH   7   8
ENDBRANCH   6   7
BRANCH   5  11
HETATM   11  C8  UNL     1     -39.441  11.778   5.910  1.00 20.00     0.000 C 
HETATM   12  C7  UNL     1     -39.140  11.763   4.447  1.00 20.00     0.005 C 
ENDBRANCH   5  11
TORSDOF 4
ENDMDL
MODEL 6
REMARK VINA RESULT:      -3.8      2.392      3.889
REMARK  4 active torsions:
REMARK  status: ('A' for Active; 'I' for Inactive)
REMARK    1  A    between atoms: C5_5  and  C8_8 
REMARK    2  A    between atoms: C6_6  and  C9_9 
REMARK    3  A    between atoms: C9_9  and  C10_10 
REMARK    4  A    between atoms: C10_10  and  C11_11 
ROOT
HETATM    1  C1  UNL     1     -34.078  14.637  -4.907  1.00 20.00     0.001 C 
HETATM    2  C2  UNL     1     -33.251  15.315  -3.819  1.00 20.00     0.005 C 
HETATM    3  C3  UNL     1     -34.293  15.557  -6.108  1.00 20.00     0.005 C 
HETATM    4  C4  UNL     1     -34.072  17.575  -4.600  1.00 20.00     0.009 C 
HETATM    5  C5  UNL     1     -33.860  16.654  -3.388  1.00 20.00    -0.014 C 
HETATM    6  C6  UNL     1     -34.889  16.918  -5.724  1.00 20.00    -0.014 C 
ENDROOT
BRANCH   6   7
HETATM    7  C9  UNL     1     -36.371  16.803  -5.355  1.00 20.00     0.005 C 
BRANCH   7   8
HETATM    8  C10 UNL     1     -36.996  18.181  -5.163  1.00 20.00     0.015 C 
BRANCH   8   9
HETATM    9  C11 UNL     1     -37.790  18.235  -3.864  1.00 20.00     0.114 C 
HETATM   10 CL12 UNL     1     -36.786  18.888  -2.549  1.00 20.00    -0.130 Cl
ENDBRANCH   8   9
ENDBRANCH   7   8
ENDBRANCH   6   7
BRANCH   5  11
HETATM   11  C8  UNL     1     -32.974  17.336  -2.345  1.00 20.00     0.000 C 
HETATM   12  C7  UNL     1     -33.699  17.538  -1.056  1.00 20.00     0.005 C 
ENDBRANCH   5  11
TORSDOF 4
ENDMDL
MODEL 7
REMARK VINA RESULT:      -3.7     12.231     13.326
REMARK  4 active torsions:
REMARK  status: ('A' for Active; 'I' for Inactive)
REMARK    1  A    between atoms: C5_5  and  C8_8 
REMARK    2  A    between atoms: C6_6  and  C9_9 
REMARK    3  A    between atoms: C9_9  and  C10_10 
REMARK    4  A    between atoms: C10_10  and  C11_11 
ROOT
HETATM    1  C1  UNL     1     -40.757  16.620   7.409  1.00 20.00     0.001 C 
HETATM    2  C2  UNL     1     -40.632  16.191   8.868  1.00 20.00     0.005 C 
HETATM    3  C3  UNL     1     -41.955  15.960   6.728  1.00 20.00     0.005 C 
HETATM    4  C4  UNL     1     -41.787  14.008   8.328  1.00 20.00     0.009 C 
HETATM    5  C5  UNL     1     -40.579  14.666   9.013  1.00 20.00    -0.014 C 
HETATM    6  C6  UNL     1     -41.953  14.431   6.859  1.00 20.00    -0.014 C 
ENDROOT
BRANCH   6   7
HETATM    7  C9  UNL     1     -40.894  13.786   5.960  1.00 20.00     0.005 C 
BRANCH   7   8
HETATM    8  C10 UNL     1     -40.871  12.272   6.139  1.00 20.00     0.015 C 
BRANCH   8   9
HETATM    9  C11 UNL     1     -39.463  11.728   5.933  1.00 20.00     0.114 C 
HETATM   10 CL12 UNL     1     -39.058  11.693   4.201  1.00 20.00    -0.130 Cl
ENDBRANCH   8   9
ENDBRANCH   7   8
ENDBRANCH   6   7
BRANCH   5  11
HETATM   11  C8  UNL     1     -40.519  14.269  10.488  1.00 20.00     0.000 C 
HETATM   12  C7  UNL     1     -40.475  15.467  11.379  1.00 20.00     0.005 C 
ENDBRANCH   5  11
TORSDOF 4
ENDMDL
MODEL 8
REMARK VINA RESULT:      -3.6     12.719     14.300
REMARK  4 active torsions:
REMARK  status: ('A' for Active; 'I' for Inactive)
REMARK    1  A    between atoms: C5_5  and  C8_8 
REMARK    2  A    between atoms: C6_6  and  C9_9 
REMARK    3  A    between atoms: C9_9  and  C10_10 
REMARK    4  A    between atoms: C10_10  and  C11_11 
ROOT
HETATM    1  C1  UNL     1     -42.860  13.458   7.680  1.00 20.00     0.001 C 
HETATM    2  C2  UNL     1     -42.199  12.456   6.737  1.00 20.00     0.005 C 
HETATM    3  C3  UNL     1     -42.490  14.896   7.325  1.00 20.00     0.005 C 
HETATM    4  C4  UNL     1     -40.313  14.088   6.324  1.00 20.00     0.009 C 
HETATM    5  C5  UNL     1     -40.678  12.639   6.684  1.00 20.00    -0.014 C 
HETATM    6  C6  UNL     1     -40.974  15.125   7.245  1.00 20.00    -0.014 C 
ENDROOT
BRANCH   6   7
HETATM    7  C9  UNL     1     -40.330  15.143   8.634  1.00 20.00     0.005 C 
BRANCH   7   8
HETATM    8  C10 UNL     1     -40.936  16.238   9.506  1.00 20.00     0.015 C 
BRANCH   8   9
HETATM    9  C11 UNL     1     -41.331  15.684  10.868  1.00 20.00     0.114 C 
HETATM   10 CL12 UNL     1     -41.127  13.917  10.903  1.00 20.00    -0.130 Cl
ENDBRANCH   8   9
ENDBRANCH   7   8
ENDBRANCH   6   7
BRANCH   5  11
HETATM   11  C8  UNL     1     -40.055  11.665   5.683  1.00 20.00     0.000 C 
HETATM   12  C7  UNL     1     -38.676  12.085   5.293  1.00 20.00     0.005 C 
ENDBRANCH   5  11
TORSDOF 4
ENDMDL
MODEL 9
REMARK VINA RESULT:      -3.6      1.541      2.485
REMARK  4 active torsions:
REMARK  status: ('A' for Active; 'I' for Inactive)
REMARK    1  A    between atoms: C5_5  and  C8_8 
REMARK    2  A    between atoms: C6_6  and  C9_9 
REMARK    3  A    between atoms: C9_9  and  C10_10 
REMARK    4  A    between atoms: C10_10  and  C11_11 
ROOT
HETATM    1  C1  UNL     1     -33.534  16.379  -2.977  1.00 20.00     0.001 C 
HETATM    2  C2  UNL     1     -33.391  17.127  -1.655  1.00 20.00     0.005 C 
HETATM    3  C3  UNL     1     -33.487  17.329  -4.171  1.00 20.00     0.005 C 
HETATM    4  C4  UNL     1     -34.380  19.197  -2.719  1.00 20.00     0.009 C 
HETATM    5  C5  UNL     1     -34.433  18.244  -1.515  1.00 20.00    -0.014 C 
HETATM    6  C6  UNL     1     -34.504  18.474  -4.069  1.00 20.00    -0.014 C 
ENDROOT
BRANCH   6   7
HETATM    7  C9  UNL     1     -35.934  17.986  -4.321  1.00 20.00     0.005 C 
BRANCH   7   8
HETATM    8  C10 UNL     1     -36.046  17.290  -5.673  1.00 20.00     0.015 C 
BRANCH   8   9
HETATM    9  C11 UNL     1     -36.857  16.007  -5.553  1.00 20.00     0.114 C 
HETATM   10 CL12 UNL     1     -35.777  14.603  -5.381  1.00 20.00    -0.130 Cl
ENDBRANCH   8   9
ENDBRANCH   7   8
ENDBRANCH   6   7
BRANCH   5  11
HETATM   11  C8  UNL     1     -34.222  19.014  -0.211  1.00 20.00     0.000 C 
HETATM   12  C7  UNL     1     -33.057  18.484   0.558  1.00 20.00     0.005 C 
ENDBRANCH   5  11
TORSDOF 4
ENDMDL
