MODEL 1
REMARK VINA RESULT:      -5.3      0.000      0.000
REMARK  1 active torsions:
REMARK  status: ('A' for Active; 'I' for Inactive)
REMARK    1  A    between atoms: C6_6  and  C7_7 
ROOT
HETATM    1  C1  UNL     1     -34.661   5.619   6.305  1.00 20.00     0.002 C 
HETATM    2  C2  UNL     1     -35.114   5.715   4.845  1.00 20.00     0.006 C 
HETATM    3  C5  UNL     1     -33.765   6.831   6.565  1.00 20.00     0.020 C 
HETATM    4  C7  UNL     1     -34.169   6.727   4.184  1.00 20.00     0.008 C 
HETATM    5  C8  UNL     1     -33.940   7.715   5.334  1.00 20.00     0.086 C 
HETATM    6 CL9  UNL     1     -32.591   8.838   5.109  1.00 20.00    -0.125 Cl
ENDROOT
BRANCH   4   7
HETATM    7  C6  UNL     1     -32.927   6.050   3.659  1.00 20.00    -0.009 A 
HETATM    8  C3  UNL     1     -32.997   5.189   2.429  1.00 20.00     0.005 A 
HETATM    9  C4  UNL     1     -32.295   6.517   2.378  1.00 20.00     0.005 A 
ENDBRANCH   4   7
TORSDOF 1
ENDMDL
MODEL 2
REMARK VINA RESULT:      -5.0      1.856      3.475
REMARK  1 active torsions:
REMARK  status: ('A' for Active; 'I' for Inactive)
REMARK    1  A    between atoms: C6_6  and  C7_7 
ROOT
HETATM    1  C1  UNL     1     -32.211   8.855   4.804  1.00 20.00     0.002 C 
HETATM    2  C2  UNL     1     -33.708   8.630   5.035  1.00 20.00     0.006 C 
HETATM    3  C5  UNL     1     -31.757   7.787   3.808  1.00 20.00     0.020 C 
HETATM    4  C7  UNL     1     -34.001   7.221   4.504  1.00 20.00     0.008 C 
HETATM    5  C8  UNL     1     -33.048   7.152   3.304  1.00 20.00     0.086 C 
HETATM    6 CL9  UNL     1     -32.793   5.533   2.635  1.00 20.00    -0.125 Cl
ENDROOT
BRANCH   4   7
HETATM    7  C6  UNL     1     -33.773   6.179   5.570  1.00 20.00    -0.009 A 
HETATM    8  C3  UNL     1     -34.796   5.964   6.651  1.00 20.00     0.005 A 
HETATM    9  C4  UNL     1     -34.596   4.920   5.587  1.00 20.00     0.005 A 
ENDBRANCH   4   7
TORSDOF 1
ENDMDL
MODEL 3
REMARK VINA RESULT:      -4.3      1.915      2.802
REMARK  1 active torsions:
REMARK  status: ('A' for Active; 'I' for Inactive)
REMARK    1  A    between atoms: C6_6  and  C7_7 
ROOT
HETATM    1  C1  UNL     1     -35.173   5.896   6.087  1.00 20.00     0.002 C 
HETATM    2  C2  UNL     1     -33.812   6.496   6.452  1.00 20.00     0.006 C 
HETATM    3  C5  UNL     1     -35.039   5.341   4.668  1.00 20.00     0.020 C 
HETATM    4  C7  UNL     1     -33.056   6.644   5.125  1.00 20.00     0.008 C 
HETATM    5  C8  UNL     1     -33.547   5.407   4.364  1.00 20.00     0.086 C 
HETATM    6 CL9  UNL     1     -33.207   5.404   2.627  1.00 20.00    -0.125 Cl
ENDROOT
BRANCH   4   7
HETATM    7  C6  UNL     1     -33.361   7.967   4.469  1.00 20.00    -0.009 A 
HETATM    8  C3  UNL     1     -32.502   9.169   4.752  1.00 20.00     0.005 A 
HETATM    9  C4  UNL     1     -32.452   8.510   3.401  1.00 20.00     0.005 A 
ENDBRANCH   4   7
TORSDOF 1
ENDMDL
MODEL 4
REMARK VINA RESULT:      -4.2      1.616      2.054
REMARK  1 active torsions:
REMARK  status: ('A' for Active; 'I' for Inactive)
REMARK    1  A    between atoms: C6_6  and  C7_7 
ROOT
HETATM    1  C1  UNL     1     -34.029   4.344   4.738  1.00 20.00     0.002 C 
HETATM    2  C2  UNL     1     -34.344   5.423   3.696  1.00 20.00     0.006 C 
HETATM    3  C5  UNL     1     -34.083   5.029   6.104  1.00 20.00     0.020 C 
HETATM    4  C7  UNL     1     -34.174   6.762   4.423  1.00 20.00     0.008 C 
HETATM    5  C8  UNL     1     -34.678   6.405   5.827  1.00 20.00     0.086 C 
HETATM    6 CL9  UNL     1     -34.288   7.580   7.091  1.00 20.00    -0.125 Cl
ENDROOT
BRANCH   4   7
HETATM    7  C6  UNL     1     -32.745   7.242   4.354  1.00 20.00    -0.009 A 
HETATM    8  C3  UNL     1     -32.156   7.678   3.041  1.00 20.00     0.005 A 
HETATM    9  C4  UNL     1     -32.446   8.696   4.110  1.00 20.00     0.005 A 
ENDBRANCH   4   7
TORSDOF 1
ENDMDL
MODEL 5
REMARK VINA RESULT:      -4.1      2.335      3.304
REMARK  1 active torsions:
REMARK  status: ('A' for Active; 'I' for Inactive)
REMARK    1  A    between atoms: C6_6  and  C7_7 
ROOT
HETATM    1  C1  UNL     1     -33.617   8.238   5.044  1.00 20.00     0.002 C 
HETATM    2  C2  UNL     1     -32.321   8.659   4.344  1.00 20.00     0.006 C 
HETATM    3  C5  UNL     1     -33.957   6.840   4.526  1.00 20.00     0.020 C 
HETATM    4  C7  UNL     1     -32.159   7.699   3.159  1.00 20.00     0.008 C 
HETATM    5  C8  UNL     1     -32.720   6.400   3.751  1.00 20.00     0.086 C 
HETATM    6 CL9  UNL     1     -33.073   5.125   2.575  1.00 20.00    -0.125 Cl
ENDROOT
BRANCH   4   7
HETATM    7  C6  UNL     1     -32.878   8.214   1.938  1.00 20.00    -0.009 A 
HETATM    8  C3  UNL     1     -32.747   9.657   1.534  1.00 20.00     0.005 A 
HETATM    9  C4  UNL     1     -32.104   8.581   0.702  1.00 20.00     0.005 A 
ENDBRANCH   4   7
TORSDOF 1
ENDMDL
MODEL 6
REMARK VINA RESULT:      -3.9     15.559     16.669
REMARK  1 active torsions:
REMARK  status: ('A' for Active; 'I' for Inactive)
REMARK    1  A    between atoms: C6_6  and  C7_7 
ROOT
HETATM    1  C1  UNL     1     -21.413  17.948   9.309  1.00 20.00     0.002 C 
HETATM    2  C2  UNL     1     -21.960  18.416  10.661  1.00 20.00     0.006 C 
HETATM    3  C5  UNL     1     -22.464  18.317   8.262  1.00 20.00     0.020 C 
HETATM    4  C7  UNL     1     -23.457  18.667  10.437  1.00 20.00     0.008 C 
HETATM    5  C8  UNL     1     -23.455  19.208   9.002  1.00 20.00     0.086 C 
HETATM    6 CL9  UNL     1     -25.039  19.263   8.214  1.00 20.00    -0.125 Cl
ENDROOT
BRANCH   4   7
HETATM    7  C6  UNL     1     -24.259  17.408  10.651  1.00 20.00    -0.009 A 
HETATM    8  C3  UNL     1     -23.961  16.510  11.819  1.00 20.00     0.005 A 
HETATM    9  C4  UNL     1     -25.231  17.315  11.794  1.00 20.00     0.005 A 
ENDBRANCH   4   7
TORSDOF 1
ENDMDL
MODEL 7
REMARK VINA RESULT:      -3.9      1.249      3.239
REMARK  1 active torsions:
REMARK  status: ('A' for Active; 'I' for Inactive)
REMARK    1  A    between atoms: C6_6  and  C7_7 
ROOT
HETATM    1  C1  UNL     1     -32.638   7.573   1.926  1.00 20.00     0.002 C 
HETATM    2  C2  UNL     1     -32.481   6.322   2.796  1.00 20.00     0.006 C 
HETATM    3  C5  UNL     1     -32.562   8.773   2.871  1.00 20.00     0.020 C 
HETATM    4  C7  UNL     1     -32.725   6.787   4.237  1.00 20.00     0.008 C 
HETATM    5  C8  UNL     1     -32.109   8.190   4.205  1.00 20.00     0.086 C 
HETATM    6 CL9  UNL     1     -32.523   9.229   5.576  1.00 20.00    -0.125 Cl
ENDROOT
BRANCH   4   7
HETATM    7  C6  UNL     1     -34.191   6.734   4.586  1.00 20.00    -0.009 A 
HETATM    8  C3  UNL     1     -34.907   5.413   4.654  1.00 20.00     0.005 A 
HETATM    9  C4  UNL     1     -34.634   6.186   5.915  1.00 20.00     0.005 A 
ENDBRANCH   4   7
TORSDOF 1
ENDMDL
MODEL 8
REMARK VINA RESULT:      -3.6      9.320     10.301
REMARK  1 active torsions:
REMARK  status: ('A' for Active; 'I' for Inactive)
REMARK    1  A    between atoms: C6_6  and  C7_7 
ROOT
HETATM    1  C1  UNL     1     -43.248  13.490   6.234  1.00 20.00     0.002 C 
HETATM    2  C2  UNL     1     -42.137  13.812   5.230  1.00 20.00     0.006 C 
HETATM    3  C5  UNL     1     -42.643  13.670   7.627  1.00 20.00     0.020 C 
HETATM    4  C7  UNL     1     -40.830  13.773   6.032  1.00 20.00     0.008 C 
HETATM    5  C8  UNL     1     -41.293  14.335   7.382  1.00 20.00     0.086 C 
HETATM    6 CL9  UNL     1     -40.165  14.098   8.725  1.00 20.00    -0.125 Cl
ENDROOT
BRANCH   4   7
HETATM    7  C6  UNL     1     -40.260  12.377   6.077  1.00 20.00    -0.009 A 
HETATM    8  C3  UNL     1     -39.671  11.760   4.838  1.00 20.00     0.005 A 
HETATM    9  C4  UNL     1     -38.775  12.163   5.976  1.00 20.00     0.005 A 
ENDBRANCH   4   7
TORSDOF 1
ENDMDL
MODEL 9
REMARK VINA RESULT:      -3.6      1.746      2.687
REMARK  1 active torsions:
REMARK  status: ('A' for Active; 'I' for Inactive)
REMARK    1  A    between atoms: C6_6  and  C7_7 
ROOT
HETATM    1  C1  UNL     1     -32.953   9.063   3.971  1.00 20.00     0.002 C 
HETATM    2  C2  UNL     1     -32.020   7.863   3.779  1.00 20.00     0.006 C 
HETATM    3  C5  UNL     1     -33.900   8.699   5.115  1.00 20.00     0.020 C 
HETATM    4  C7  UNL     1     -32.689   6.696   4.515  1.00 20.00     0.008 C 
HETATM    5  C8  UNL     1     -33.320   7.421   5.710  1.00 20.00     0.086 C 
HETATM    6 CL9  UNL     1     -34.521   6.487   6.614  1.00 20.00    -0.125 Cl
ENDROOT
BRANCH   4   7
HETATM    7  C6  UNL     1     -33.659   5.969   3.618  1.00 20.00    -0.009 A 
HETATM    8  C3  UNL     1     -33.156   4.981   2.602  1.00 20.00     0.005 A 
HETATM    9  C4  UNL     1     -33.913   4.500   3.809  1.00 20.00     0.005 A 
ENDBRANCH   4   7
TORSDOF 1
ENDMDL
