MODEL 1
REMARK VINA RESULT:      -4.8      0.000      0.000
REMARK  2 active torsions:
REMARK  status: ('A' for Active; 'I' for Inactive)
REMARK    1  A    between atoms: C7_7  and  C10_10 
REMARK    2  A    between atoms: C9_9  and  C10_10 
ROOT
HETATM    1  C2  UNL     1     -33.327  16.455  -2.530  1.00 20.00     0.006 C 
HETATM    2  C3  UNL     1     -33.724  15.816  -3.865  1.00 20.00     0.020 C 
HETATM    3  C5  UNL     1     -33.811  18.180  -4.170  1.00 20.00     0.025 C 
HETATM    4  C7  UNL     1     -33.622  17.956  -2.669  1.00 20.00    -0.011 C 
HETATM    5  C8  UNL     1     -34.506  16.898  -4.600  1.00 20.00     0.082 C 
HETATM    6 CL12 UNL     1     -34.479  16.674  -6.355  1.00 20.00    -0.125 Cl
ENDROOT
BRANCH   4   7
HETATM    7  C10 UNL     1     -32.540  18.839  -2.068  1.00 20.00     0.036 C 
BRANCH   7   8
HETATM    8  C9  UNL     1     -32.024  18.284  -0.755  1.00 20.00     0.121 C 
HETATM    9  C4  UNL     1     -32.889  18.648   0.439  1.00 20.00     0.034 C 
HETATM   10  C1  UNL     1     -31.891  18.579   1.567  1.00 20.00     0.029 C 
HETATM   11  C6  UNL     1     -30.645  19.142   0.917  1.00 20.00     0.168 C 
HETATM   12  O11 UNL     1     -30.717  18.817  -0.480  1.00 20.00    -0.386 OA
ENDBRANCH   7   8
ENDBRANCH   4   7
TORSDOF 2
ENDMDL
MODEL 2
REMARK VINA RESULT:      -4.7      1.031      1.554
REMARK  2 active torsions:
REMARK  status: ('A' for Active; 'I' for Inactive)
REMARK    1  A    between atoms: C7_7  and  C10_10 
REMARK    2  A    between atoms: C9_9  and  C10_10 
ROOT
HETATM    1  C2  UNL     1     -34.033  18.240  -4.213  1.00 20.00     0.006 C 
HETATM    2  C3  UNL     1     -34.555  16.899  -4.739  1.00 20.00     0.020 C 
HETATM    3  C5  UNL     1     -33.253  16.427  -2.797  1.00 20.00     0.025 C 
HETATM    4  C7  UNL     1     -33.008  17.902  -3.120  1.00 20.00    -0.011 C 
HETATM    5  C8  UNL     1     -33.608  15.855  -4.161  1.00 20.00     0.082 C 
HETATM    6 CL12 UNL     1     -34.355  14.256  -4.046  1.00 20.00    -0.125 Cl
ENDROOT
BRANCH   4   7
HETATM    7  C10 UNL     1     -33.112  18.802  -1.900  1.00 20.00     0.036 C 
BRANCH   7   8
HETATM    8  C9  UNL     1     -32.319  18.258  -0.727  1.00 20.00     0.121 C 
HETATM    9  C4  UNL     1     -32.975  18.514   0.619  1.00 20.00     0.034 C 
HETATM   10  C1  UNL     1     -31.783  18.500   1.541  1.00 20.00     0.029 C 
HETATM   11  C6  UNL     1     -30.727  19.185   0.700  1.00 20.00     0.168 C 
HETATM   12  O11 UNL     1     -31.030  18.893  -0.673  1.00 20.00    -0.386 OA
ENDBRANCH   7   8
ENDBRANCH   4   7
TORSDOF 2
ENDMDL
MODEL 3
REMARK VINA RESULT:      -4.5      3.467      5.790
REMARK  2 active torsions:
REMARK  status: ('A' for Active; 'I' for Inactive)
REMARK    1  A    between atoms: C7_7  and  C10_10 
REMARK    2  A    between atoms: C9_9  and  C10_10 
ROOT
HETATM    1  C2  UNL     1     -33.022  18.243  -3.527  1.00 20.00     0.006 C 
HETATM    2  C3  UNL     1     -32.996  19.087  -2.248  1.00 20.00     0.020 C 
HETATM    3  C5  UNL     1     -33.627  16.877  -1.613  1.00 20.00     0.025 C 
HETATM    4  C7  UNL     1     -33.661  16.900  -3.141  1.00 20.00    -0.011 C 
HETATM    5  C8  UNL     1     -33.882  18.334  -1.264  1.00 20.00     0.082 C 
HETATM    6 CL12 UNL     1     -33.485  18.703   0.420  1.00 20.00    -0.125 Cl
ENDROOT
BRANCH   4   7
HETATM    7  C10 UNL     1     -32.965  15.703  -3.770  1.00 20.00     0.036 C 
BRANCH   7   8
HETATM    8  C9  UNL     1     -33.856  14.996  -4.772  1.00 20.00     0.121 C 
HETATM    9  C4  UNL     1     -35.006  15.853  -5.273  1.00 20.00     0.034 C 
HETATM   10  C1  UNL     1     -36.014  14.803  -5.666  1.00 20.00     0.029 C 
HETATM   11  C6  UNL     1     -35.826  13.765  -4.580  1.00 20.00     0.168 C 
HETATM   12  O11 UNL     1     -34.454  13.839  -4.163  1.00 20.00    -0.386 OA
ENDBRANCH   7   8
ENDBRANCH   4   7
TORSDOF 2
ENDMDL
MODEL 4
REMARK VINA RESULT:      -4.3      3.305      5.660
REMARK  2 active torsions:
REMARK  status: ('A' for Active; 'I' for Inactive)
REMARK    1  A    between atoms: C7_7  and  C10_10 
REMARK    2  A    between atoms: C9_9  and  C10_10 
ROOT
HETATM    1  C2  UNL     1     -33.511  18.926   0.405  1.00 20.00     0.006 C 
HETATM    2  C3  UNL     1     -32.652  19.263   1.628  1.00 20.00     0.020 C 
HETATM    3  C5  UNL     1     -31.180  18.414  -0.046  1.00 20.00     0.025 C 
HETATM    4  C7  UNL     1     -32.597  18.160  -0.563  1.00 20.00    -0.011 C 
HETATM    5  C8  UNL     1     -31.387  18.430   1.461  1.00 20.00     0.082 C 
HETATM    6 CL12 UNL     1     -30.005  19.120   2.323  1.00 20.00    -0.125 Cl
ENDROOT
BRANCH   4   7
HETATM    7  C10 UNL     1     -32.781  18.572  -2.015  1.00 20.00     0.036 C 
BRANCH   7   8
HETATM    8  C9  UNL     1     -33.805  17.705  -2.721  1.00 20.00     0.121 C 
HETATM    9  C4  UNL     1     -33.292  16.318  -3.066  1.00 20.00     0.034 C 
HETATM   10  C1  UNL     1     -34.162  15.959  -4.243  1.00 20.00     0.029 C 
HETATM   11  C6  UNL     1     -34.276  17.284  -4.966  1.00 20.00     0.168 C 
HETATM   12  O11 UNL     1     -34.183  18.314  -3.968  1.00 20.00    -0.386 OA
ENDBRANCH   7   8
ENDBRANCH   4   7
TORSDOF 2
ENDMDL
MODEL 5
REMARK VINA RESULT:      -4.2      1.410      1.805
REMARK  2 active torsions:
REMARK  status: ('A' for Active; 'I' for Inactive)
REMARK    1  A    between atoms: C7_7  and  C10_10 
REMARK    2  A    between atoms: C9_9  and  C10_10 
ROOT
HETATM    1  C2  UNL     1     -33.264  16.081  -3.065  1.00 20.00     0.006 C 
HETATM    2  C3  UNL     1     -33.679  15.131  -4.193  1.00 20.00     0.020 C 
HETATM    3  C5  UNL     1     -34.314  17.330  -4.864  1.00 20.00     0.025 C 
HETATM    4  C7  UNL     1     -33.892  17.443  -3.398  1.00 20.00    -0.011 C 
HETATM    5  C8  UNL     1     -34.763  15.881  -4.958  1.00 20.00     0.082 C 
HETATM    6 CL12 UNL     1     -34.912  15.330  -6.632  1.00 20.00    -0.125 Cl
ENDROOT
BRANCH   4   7
HETATM    7  C10 UNL     1     -32.959  18.614  -3.136  1.00 20.00     0.036 C 
BRANCH   7   8
HETATM    8  C9  UNL     1     -33.019  19.071  -1.692  1.00 20.00     0.121 C 
HETATM    9  C4  UNL     1     -31.854  18.580  -0.851  1.00 20.00     0.034 C 
HETATM   10  C1  UNL     1     -32.456  18.585   0.531  1.00 20.00     0.029 C 
HETATM   11  C6  UNL     1     -33.870  18.119   0.258  1.00 20.00     0.168 C 
HETATM   12  O11 UNL     1     -34.208  18.559  -1.066  1.00 20.00    -0.386 OA
ENDBRANCH   7   8
ENDBRANCH   4   7
TORSDOF 2
ENDMDL
MODEL 6
REMARK VINA RESULT:      -4.1      3.428      6.080
REMARK  2 active torsions:
REMARK  status: ('A' for Active; 'I' for Inactive)
REMARK    1  A    between atoms: C7_7  and  C10_10 
REMARK    2  A    between atoms: C9_9  and  C10_10 
ROOT
HETATM    1  C2  UNL     1     -33.236  18.074  -3.979  1.00 20.00     0.006 C 
HETATM    2  C3  UNL     1     -32.859  18.938  -2.771  1.00 20.00     0.020 C 
HETATM    3  C5  UNL     1     -33.474  16.792  -1.930  1.00 20.00     0.025 C 
HETATM    4  C7  UNL     1     -33.857  16.790  -3.410  1.00 20.00    -0.011 C 
HETATM    5  C8  UNL     1     -33.543  18.271  -1.584  1.00 20.00     0.082 C 
HETATM    6 CL12 UNL     1     -32.744  18.641  -0.049  1.00 20.00    -0.125 Cl
ENDROOT
BRANCH   4   7
HETATM    7  C10 UNL     1     -33.408  15.533  -4.138  1.00 20.00     0.036 C 
BRANCH   7   8
HETATM    8  C9  UNL     1     -34.444  15.060  -5.139  1.00 20.00     0.121 C 
HETATM    9  C4  UNL     1     -34.021  15.248  -6.586  1.00 20.00     0.034 C 
HETATM   10  C1  UNL     1     -35.355  15.340  -7.280  1.00 20.00     0.029 C 
HETATM   11  C6  UNL     1     -36.176  16.125  -6.279  1.00 20.00     0.168 C 
HETATM   12  O11 UNL     1     -35.659  15.812  -4.977  1.00 20.00    -0.386 OA
ENDBRANCH   7   8
ENDBRANCH   4   7
TORSDOF 2
ENDMDL
MODEL 7
REMARK VINA RESULT:      -3.8      2.729      4.294
REMARK  2 active torsions:
REMARK  status: ('A' for Active; 'I' for Inactive)
REMARK    1  A    between atoms: C7_7  and  C10_10 
REMARK    2  A    between atoms: C9_9  and  C10_10 
ROOT
HETATM    1  C2  UNL     1     -33.032  18.454   1.022  1.00 20.00     0.006 C 
HETATM    2  C3  UNL     1     -33.686  18.192  -0.339  1.00 20.00     0.020 C 
HETATM    3  C5  UNL     1     -31.325  18.150  -0.679  1.00 20.00     0.025 C 
HETATM    4  C7  UNL     1     -31.536  18.666   0.745  1.00 20.00    -0.011 C 
HETATM    5  C8  UNL     1     -32.620  18.560  -1.363  1.00 20.00     0.082 C 
HETATM    6 CL12 UNL     1     -32.855  17.734  -2.909  1.00 20.00    -0.125 Cl
ENDROOT
BRANCH   4   7
HETATM    7  C10 UNL     1     -30.635  17.985   1.763  1.00 20.00     0.036 C 
BRANCH   7   8
HETATM    8  C9  UNL     1     -30.128  18.959   2.809  1.00 20.00     0.121 C 
HETATM    9  C4  UNL     1     -28.735  18.631   3.317  1.00 20.00     0.034 C 
HETATM   10  C1  UNL     1     -28.758  19.263   4.686  1.00 20.00     0.029 C 
HETATM   11  C6  UNL     1     -30.174  18.977   5.139  1.00 20.00     0.168 C 
HETATM   12  O11 UNL     1     -30.991  18.933   3.959  1.00 20.00    -0.386 OA
ENDBRANCH   7   8
ENDBRANCH   4   7
TORSDOF 2
ENDMDL
MODEL 8
REMARK VINA RESULT:      -3.7     11.832     13.147
REMARK  2 active torsions:
REMARK  status: ('A' for Active; 'I' for Inactive)
REMARK    1  A    between atoms: C7_7  and  C10_10 
REMARK    2  A    between atoms: C9_9  and  C10_10 
ROOT
HETATM    1  C2  UNL     1     -42.858  16.036   7.318  1.00 20.00     0.006 C 
HETATM    2  C3  UNL     1     -42.361  17.383   6.783  1.00 20.00     0.020 C 
HETATM    3  C5  UNL     1     -40.468  16.252   7.690  1.00 20.00     0.025 C 
HETATM    4  C7  UNL     1     -41.688  15.431   8.109  1.00 20.00    -0.011 C 
HETATM    5  C8  UNL     1     -41.058  17.644   7.528  1.00 20.00     0.082 C 
HETATM    6 CL12 UNL     1     -39.981  18.732   6.642  1.00 20.00    -0.125 Cl
ENDROOT
BRANCH   4   7
HETATM    7  C10 UNL     1     -41.511  13.940   7.872  1.00 20.00     0.036 C 
BRANCH   7   8
HETATM    8  C9  UNL     1     -40.486  13.658   6.791  1.00 20.00     0.121 C 
HETATM    9  C4  UNL     1     -41.102  13.303   5.449  1.00 20.00     0.034 C 
HETATM   10  C1  UNL     1     -40.004  12.481   4.822  1.00 20.00     0.029 C 
HETATM   11  C6  UNL     1     -39.473  11.709   6.011  1.00 20.00     0.168 C 
HETATM   12  O11 UNL     1     -39.675  12.532   7.170  1.00 20.00    -0.386 OA
ENDBRANCH   7   8
ENDBRANCH   4   7
TORSDOF 2
ENDMDL
MODEL 9
REMARK VINA RESULT:      -3.6     12.947     14.386
REMARK  2 active torsions:
REMARK  status: ('A' for Active; 'I' for Inactive)
REMARK    1  A    between atoms: C7_7  and  C10_10 
REMARK    2  A    between atoms: C9_9  and  C10_10 
ROOT
HETATM    1  C2  UNL     1     -40.528  15.411   8.400  1.00 20.00     0.006 C 
HETATM    2  C3  UNL     1     -40.026  15.392   9.847  1.00 20.00     0.020 C 
HETATM    3  C5  UNL     1     -41.957  13.996   9.760  1.00 20.00     0.025 C 
HETATM    4  C7  UNL     1     -41.896  14.713   8.412  1.00 20.00    -0.011 C 
HETATM    5  C8  UNL     1     -41.233  14.970  10.675  1.00 20.00     0.082 C 
HETATM    6 CL12 UNL     1     -40.771  14.232  12.215  1.00 20.00    -0.125 Cl
ENDROOT
BRANCH   4   7
HETATM    7  C10 UNL     1     -42.103  13.778   7.231  1.00 20.00     0.036 C 
BRANCH   7   8
HETATM    8  C9  UNL     1     -40.812  13.527   6.477  1.00 20.00     0.121 C 
HETATM    9  C4  UNL     1     -41.016  13.266   4.995  1.00 20.00     0.034 C 
HETATM   10  C1  UNL     1     -39.793  12.449   4.662  1.00 20.00     0.029 C 
HETATM   11  C6  UNL     1     -39.640  11.595   5.903  1.00 20.00     0.168 C 
HETATM   12  O11 UNL     1     -40.159  12.359   7.003  1.00 20.00    -0.386 OA
ENDBRANCH   7   8
ENDBRANCH   4   7
TORSDOF 2
ENDMDL
