MODEL 1
REMARK VINA RESULT:      -4.0      0.000      0.000
REMARK  3 active torsions:
REMARK  status: ('A' for Active; 'I' for Inactive)
REMARK    1  A    between atoms: C1_1  and  C3_3 
REMARK    2  A    between atoms: C2_2  and  C7_7 
REMARK    3  A    between atoms: C7_7  and  C8_8 
ROOT
HETATM    1  C1  UNL     1     -33.712  16.011  -3.622  1.00 20.00     0.005 C 
HETATM    2  C2  UNL     1     -33.593  16.985  -2.930  1.00 20.00    -0.090 C 
ENDROOT
BRANCH   2   3
HETATM    3  C7  UNL     1     -33.448  18.187  -2.083  1.00 20.00     0.065 C 
HETATM    4  C4  UNL     1     -32.664  19.263  -2.839  1.00 20.00     0.024 C 
BRANCH   3   5
HETATM    5  C8  UNL     1     -32.816  17.874  -0.702  1.00 20.00    -0.007 C 
HETATM    6  C5  UNL     1     -31.472  18.568  -0.457  1.00 20.00     0.011 C 
HETATM    7  C6  UNL     1     -33.782  18.192   0.446  1.00 20.00     0.011 C 
ENDBRANCH   3   5
ENDBRANCH   2   3
BRANCH   1   8
HETATM    8  C3  UNL     1     -33.860  14.759  -4.506  1.00 20.00     0.258 C 
HETATM    9  O9  UNL     1     -33.648  14.927  -5.741  1.00 20.00    -0.637 OA
HETATM   10  O10 UNL     1     -34.180  13.692  -3.906  1.00 20.00    -0.637 OA
ENDBRANCH   1   8
TORSDOF 3
ENDMDL
MODEL 2
REMARK VINA RESULT:      -3.9      3.424      5.072
REMARK  3 active torsions:
REMARK  status: ('A' for Active; 'I' for Inactive)
REMARK    1  A    between atoms: C1_1  and  C3_3 
REMARK    2  A    between atoms: C2_2  and  C7_7 
REMARK    3  A    between atoms: C7_7  and  C8_8 
ROOT
HETATM    1  C1  UNL     1     -32.660  17.733  -1.460  1.00 20.00     0.005 C 
HETATM    2  C2  UNL     1     -33.215  17.143  -2.348  1.00 20.00    -0.090 C 
ENDROOT
BRANCH   2   3
HETATM    3  C7  UNL     1     -33.901  16.421  -3.438  1.00 20.00     0.065 C 
HETATM    4  C4  UNL     1     -32.979  15.337  -4.003  1.00 20.00     0.024 C 
BRANCH   3   5
HETATM    5  C8  UNL     1     -34.426  17.370  -4.548  1.00 20.00    -0.007 C 
HETATM    6  C5  UNL     1     -34.835  16.656  -5.840  1.00 20.00     0.011 C 
HETATM    7  C6  UNL     1     -35.585  18.239  -4.045  1.00 20.00     0.011 C 
ENDBRANCH   3   5
ENDBRANCH   2   3
BRANCH   1   8
HETATM    8  C3  UNL     1     -31.947  18.485  -0.321  1.00 20.00     0.258 C 
HETATM    9  O9  UNL     1     -32.662  18.776   0.681  1.00 20.00    -0.637 OA
HETATM   10  O10 UNL     1     -30.721  18.734  -0.505  1.00 20.00    -0.637 OA
ENDBRANCH   1   8
TORSDOF 3
ENDMDL
MODEL 3
REMARK VINA RESULT:      -3.9      3.425      5.023
REMARK  3 active torsions:
REMARK  status: ('A' for Active; 'I' for Inactive)
REMARK    1  A    between atoms: C1_1  and  C3_3 
REMARK    2  A    between atoms: C2_2  and  C7_7 
REMARK    3  A    between atoms: C7_7  and  C8_8 
ROOT
HETATM    1  C1  UNL     1     -32.624  17.768  -1.506  1.00 20.00     0.005 C 
HETATM    2  C2  UNL     1     -33.181  17.148  -2.371  1.00 20.00    -0.090 C 
ENDROOT
BRANCH   2   3
HETATM    3  C7  UNL     1     -33.869  16.384  -3.432  1.00 20.00     0.065 C 
HETATM    4  C4  UNL     1     -32.929  15.315  -3.994  1.00 20.00     0.024 C 
BRANCH   3   5
HETATM    5  C8  UNL     1     -34.445  17.295  -4.548  1.00 20.00    -0.007 C 
HETATM    6  C5  UNL     1     -35.002  16.530  -5.754  1.00 20.00     0.011 C 
HETATM    7  C6  UNL     1     -35.511  18.252  -4.002  1.00 20.00     0.011 C 
ENDBRANCH   3   5
ENDBRANCH   2   3
BRANCH   1   8
HETATM    8  C3  UNL     1     -31.905  18.561  -0.399  1.00 20.00     0.258 C 
HETATM    9  O9  UNL     1     -30.656  18.696  -0.539  1.00 20.00    -0.637 OA
HETATM   10  O10 UNL     1     -32.639  18.995   0.536  1.00 20.00    -0.637 OA
ENDBRANCH   1   8
TORSDOF 3
ENDMDL
MODEL 4
REMARK VINA RESULT:      -3.9     12.847     14.794
REMARK  3 active torsions:
REMARK  status: ('A' for Active; 'I' for Inactive)
REMARK    1  A    between atoms: C1_1  and  C3_3 
REMARK    2  A    between atoms: C2_2  and  C7_7 
REMARK    3  A    between atoms: C7_7  and  C8_8 
ROOT
HETATM    1  C1  UNL     1     -25.336  19.253   7.834  1.00 20.00     0.005 C 
HETATM    2  C2  UNL     1     -24.439  19.255   8.633  1.00 20.00    -0.090 C 
ENDROOT
BRANCH   2   3
HETATM    3  C7  UNL     1     -23.337  19.263   9.617  1.00 20.00     0.065 C 
HETATM    4  C4  UNL     1     -22.048  18.768   8.955  1.00 20.00     0.024 C 
BRANCH   3   5
HETATM    5  C8  UNL     1     -23.674  18.459  10.900  1.00 20.00    -0.007 C 
HETATM    6  C5  UNL     1     -24.084  17.006  10.638  1.00 20.00     0.011 C 
HETATM    7  C6  UNL     1     -22.521  18.500  11.910  1.00 20.00     0.011 C 
ENDBRANCH   3   5
ENDBRANCH   2   3
BRANCH   1   8
HETATM    8  C3  UNL     1     -26.483  19.246   6.807  1.00 20.00     0.258 C 
HETATM    9  O9  UNL     1     -26.135  19.229   5.591  1.00 20.00    -0.637 OA
HETATM   10  O10 UNL     1     -27.654  19.261   7.285  1.00 20.00    -0.637 OA
ENDBRANCH   1   8
TORSDOF 3
ENDMDL
MODEL 5
REMARK VINA RESULT:      -3.8      3.273      5.077
REMARK  3 active torsions:
REMARK  status: ('A' for Active; 'I' for Inactive)
REMARK    1  A    between atoms: C1_1  and  C3_3 
REMARK    2  A    between atoms: C2_2  and  C7_7 
REMARK    3  A    between atoms: C7_7  and  C8_8 
ROOT
HETATM    1  C1  UNL     1     -32.611  17.929  -1.696  1.00 20.00     0.005 C 
HETATM    2  C2  UNL     1     -33.149  17.567  -2.707  1.00 20.00    -0.090 C 
ENDROOT
BRANCH   2   3
HETATM    3  C7  UNL     1     -33.812  17.116  -3.948  1.00 20.00     0.065 C 
HETATM    4  C4  UNL     1     -35.150  17.842  -4.114  1.00 20.00     0.024 C 
BRANCH   3   5
HETATM    5  C8  UNL     1     -33.976  15.575  -4.013  1.00 20.00    -0.007 C 
HETATM    6  C5  UNL     1     -34.995  15.099  -5.055  1.00 20.00     0.011 C 
HETATM    7  C6  UNL     1     -32.632  14.874  -4.242  1.00 20.00     0.011 C 
ENDBRANCH   3   5
ENDBRANCH   2   3
BRANCH   1   8
HETATM    8  C3  UNL     1     -31.918  18.396  -0.403  1.00 20.00     0.258 C 
HETATM    9  O9  UNL     1     -32.646  18.438   0.630  1.00 20.00    -0.637 OA
HETATM   10  O10 UNL     1     -30.692  18.691  -0.508  1.00 20.00    -0.637 OA
ENDBRANCH   1   8
TORSDOF 3
ENDMDL
MODEL 6
REMARK VINA RESULT:      -3.8     14.835     16.523
REMARK  3 active torsions:
REMARK  status: ('A' for Active; 'I' for Inactive)
REMARK    1  A    between atoms: C1_1  and  C3_3 
REMARK    2  A    between atoms: C2_2  and  C7_7 
REMARK    3  A    between atoms: C7_7  and  C8_8 
ROOT
HETATM    1  C1  UNL     1     -22.821  18.588   9.014  1.00 20.00     0.005 C 
HETATM    2  C2  UNL     1     -22.924  18.607  10.211  1.00 20.00    -0.090 C 
ENDROOT
BRANCH   2   3
HETATM    3  C7  UNL     1     -23.055  18.631  11.682  1.00 20.00     0.065 C 
HETATM    4  C4  UNL     1     -21.696  18.350  12.328  1.00 20.00     0.024 C 
BRANCH   3   5
HETATM    5  C8  UNL     1     -24.153  17.666  12.201  1.00 20.00    -0.007 C 
HETATM    6  C5  UNL     1     -25.539  18.308  12.331  1.00 20.00     0.011 C 
HETATM    7  C6  UNL     1     -24.245  16.400  11.340  1.00 20.00     0.011 C 
ENDBRANCH   3   5
ENDBRANCH   2   3
BRANCH   1   8
HETATM    8  C3  UNL     1     -22.685  18.567   7.481  1.00 20.00     0.258 C 
HETATM    9  O9  UNL     1     -23.528  19.260   6.842  1.00 20.00    -0.637 OA
HETATM   10  O10 UNL     1     -21.745  17.857   7.019  1.00 20.00    -0.637 OA
ENDBRANCH   1   8
TORSDOF 3
ENDMDL
MODEL 7
REMARK VINA RESULT:      -3.5      1.929      3.171
REMARK  3 active torsions:
REMARK  status: ('A' for Active; 'I' for Inactive)
REMARK    1  A    between atoms: C1_1  and  C3_3 
REMARK    2  A    between atoms: C2_2  and  C7_7 
REMARK    3  A    between atoms: C7_7  and  C8_8 
ROOT
HETATM    1  C1  UNL     1     -34.851  15.230  -4.684  1.00 20.00     0.005 C 
HETATM    2  C2  UNL     1     -34.167  16.087  -4.194  1.00 20.00    -0.090 C 
ENDROOT
BRANCH   2   3
HETATM    3  C7  UNL     1     -33.324  17.142  -3.596  1.00 20.00     0.065 C 
HETATM    4  C4  UNL     1     -33.271  16.964  -2.076  1.00 20.00     0.024 C 
BRANCH   3   5
HETATM    5  C8  UNL     1     -33.778  18.571  -3.996  1.00 20.00    -0.007 C 
HETATM    6  C5  UNL     1     -34.070  18.738  -5.491  1.00 20.00     0.011 C 
HETATM    7  C6  UNL     1     -34.989  19.028  -3.175  1.00 20.00     0.011 C 
ENDBRANCH   3   5
ENDBRANCH   2   3
BRANCH   1   8
HETATM    8  C3  UNL     1     -35.727  14.128  -5.308  1.00 20.00     0.258 C 
HETATM    9  O9  UNL     1     -36.126  13.226  -4.517  1.00 20.00    -0.637 OA
HETATM   10  O10 UNL     1     -35.957  14.239  -6.547  1.00 20.00    -0.637 OA
ENDBRANCH   1   8
TORSDOF 3
ENDMDL
MODEL 8
REMARK VINA RESULT:      -3.5     10.714     11.669
REMARK  3 active torsions:
REMARK  status: ('A' for Active; 'I' for Inactive)
REMARK    1  A    between atoms: C1_1  and  C3_3 
REMARK    2  A    between atoms: C2_2  and  C7_7 
REMARK    3  A    between atoms: C7_7  and  C8_8 
ROOT
HETATM    1  C1  UNL     1     -32.525   7.706   2.030  1.00 20.00     0.005 C 
HETATM    2  C2  UNL     1     -32.818   7.009   2.964  1.00 20.00    -0.090 C 
ENDROOT
BRANCH   2   3
HETATM    3  C7  UNL     1     -33.176   6.147   4.109  1.00 20.00     0.065 C 
HETATM    4  C4  UNL     1     -33.773   4.832   3.602  1.00 20.00     0.024 C 
BRANCH   3   5
HETATM    5  C8  UNL     1     -34.113   6.856   5.122  1.00 20.00    -0.007 C 
HETATM    6  C5  UNL     1     -34.448   6.015   6.359  1.00 20.00     0.011 C 
HETATM    7  C6  UNL     1     -33.552   8.216   5.554  1.00 20.00     0.011 C 
ENDBRANCH   3   5
ENDBRANCH   2   3
BRANCH   1   8
HETATM    8  C3  UNL     1     -32.155   8.603   0.835  1.00 20.00     0.258 C 
HETATM    9  O9  UNL     1     -32.726   9.730   0.792  1.00 20.00    -0.637 OA
HETATM   10  O10 UNL     1     -31.318   8.119   0.018  1.00 20.00    -0.637 OA
ENDBRANCH   1   8
TORSDOF 3
ENDMDL
MODEL 9
REMARK VINA RESULT:      -3.5     10.745     12.392
REMARK  3 active torsions:
REMARK  status: ('A' for Active; 'I' for Inactive)
REMARK    1  A    between atoms: C1_1  and  C3_3 
REMARK    2  A    between atoms: C2_2  and  C7_7 
REMARK    3  A    between atoms: C7_7  and  C8_8 
ROOT
HETATM    1  C1  UNL     1     -40.133  12.450   5.601  1.00 20.00     0.005 C 
HETATM    2  C2  UNL     1     -41.028  12.787   6.329  1.00 20.00    -0.090 C 
ENDROOT
BRANCH   2   3
HETATM    3  C7  UNL     1     -42.127  13.205   7.223  1.00 20.00     0.065 C 
HETATM    4  C4  UNL     1     -43.416  13.375   6.415  1.00 20.00     0.024 C 
BRANCH   3   5
HETATM    5  C8  UNL     1     -41.782  14.479   8.039  1.00 20.00    -0.007 C 
HETATM    6  C5  UNL     1     -40.428  14.417   8.753  1.00 20.00     0.011 C 
HETATM    7  C6  UNL     1     -41.855  15.741   7.172  1.00 20.00     0.011 C 
ENDBRANCH   3   5
ENDBRANCH   2   3
BRANCH   1   8
HETATM    8  C3  UNL     1     -38.985  12.015   4.672  1.00 20.00     0.258 C 
HETATM    9  O9  UNL     1     -37.830  12.008   5.187  1.00 20.00    -0.637 OA
HETATM   10  O10 UNL     1     -39.316  11.711   3.489  1.00 20.00    -0.637 OA
ENDBRANCH   1   8
TORSDOF 3
ENDMDL
