MODEL 1
REMARK VINA RESULT:      -4.3      0.000      0.000
REMARK  0 active torsions:
REMARK  status: ('A' for Active; 'I' for Inactive)
ROOT
HETATM    1  C1  UNL     1     -32.537   8.026   3.203  1.00 20.00     0.088 C 
HETATM    2  C2  UNL     1     -33.557   6.749   4.972  1.00 20.00    -0.044 C 
HETATM    3  C3  UNL     1     -32.979   7.875   4.543  1.00 20.00     0.098 C 
HETATM    4  C4  UNL     1     -34.053   6.493   6.351  1.00 20.00     0.063 C 
HETATM    5  C5  UNL     1     -33.892   5.569   4.123  1.00 20.00     0.202 C 
HETATM    6  C6  UNL     1     -35.125   5.460   6.071  1.00 20.00     0.172 C 
HETATM    7  N7  UNL     1     -32.174   8.154   2.108  1.00 20.00    -0.192 NA
HETATM    8  O8  UNL     1     -34.622   4.674   4.982  1.00 20.00    -0.387 OA
ENDROOT
TORSDOF 0
ENDMDL
MODEL 2
REMARK VINA RESULT:      -4.1      1.289      1.774
REMARK  0 active torsions:
REMARK  status: ('A' for Active; 'I' for Inactive)
ROOT
HETATM    1  C1  UNL     1     -32.567   6.845   2.571  1.00 20.00     0.088 C 
HETATM    2  C2  UNL     1     -33.898   5.991   4.388  1.00 20.00    -0.044 C 
HETATM    3  C3  UNL     1     -33.316   5.815   3.198  1.00 20.00     0.098 C 
HETATM    4  C4  UNL     1     -34.701   4.978   5.125  1.00 20.00     0.063 C 
HETATM    5  C5  UNL     1     -33.778   7.210   5.240  1.00 20.00     0.202 C 
HETATM    6  C6  UNL     1     -34.501   5.453   6.549  1.00 20.00     0.172 C 
HETATM    7  N7  UNL     1     -31.953   7.685   2.055  1.00 20.00    -0.192 NA
HETATM    8  O8  UNL     1     -34.447   6.884   6.472  1.00 20.00    -0.387 OA
ENDROOT
TORSDOF 0
ENDMDL
MODEL 3
REMARK VINA RESULT:      -4.1      1.509      1.953
REMARK  0 active torsions:
REMARK  status: ('A' for Active; 'I' for Inactive)
ROOT
HETATM    1  C1  UNL     1     -32.381   8.750   4.598  1.00 20.00     0.088 C 
HETATM    2  C2  UNL     1     -33.809   6.821   4.804  1.00 20.00    -0.044 C 
HETATM    3  C3  UNL     1     -33.040   7.616   4.055  1.00 20.00     0.098 C 
HETATM    4  C4  UNL     1     -34.539   5.614   4.330  1.00 20.00     0.063 C 
HETATM    5  C5  UNL     1     -34.010   6.947   6.276  1.00 20.00     0.202 C 
HETATM    6  C6  UNL     1     -34.628   4.823   5.618  1.00 20.00     0.172 C 
HETATM    7  N7  UNL     1     -31.840   9.678   5.039  1.00 20.00    -0.192 NA
HETATM    8  O8  UNL     1     -34.792   5.799   6.657  1.00 20.00    -0.387 OA
ENDROOT
TORSDOF 0
ENDMDL
MODEL 4
REMARK VINA RESULT:      -4.1      2.703      3.626
REMARK  0 active torsions:
REMARK  status: ('A' for Active; 'I' for Inactive)
ROOT
HETATM    1  C1  UNL     1     -34.314   5.013   4.974  1.00 20.00     0.088 C 
HETATM    2  C2  UNL     1     -33.646   7.327   4.964  1.00 20.00    -0.044 C 
HETATM    3  C3  UNL     1     -34.312   6.318   5.533  1.00 20.00     0.098 C 
HETATM    4  C4  UNL     1     -33.582   8.725   5.470  1.00 20.00     0.063 C 
HETATM    5  C5  UNL     1     -32.770   7.219   3.762  1.00 20.00     0.202 C 
HETATM    6  C6  UNL     1     -32.257   9.168   4.886  1.00 20.00     0.172 C 
HETATM    7  N7  UNL     1     -34.319   3.944   4.521  1.00 20.00    -0.192 NA
HETATM    8  O8  UNL     1     -32.162   8.515   3.612  1.00 20.00    -0.387 OA
ENDROOT
TORSDOF 0
ENDMDL
MODEL 5
REMARK VINA RESULT:      -4.0     15.662     16.465
REMARK  0 active torsions:
REMARK  status: ('A' for Active; 'I' for Inactive)
ROOT
HETATM    1  C1  UNL     1     -21.811  17.554   8.667  1.00 20.00     0.088 C 
HETATM    2  C2  UNL     1     -22.867  17.919  10.800  1.00 20.00    -0.044 C 
HETATM    3  C3  UNL     1     -21.892  18.197   9.930  1.00 20.00     0.098 C 
HETATM    4  C4  UNL     1     -23.038  18.536  12.144  1.00 20.00     0.063 C 
HETATM    5  C5  UNL     1     -24.016  17.002  10.551  1.00 20.00     0.202 C 
HETATM    6  C6  UNL     1     -24.533  18.379  12.329  1.00 20.00     0.172 C 
HETATM    7  N7  UNL     1     -21.741  17.032   7.632  1.00 20.00    -0.192 NA
HETATM    8  O8  UNL     1     -24.868  17.133  11.704  1.00 20.00    -0.387 OA
ENDROOT
TORSDOF 0
ENDMDL
MODEL 6
REMARK VINA RESULT:      -3.8      2.705      3.789
REMARK  0 active torsions:
REMARK  status: ('A' for Active; 'I' for Inactive)
ROOT
HETATM    1  C1  UNL     1     -34.407   6.048   6.334  1.00 20.00     0.088 C 
HETATM    2  C2  UNL     1     -33.238   7.465   4.776  1.00 20.00    -0.044 C 
HETATM    3  C3  UNL     1     -33.784   7.274   5.980  1.00 20.00     0.098 C 
HETATM    4  C4  UNL     1     -32.566   8.708   4.311  1.00 20.00     0.063 C 
HETATM    5  C5  UNL     1     -33.125   6.436   3.702  1.00 20.00     0.202 C 
HETATM    6  C6  UNL     1     -31.630   8.139   3.264  1.00 20.00     0.172 C 
HETATM    7  N7  UNL     1     -34.916   5.047   6.628  1.00 20.00    -0.192 NA
HETATM    8  O8  UNL     1     -32.347   7.053   2.660  1.00 20.00    -0.387 OA
ENDROOT
TORSDOF 0
ENDMDL
MODEL 7
REMARK VINA RESULT:      -3.8     12.565     12.898
REMARK  0 active torsions:
REMARK  status: ('A' for Active; 'I' for Inactive)
ROOT
HETATM    1  C1  UNL     1     -33.491  17.050  -1.826  1.00 20.00     0.088 C 
HETATM    2  C2  UNL     1     -32.682  18.391   0.004  1.00 20.00    -0.044 C 
HETATM    3  C3  UNL     1     -33.679  17.735  -0.597  1.00 20.00     0.098 C 
HETATM    4  C4  UNL     1     -32.777  19.137   1.288  1.00 20.00     0.063 C 
HETATM    5  C5  UNL     1     -31.264  18.424  -0.458  1.00 20.00     0.202 C 
HETATM    6  C6  UNL     1     -31.340  19.054   1.761  1.00 20.00     0.172 C 
HETATM    7  N7  UNL     1     -33.342  16.488  -2.831  1.00 20.00    -0.192 NA
HETATM    8  O8  UNL     1     -30.541  19.124   0.572  1.00 20.00    -0.387 OA
ENDROOT
TORSDOF 0
ENDMDL
MODEL 8
REMARK VINA RESULT:      -3.7      2.839      4.003
REMARK  0 active torsions:
REMARK  status: ('A' for Active; 'I' for Inactive)
ROOT
HETATM    1  C1  UNL     1     -34.492   5.186   4.695  1.00 20.00     0.088 C 
HETATM    2  C2  UNL     1     -33.051   6.942   3.896  1.00 20.00    -0.044 C 
HETATM    3  C3  UNL     1     -33.699   5.793   3.686  1.00 20.00     0.098 C 
HETATM    4  C4  UNL     1     -32.198   7.656   2.907  1.00 20.00     0.063 C 
HETATM    5  C5  UNL     1     -33.131   7.769   5.135  1.00 20.00     0.202 C 
HETATM    6  C6  UNL     1     -32.319   9.078   3.416  1.00 20.00     0.172 C 
HETATM    7  N7  UNL     1     -35.141   4.685   5.517  1.00 20.00    -0.192 NA
HETATM    8  O8  UNL     1     -32.388   8.968   4.845  1.00 20.00    -0.387 OA
ENDROOT
TORSDOF 0
ENDMDL
MODEL 9
REMARK VINA RESULT:      -3.6     12.762     13.444
REMARK  0 active torsions:
REMARK  status: ('A' for Active; 'I' for Inactive)
ROOT
HETATM    1  C1  UNL     1     -33.879  15.072  -5.577  1.00 20.00     0.088 C 
HETATM    2  C2  UNL     1     -33.673  16.410  -3.585  1.00 20.00    -0.044 C 
HETATM    3  C3  UNL     1     -33.615  15.220  -4.190  1.00 20.00     0.098 C 
HETATM    4  C4  UNL     1     -33.415  16.669  -2.142  1.00 20.00     0.063 C 
HETATM    5  C5  UNL     1     -33.922  17.716  -4.262  1.00 20.00     0.202 C 
HETATM    6  C6  UNL     1     -32.970  18.116  -2.198  1.00 20.00     0.172 C 
HETATM    7  N7  UNL     1     -34.093  14.946  -6.711  1.00 20.00    -0.192 NA
HETATM    8  O8  UNL     1     -33.750  18.716  -3.241  1.00 20.00    -0.387 OA
ENDROOT
TORSDOF 0
ENDMDL
