MODEL 1
REMARK VINA RESULT:      -3.7      0.000      0.000
REMARK  1 active torsions:
REMARK  status: ('A' for Active; 'I' for Inactive)
REMARK    1  A    between atoms: C4_4  and  S6_6 
ROOT
HETATM    1  C1  UNL     1     -33.903   6.608   6.227  1.00 20.00     0.043 C 
HETATM    2  C2  UNL     1     -34.792   5.384   6.283  1.00 20.00     0.168 C 
HETATM    3  C3  UNL     1     -34.013   5.617   4.098  1.00 20.00     0.182 C 
HETATM    4  C4  UNL     1     -33.997   6.981   4.765  1.00 20.00     0.070 C 
HETATM    5  O5  UNL     1     -34.666   4.724   5.015  1.00 20.00    -0.390 OA
ENDROOT
BRANCH   4   6
HETATM    6  S6  UNL     1     -32.635   8.032   4.207  1.00 20.00    -0.175 SA
HETATM    7  H14 UNL     1     -31.673   7.128   4.427  1.00 20.00     0.102 HD
ENDBRANCH   4   6
TORSDOF 1
ENDMDL
MODEL 2
REMARK VINA RESULT:      -3.1      1.504      1.753
REMARK  1 active torsions:
REMARK  status: ('A' for Active; 'I' for Inactive)
REMARK    1  A    between atoms: C4_4  and  S6_6 
ROOT
HETATM    1  C1  UNL     1     -33.446   7.070   5.154  1.00 20.00     0.043 C 
HETATM    2  C2  UNL     1     -34.295   6.955   6.403  1.00 20.00     0.168 C 
HETATM    3  C3  UNL     1     -34.486   4.962   5.208  1.00 20.00     0.182 C 
HETATM    4  C4  UNL     1     -34.121   6.073   4.240  1.00 20.00     0.070 C 
HETATM    5  O5  UNL     1     -34.744   5.594   6.473  1.00 20.00    -0.390 OA
ENDROOT
BRANCH   4   6
HETATM    6  S6  UNL     1     -33.061   5.518   2.883  1.00 20.00    -0.175 SA
HETATM    7  H14 UNL     1     -32.985   6.712   2.281  1.00 20.00     0.102 HD
ENDBRANCH   4   6
TORSDOF 1
ENDMDL
MODEL 3
REMARK VINA RESULT:      -3.1      0.991      1.680
REMARK  1 active torsions:
REMARK  status: ('A' for Active; 'I' for Inactive)
REMARK    1  A    between atoms: C4_4  and  S6_6 
ROOT
HETATM    1  C1  UNL     1     -34.123   6.069   4.215  1.00 20.00     0.043 C 
HETATM    2  C2  UNL     1     -34.744   5.077   5.176  1.00 20.00     0.168 C 
HETATM    3  C3  UNL     1     -34.108   6.964   6.389  1.00 20.00     0.182 C 
HETATM    4  C4  UNL     1     -33.245   6.876   5.143  1.00 20.00     0.070 C 
HETATM    5  O5  UNL     1     -34.878   5.751   6.436  1.00 20.00    -0.390 OA
ENDROOT
BRANCH   4   6
HETATM    6  S6  UNL     1     -32.794   8.495   4.472  1.00 20.00    -0.175 SA
HETATM    7  H14 UNL     1     -31.755   8.053   3.753  1.00 20.00     0.102 HD
ENDBRANCH   4   6
TORSDOF 1
ENDMDL
MODEL 4
REMARK VINA RESULT:      -3.1      2.628      3.359
REMARK  1 active torsions:
REMARK  status: ('A' for Active; 'I' for Inactive)
REMARK    1  A    between atoms: C4_4  and  S6_6 
ROOT
HETATM    1  C1  UNL     1     -32.956   6.338   3.511  1.00 20.00     0.043 C 
HETATM    2  C2  UNL     1     -32.210   7.643   3.324  1.00 20.00     0.168 C 
HETATM    3  C3  UNL     1     -33.206   7.669   5.433  1.00 20.00     0.182 C 
HETATM    4  C4  UNL     1     -33.994   6.729   4.537  1.00 20.00     0.070 C 
HETATM    5  O5  UNL     1     -32.242   8.320   4.589  1.00 20.00    -0.390 OA
ENDROOT
BRANCH   4   6
HETATM    6  S6  UNL     1     -34.690   5.315   5.424  1.00 20.00    -0.175 SA
HETATM    7  H14 UNL     1     -34.191   5.651   6.619  1.00 20.00     0.102 HD
ENDBRANCH   4   6
TORSDOF 1
ENDMDL
MODEL 5
REMARK VINA RESULT:      -3.0      2.615      3.082
REMARK  1 active torsions:
REMARK  status: ('A' for Active; 'I' for Inactive)
REMARK    1  A    between atoms: C4_4  and  S6_6 
ROOT
HETATM    1  C1  UNL     1     -33.642   8.067   5.112  1.00 20.00     0.043 C 
HETATM    2  C2  UNL     1     -32.341   8.614   4.563  1.00 20.00     0.168 C 
HETATM    3  C3  UNL     1     -32.839   6.644   3.421  1.00 20.00     0.182 C 
HETATM    4  C4  UNL     1     -33.512   6.598   4.781  1.00 20.00     0.070 C 
HETATM    5  O5  UNL     1     -32.006   7.815   3.419  1.00 20.00    -0.390 OA
ENDROOT
BRANCH   4   6
HETATM    6  S6  UNL     1     -35.097   5.727   4.764  1.00 20.00    -0.175 SA
HETATM    7  H14 UNL     1     -35.477   6.123   5.985  1.00 20.00     0.102 HD
ENDBRANCH   4   6
TORSDOF 1
ENDMDL
MODEL 6
REMARK VINA RESULT:      -2.7     13.617     13.763
REMARK  1 active torsions:
REMARK  status: ('A' for Active; 'I' for Inactive)
REMARK    1  A    between atoms: C4_4  and  S6_6 
ROOT
HETATM    1  C1  UNL     1     -32.281  18.846   1.297  1.00 20.00     0.043 C 
HETATM    2  C2  UNL     1     -30.849  18.451   1.006  1.00 20.00     0.168 C 
HETATM    3  C3  UNL     1     -31.939  18.779  -1.028  1.00 20.00     0.182 C 
HETATM    4  C4  UNL     1     -32.974  18.420   0.023  1.00 20.00     0.070 C 
HETATM    5  O5  UNL     1     -30.654  18.612  -0.406  1.00 20.00    -0.390 OA
ENDROOT
BRANCH   4   6
HETATM    6  S6  UNL     1     -34.566  19.241  -0.232  1.00 20.00    -0.175 SA
HETATM    7  H14 UNL     1     -34.956  19.171   1.046  1.00 20.00     0.102 HD
ENDBRANCH   4   6
TORSDOF 1
ENDMDL
MODEL 7
REMARK VINA RESULT:      -2.6      9.498      9.838
REMARK  1 active torsions:
REMARK  status: ('A' for Active; 'I' for Inactive)
REMARK    1  A    between atoms: C4_4  and  S6_6 
ROOT
HETATM    1  C1  UNL     1     -41.045   7.229   0.762  1.00 20.00     0.043 C 
HETATM    2  C2  UNL     1     -41.194   8.271  -0.327  1.00 20.00     0.168 C 
HETATM    3  C3  UNL     1     -43.008   6.812  -0.462  1.00 20.00     0.182 C 
HETATM    4  C4  UNL     1     -41.849   6.083   0.193  1.00 20.00     0.070 C 
HETATM    5  O5  UNL     1     -42.493   8.077  -0.908  1.00 20.00    -0.390 OA
ENDROOT
BRANCH   4   6
HETATM    6  S6  UNL     1     -42.373   4.888   1.446  1.00 20.00    -0.175 SA
HETATM    7  H14 UNL     1     -41.180   4.795   2.045  1.00 20.00     0.102 HD
ENDBRANCH   4   6
TORSDOF 1
ENDMDL
MODEL 8
REMARK VINA RESULT:      -2.6     16.777     17.359
REMARK  1 active torsions:
REMARK  status: ('A' for Active; 'I' for Inactive)
REMARK    1  A    between atoms: C4_4  and  S6_6 
ROOT
HETATM    1  C1  UNL     1     -23.519  17.506  10.256  1.00 20.00     0.043 C 
HETATM    2  C2  UNL     1     -22.174  18.184  10.098  1.00 20.00     0.168 C 
HETATM    3  C3  UNL     1     -22.818  18.359  12.332  1.00 20.00     0.182 C 
HETATM    4  C4  UNL     1     -24.065  18.205  11.479  1.00 20.00     0.070 C 
HETATM    5  O5  UNL     1     -21.719  18.511  11.419  1.00 20.00    -0.390 OA
ENDROOT
BRANCH   4   6
HETATM    6  S6  UNL     1     -25.382  17.277  12.302  1.00 20.00    -0.175 SA
HETATM    7  H14 UNL     1     -25.422  18.049  13.396  1.00 20.00     0.102 HD
ENDBRANCH   4   6
TORSDOF 1
ENDMDL
MODEL 9
REMARK VINA RESULT:      -2.6     16.548     17.061
REMARK  1 active torsions:
REMARK  status: ('A' for Active; 'I' for Inactive)
REMARK    1  A    between atoms: C4_4  and  S6_6 
ROOT
HETATM    1  C1  UNL     1     -22.062  18.514  11.161  1.00 20.00     0.043 C 
HETATM    2  C2  UNL     1     -23.009  18.357  12.332  1.00 20.00     0.168 C 
HETATM    3  C3  UNL     1     -23.776  17.008  10.591  1.00 20.00     0.182 C 
HETATM    4  C4  UNL     1     -22.956  18.141  10.000  1.00 20.00     0.070 C 
HETATM    5  O5  UNL     1     -23.912  17.294  11.993  1.00 20.00    -0.390 OA
ENDROOT
BRANCH   4   6
HETATM    6  S6  UNL     1     -22.037  17.660   8.518  1.00 20.00    -0.175 SA
HETATM    7  H14 UNL     1     -20.966  17.195   9.173  1.00 20.00     0.102 HD
ENDBRANCH   4   6
TORSDOF 1
ENDMDL
