MODEL 1
REMARK VINA RESULT:      -3.8      0.000      0.000
REMARK  3 active torsions:
REMARK  status: ('A' for Active; 'I' for Inactive)
REMARK    1  A    between atoms: C4_4  and  C6_6 
REMARK    2  A    between atoms: C7_7  and  C8_8 
REMARK    3  A    between atoms: C8_8  and  N9_9 
ROOT
HETATM    1  C1  UNL     1     -33.597   4.780   3.349  1.00 20.00     0.032 C 
HETATM    2  C2  UNL     1     -34.299   5.549   4.462  1.00 20.00     0.038 C 
HETATM    3  C3  UNL     1     -32.811   5.828   2.576  1.00 20.00     0.273 C 
HETATM    4  C4  UNL     1     -33.872   7.007   4.279  1.00 20.00     0.236 C 
HETATM    5  N9  UNL     1     -32.591   6.882   3.569  1.00 20.00     0.094 N 
ENDROOT
BRANCH   5   6
HETATM    6  C8  UNL     1     -32.156   8.124   2.941  1.00 20.00     0.272 C 
BRANCH   6   7
HETATM    7  C7  UNL     1     -32.157   8.036   1.419  1.00 20.00     0.026 C 
HETATM    8  C5  UNL     1     -32.705   9.293   0.759  1.00 20.00     0.007 C 
ENDBRANCH   6   7
ENDBRANCH   5   6
BRANCH   4   9
HETATM    9  C6  UNL     1     -33.756   7.733   5.613  1.00 20.00     0.150 C 
HETATM   10 CL10 UNL     1     -34.475   6.758   6.907  1.00 20.00    -0.128 Cl
ENDBRANCH   4   9
TORSDOF 3
ENDMDL
MODEL 2
REMARK VINA RESULT:      -3.6     15.546     16.712
REMARK  3 active torsions:
REMARK  status: ('A' for Active; 'I' for Inactive)
REMARK    1  A    between atoms: C4_4  and  C6_6 
REMARK    2  A    between atoms: C7_7  and  C8_8 
REMARK    3  A    between atoms: C8_8  and  N9_9 
ROOT
HETATM    1  C1  UNL     1     -21.537  18.177   8.178  1.00 20.00     0.032 C 
HETATM    2  C2  UNL     1     -22.821  18.940   7.872  1.00 20.00     0.038 C 
HETATM    3  C3  UNL     1     -21.468  18.107   9.695  1.00 20.00     0.273 C 
HETATM    4  C4  UNL     1     -23.435  19.263   9.235  1.00 20.00     0.236 C 
HETATM    5  N9  UNL     1     -22.872  18.216  10.100  1.00 20.00     0.094 N 
ENDROOT
BRANCH   5   6
HETATM    6  C8  UNL     1     -22.995  18.514  11.522  1.00 20.00     0.272 C 
BRANCH   6   7
HETATM    7  C7  UNL     1     -23.454  17.306  12.331  1.00 20.00     0.026 C 
HETATM    8  C5  UNL     1     -24.506  16.478  11.606  1.00 20.00     0.007 C 
ENDBRANCH   6   7
ENDBRANCH   5   6
BRANCH   4   9
HETATM    9  C6  UNL     1     -24.958  19.252   9.186  1.00 20.00     0.150 C 
HETATM   10 CL10 UNL     1     -25.517  19.262   7.504  1.00 20.00    -0.128 Cl
ENDBRANCH   4   9
TORSDOF 3
ENDMDL
MODEL 3
REMARK VINA RESULT:      -3.5      2.007      2.905
REMARK  3 active torsions:
REMARK  status: ('A' for Active; 'I' for Inactive)
REMARK    1  A    between atoms: C4_4  and  C6_6 
REMARK    2  A    between atoms: C7_7  and  C8_8 
REMARK    3  A    between atoms: C8_8  and  N9_9 
ROOT
HETATM    1  C1  UNL     1     -34.653   6.455   6.656  1.00 20.00     0.032 C 
HETATM    2  C2  UNL     1     -34.679   5.358   5.598  1.00 20.00     0.038 C 
HETATM    3  C3  UNL     1     -33.592   7.437   6.185  1.00 20.00     0.273 C 
HETATM    4  C4  UNL     1     -33.633   5.772   4.561  1.00 20.00     0.236 C 
HETATM    5  N9  UNL     1     -33.562   7.230   4.736  1.00 20.00     0.094 N 
ENDROOT
BRANCH   5   6
HETATM    6  C8  UNL     1     -32.375   7.826   4.136  1.00 20.00     0.272 C 
BRANCH   6   7
HETATM    7  C7  UNL     1     -32.714   8.745   2.968  1.00 20.00     0.026 C 
HETATM    8  C5  UNL     1     -32.201   8.216   1.636  1.00 20.00     0.007 C 
ENDBRANCH   6   7
ENDBRANCH   5   6
BRANCH   4   9
HETATM    9  C6  UNL     1     -34.035   5.350   3.153  1.00 20.00     0.150 C 
HETATM   10 CL10 UNL     1     -32.636   4.691   2.287  1.00 20.00    -0.128 Cl
ENDBRANCH   4   9
TORSDOF 3
ENDMDL
MODEL 4
REMARK VINA RESULT:      -3.4      9.896     11.030
REMARK  3 active torsions:
REMARK  status: ('A' for Active; 'I' for Inactive)
REMARK    1  A    between atoms: C4_4  and  C6_6 
REMARK    2  A    between atoms: C7_7  and  C8_8 
REMARK    3  A    between atoms: C8_8  and  N9_9 
ROOT
HETATM    1  C1  UNL     1     -43.261  13.051   7.709  1.00 20.00     0.032 C 
HETATM    2  C2  UNL     1     -42.870  14.505   7.949  1.00 20.00     0.038 C 
HETATM    3  C3  UNL     1     -42.187  12.497   6.785  1.00 20.00     0.273 C 
HETATM    4  C4  UNL     1     -41.579  14.713   7.155  1.00 20.00     0.236 C 
HETATM    5  N9  UNL     1     -41.031  13.351   7.065  1.00 20.00     0.094 N 
ENDROOT
BRANCH   5   6
HETATM    6  C8  UNL     1     -40.003  13.209   6.042  1.00 20.00     0.272 C 
BRANCH   6   7
HETATM    7  C7  UNL     1     -39.787  11.757   5.633  1.00 20.00     0.026 C 
HETATM    8  C5  UNL     1     -39.126  11.623   4.269  1.00 20.00     0.007 C 
ENDBRANCH   6   7
ENDBRANCH   5   6
BRANCH   4   9
HETATM    9  C6  UNL     1     -40.643  15.697   7.847  1.00 20.00     0.150 C 
HETATM   10 CL10 UNL     1     -40.076  15.025   9.387  1.00 20.00    -0.128 Cl
ENDBRANCH   4   9
TORSDOF 3
ENDMDL
MODEL 5
REMARK VINA RESULT:      -3.3      2.309      4.007
REMARK  3 active torsions:
REMARK  status: ('A' for Active; 'I' for Inactive)
REMARK    1  A    between atoms: C4_4  and  C6_6 
REMARK    2  A    between atoms: C7_7  and  C8_8 
REMARK    3  A    between atoms: C8_8  and  N9_9 
ROOT
HETATM    1  C1  UNL     1     -32.921   5.589   2.618  1.00 20.00     0.032 C 
HETATM    2  C2  UNL     1     -32.108   6.871   2.472  1.00 20.00     0.038 C 
HETATM    3  C3  UNL     1     -33.668   5.740   3.934  1.00 20.00     0.273 C 
HETATM    4  C4  UNL     1     -32.438   7.704   3.712  1.00 20.00     0.236 C 
HETATM    5  N9  UNL     1     -33.760   7.193   4.103  1.00 20.00     0.094 N 
ENDROOT
BRANCH   5   6
HETATM    6  C8  UNL     1     -34.137   7.548   5.465  1.00 20.00     0.272 C 
BRANCH   6   7
HETATM    7  C7  UNL     1     -33.738   6.480   6.476  1.00 20.00     0.026 C 
HETATM    8  C5  UNL     1     -34.801   5.404   6.646  1.00 20.00     0.007 C 
ENDBRANCH   6   7
ENDBRANCH   5   6
BRANCH   4   9
HETATM    9  C6  UNL     1     -32.432   9.196   3.408  1.00 20.00     0.150 C 
HETATM   10 CL10 UNL     1     -32.836   9.477   1.705  1.00 20.00    -0.128 Cl
ENDBRANCH   4   9
TORSDOF 3
ENDMDL
MODEL 6
REMARK VINA RESULT:      -3.3      2.471      4.531
REMARK  3 active torsions:
REMARK  status: ('A' for Active; 'I' for Inactive)
REMARK    1  A    between atoms: C4_4  and  C6_6 
REMARK    2  A    between atoms: C7_7  and  C8_8 
REMARK    3  A    between atoms: C8_8  and  N9_9 
ROOT
HETATM    1  C1  UNL     1     -32.524   8.987   5.292  1.00 20.00     0.032 C 
HETATM    2  C2  UNL     1     -32.277   9.218   3.805  1.00 20.00     0.038 C 
HETATM    3  C3  UNL     1     -33.313   7.690   5.368  1.00 20.00     0.273 C 
HETATM    4  C4  UNL     1     -32.931   8.029   3.097  1.00 20.00     0.236 C 
HETATM    5  N9  UNL     1     -32.929   6.991   4.139  1.00 20.00     0.094 N 
ENDROOT
BRANCH   5   6
HETATM    6  C8  UNL     1     -33.832   5.883   3.852  1.00 20.00     0.272 C 
BRANCH   6   7
HETATM    7  C7  UNL     1     -34.998   5.815   4.831  1.00 20.00     0.026 C 
HETATM    8  C5  UNL     1     -34.677   4.993   6.071  1.00 20.00     0.007 C 
ENDBRANCH   6   7
ENDBRANCH   5   6
BRANCH   4   9
HETATM    9  C6  UNL     1     -32.166   7.627   1.843  1.00 20.00     0.150 C 
HETATM   10 CL10 UNL     1     -32.428   8.820   0.557  1.00 20.00    -0.128 Cl
ENDBRANCH   4   9
TORSDOF 3
ENDMDL
MODEL 7
REMARK VINA RESULT:      -3.3      9.845     11.011
REMARK  3 active torsions:
REMARK  status: ('A' for Active; 'I' for Inactive)
REMARK    1  A    between atoms: C4_4  and  C6_6 
REMARK    2  A    between atoms: C7_7  and  C8_8 
REMARK    3  A    between atoms: C8_8  and  N9_9 
ROOT
HETATM    1  C1  UNL     1     -42.315  15.462   5.706  1.00 20.00     0.032 C 
HETATM    2  C2  UNL     1     -41.434  15.713   6.925  1.00 20.00     0.038 C 
HETATM    3  C3  UNL     1     -41.952  14.062   5.236  1.00 20.00     0.273 C 
HETATM    4  C4  UNL     1     -40.612  14.435   7.101  1.00 20.00     0.236 C 
HETATM    5  N9  UNL     1     -41.452  13.418   6.452  1.00 20.00     0.094 N 
ENDROOT
BRANCH   5   6
HETATM    6  C8  UNL     1     -40.736  12.186   6.148  1.00 20.00     0.272 C 
BRANCH   6   7
HETATM    7  C7  UNL     1     -39.359  12.447   5.550  1.00 20.00     0.026 C 
HETATM    8  C5  UNL     1     -39.133  11.701   4.243  1.00 20.00     0.007 C 
ENDBRANCH   6   7
ENDBRANCH   5   6
BRANCH   4   9
HETATM    9  C6  UNL     1     -40.332  14.141   8.570  1.00 20.00     0.150 C 
HETATM   10 CL10 UNL     1     -40.225  15.654   9.488  1.00 20.00    -0.128 Cl
ENDBRANCH   4   9
TORSDOF 3
ENDMDL
MODEL 8
REMARK VINA RESULT:      -3.2     11.497     13.042
REMARK  3 active torsions:
REMARK  status: ('A' for Active; 'I' for Inactive)
REMARK    1  A    between atoms: C4_4  and  C6_6 
REMARK    2  A    between atoms: C7_7  and  C8_8 
REMARK    3  A    between atoms: C8_8  and  N9_9 
ROOT
HETATM    1  C1  UNL     1     -33.325  16.249  -3.076  1.00 20.00     0.032 C 
HETATM    2  C2  UNL     1     -33.662  15.062  -3.971  1.00 20.00     0.038 C 
HETATM    3  C3  UNL     1     -33.747  17.476  -3.868  1.00 20.00     0.273 C 
HETATM    4  C4  UNL     1     -34.273  15.668  -5.235  1.00 20.00     0.236 C 
HETATM    5  N9  UNL     1     -34.789  16.960  -4.758  1.00 20.00     0.094 N 
ENDROOT
BRANCH   5   6
HETATM    6  C8  UNL     1     -35.083  17.897  -5.835  1.00 20.00     0.272 C 
BRANCH   6   7
HETATM    7  C7  UNL     1     -36.549  18.315  -5.857  1.00 20.00     0.026 C 
HETATM    8  C5  UNL     1     -37.341  17.744  -4.689  1.00 20.00     0.007 C 
ENDBRANCH   6   7
ENDBRANCH   5   6
BRANCH   4   9
HETATM    9  C6  UNL     1     -35.350  14.770  -5.830  1.00 20.00     0.150 C 
HETATM   10 CL10 UNL     1     -35.953  13.641  -4.603  1.00 20.00    -0.128 Cl
ENDBRANCH   4   9
TORSDOF 3
ENDMDL
MODEL 9
REMARK VINA RESULT:      -3.2     11.534     13.163
REMARK  3 active torsions:
REMARK  status: ('A' for Active; 'I' for Inactive)
REMARK    1  A    between atoms: C4_4  and  C6_6 
REMARK    2  A    between atoms: C7_7  and  C8_8 
REMARK    3  A    between atoms: C8_8  and  N9_9 
ROOT
HETATM    1  C1  UNL     1     -33.332  16.269  -3.098  1.00 20.00     0.032 C 
HETATM    2  C2  UNL     1     -33.640  15.102  -4.029  1.00 20.00     0.038 C 
HETATM    3  C3  UNL     1     -33.895  17.496  -3.797  1.00 20.00     0.273 C 
HETATM    4  C4  UNL     1     -34.378  15.718  -5.219  1.00 20.00     0.236 C 
HETATM    5  N9  UNL     1     -34.954  16.943  -4.645  1.00 20.00     0.094 N 
ENDROOT
BRANCH   5   6
HETATM    6  C8  UNL     1     -35.389  17.904  -5.650  1.00 20.00     0.272 C 
BRANCH   6   7
HETATM    7  C7  UNL     1     -34.230  18.715  -6.218  1.00 20.00     0.026 C 
HETATM    8  C5  UNL     1     -34.017  18.475  -7.706  1.00 20.00     0.007 C 
ENDBRANCH   6   7
ENDBRANCH   5   6
BRANCH   4   9
HETATM    9  C6  UNL     1     -35.423  14.768  -5.790  1.00 20.00     0.150 C 
HETATM   10 CL10 UNL     1     -35.904  13.579  -4.566  1.00 20.00    -0.128 Cl
ENDBRANCH   4   9
TORSDOF 3
ENDMDL
