MODEL 1
REMARK VINA RESULT:      -4.0      0.000      0.000
REMARK  3 active torsions:
REMARK  status: ('A' for Active; 'I' for Inactive)
REMARK    1  A    between atoms: C2_2  and  C8_8 
REMARK    2  A    between atoms: C7_7  and  C9_9 
REMARK    3  A    between atoms: C8_8  and  N10_10 
ROOT
HETATM    1  C3  UNL     1     -34.240  18.585   0.854  1.00 20.00     0.031 C 
HETATM    2  C4  UNL     1     -34.302  18.444  -0.663  1.00 20.00     0.009 C 
HETATM    3  C5  UNL     1     -32.944  19.263   1.298  1.00 20.00     0.272 C 
HETATM    4  C6  UNL     1     -31.778  18.466  -0.674  1.00 20.00     0.278 C 
HETATM    5  C7  UNL     1     -33.039  17.753  -1.190  1.00 20.00     0.028 C 
HETATM    6  N10 UNL     1     -31.769  18.536   0.795  1.00 20.00     0.092 N 
ENDROOT
BRANCH   6   7
HETATM    7  C8  UNL     1     -30.538  19.166   1.271  1.00 20.00     0.299 C 
BRANCH   7   8
HETATM    8  C2  UNL     1     -30.321  18.781   2.697  1.00 20.00    -0.007 C 
HETATM    9  C1  UNL     1     -29.114  18.650   3.260  1.00 20.00     0.008 C 
ENDBRANCH   7   8
ENDBRANCH   6   7
BRANCH   5  10
HETATM   10  C9  UNL     1     -33.048  17.704  -2.716  1.00 20.00     0.121 C 
HETATM   11 CL11 UNL     1     -33.339  16.045  -3.270  1.00 20.00    -0.130 Cl
ENDBRANCH   5  10
TORSDOF 3
ENDMDL
MODEL 2
REMARK VINA RESULT:      -3.9      2.573      4.707
REMARK  3 active torsions:
REMARK  status: ('A' for Active; 'I' for Inactive)
REMARK    1  A    between atoms: C2_2  and  C8_8 
REMARK    2  A    between atoms: C7_7  and  C9_9 
REMARK    3  A    between atoms: C8_8  and  N10_10 
ROOT
HETATM    1  C3  UNL     1     -34.115  19.263   0.758  1.00 20.00     0.031 C 
HETATM    2  C4  UNL     1     -32.869  18.978   1.588  1.00 20.00     0.009 C 
HETATM    3  C5  UNL     1     -34.074  18.525  -0.580  1.00 20.00     0.272 C 
HETATM    4  C6  UNL     1     -31.648  18.518  -0.573  1.00 20.00     0.278 C 
HETATM    5  C7  UNL     1     -31.603  19.263   0.772  1.00 20.00     0.028 C 
HETATM    6  N10 UNL     1     -32.859  18.865  -1.333  1.00 20.00     0.092 N 
ENDROOT
BRANCH   6   7
HETATM    7  C8  UNL     1     -32.858  18.193  -2.632  1.00 20.00     0.299 C 
BRANCH   7   8
HETATM    8  C2  UNL     1     -33.301  16.779  -2.442  1.00 20.00    -0.007 C 
HETATM    9  C1  UNL     1     -33.379  15.882  -3.432  1.00 20.00     0.008 C 
ENDBRANCH   7   8
ENDBRANCH   6   7
BRANCH   5  10
HETATM   10  C9  UNL     1     -30.353  18.880   1.562  1.00 20.00     0.121 C 
HETATM   11 CL11 UNL     1     -30.713  18.857   3.298  1.00 20.00    -0.130 Cl
ENDBRANCH   5  10
TORSDOF 3
ENDMDL
MODEL 3
REMARK VINA RESULT:      -3.8     11.416     12.047
REMARK  3 active torsions:
REMARK  status: ('A' for Active; 'I' for Inactive)
REMARK    1  A    between atoms: C2_2  and  C8_8 
REMARK    2  A    between atoms: C7_7  and  C9_9 
REMARK    3  A    between atoms: C8_8  and  N10_10 
ROOT
HETATM    1  C3  UNL     1     -32.517   9.226   5.241  1.00 20.00     0.031 C 
HETATM    2  C4  UNL     1     -33.603   8.369   5.882  1.00 20.00     0.009 C 
HETATM    3  C5  UNL     1     -32.457   9.010   3.729  1.00 20.00     0.272 C 
HETATM    4  C6  UNL     1     -33.345   6.764   3.951  1.00 20.00     0.278 C 
HETATM    5  C7  UNL     1     -33.434   6.899   5.481  1.00 20.00     0.028 C 
HETATM    6  N10 UNL     1     -32.257   7.590   3.406  1.00 20.00     0.092 N 
ENDROOT
BRANCH   6   7
HETATM    7  C8  UNL     1     -32.150   7.406   1.959  1.00 20.00     0.299 C 
BRANCH   7   8
HETATM    8  C2  UNL     1     -32.374   8.722   1.289  1.00 20.00    -0.007 C 
HETATM    9  C1  UNL     1     -32.710   8.855   0.001  1.00 20.00     0.008 C 
ENDBRANCH   7   8
ENDBRANCH   6   7
BRANCH   5  10
HETATM   10  C9  UNL     1     -34.579   6.053   6.034  1.00 20.00     0.121 C 
HETATM   11 CL11 UNL     1     -34.964   4.739   4.909  1.00 20.00    -0.130 Cl
ENDBRANCH   5  10
TORSDOF 3
ENDMDL
MODEL 4
REMARK VINA RESULT:      -3.7      2.185      3.615
REMARK  3 active torsions:
REMARK  status: ('A' for Active; 'I' for Inactive)
REMARK    1  A    between atoms: C2_2  and  C8_8 
REMARK    2  A    between atoms: C7_7  and  C9_9 
REMARK    3  A    between atoms: C8_8  and  N10_10 
ROOT
HETATM    1  C3  UNL     1     -34.842  18.643  -3.876  1.00 20.00     0.031 C 
HETATM    2  C4  UNL     1     -34.187  17.482  -4.615  1.00 20.00     0.009 C 
HETATM    3  C5  UNL     1     -34.110  18.956  -2.571  1.00 20.00     0.272 C 
HETATM    4  C6  UNL     1     -33.332  16.667  -2.385  1.00 20.00     0.278 C 
HETATM    5  C7  UNL     1     -34.043  16.269  -3.689  1.00 20.00     0.028 C 
HETATM    6  N10 UNL     1     -34.035  17.768  -1.710  1.00 20.00     0.092 N 
ENDROOT
BRANCH   6   7
HETATM    7  C8  UNL     1     -33.379  18.095  -0.444  1.00 20.00     0.299 C 
BRANCH   7   8
HETATM    8  C2  UNL     1     -31.943  18.404  -0.713  1.00 20.00    -0.007 C 
HETATM    9  C1  UNL     1     -31.030  18.599   0.245  1.00 20.00     0.008 C 
ENDBRANCH   7   8
ENDBRANCH   6   7
BRANCH   5  10
HETATM   10  C9  UNL     1     -33.293  15.139  -4.392  1.00 20.00     0.121 C 
HETATM   11 CL11 UNL     1     -33.880  14.961  -6.056  1.00 20.00    -0.130 Cl
ENDBRANCH   5  10
TORSDOF 3
ENDMDL
MODEL 5
REMARK VINA RESULT:      -3.7     11.201     12.354
REMARK  3 active torsions:
REMARK  status: ('A' for Active; 'I' for Inactive)
REMARK    1  A    between atoms: C2_2  and  C8_8 
REMARK    2  A    between atoms: C7_7  and  C9_9 
REMARK    3  A    between atoms: C8_8  and  N10_10 
ROOT
HETATM    1  C3  UNL     1     -42.228  15.493   5.882  1.00 20.00     0.031 C 
HETATM    2  C4  UNL     1     -41.974  15.915   7.325  1.00 20.00     0.009 C 
HETATM    3  C5  UNL     1     -42.013  13.991   5.696  1.00 20.00     0.272 C 
HETATM    4  C6  UNL     1     -40.440  13.923   7.540  1.00 20.00     0.278 C 
HETATM    5  C7  UNL     1     -40.597  15.432   7.792  1.00 20.00     0.028 C 
HETATM    6  N10 UNL     1     -40.665  13.593   6.125  1.00 20.00     0.092 N 
ENDROOT
BRANCH   6   7
HETATM    7  C8  UNL     1     -40.456  12.164   5.893  1.00 20.00     0.299 C 
BRANCH   7   8
HETATM    8  C2  UNL     1     -39.114  11.970   5.268  1.00 20.00    -0.007 C 
HETATM    9  C1  UNL     1     -38.929  11.651   3.982  1.00 20.00     0.008 C 
ENDBRANCH   7   8
ENDBRANCH   6   7
BRANCH   5  10
HETATM   10  C9  UNL     1     -40.381  15.761   9.268  1.00 20.00     0.121 C 
HETATM   11 CL11 UNL     1     -40.523  14.290  10.247  1.00 20.00    -0.130 Cl
ENDBRANCH   5  10
TORSDOF 3
ENDMDL
MODEL 6
REMARK VINA RESULT:      -3.7      3.510      5.505
REMARK  3 active torsions:
REMARK  status: ('A' for Active; 'I' for Inactive)
REMARK    1  A    between atoms: C2_2  and  C8_8 
REMARK    2  A    between atoms: C7_7  and  C9_9 
REMARK    3  A    between atoms: C8_8  and  N10_10 
ROOT
HETATM    1  C3  UNL     1     -33.434  14.770  -4.542  1.00 20.00     0.031 C 
HETATM    2  C4  UNL     1     -34.747  14.883  -5.310  1.00 20.00     0.009 C 
HETATM    3  C5  UNL     1     -33.363  15.793  -3.407  1.00 20.00     0.272 C 
HETATM    4  C6  UNL     1     -34.853  17.300  -4.587  1.00 20.00     0.278 C 
HETATM    5  C7  UNL     1     -34.975  16.327  -5.772  1.00 20.00     0.028 C 
HETATM    6  N10 UNL     1     -33.552  17.159  -3.915  1.00 20.00     0.092 N 
ENDROOT
BRANCH   6   7
HETATM    7  C8  UNL     1     -33.430  18.130  -2.828  1.00 20.00     0.299 C 
BRANCH   7   8
HETATM    8  C2  UNL     1     -33.413  17.396  -1.528  1.00 20.00    -0.007 C 
HETATM    9  C1  UNL     1     -33.797  17.931  -0.363  1.00 20.00     0.008 C 
ENDBRANCH   7   8
ENDBRANCH   6   7
BRANCH   5  10
HETATM   10  C9  UNL     1     -36.337  16.467  -6.450  1.00 20.00     0.121 C 
HETATM   11 CL11 UNL     1     -37.632  16.077  -5.303  1.00 20.00    -0.130 Cl
ENDBRANCH   5  10
TORSDOF 3
ENDMDL
MODEL 7
REMARK VINA RESULT:      -3.7     12.094     12.665
REMARK  3 active torsions:
REMARK  status: ('A' for Active; 'I' for Inactive)
REMARK    1  A    between atoms: C2_2  and  C8_8 
REMARK    2  A    between atoms: C7_7  and  C9_9 
REMARK    3  A    between atoms: C8_8  and  N10_10 
ROOT
HETATM    1  C3  UNL     1     -33.120   5.028   2.605  1.00 20.00     0.031 C 
HETATM    2  C4  UNL     1     -33.646   4.691   3.996  1.00 20.00     0.009 C 
HETATM    3  C5  UNL     1     -32.323   6.333   2.612  1.00 20.00     0.272 C 
HETATM    4  C6  UNL     1     -33.573   7.160   4.519  1.00 20.00     0.278 C 
HETATM    5  C7  UNL     1     -34.422   5.878   4.578  1.00 20.00     0.028 C 
HETATM    6  N10 UNL     1     -33.128   7.440   3.146  1.00 20.00     0.092 N 
ENDROOT
BRANCH   6   7
HETATM    7  C8  UNL     1     -32.371   8.691   3.098  1.00 20.00     0.299 C 
BRANCH   7   8
HETATM    8  C2  UNL     1     -32.938   9.555   2.020  1.00 20.00    -0.007 C 
HETATM    9  C1  UNL     1     -32.682   9.389   0.718  1.00 20.00     0.008 C 
ENDBRANCH   7   8
ENDBRANCH   6   7
BRANCH   5  10
HETATM   10  C9  UNL     1     -34.861   5.585   6.012  1.00 20.00     0.121 C 
HETATM   11 CL11 UNL     1     -34.455   6.952   7.065  1.00 20.00    -0.130 Cl
ENDBRANCH   5  10
TORSDOF 3
ENDMDL
MODEL 8
REMARK VINA RESULT:      -3.7      3.263      6.241
REMARK  3 active torsions:
REMARK  status: ('A' for Active; 'I' for Inactive)
REMARK    1  A    between atoms: C2_2  and  C8_8 
REMARK    2  A    between atoms: C7_7  and  C9_9 
REMARK    3  A    between atoms: C8_8  and  N10_10 
ROOT
HETATM    1  C3  UNL     1     -33.621  18.787  -4.261  1.00 20.00     0.031 C 
HETATM    2  C4  UNL     1     -33.534  19.106  -2.773  1.00 20.00     0.009 C 
HETATM    3  C5  UNL     1     -34.182  17.385  -4.497  1.00 20.00     0.272 C 
HETATM    4  C6  UNL     1     -33.360  16.624  -2.346  1.00 20.00     0.278 C 
HETATM    5  C7  UNL     1     -32.764  18.007  -2.032  1.00 20.00     0.028 C 
HETATM    6  N10 UNL     1     -33.383  16.371  -3.794  1.00 20.00     0.092 N 
ENDROOT
BRANCH   6   7
HETATM    7  C8  UNL     1     -33.900  15.031  -4.071  1.00 20.00     0.299 C 
BRANCH   7   8
HETATM    8  C2  UNL     1     -34.874  15.115  -5.200  1.00 20.00    -0.007 C 
HETATM    9  C1  UNL     1     -35.931  14.307  -5.335  1.00 20.00     0.008 C 
ENDBRANCH   7   8
ENDBRANCH   6   7
BRANCH   5  10
HETATM   10  C9  UNL     1     -32.764  18.269  -0.527  1.00 20.00     0.121 C 
HETATM   11 CL11 UNL     1     -31.101  18.456   0.059  1.00 20.00    -0.130 Cl
ENDBRANCH   5  10
TORSDOF 3
ENDMDL
MODEL 9
REMARK VINA RESULT:      -3.6     11.403     11.926
REMARK  3 active torsions:
REMARK  status: ('A' for Active; 'I' for Inactive)
REMARK    1  A    between atoms: C2_2  and  C8_8 
REMARK    2  A    between atoms: C7_7  and  C9_9 
REMARK    3  A    between atoms: C8_8  and  N10_10 
ROOT
HETATM    1  C3  UNL     1     -42.276  14.194   5.118  1.00 20.00     0.031 C 
HETATM    2  C4  UNL     1     -41.069  13.291   4.891  1.00 20.00     0.009 C 
HETATM    3  C5  UNL     1     -41.995  15.237   6.199  1.00 20.00     0.272 C 
HETATM    4  C6  UNL     1     -40.368  13.788   7.264  1.00 20.00     0.278 C 
HETATM    5  C7  UNL     1     -40.594  12.685   6.217  1.00 20.00     0.028 C 
HETATM    6  N10 UNL     1     -41.581  14.598   7.456  1.00 20.00     0.092 N 
ENDROOT
BRANCH   6   7
HETATM    7  C8  UNL     1     -41.366  15.604   8.495  1.00 20.00     0.299 C 
BRANCH   7   8
HETATM    8  C2  UNL     1     -40.205  15.186   9.336  1.00 20.00    -0.007 C 
HETATM    9  C1  UNL     1     -40.220  15.172  10.674  1.00 20.00     0.008 C 
ENDBRANCH   7   8
ENDBRANCH   6   7
BRANCH   5  10
HETATM   10  C9  UNL     1     -39.323  11.864   6.010  1.00 20.00     0.121 C 
HETATM   11 CL11 UNL     1     -38.982  11.694   4.279  1.00 20.00    -0.130 Cl
ENDBRANCH   5  10
TORSDOF 3
ENDMDL
