MODEL 1
REMARK VINA RESULT:      -3.6      0.000      0.000
REMARK  3 active torsions:
REMARK  status: ('A' for Active; 'I' for Inactive)
REMARK    1  A    between atoms: C4_4  and  C7_7 
REMARK    2  A    between atoms: C8_8  and  C9_9 
REMARK    3  A    between atoms: C8_8  and  N10_10 
ROOT
HETATM    1  C1  UNL     1     -33.630  15.236  -4.166  1.00 20.00     0.032 C 
HETATM    2  C2  UNL     1     -34.360  16.161  -5.134  1.00 20.00     0.038 C 
HETATM    3  C3  UNL     1     -33.276  16.108  -2.972  1.00 20.00     0.273 C 
HETATM    4  C4  UNL     1     -34.394  17.525  -4.441  1.00 20.00     0.236 C 
HETATM    5  N10 UNL     1     -33.236  17.458  -3.540  1.00 20.00     0.094 N 
ENDROOT
BRANCH   5   6
HETATM    6  C8  UNL     1     -33.255  18.477  -2.497  1.00 20.00     0.277 C 
BRANCH   6   7
HETATM    7  C9  UNL     1     -32.817  17.913  -1.141  1.00 20.00     0.006 C 
HETATM    8  C5  UNL     1     -31.502  18.524  -0.656  1.00 20.00     0.011 C 
HETATM    9  C6  UNL     1     -33.905  18.063  -0.077  1.00 20.00     0.011 C 
ENDBRANCH   6   7
ENDBRANCH   5   6
BRANCH   4  10
HETATM   10  C7  UNL     1     -34.316  18.670  -5.443  1.00 20.00     0.150 C 
HETATM   11 CL11 UNL     1     -34.292  18.036  -7.099  1.00 20.00    -0.128 Cl
ENDBRANCH   4  10
TORSDOF 3
ENDMDL
MODEL 2
REMARK VINA RESULT:      -3.6      1.699      2.400
REMARK  3 active torsions:
REMARK  status: ('A' for Active; 'I' for Inactive)
REMARK    1  A    between atoms: C4_4  and  C7_7 
REMARK    2  A    between atoms: C8_8  and  C9_9 
REMARK    3  A    between atoms: C8_8  and  N10_10 
ROOT
HETATM    1  C1  UNL     1     -35.994  18.132  -4.342  1.00 20.00     0.032 C 
HETATM    2  C2  UNL     1     -35.180  16.910  -4.749  1.00 20.00     0.038 C 
HETATM    3  C3  UNL     1     -35.061  18.962  -3.473  1.00 20.00     0.273 C 
HETATM    4  C4  UNL     1     -33.809  17.102  -4.095  1.00 20.00     0.236 C 
HETATM    5  N10 UNL     1     -34.116  17.971  -2.952  1.00 20.00     0.094 N 
ENDROOT
BRANCH   5   6
HETATM    6  C8  UNL     1     -32.937  18.609  -2.378  1.00 20.00     0.277 C 
BRANCH   6   7
HETATM    7  C9  UNL     1     -32.584  18.024  -1.006  1.00 20.00     0.006 C 
HETATM    8  C5  UNL     1     -31.369  18.709  -0.378  1.00 20.00     0.011 C 
HETATM    9  C6  UNL     1     -33.774  18.050  -0.046  1.00 20.00     0.011 C 
ENDBRANCH   6   7
ENDBRANCH   5   6
BRANCH   4  10
HETATM   10  C7  UNL     1     -33.184  15.772  -3.694  1.00 20.00     0.150 C 
HETATM   11 CL11 UNL     1     -34.203  14.425  -4.235  1.00 20.00    -0.128 Cl
ENDBRANCH   4  10
TORSDOF 3
ENDMDL
MODEL 3
REMARK VINA RESULT:      -3.5     15.449     16.806
REMARK  3 active torsions:
REMARK  status: ('A' for Active; 'I' for Inactive)
REMARK    1  A    between atoms: C4_4  and  C7_7 
REMARK    2  A    between atoms: C8_8  and  C9_9 
REMARK    3  A    between atoms: C8_8  and  N10_10 
ROOT
HETATM    1  C1  UNL     1     -21.432  18.338   8.879  1.00 20.00     0.032 C 
HETATM    2  C2  UNL     1     -22.793  18.509   8.214  1.00 20.00     0.038 C 
HETATM    3  C3  UNL     1     -21.733  18.130  10.355  1.00 20.00     0.273 C 
HETATM    4  C4  UNL     1     -23.815  18.384   9.347  1.00 20.00     0.236 C 
HETATM    5  N10 UNL     1     -23.036  18.777  10.529  1.00 20.00     0.094 N 
ENDROOT
BRANCH   5   6
HETATM    6  C8  UNL     1     -23.660  18.390  11.788  1.00 20.00     0.277 C 
BRANCH   6   7
HETATM    7  C9  UNL     1     -24.788  17.374  11.577  1.00 20.00     0.006 C 
HETATM    8  C5  UNL     1     -24.386  15.963  12.003  1.00 20.00     0.011 C 
HETATM    9  C6  UNL     1     -26.082  17.800  12.272  1.00 20.00     0.011 C 
ENDBRANCH   6   7
ENDBRANCH   5   6
BRANCH   4  10
HETATM   10  C7  UNL     1     -25.035  19.263   9.107  1.00 20.00     0.150 C 
HETATM   11 CL11 UNL     1     -25.714  18.946   7.499  1.00 20.00    -0.128 Cl
ENDBRANCH   4  10
TORSDOF 3
ENDMDL
MODEL 4
REMARK VINA RESULT:      -3.4      2.042      4.510
REMARK  3 active torsions:
REMARK  status: ('A' for Active; 'I' for Inactive)
REMARK    1  A    between atoms: C4_4  and  C7_7 
REMARK    2  A    between atoms: C8_8  and  C9_9 
REMARK    3  A    between atoms: C8_8  and  N10_10 
ROOT
HETATM    1  C1  UNL     1     -33.330  16.622  -2.605  1.00 20.00     0.032 C 
HETATM    2  C2  UNL     1     -33.885  17.927  -3.164  1.00 20.00     0.038 C 
HETATM    3  C3  UNL     1     -33.272  15.672  -3.791  1.00 20.00     0.273 C 
HETATM    4  C4  UNL     1     -34.115  17.662  -4.654  1.00 20.00     0.236 C 
HETATM    5  N10 UNL     1     -34.290  16.204  -4.700  1.00 20.00     0.094 N 
ENDROOT
BRANCH   5   6
HETATM    6  C8  UNL     1     -34.153  15.647  -6.040  1.00 20.00     0.277 C 
BRANCH   6   7
HETATM    7  C9  UNL     1     -35.417  14.898  -6.478  1.00 20.00     0.006 C 
HETATM    8  C5  UNL     1     -36.269  14.453  -5.290  1.00 20.00     0.011 C 
HETATM    9  C6  UNL     1     -36.253  15.712  -7.467  1.00 20.00     0.011 C 
ENDBRANCH   6   7
ENDBRANCH   5   6
BRANCH   4  10
HETATM   10  C7  UNL     1     -35.315  18.433  -5.187  1.00 20.00     0.150 C 
HETATM   11 CL11 UNL     1     -36.794  17.919  -4.355  1.00 20.00    -0.128 Cl
ENDBRANCH   4  10
TORSDOF 3
ENDMDL
MODEL 5
REMARK VINA RESULT:      -3.4     11.977     13.056
REMARK  3 active torsions:
REMARK  status: ('A' for Active; 'I' for Inactive)
REMARK    1  A    between atoms: C4_4  and  C7_7 
REMARK    2  A    between atoms: C8_8  and  C9_9 
REMARK    3  A    between atoms: C8_8  and  N10_10 
ROOT
HETATM    1  C1  UNL     1     -32.716   9.038   5.218  1.00 20.00     0.032 C 
HETATM    2  C2  UNL     1     -32.073   9.078   3.836  1.00 20.00     0.038 C 
HETATM    3  C3  UNL     1     -33.151   7.595   5.414  1.00 20.00     0.273 C 
HETATM    4  C4  UNL     1     -32.167   7.645   3.306  1.00 20.00     0.236 C 
HETATM    5  N10 UNL     1     -33.316   7.103   4.044  1.00 20.00     0.094 N 
ENDROOT
BRANCH   5   6
HETATM    6  C8  UNL     1     -33.393   5.647   4.005  1.00 20.00     0.277 C 
BRANCH   6   7
HETATM    7  C9  UNL     1     -34.691   5.128   4.633  1.00 20.00     0.006 C 
HETATM    8  C5  UNL     1     -34.584   4.984   6.151  1.00 20.00     0.011 C 
HETATM    9  C6  UNL     1     -35.897   5.991   4.257  1.00 20.00     0.011 C 
ENDBRANCH   6   7
ENDBRANCH   5   6
BRANCH   4  10
HETATM   10  C7  UNL     1     -32.349   7.613   1.794  1.00 20.00     0.150 C 
HETATM   11 CL11 UNL     1     -32.688   9.242   1.181  1.00 20.00    -0.128 Cl
ENDBRANCH   4  10
TORSDOF 3
ENDMDL
MODEL 6
REMARK VINA RESULT:      -3.4     11.810     13.244
REMARK  3 active torsions:
REMARK  status: ('A' for Active; 'I' for Inactive)
REMARK    1  A    between atoms: C4_4  and  C7_7 
REMARK    2  A    between atoms: C8_8  and  C9_9 
REMARK    3  A    between atoms: C8_8  and  N10_10 
ROOT
HETATM    1  C1  UNL     1     -42.894  15.712   4.993  1.00 20.00     0.032 C 
HETATM    2  C2  UNL     1     -42.974  15.594   6.511  1.00 20.00     0.038 C 
HETATM    3  C3  UNL     1     -42.227  14.428   4.528  1.00 20.00     0.273 C 
HETATM    4  C4  UNL     1     -42.350  14.237   6.844  1.00 20.00     0.236 C 
HETATM    5  N10 UNL     1     -41.458  14.003   5.701  1.00 20.00     0.094 N 
ENDROOT
BRANCH   5   6
HETATM    6  C8  UNL     1     -41.023  12.617   5.581  1.00 20.00     0.277 C 
BRANCH   6   7
HETATM    7  C9  UNL     1     -39.508  12.510   5.375  1.00 20.00     0.006 C 
HETATM    8  C5  UNL     1     -38.785  12.022   6.630  1.00 20.00     0.011 C 
HETATM    9  C6  UNL     1     -39.152  11.634   4.173  1.00 20.00     0.011 C 
ENDBRANCH   6   7
ENDBRANCH   5   6
BRANCH   4  10
HETATM   10  C7  UNL     1     -41.625  14.262   8.183  1.00 20.00     0.150 C 
HETATM   11 CL11 UNL     1     -40.227  15.351   8.105  1.00 20.00    -0.128 Cl
ENDBRANCH   4  10
TORSDOF 3
ENDMDL
MODEL 7
REMARK VINA RESULT:      -3.3      2.123      3.203
REMARK  3 active torsions:
REMARK  status: ('A' for Active; 'I' for Inactive)
REMARK    1  A    between atoms: C4_4  and  C7_7 
REMARK    2  A    between atoms: C8_8  and  C9_9 
REMARK    3  A    between atoms: C8_8  and  N10_10 
ROOT
HETATM    1  C1  UNL     1     -37.515  17.860  -4.809  1.00 20.00     0.032 C 
HETATM    2  C2  UNL     1     -36.999  17.444  -6.181  1.00 20.00     0.038 C 
HETATM    3  C3  UNL     1     -36.271  18.169  -3.991  1.00 20.00     0.273 C 
HETATM    4  C4  UNL     1     -35.474  17.540  -6.085  1.00 20.00     0.236 C 
HETATM    5  N10 UNL     1     -35.230  17.373  -4.646  1.00 20.00     0.094 N 
ENDROOT
BRANCH   5   6
HETATM    6  C8  UNL     1     -33.897  17.793  -4.232  1.00 20.00     0.277 C 
BRANCH   6   7
HETATM    7  C9  UNL     1     -33.224  16.751  -3.331  1.00 20.00     0.006 C 
HETATM    8  C5  UNL     1     -33.488  17.010  -1.848  1.00 20.00     0.011 C 
HETATM    9  C6  UNL     1     -33.621  15.323  -3.708  1.00 20.00     0.011 C 
ENDBRANCH   6   7
ENDBRANCH   5   6
BRANCH   4  10
HETATM   10  C7  UNL     1     -34.786  16.485  -6.942  1.00 20.00     0.150 C 
HETATM   11 CL11 UNL     1     -35.613  14.925  -6.777  1.00 20.00    -0.128 Cl
ENDBRANCH   4  10
TORSDOF 3
ENDMDL
MODEL 8
REMARK VINA RESULT:      -3.3     24.695     25.653
REMARK  3 active torsions:
REMARK  status: ('A' for Active; 'I' for Inactive)
REMARK    1  A    between atoms: C4_4  and  C7_7 
REMARK    2  A    between atoms: C8_8  and  C9_9 
REMARK    3  A    between atoms: C8_8  and  N10_10 
ROOT
HETATM    1  C1  UNL     1     -26.577  -0.195  11.819  1.00 20.00     0.032 C 
HETATM    2  C2  UNL     1     -27.641  -0.603  10.808  1.00 20.00     0.038 C 
HETATM    3  C3  UNL     1     -25.551  -1.317  11.792  1.00 20.00     0.273 C 
HETATM    4  C4  UNL     1     -27.169  -1.944  10.242  1.00 20.00     0.236 C 
HETATM    5  N10 UNL     1     -26.323  -2.470  11.322  1.00 20.00     0.094 N 
ENDROOT
BRANCH   5   6
HETATM    6  C8  UNL     1     -25.452  -3.559  10.897  1.00 20.00     0.277 C 
BRANCH   6   7
HETATM    7  C9  UNL     1     -24.084  -3.047  10.433  1.00 20.00     0.006 C 
HETATM    8  C5  UNL     1     -22.930  -3.702  11.193  1.00 20.00     0.011 C 
HETATM    9  C6  UNL     1     -23.893  -3.204   8.924  1.00 20.00     0.011 C 
ENDBRANCH   6   7
ENDBRANCH   5   6
BRANCH   4  10
HETATM   10  C7  UNL     1     -28.339  -2.854   9.893  1.00 20.00     0.150 C 
HETATM   11 CL11 UNL     1     -29.712  -2.531  10.968  1.00 20.00    -0.128 Cl
ENDBRANCH   4  10
TORSDOF 3
ENDMDL
MODEL 9
REMARK VINA RESULT:      -3.3      2.621      4.609
REMARK  3 active torsions:
REMARK  status: ('A' for Active; 'I' for Inactive)
REMARK    1  A    between atoms: C4_4  and  C7_7 
REMARK    2  A    between atoms: C8_8  and  C9_9 
REMARK    3  A    between atoms: C8_8  and  N10_10 
ROOT
HETATM    1  C1  UNL     1     -33.677  14.535  -4.455  1.00 20.00     0.032 C 
HETATM    2  C2  UNL     1     -33.342  15.599  -3.417  1.00 20.00     0.038 C 
HETATM    3  C3  UNL     1     -34.286  15.295  -5.623  1.00 20.00     0.273 C 
HETATM    4  C4  UNL     1     -33.771  16.926  -4.046  1.00 20.00     0.236 C 
HETATM    5  N10 UNL     1     -34.810  16.511  -4.998  1.00 20.00     0.094 N 
ENDROOT
BRANCH   5   6
HETATM    6  C8  UNL     1     -35.125  17.530  -5.992  1.00 20.00     0.277 C 
BRANCH   6   7
HETATM    7  C9  UNL     1     -36.636  17.672  -6.205  1.00 20.00     0.006 C 
HETATM    8  C5  UNL     1     -37.130  16.873  -7.411  1.00 20.00     0.011 C 
HETATM    9  C6  UNL     1     -37.430  17.303  -4.952  1.00 20.00     0.011 C 
ENDBRANCH   6   7
ENDBRANCH   5   6
BRANCH   4  10
HETATM   10  C7  UNL     1     -34.270  17.913  -2.998  1.00 20.00     0.150 C 
HETATM   11 CL11 UNL     1     -33.780  17.387  -1.377  1.00 20.00    -0.128 Cl
ENDBRANCH   4  10
TORSDOF 3
ENDMDL
