MODEL 1
REMARK VINA RESULT:      -3.8      0.000      0.000
REMARK  1 active torsions:
REMARK  status: ('A' for Active; 'I' for Inactive)
REMARK    1  A    between atoms: C8_8  and  N9_9 
ROOT
HETATM    1  C1  UNL     1     -33.001   6.167   2.382  1.00 20.00     0.050 C 
HETATM    2  C2  UNL     1     -32.873   8.473   3.359  1.00 20.00     0.050 C 
HETATM    3  C3  UNL     1     -33.497   5.664   3.740  1.00 20.00     0.274 C 
HETATM    4  C4  UNL     1     -33.372   7.896   4.686  1.00 20.00     0.274 C 
HETATM    5  C5  UNL     1     -32.132   7.412   2.548  1.00 20.00     0.085 C 
HETATM    6  N9  UNL     1     -34.222   6.717   4.465  1.00 20.00     0.092 N 
HETATM    7 CL10 UNL     1     -31.674   8.062   0.952  1.00 20.00    -0.125 Cl
ENDROOT
BRANCH   6   8
HETATM    8  C8  UNL     1     -34.730   6.207   5.737  1.00 20.00     0.215 C 
HETATM    9  C6  UNL     1     -34.158   7.041   6.874  1.00 20.00     0.042 C 
HETATM   10  C7  UNL     1     -34.348   4.739   5.867  1.00 20.00     0.042 C 
ENDBRANCH   6   8
TORSDOF 1
ENDMDL
MODEL 2
REMARK VINA RESULT:      -3.8     15.589     16.200
REMARK  1 active torsions:
REMARK  status: ('A' for Active; 'I' for Inactive)
REMARK    1  A    between atoms: C8_8  and  N9_9 
ROOT
HETATM    1  C1  UNL     1     -22.056  17.473   9.423  1.00 20.00     0.050 C 
HETATM    2  C2  UNL     1     -23.663  18.981   8.227  1.00 20.00     0.050 C 
HETATM    3  C3  UNL     1     -22.795  17.786  10.727  1.00 20.00     0.274 C 
HETATM    4  C4  UNL     1     -24.351  19.245   9.569  1.00 20.00     0.274 C 
HETATM    5  C5  UNL     1     -22.192  18.626   8.430  1.00 20.00     0.085 C 
HETATM    6  N9  UNL     1     -24.210  18.095  10.473  1.00 20.00     0.092 N 
HETATM    7 CL10 UNL     1     -21.440  18.192   6.873  1.00 20.00    -0.125 Cl
ENDROOT
BRANCH   6   8
HETATM    8  C8  UNL     1     -24.913  18.344  11.731  1.00 20.00     0.215 C 
HETATM    9  C6  UNL     1     -25.353  17.016  12.327  1.00 20.00     0.042 C 
HETATM   10  C7  UNL     1     -26.098  19.261  11.460  1.00 20.00     0.042 C 
ENDBRANCH   6   8
TORSDOF 1
ENDMDL
MODEL 3
REMARK VINA RESULT:      -3.7     12.087     12.994
REMARK  1 active torsions:
REMARK  status: ('A' for Active; 'I' for Inactive)
REMARK    1  A    between atoms: C8_8  and  N9_9 
ROOT
HETATM    1  C1  UNL     1     -33.994  18.182  -4.544  1.00 20.00     0.050 C 
HETATM    2  C2  UNL     1     -33.455  15.962  -3.509  1.00 20.00     0.050 C 
HETATM    3  C3  UNL     1     -33.897  18.809  -3.150  1.00 20.00     0.274 C 
HETATM    4  C4  UNL     1     -33.375  16.660  -2.149  1.00 20.00     0.274 C 
HETATM    5  C5  UNL     1     -34.394  16.711  -4.451  1.00 20.00     0.085 C 
HETATM    6  N9  UNL     1     -32.961  18.062  -2.296  1.00 20.00     0.092 N 
HETATM    7 CL10 UNL     1     -34.374  15.963  -6.070  1.00 20.00    -0.125 Cl
ENDROOT
BRANCH   6   8
HETATM    8  C8  UNL     1     -32.843  18.701  -0.986  1.00 20.00     0.215 C 
HETATM    9  C6  UNL     1     -31.406  18.578  -0.499  1.00 20.00     0.042 C 
HETATM   10  C7  UNL     1     -33.822  18.041  -0.026  1.00 20.00     0.042 C 
ENDBRANCH   6   8
TORSDOF 1
ENDMDL
MODEL 4
REMARK VINA RESULT:      -3.6     12.098     12.978
REMARK  1 active torsions:
REMARK  status: ('A' for Active; 'I' for Inactive)
REMARK    1  A    between atoms: C8_8  and  N9_9 
ROOT
HETATM    1  C1  UNL     1     -33.577  18.520   1.169  1.00 20.00     0.050 C 
HETATM    2  C2  UNL     1     -31.231  18.473   0.283  1.00 20.00     0.050 C 
HETATM    3  C3  UNL     1     -34.080  18.467  -0.276  1.00 20.00     0.274 C 
HETATM    4  C4  UNL     1     -31.810  18.421  -1.134  1.00 20.00     0.274 C 
HETATM    5  C5  UNL     1     -32.196  19.169   1.240  1.00 20.00     0.085 C 
HETATM    6  N9  UNL     1     -33.125  17.765  -1.145  1.00 20.00     0.092 N 
HETATM    7 CL10 UNL     1     -31.568  19.104   2.907  1.00 20.00    -0.125 Cl
ENDROOT
BRANCH   6   8
HETATM    8  C8  UNL     1     -33.643  17.680  -2.511  1.00 20.00     0.215 C 
HETATM    9  C6  UNL     1     -33.346  16.296  -3.071  1.00 20.00     0.042 C 
HETATM   10  C7  UNL     1     -33.002  18.777  -3.349  1.00 20.00     0.042 C 
ENDBRANCH   6   8
TORSDOF 1
ENDMDL
MODEL 5
REMARK VINA RESULT:      -3.6     11.990     13.777
REMARK  1 active torsions:
REMARK  status: ('A' for Active; 'I' for Inactive)
REMARK    1  A    between atoms: C8_8  and  N9_9 
ROOT
HETATM    1  C1  UNL     1     -34.604  17.520  -4.088  1.00 20.00     0.050 C 
HETATM    2  C2  UNL     1     -33.651  15.235  -3.687  1.00 20.00     0.050 C 
HETATM    3  C3  UNL     1     -34.770  17.148  -5.564  1.00 20.00     0.274 C 
HETATM    4  C4  UNL     1     -33.848  14.936  -5.176  1.00 20.00     0.274 C 
HETATM    5  C5  UNL     1     -33.460  16.732  -3.454  1.00 20.00     0.085 C 
HETATM    6  N9  UNL     1     -34.976  15.701  -5.726  1.00 20.00     0.092 N 
HETATM    7 CL10 UNL     1     -33.365  17.079  -1.707  1.00 20.00    -0.125 Cl
ENDROOT
BRANCH   6   8
HETATM    8  C8  UNL     1     -35.182  15.368  -7.135  1.00 20.00     0.215 C 
HETATM    9  C6  UNL     1     -33.922  15.710  -7.917  1.00 20.00     0.042 C 
HETATM   10  C7  UNL     1     -36.391  16.135  -7.651  1.00 20.00     0.042 C 
ENDBRANCH   6   8
TORSDOF 1
ENDMDL
MODEL 6
REMARK VINA RESULT:      -3.4     12.185     13.174
REMARK  1 active torsions:
REMARK  status: ('A' for Active; 'I' for Inactive)
REMARK    1  A    between atoms: C8_8  and  N9_9 
ROOT
HETATM    1  C1  UNL     1     -34.331  14.943  -4.699  1.00 20.00     0.050 C 
HETATM    2  C2  UNL     1     -35.076  17.169  -5.581  1.00 20.00     0.050 C 
HETATM    3  C3  UNL     1     -33.407  15.683  -3.728  1.00 20.00     0.274 C 
HETATM    4  C4  UNL     1     -34.128  17.837  -4.582  1.00 20.00     0.274 C 
HETATM    5  C5  UNL     1     -34.577  15.774  -5.955  1.00 20.00     0.085 C 
HETATM    6  N9  UNL     1     -33.948  17.006  -3.384  1.00 20.00     0.092 N 
HETATM    7 CL10 UNL     1     -35.758  14.959  -7.014  1.00 20.00    -0.125 Cl
ENDROOT
BRANCH   6   8
HETATM    8  C8  UNL     1     -33.079  17.679  -2.419  1.00 20.00     0.215 C 
HETATM    9  C6  UNL     1     -33.732  17.636  -1.045  1.00 20.00     0.042 C 
HETATM   10  C7  UNL     1     -32.841  19.108  -2.885  1.00 20.00     0.042 C 
ENDBRANCH   6   8
TORSDOF 1
ENDMDL
MODEL 7
REMARK VINA RESULT:      -3.4     12.286     13.442
REMARK  1 active torsions:
REMARK  status: ('A' for Active; 'I' for Inactive)
REMARK    1  A    between atoms: C8_8  and  N9_9 
ROOT
HETATM    1  C1  UNL     1     -32.965  15.982  -3.422  1.00 20.00     0.050 C 
HETATM    2  C2  UNL     1     -34.347  18.072  -3.518  1.00 20.00     0.050 C 
HETATM    3  C3  UNL     1     -33.825  15.411  -4.553  1.00 20.00     0.274 C 
HETATM    4  C4  UNL     1     -35.162  17.434  -4.646  1.00 20.00     0.274 C 
HETATM    5  C5  UNL     1     -33.752  17.003  -2.604  1.00 20.00     0.085 C 
HETATM    6  N9  UNL     1     -34.349  16.481  -5.414  1.00 20.00     0.092 N 
HETATM    7 CL10 UNL     1     -32.699  17.754  -1.377  1.00 20.00    -0.125 Cl
ENDROOT
BRANCH   6   8
HETATM    8  C8  UNL     1     -35.127  15.917  -6.517  1.00 20.00     0.215 C 
HETATM    9  C6  UNL     1     -35.797  14.634  -6.048  1.00 20.00     0.042 C 
HETATM   10  C7  UNL     1     -34.199  15.670  -7.698  1.00 20.00     0.042 C 
ENDBRANCH   6   8
TORSDOF 1
ENDMDL
MODEL 8
REMARK VINA RESULT:      -3.3     12.038     13.554
REMARK  1 active torsions:
REMARK  status: ('A' for Active; 'I' for Inactive)
REMARK    1  A    between atoms: C8_8  and  N9_9 
ROOT
HETATM    1  C1  UNL     1     -34.969  18.415  -2.631  1.00 20.00     0.050 C 
HETATM    2  C2  UNL     1     -33.436  16.447  -2.375  1.00 20.00     0.050 C 
HETATM    3  C3  UNL     1     -34.923  18.202  -4.147  1.00 20.00     0.274 C 
HETATM    4  C4  UNL     1     -33.440  16.297  -3.899  1.00 20.00     0.274 C 
HETATM    5  C5  UNL     1     -33.694  17.896  -1.970  1.00 20.00     0.085 C 
HETATM    6  N9  UNL     1     -34.698  16.788  -4.477  1.00 20.00     0.092 N 
HETATM    7 CL10 UNL     1     -33.819  18.030  -0.197  1.00 20.00    -0.125 Cl
ENDROOT
BRANCH   6   8
HETATM    8  C8  UNL     1     -34.705  16.594  -5.927  1.00 20.00     0.215 C 
HETATM    9  C6  UNL     1     -36.129  16.743  -6.444  1.00 20.00     0.042 C 
HETATM   10  C7  UNL     1     -34.133  15.219  -6.243  1.00 20.00     0.042 C 
ENDBRANCH   6   8
TORSDOF 1
ENDMDL
MODEL 9
REMARK VINA RESULT:      -3.1     13.679     14.854
REMARK  1 active torsions:
REMARK  status: ('A' for Active; 'I' for Inactive)
REMARK    1  A    between atoms: C8_8  and  N9_9 
ROOT
HETATM    1  C1  UNL     1     -24.726  -1.222  11.916  1.00 20.00     0.050 C 
HETATM    2  C2  UNL     1     -26.653  -2.023  10.525  1.00 20.00     0.050 C 
HETATM    3  C3  UNL     1     -23.929  -2.439  11.438  1.00 20.00     0.274 C 
HETATM    4  C4  UNL     1     -25.794  -3.214  10.092  1.00 20.00     0.274 C 
HETATM    5  C5  UNL     1     -26.225  -1.515  11.900  1.00 20.00     0.085 C 
HETATM    6  N9  UNL     1     -24.365  -2.868  10.102  1.00 20.00     0.092 N 
HETATM    7 CL10 UNL     1     -27.144  -0.049  12.331  1.00 20.00    -0.125 Cl
ENDROOT
BRANCH   6   8
HETATM    8  C8  UNL     1     -23.562  -4.000   9.640  1.00 20.00     0.215 C 
HETATM    9  C6  UNL     1     -22.401  -4.212  10.600  1.00 20.00     0.042 C 
HETATM   10  C7  UNL     1     -23.078  -3.715   8.225  1.00 20.00     0.042 C 
ENDBRANCH   6   8
TORSDOF 1
ENDMDL
