MODEL 1
REMARK VINA RESULT:      -4.7      0.000      0.000
REMARK  2 active torsions:
REMARK  status: ('A' for Active; 'I' for Inactive)
REMARK    1  A    between atoms: C3_3  and  C6_6 
REMARK    2  A    between atoms: C5_5  and  C6_6 
ROOT
HETATM    1  C6  UNL     1     -33.023   6.592   4.120  1.00 20.00     0.086 C 
HETATM    2 CL7  UNL     1     -33.071   5.479   2.719  1.00 20.00    -0.125 Cl
ENDROOT
BRANCH   1   3
HETATM    3  C3  UNL     1     -34.337   6.501   4.841  1.00 20.00     0.004 A 
HETATM    4  C1  UNL     1     -34.832   5.175   5.348  1.00 20.00     0.006 A 
HETATM    5  C2  UNL     1     -34.371   6.226   6.319  1.00 20.00     0.006 A 
ENDBRANCH   1   3
BRANCH   1   6
HETATM    6  C5  UNL     1     -32.727   8.028   3.670  1.00 20.00     0.016 C 
HETATM    7  C4  UNL     1     -32.315   8.948   4.812  1.00 20.00     0.006 C 
ENDBRANCH   1   6
TORSDOF 2
ENDMDL
MODEL 2
REMARK VINA RESULT:      -4.7      0.811      2.980
REMARK  2 active torsions:
REMARK  status: ('A' for Active; 'I' for Inactive)
REMARK    1  A    between atoms: C3_3  and  C6_6 
REMARK    2  A    between atoms: C5_5  and  C6_6 
ROOT
HETATM    1  C6  UNL     1     -34.031   6.125   4.016  1.00 20.00     0.086 C 
HETATM    2 CL7  UNL     1     -32.994   5.371   2.767  1.00 20.00    -0.125 Cl
ENDROOT
BRANCH   1   3
HETATM    3  C3  UNL     1     -33.195   7.095   4.802  1.00 20.00     0.004 A 
HETATM    4  C1  UNL     1     -32.288   8.061   4.091  1.00 20.00     0.006 A 
HETATM    5  C2  UNL     1     -33.523   8.562   4.786  1.00 20.00     0.006 A 
ENDBRANCH   1   3
BRANCH   1   6
HETATM    6  C5  UNL     1     -34.660   5.062   4.923  1.00 20.00     0.016 C 
HETATM    7  C4  UNL     1     -34.596   5.412   6.404  1.00 20.00     0.006 C 
ENDBRANCH   1   6
TORSDOF 2
ENDMDL
MODEL 3
REMARK VINA RESULT:      -4.5      1.100      3.299
REMARK  2 active torsions:
REMARK  status: ('A' for Active; 'I' for Inactive)
REMARK    1  A    between atoms: C3_3  and  C6_6 
REMARK    2  A    between atoms: C5_5  and  C6_6 
ROOT
HETATM    1  C6  UNL     1     -34.023   7.030   4.794  1.00 20.00     0.086 C 
HETATM    2 CL7  UNL     1     -34.040   5.522   3.830  1.00 20.00    -0.125 Cl
ENDROOT
BRANCH   1   3
HETATM    3  C3  UNL     1     -32.732   7.748   4.525  1.00 20.00     0.004 A 
HETATM    4  C1  UNL     1     -32.036   7.584   3.203  1.00 20.00     0.006 A 
HETATM    5  C2  UNL     1     -32.692   8.891   3.549  1.00 20.00     0.006 A 
ENDBRANCH   1   3
BRANCH   1   6
HETATM    6  C5  UNL     1     -34.198   6.729   6.288  1.00 20.00     0.016 C 
HETATM    7  C4  UNL     1     -34.558   5.277   6.576  1.00 20.00     0.006 C 
ENDBRANCH   1   6
TORSDOF 2
ENDMDL
MODEL 4
REMARK VINA RESULT:      -4.3      1.808      2.453
REMARK  2 active torsions:
REMARK  status: ('A' for Active; 'I' for Inactive)
REMARK    1  A    between atoms: C3_3  and  C6_6 
REMARK    2  A    between atoms: C5_5  and  C6_6 
ROOT
HETATM    1  C6  UNL     1     -33.360   7.318   4.158  1.00 20.00     0.086 C 
HETATM    2 CL7  UNL     1     -32.511   8.671   4.965  1.00 20.00    -0.125 Cl
ENDROOT
BRANCH   1   3
HETATM    3  C3  UNL     1     -33.641   6.257   5.183  1.00 20.00     0.004 A 
HETATM    4  C1  UNL     1     -34.312   6.617   6.480  1.00 20.00     0.006 A 
HETATM    5  C2  UNL     1     -35.055   5.817   5.447  1.00 20.00     0.006 A 
ENDBRANCH   1   3
BRANCH   1   6
HETATM    6  C5  UNL     1     -32.532   6.767   2.991  1.00 20.00     0.016 C 
HETATM    7  C4  UNL     1     -32.866   5.324   2.638  1.00 20.00     0.006 C 
ENDBRANCH   1   6
TORSDOF 2
ENDMDL
MODEL 5
REMARK VINA RESULT:      -4.3      1.896      2.184
REMARK  2 active torsions:
REMARK  status: ('A' for Active; 'I' for Inactive)
REMARK    1  A    between atoms: C3_3  and  C6_6 
REMARK    2  A    between atoms: C5_5  and  C6_6 
ROOT
HETATM    1  C6  UNL     1     -33.757   7.490   4.939  1.00 20.00     0.086 C 
HETATM    2 CL7  UNL     1     -33.437   7.264   6.686  1.00 20.00    -0.125 Cl
ENDROOT
BRANCH   1   3
HETATM    3  C3  UNL     1     -34.160   6.166   4.357  1.00 20.00     0.004 A 
HETATM    4  C1  UNL     1     -34.550   5.030   5.260  1.00 20.00     0.006 A 
HETATM    5  C2  UNL     1     -35.594   5.717   4.424  1.00 20.00     0.006 A 
ENDBRANCH   1   3
BRANCH   1   6
HETATM    6  C5  UNL     1     -32.528   8.067   4.226  1.00 20.00     0.016 C 
HETATM    7  C4  UNL     1     -32.172   7.331   2.941  1.00 20.00     0.006 C 
ENDBRANCH   1   6
TORSDOF 2
ENDMDL
MODEL 6
REMARK VINA RESULT:      -4.2      1.977      3.701
REMARK  2 active torsions:
REMARK  status: ('A' for Active; 'I' for Inactive)
REMARK    1  A    between atoms: C3_3  and  C6_6 
REMARK    2  A    between atoms: C5_5  and  C6_6 
ROOT
HETATM    1  C6  UNL     1     -33.740   6.655   5.291  1.00 20.00     0.086 C 
HETATM    2 CL7  UNL     1     -34.353   7.237   6.870  1.00 20.00    -0.125 Cl
ENDROOT
BRANCH   1   3
HETATM    3  C3  UNL     1     -33.476   7.848   4.418  1.00 20.00     0.004 A 
HETATM    4  C1  UNL     1     -32.374   8.810   4.764  1.00 20.00     0.006 A 
HETATM    5  C2  UNL     1     -32.234   7.905   3.572  1.00 20.00     0.006 A 
ENDBRANCH   1   3
BRANCH   1   6
HETATM    6  C5  UNL     1     -34.735   5.689   4.638  1.00 20.00     0.016 C 
HETATM    7  C4  UNL     1     -34.095   4.396   4.151  1.00 20.00     0.006 C 
ENDBRANCH   1   6
TORSDOF 2
ENDMDL
MODEL 7
REMARK VINA RESULT:      -4.1      1.992      3.233
REMARK  2 active torsions:
REMARK  status: ('A' for Active; 'I' for Inactive)
REMARK    1  A    between atoms: C3_3  and  C6_6 
REMARK    2  A    between atoms: C5_5  and  C6_6 
ROOT
HETATM    1  C6  UNL     1     -33.670   6.138   4.978  1.00 20.00     0.086 C 
HETATM    2 CL7  UNL     1     -34.796   5.894   6.348  1.00 20.00    -0.125 Cl
ENDROOT
BRANCH   1   3
HETATM    3  C3  UNL     1     -33.710   7.588   4.586  1.00 20.00     0.004 A 
HETATM    4  C1  UNL     1     -33.502   8.657   5.623  1.00 20.00     0.006 A 
HETATM    5  C2  UNL     1     -32.447   8.404   4.582  1.00 20.00     0.006 A 
ENDBRANCH   1   3
BRANCH   1   6
HETATM    6  C5  UNL     1     -34.034   5.228   3.799  1.00 20.00     0.016 C 
HETATM    7  C4  UNL     1     -32.988   5.221   2.692  1.00 20.00     0.006 C 
ENDBRANCH   1   6
TORSDOF 2
ENDMDL
MODEL 8
REMARK VINA RESULT:      -4.0      1.966      3.382
REMARK  2 active torsions:
REMARK  status: ('A' for Active; 'I' for Inactive)
REMARK    1  A    between atoms: C3_3  and  C6_6 
REMARK    2  A    between atoms: C5_5  and  C6_6 
ROOT
HETATM    1  C6  UNL     1     -32.993   7.294   5.083  1.00 20.00     0.086 C 
HETATM    2 CL7  UNL     1     -32.420   8.990   5.091  1.00 20.00    -0.125 Cl
ENDROOT
BRANCH   1   3
HETATM    3  C3  UNL     1     -33.386   6.934   3.679  1.00 20.00     0.004 A 
HETATM    4  C1  UNL     1     -32.412   7.120   2.549  1.00 20.00     0.006 A 
HETATM    5  C2  UNL     1     -32.775   5.735   3.007  1.00 20.00     0.006 A 
ENDBRANCH   1   3
BRANCH   1   6
HETATM    6  C5  UNL     1     -34.159   7.104   6.060  1.00 20.00     0.016 C 
HETATM    7  C4  UNL     1     -34.577   5.650   6.231  1.00 20.00     0.006 C 
ENDBRANCH   1   6
TORSDOF 2
ENDMDL
MODEL 9
REMARK VINA RESULT:      -3.6      1.690      2.665
REMARK  2 active torsions:
REMARK  status: ('A' for Active; 'I' for Inactive)
REMARK    1  A    between atoms: C3_3  and  C6_6 
REMARK    2  A    between atoms: C5_5  and  C6_6 
ROOT
HETATM    1  C6  UNL     1     -34.077   6.588   4.497  1.00 20.00     0.086 C 
HETATM    2 CL7  UNL     1     -34.896   5.123   5.117  1.00 20.00    -0.125 Cl
ENDROOT
BRANCH   1   3
HETATM    3  C3  UNL     1     -32.853   6.160   3.738  1.00 20.00     0.004 A 
HETATM    4  C1  UNL     1     -32.973   5.193   2.593  1.00 20.00     0.006 A 
HETATM    5  C2  UNL     1     -32.635   6.633   2.327  1.00 20.00     0.006 A 
ENDBRANCH   1   3
BRANCH   1   6
HETATM    6  C5  UNL     1     -33.722   7.545   5.642  1.00 20.00     0.016 C 
HETATM    7  C4  UNL     1     -32.795   8.677   5.220  1.00 20.00     0.006 C 
ENDBRANCH   1   6
TORSDOF 2
ENDMDL
