MODEL 1
REMARK VINA RESULT:      -4.2      0.000      0.000
REMARK  4 active torsions:
REMARK  status: ('A' for Active; 'I' for Inactive)
REMARK    1  A    between atoms: C4_4  and  C7_7 
REMARK    2  A    between atoms: C8_8  and  C10_10 
REMARK    3  A    between atoms: C9_9  and  C10_10 
REMARK    4  A    between atoms: C9_9  and  N11_11 
ROOT
HETATM    1  C1  UNL     1     -34.924  16.723  -4.863  1.00 20.00     0.035 C 
HETATM    2  C2  UNL     1     -34.179  18.041  -4.738  1.00 20.00     0.235 C 
HETATM    3  C3  UNL     1     -33.133  16.299  -3.377  1.00 20.00     0.240 C 
HETATM    4  C4  UNL     1     -33.866  15.675  -4.553  1.00 20.00     0.027 C 
HETATM    5  N11 UNL     1     -33.054  17.763  -3.758  1.00 20.00    -0.070 N 
HETATM    6  H33 UNL     1     -32.171  17.891  -4.273  1.00 20.00     0.279 HD
ENDROOT
BRANCH   5   7
HETATM    7  C9  UNL     1     -33.015  18.689  -2.585  1.00 20.00     0.239 C 
BRANCH   7   8
HETATM    8  C10 UNL     1     -32.642  17.959  -1.287  1.00 20.00     0.007 C 
HETATM    9  C6  UNL     1     -33.815  17.937  -0.300  1.00 20.00     0.011 C 
BRANCH   8  10
HETATM   10  C8  UNL     1     -31.384  18.502  -0.584  1.00 20.00     0.001 C 
HETATM   11  C5  UNL     1     -31.501  18.544   0.933  1.00 20.00     0.005 C 
ENDBRANCH   8  10
ENDBRANCH   7   8
ENDBRANCH   5   7
BRANCH   4  12
HETATM   12  C7  UNL     1     -34.447  14.310  -4.232  1.00 20.00     0.121 C 
HETATM   13 CL12 UNL     1     -35.973  14.067  -5.106  1.00 20.00    -0.130 Cl
ENDBRANCH   4  12
TORSDOF 4
ENDMDL
MODEL 2
REMARK VINA RESULT:      -4.1      3.454      5.867
REMARK  4 active torsions:
REMARK  status: ('A' for Active; 'I' for Inactive)
REMARK    1  A    between atoms: C4_4  and  C7_7 
REMARK    2  A    between atoms: C8_8  and  C10_10 
REMARK    3  A    between atoms: C9_9  and  C10_10 
REMARK    4  A    between atoms: C9_9  and  N11_11 
ROOT
HETATM    1  C1  UNL     1     -32.967  18.998   1.168  1.00 20.00     0.035 C 
HETATM    2  C2  UNL     1     -33.691  18.382  -0.018  1.00 20.00     0.235 C 
HETATM    3  C3  UNL     1     -31.281  18.510  -0.417  1.00 20.00     0.240 C 
HETATM    4  C4  UNL     1     -31.560  18.428   1.074  1.00 20.00     0.027 C 
HETATM    5  N11 UNL     1     -32.602  18.104  -1.038  1.00 20.00    -0.070 N 
HETATM    6  H33 UNL     1     -32.570  17.083  -1.170  1.00 20.00     0.279 HD
ENDROOT
BRANCH   5   7
HETATM    7  C9  UNL     1     -32.847  18.711  -2.382  1.00 20.00     0.239 C 
BRANCH   7   8
HETATM    8  C10 UNL     1     -33.392  17.685  -3.386  1.00 20.00     0.007 C 
HETATM    9  C6  UNL     1     -34.845  17.990  -3.766  1.00 20.00     0.011 C 
BRANCH   8  10
HETATM   10  C8  UNL     1     -33.272  16.218  -2.934  1.00 20.00     0.001 C 
HETATM   11  C5  UNL     1     -33.638  15.212  -4.016  1.00 20.00     0.005 C 
ENDBRANCH   8  10
ENDBRANCH   7   8
ENDBRANCH   5   7
BRANCH   4  12
HETATM   12  C7  UNL     1     -30.547  19.189   1.910  1.00 20.00     0.121 C 
HETATM   13 CL12 UNL     1     -30.848  18.925   3.639  1.00 20.00    -0.130 Cl
ENDBRANCH   4  12
TORSDOF 4
ENDMDL
MODEL 3
REMARK VINA RESULT:      -4.1      2.524      5.462
REMARK  4 active torsions:
REMARK  status: ('A' for Active; 'I' for Inactive)
REMARK    1  A    between atoms: C4_4  and  C7_7 
REMARK    2  A    between atoms: C8_8  and  C10_10 
REMARK    3  A    between atoms: C9_9  and  C10_10 
REMARK    4  A    between atoms: C9_9  and  N11_11 
ROOT
HETATM    1  C1  UNL     1     -33.437  16.639  -2.153  1.00 20.00     0.035 C 
HETATM    2  C2  UNL     1     -33.267  16.019  -3.530  1.00 20.00     0.235 C 
HETATM    3  C3  UNL     1     -33.699  18.422  -3.685  1.00 20.00     0.240 C 
HETATM    4  C4  UNL     1     -33.040  18.094  -2.355  1.00 20.00     0.027 C 
HETATM    5  N11 UNL     1     -33.469  17.168  -4.502  1.00 20.00    -0.070 N 
HETATM    6  H33 UNL     1     -32.578  17.295  -5.003  1.00 20.00     0.279 HD
ENDROOT
BRANCH   5   7
HETATM    7  C9  UNL     1     -34.521  16.922  -5.536  1.00 20.00     0.239 C 
BRANCH   7   8
HETATM    8  C10 UNL     1     -34.438  15.503  -6.116  1.00 20.00     0.007 C 
HETATM    9  C6  UNL     1     -33.877  15.513  -7.543  1.00 20.00     0.011 C 
BRANCH   8  10
HETATM   10  C8  UNL     1     -35.763  14.718  -6.086  1.00 20.00     0.001 C 
HETATM   11  C5  UNL     1     -35.952  13.885  -4.827  1.00 20.00     0.005 C 
ENDBRANCH   8  10
ENDBRANCH   7   8
ENDBRANCH   5   7
BRANCH   4  12
HETATM   12  C7  UNL     1     -33.496  19.002  -1.228  1.00 20.00     0.121 C 
HETATM   13 CL12 UNL     1     -33.802  18.058   0.243  1.00 20.00    -0.130 Cl
ENDBRANCH   4  12
TORSDOF 4
ENDMDL
MODEL 4
REMARK VINA RESULT:      -3.9      1.464      1.999
REMARK  4 active torsions:
REMARK  status: ('A' for Active; 'I' for Inactive)
REMARK    1  A    between atoms: C4_4  and  C7_7 
REMARK    2  A    between atoms: C8_8  and  C10_10 
REMARK    3  A    between atoms: C9_9  and  C10_10 
REMARK    4  A    between atoms: C9_9  and  N11_11 
ROOT
HETATM    1  C1  UNL     1     -33.699  15.128  -5.167  1.00 20.00     0.035 C 
HETATM    2  C2  UNL     1     -33.308  15.502  -3.747  1.00 20.00     0.235 C 
HETATM    3  C3  UNL     1     -34.913  17.096  -4.676  1.00 20.00     0.240 C 
HETATM    4  C4  UNL     1     -35.081  15.740  -5.340  1.00 20.00     0.027 C 
HETATM    5  N11 UNL     1     -34.070  16.782  -3.458  1.00 20.00    -0.070 N 
HETATM    6  H33 UNL     1     -34.721  16.575  -2.687  1.00 20.00     0.279 HD
ENDROOT
BRANCH   5   7
HETATM    7  C9  UNL     1     -33.211  17.922  -3.010  1.00 20.00     0.239 C 
BRANCH   7   8
HETATM    8  C10 UNL     1     -32.806  17.793  -1.535  1.00 20.00     0.007 C 
HETATM    9  C6  UNL     1     -34.034  17.702  -0.622  1.00 20.00     0.011 C 
BRANCH   8  10
HETATM   10  C8  UNL     1     -31.865  18.902  -1.028  1.00 20.00     0.001 C 
HETATM   11  C5  UNL     1     -31.071  18.513   0.210  1.00 20.00     0.005 C 
ENDBRANCH   8  10
ENDBRANCH   7   8
ENDBRANCH   5   7
BRANCH   4  12
HETATM   12  C7  UNL     1     -35.517  15.840  -6.790  1.00 20.00     0.121 C 
HETATM   13 CL12 UNL     1     -34.126  15.623  -7.871  1.00 20.00    -0.130 Cl
ENDBRANCH   4  12
TORSDOF 4
ENDMDL
MODEL 5
REMARK VINA RESULT:      -3.8      2.759      5.474
REMARK  4 active torsions:
REMARK  status: ('A' for Active; 'I' for Inactive)
REMARK    1  A    between atoms: C4_4  and  C7_7 
REMARK    2  A    between atoms: C8_8  and  C10_10 
REMARK    3  A    between atoms: C9_9  and  C10_10 
REMARK    4  A    between atoms: C9_9  and  N11_11 
ROOT
HETATM    1  C1  UNL     1     -32.921  18.746  -3.270  1.00 20.00     0.035 C 
HETATM    2  C2  UNL     1     -33.919  18.028  -4.162  1.00 20.00     0.235 C 
HETATM    3  C3  UNL     1     -33.361  16.685  -2.196  1.00 20.00     0.240 C 
HETATM    4  C4  UNL     1     -33.179  18.162  -1.889  1.00 20.00     0.027 C 
HETATM    5  N11 UNL     1     -34.167  16.696  -3.478  1.00 20.00    -0.070 N 
HETATM    6  H33 UNL     1     -35.161  16.679  -3.208  1.00 20.00     0.279 HD
ENDROOT
BRANCH   5   7
HETATM    7  C9  UNL     1     -33.931  15.503  -4.348  1.00 20.00     0.239 C 
BRANCH   7   8
HETATM    8  C10 UNL     1     -34.866  15.483  -5.565  1.00 20.00     0.007 C 
HETATM    9  C6  UNL     1     -35.938  14.395  -5.430  1.00 20.00     0.011 C 
BRANCH   8  10
HETATM   10  C8  UNL     1     -34.152  15.341  -6.922  1.00 20.00     0.001 C 
HETATM   11  C5  UNL     1     -34.262  16.576  -7.804  1.00 20.00     0.005 C 
ENDBRANCH   8  10
ENDBRANCH   7   8
ENDBRANCH   5   7
BRANCH   4  12
HETATM   12  C7  UNL     1     -32.056  18.429  -0.904  1.00 20.00     0.121 C 
HETATM   13 CL12 UNL     1     -32.683  18.461   0.756  1.00 20.00    -0.130 Cl
ENDBRANCH   4  12
TORSDOF 4
ENDMDL
MODEL 6
REMARK VINA RESULT:      -3.7      2.559      5.180
REMARK  4 active torsions:
REMARK  status: ('A' for Active; 'I' for Inactive)
REMARK    1  A    between atoms: C4_4  and  C7_7 
REMARK    2  A    between atoms: C8_8  and  C10_10 
REMARK    3  A    between atoms: C9_9  and  C10_10 
REMARK    4  A    between atoms: C9_9  and  N11_11 
ROOT
HETATM    1  C1  UNL     1     -33.556  16.717  -2.185  1.00 20.00     0.035 C 
HETATM    2  C2  UNL     1     -33.438  16.069  -3.554  1.00 20.00     0.235 C 
HETATM    3  C3  UNL     1     -33.392  18.508  -3.720  1.00 20.00     0.240 C 
HETATM    4  C4  UNL     1     -32.877  18.068  -2.360  1.00 20.00     0.027 C 
HETATM    5  N11 UNL     1     -33.366  17.229  -4.530  1.00 20.00    -0.070 N 
HETATM    6  H33 UNL     1     -32.443  17.180  -4.985  1.00 20.00     0.279 HD
ENDROOT
BRANCH   5   7
HETATM    7  C9  UNL     1     -34.392  17.184  -5.617  1.00 20.00     0.239 C 
BRANCH   7   8
HETATM    8  C10 UNL     1     -35.485  16.144  -5.335  1.00 20.00     0.007 C 
HETATM    9  C6  UNL     1     -35.456  15.008  -6.364  1.00 20.00     0.011 C 
BRANCH   8  10
HETATM   10  C8  UNL     1     -36.910  16.720  -5.240  1.00 20.00     0.001 C 
HETATM   11  C5  UNL     1     -36.998  18.003  -4.425  1.00 20.00     0.005 C 
ENDBRANCH   8  10
ENDBRANCH   7   8
ENDBRANCH   5   7
BRANCH   4  12
HETATM   12  C7  UNL     1     -33.206  19.053  -1.254  1.00 20.00     0.121 C 
HETATM   13 CL12 UNL     1     -33.403  18.204   0.292  1.00 20.00    -0.130 Cl
ENDBRANCH   4  12
TORSDOF 4
ENDMDL
MODEL 7
REMARK VINA RESULT:      -3.6      1.911      3.533
REMARK  4 active torsions:
REMARK  status: ('A' for Active; 'I' for Inactive)
REMARK    1  A    between atoms: C4_4  and  C7_7 
REMARK    2  A    between atoms: C8_8  and  C10_10 
REMARK    3  A    between atoms: C9_9  and  C10_10 
REMARK    4  A    between atoms: C9_9  and  N11_11 
ROOT
HETATM    1  C1  UNL     1     -36.942  17.465  -4.978  1.00 20.00     0.035 C 
HETATM    2  C2  UNL     1     -36.084  18.372  -4.112  1.00 20.00     0.235 C 
HETATM    3  C3  UNL     1     -34.914  17.736  -6.163  1.00 20.00     0.240 C 
HETATM    4  C4  UNL     1     -36.416  17.699  -6.386  1.00 20.00     0.027 C 
HETATM    5  N11 UNL     1     -34.776  18.511  -4.869  1.00 20.00    -0.070 N 
HETATM    6  H33 UNL     1     -34.682  19.505  -5.123  1.00 20.00     0.279 HD
ENDROOT
BRANCH   5   7
HETATM    7  C9  UNL     1     -33.563  18.146  -4.076  1.00 20.00     0.239 C 
BRANCH   7   8
HETATM    8  C10 UNL     1     -33.786  16.885  -3.229  1.00 20.00     0.007 C 
HETATM    9  C6  UNL     1     -33.385  17.113  -1.767  1.00 20.00     0.011 C 
BRANCH   8  10
HETATM   10  C8  UNL     1     -33.090  15.620  -3.765  1.00 20.00     0.001 C 
HETATM   11  C5  UNL     1     -34.056  14.525  -4.195  1.00 20.00     0.005 C 
ENDBRANCH   8  10
ENDBRANCH   7   8
ENDBRANCH   5   7
BRANCH   4  12
HETATM   12  C7  UNL     1     -36.843  16.628  -7.373  1.00 20.00     0.121 C 
HETATM   13 CL12 UNL     1     -35.782  15.211  -7.246  1.00 20.00    -0.130 Cl
ENDBRANCH   4  12
TORSDOF 4
ENDMDL
MODEL 8
REMARK VINA RESULT:      -3.6     24.444     25.495
REMARK  4 active torsions:
REMARK  status: ('A' for Active; 'I' for Inactive)
REMARK    1  A    between atoms: C4_4  and  C7_7 
REMARK    2  A    between atoms: C8_8  and  C10_10 
REMARK    3  A    between atoms: C9_9  and  C10_10 
REMARK    4  A    between atoms: C9_9  and  N11_11 
ROOT
HETATM    1  C1  UNL     1     -23.269  -2.538  10.328  1.00 20.00     0.035 C 
HETATM    2  C2  UNL     1     -23.958  -2.175  11.633  1.00 20.00     0.235 C 
HETATM    3  C3  UNL     1     -24.948  -4.175  10.632  1.00 20.00     0.240 C 
HETATM    4  C4  UNL     1     -23.499  -4.036  10.197  1.00 20.00     0.027 C 
HETATM    5  N11 UNL     1     -25.052  -3.214  11.798  1.00 20.00    -0.070 N 
HETATM    6  H33 UNL     1     -24.829  -3.750  12.649  1.00 20.00     0.279 HD
ENDROOT
BRANCH   5   7
HETATM    7  C9  UNL     1     -26.421  -2.644  11.987  1.00 20.00     0.239 C 
BRANCH   7   8
HETATM    8  C10 UNL     1     -26.563  -1.261  11.336  1.00 20.00     0.007 C 
HETATM    9  C6  UNL     1     -27.095  -0.224  12.332  1.00 20.00     0.011 C 
BRANCH   8  10
HETATM   10  C8  UNL     1     -27.423  -1.239  10.057  1.00 20.00     0.001 C 
HETATM   11  C5  UNL     1     -28.279  -2.485   9.874  1.00 20.00     0.005 C 
ENDBRANCH   8  10
ENDBRANCH   7   8
ENDBRANCH   5   7
BRANCH   4  12
HETATM   12  C7  UNL     1     -23.247  -4.562   8.796  1.00 20.00     0.121 C 
HETATM   13 CL12 UNL     1     -23.154  -3.220   7.638  1.00 20.00    -0.130 Cl
ENDBRANCH   4  12
TORSDOF 4
ENDMDL
MODEL 9
REMARK VINA RESULT:      -3.5     12.728     14.601
REMARK  4 active torsions:
REMARK  status: ('A' for Active; 'I' for Inactive)
REMARK    1  A    between atoms: C4_4  and  C7_7 
REMARK    2  A    between atoms: C8_8  and  C10_10 
REMARK    3  A    between atoms: C9_9  and  C10_10 
REMARK    4  A    between atoms: C9_9  and  N11_11 
ROOT
HETATM    1  C1  UNL     1     -40.136  15.181   9.587  1.00 20.00     0.035 C 
HETATM    2  C2  UNL     1     -40.451  15.082   8.104  1.00 20.00     0.235 C 
HETATM    3  C3  UNL     1     -42.271  14.173   9.461  1.00 20.00     0.240 C 
HETATM    4  C4  UNL     1     -41.505  15.221  10.250  1.00 20.00     0.027 C 
HETATM    5  N11 UNL     1     -41.808  14.405   8.038  1.00 20.00    -0.070 N 
HETATM    6  H33 UNL     1     -42.460  15.082   7.617  1.00 20.00     0.279 HD
ENDROOT
BRANCH   5   7
HETATM    7  C9  UNL     1     -41.844  13.177   7.186  1.00 20.00     0.239 C 
BRANCH   7   8
HETATM    8  C10 UNL     1     -40.777  13.211   6.082  1.00 20.00     0.007 C 
HETATM    9  C6  UNL     1     -41.373  13.651   4.740  1.00 20.00     0.011 C 
BRANCH   8  10
HETATM   10  C8  UNL     1     -40.002  11.892   5.897  1.00 20.00     0.001 C 
HETATM   11  C5  UNL     1     -39.291  11.784   4.556  1.00 20.00     0.005 C 
ENDBRANCH   8  10
ENDBRANCH   7   8
ENDBRANCH   5   7
BRANCH   4  12
HETATM   12  C7  UNL     1     -41.460  14.928  11.738  1.00 20.00     0.121 C 
HETATM   13 CL12 UNL     1     -39.780  14.766  12.287  1.00 20.00    -0.130 Cl
ENDBRANCH   4  12
TORSDOF 4
ENDMDL
