MODEL 1
REMARK VINA RESULT:      -4.0      0.000      0.000
REMARK  3 active torsions:
REMARK  status: ('A' for Active; 'I' for Inactive)
REMARK    1  A    between atoms: C7_7  and  C8_8 
REMARK    2  A    between atoms: C7_7  and  C9_9 
REMARK    3  A    between atoms: C8_8  and  N10_10 
ROOT
HETATM    1  C1  UNL     1     -33.216  19.071   1.234  1.00 20.00     0.052 C 
HETATM    2  C2  UNL     1     -33.824  18.366   0.021  1.00 20.00     0.274 C 
HETATM    3  C3  UNL     1     -31.676  19.029  -0.609  1.00 20.00     0.292 C 
HETATM    4  C4  UNL     1     -31.740  19.262   0.894  1.00 20.00     0.112 C 
HETATM    5  N10 UNL     1     -32.677  17.978  -0.800  1.00 20.00     0.089 N 
HETATM    6 CL11 UNL     1     -30.732  18.062   1.759  1.00 20.00    -0.123 Cl
ENDROOT
BRANCH   5   7
HETATM    7  C8  UNL     1     -33.029  17.787  -2.199  1.00 20.00     0.272 C 
BRANCH   7   8
HETATM    8  C7  UNL     1     -33.472  16.356  -2.499  1.00 20.00     0.034 C 
BRANCH   8   9
HETATM    9  C9  UNL     1     -33.550  16.000  -3.998  1.00 20.00    -0.021 C 
HETATM   10  C5  UNL     1     -34.538  16.934  -4.701  1.00 20.00     0.009 C 
HETATM   11  C6  UNL     1     -33.961  14.544  -4.230  1.00 20.00     0.009 C 
ENDBRANCH   8   9
ENDBRANCH   7   8
ENDBRANCH   5   7
TORSDOF 3
ENDMDL
MODEL 2
REMARK VINA RESULT:      -3.9      3.254      5.855
REMARK  3 active torsions:
REMARK  status: ('A' for Active; 'I' for Inactive)
REMARK    1  A    between atoms: C7_7  and  C8_8 
REMARK    2  A    between atoms: C7_7  and  C9_9 
REMARK    3  A    between atoms: C8_8  and  N10_10 
ROOT
HETATM    1  C1  UNL     1     -33.688  14.750  -5.020  1.00 20.00     0.052 C 
HETATM    2  C2  UNL     1     -33.345  15.572  -3.777  1.00 20.00     0.274 C 
HETATM    3  C3  UNL     1     -34.470  17.011  -5.231  1.00 20.00     0.292 C 
HETATM    4  C4  UNL     1     -34.639  15.625  -5.834  1.00 20.00     0.112 C 
HETATM    5  N10 UNL     1     -34.266  16.708  -3.813  1.00 20.00     0.089 N 
HETATM    6 CL11 UNL     1     -36.328  15.061  -5.650  1.00 20.00    -0.123 Cl
ENDROOT
BRANCH   5   7
HETATM    7  C8  UNL     1     -33.776  17.851  -3.059  1.00 20.00     0.272 C 
BRANCH   7   8
HETATM    8  C7  UNL     1     -32.889  17.441  -1.885  1.00 20.00     0.034 C 
BRANCH   8   9
HETATM    9  C9  UNL     1     -32.763  18.493  -0.765  1.00 20.00    -0.021 C 
HETATM   10  C5  UNL     1     -31.309  18.570  -0.290  1.00 20.00     0.009 C 
HETATM   11  C6  UNL     1     -33.678  18.193   0.423  1.00 20.00     0.009 C 
ENDBRANCH   8   9
ENDBRANCH   7   8
ENDBRANCH   5   7
TORSDOF 3
ENDMDL
MODEL 3
REMARK VINA RESULT:      -3.8     10.851     11.843
REMARK  3 active torsions:
REMARK  status: ('A' for Active; 'I' for Inactive)
REMARK    1  A    between atoms: C7_7  and  C8_8 
REMARK    2  A    between atoms: C7_7  and  C9_9 
REMARK    3  A    between atoms: C8_8  and  N10_10 
ROOT
HETATM    1  C1  UNL     1     -34.371   5.017   4.018  1.00 20.00     0.052 C 
HETATM    2  C2  UNL     1     -33.223   5.719   3.292  1.00 20.00     0.274 C 
HETATM    3  C3  UNL     1     -34.166   7.303   4.724  1.00 20.00     0.292 C 
HETATM    4  C4  UNL     1     -34.800   5.979   5.124  1.00 20.00     0.112 C 
HETATM    5  N10 UNL     1     -32.899   6.872   4.131  1.00 20.00     0.089 N 
HETATM    6 CL11 UNL     1     -34.174   5.436   6.711  1.00 20.00    -0.123 Cl
ENDROOT
BRANCH   5   7
HETATM    7  C8  UNL     1     -32.235   7.934   3.392  1.00 20.00     0.272 C 
BRANCH   7   8
HETATM    8  C7  UNL     1     -32.170   7.651   1.893  1.00 20.00     0.034 C 
BRANCH   8   9
HETATM    9  C9  UNL     1     -32.282   8.895   0.989  1.00 20.00    -0.021 C 
HETATM   10  C5  UNL     1     -33.084   9.984   1.706  1.00 20.00     0.009 C 
HETATM   11  C6  UNL     1     -32.934   8.579  -0.359  1.00 20.00     0.009 C 
ENDBRANCH   8   9
ENDBRANCH   7   8
ENDBRANCH   5   7
TORSDOF 3
ENDMDL
MODEL 4
REMARK VINA RESULT:      -3.7      2.715      5.167
REMARK  3 active torsions:
REMARK  status: ('A' for Active; 'I' for Inactive)
REMARK    1  A    between atoms: C7_7  and  C8_8 
REMARK    2  A    between atoms: C7_7  and  C9_9 
REMARK    3  A    between atoms: C8_8  and  N10_10 
ROOT
HETATM    1  C1  UNL     1     -33.280  16.572  -3.190  1.00 20.00     0.052 C 
HETATM    2  C2  UNL     1     -33.626  16.898  -1.737  1.00 20.00     0.274 C 
HETATM    3  C3  UNL     1     -33.735  18.914  -2.910  1.00 20.00     0.292 C 
HETATM    4  C4  UNL     1     -33.608  17.838  -3.979  1.00 20.00     0.112 C 
HETATM    5  N10 UNL     1     -34.338  18.175  -1.799  1.00 20.00     0.089 N 
HETATM    6 CL11 UNL     1     -35.152  17.647  -4.864  1.00 20.00    -0.123 Cl
ENDROOT
BRANCH   5   7
HETATM    7  C8  UNL     1     -34.284  18.908  -0.543  1.00 20.00     0.272 C 
BRANCH   7   8
HETATM    8  C7  UNL     1     -33.396  18.226   0.495  1.00 20.00     0.034 C 
BRANCH   8   9
HETATM    9  C9  UNL     1     -32.137  19.019   0.898  1.00 20.00    -0.021 C 
HETATM   10  C5  UNL     1     -30.982  18.669  -0.045  1.00 20.00     0.009 C 
HETATM   11  C6  UNL     1     -31.718  18.753   2.345  1.00 20.00     0.009 C 
ENDBRANCH   8   9
ENDBRANCH   7   8
ENDBRANCH   5   7
TORSDOF 3
ENDMDL
MODEL 5
REMARK VINA RESULT:      -3.7      1.294      1.785
REMARK  3 active torsions:
REMARK  status: ('A' for Active; 'I' for Inactive)
REMARK    1  A    between atoms: C7_7  and  C8_8 
REMARK    2  A    between atoms: C7_7  and  C9_9 
REMARK    3  A    between atoms: C8_8  and  N10_10 
ROOT
HETATM    1  C1  UNL     1     -33.581  18.164  -0.022  1.00 20.00     0.052 C 
HETATM    2  C2  UNL     1     -33.880  17.298  -1.246  1.00 20.00     0.274 C 
HETATM    3  C3  UNL     1     -32.489  19.024  -1.981  1.00 20.00     0.292 C 
HETATM    4  C4  UNL     1     -32.476  19.122  -0.462  1.00 20.00     0.112 C 
HETATM    5  N10 UNL     1     -32.812  17.612  -2.196  1.00 20.00     0.089 N 
HETATM    6 CL11 UNL     1     -30.892  18.599   0.187  1.00 20.00    -0.123 Cl
ENDROOT
BRANCH   5   7
HETATM    7  C8  UNL     1     -33.185  17.325  -3.572  1.00 20.00     0.272 C 
BRANCH   7   8
HETATM    8  C7  UNL     1     -33.496  15.847  -3.798  1.00 20.00     0.034 C 
BRANCH   8   9
HETATM    9  C9  UNL     1     -34.605  15.565  -4.832  1.00 20.00    -0.021 C 
HETATM   10  C5  UNL     1     -33.977  15.100  -6.149  1.00 20.00     0.009 C 
HETATM   11  C6  UNL     1     -35.490  16.787  -5.086  1.00 20.00     0.009 C 
ENDBRANCH   8   9
ENDBRANCH   7   8
ENDBRANCH   5   7
TORSDOF 3
ENDMDL
MODEL 6
REMARK VINA RESULT:      -3.7      3.447      5.879
REMARK  3 active torsions:
REMARK  status: ('A' for Active; 'I' for Inactive)
REMARK    1  A    between atoms: C7_7  and  C8_8 
REMARK    2  A    between atoms: C7_7  and  C9_9 
REMARK    3  A    between atoms: C8_8  and  N10_10 
ROOT
HETATM    1  C1  UNL     1     -36.013  15.840  -5.830  1.00 20.00     0.052 C 
HETATM    2  C2  UNL     1     -35.812  17.096  -4.982  1.00 20.00     0.274 C 
HETATM    3  C3  UNL     1     -34.034  15.668  -4.480  1.00 20.00     0.292 C 
HETATM    4  C4  UNL     1     -34.719  15.041  -5.686  1.00 20.00     0.112 C 
HETATM    5  N10 UNL     1     -34.394  17.080  -4.620  1.00 20.00     0.089 N 
HETATM    6 CL11 UNL     1     -33.703  15.218  -7.149  1.00 20.00    -0.123 Cl
ENDROOT
BRANCH   5   7
HETATM    7  C8  UNL     1     -34.113  17.852  -3.420  1.00 20.00     0.272 C 
BRANCH   7   8
HETATM    8  C7  UNL     1     -33.315  17.058  -2.388  1.00 20.00     0.034 C 
BRANCH   8   9
HETATM    9  C9  UNL     1     -33.202  17.723  -1.001  1.00 20.00    -0.021 C 
HETATM   10  C5  UNL     1     -34.347  18.721  -0.810  1.00 20.00     0.009 C 
HETATM   11  C6  UNL     1     -31.861  18.432  -0.801  1.00 20.00     0.009 C 
ENDBRANCH   8   9
ENDBRANCH   7   8
ENDBRANCH   5   7
TORSDOF 3
ENDMDL
MODEL 7
REMARK VINA RESULT:      -3.7     11.136     12.158
REMARK  3 active torsions:
REMARK  status: ('A' for Active; 'I' for Inactive)
REMARK    1  A    between atoms: C7_7  and  C8_8 
REMARK    2  A    between atoms: C7_7  and  C9_9 
REMARK    3  A    between atoms: C8_8  and  N10_10 
ROOT
HETATM    1  C1  UNL     1     -40.793  16.493   7.556  1.00 20.00     0.052 C 
HETATM    2  C2  UNL     1     -41.414  15.422   6.660  1.00 20.00     0.274 C 
HETATM    3  C3  UNL     1     -40.499  14.301   8.492  1.00 20.00     0.292 C 
HETATM    4  C4  UNL     1     -40.436  15.777   8.857  1.00 20.00     0.112 C 
HETATM    5  N10 UNL     1     -41.607  14.266   7.536  1.00 20.00     0.089 N 
HETATM    6 CL11 UNL     1     -41.630  16.160  10.135  1.00 20.00    -0.123 Cl
ENDROOT
BRANCH   5   7
HETATM    7  C8  UNL     1     -41.677  13.012   6.803  1.00 20.00     0.272 C 
BRANCH   7   8
HETATM    8  C7  UNL     1     -40.834  13.031   5.530  1.00 20.00     0.034 C 
BRANCH   8   9
HETATM    9  C9  UNL     1     -39.831  11.868   5.394  1.00 20.00    -0.021 C 
HETATM   10  C5  UNL     1     -38.725  12.014   6.443  1.00 20.00     0.009 C 
HETATM   11  C6  UNL     1     -39.211  11.792   3.998  1.00 20.00     0.009 C 
ENDBRANCH   8   9
ENDBRANCH   7   8
ENDBRANCH   5   7
TORSDOF 3
ENDMDL
MODEL 8
REMARK VINA RESULT:      -3.7     10.880     11.925
REMARK  3 active torsions:
REMARK  status: ('A' for Active; 'I' for Inactive)
REMARK    1  A    between atoms: C7_7  and  C8_8 
REMARK    2  A    between atoms: C7_7  and  C9_9 
REMARK    3  A    between atoms: C8_8  and  N10_10 
ROOT
HETATM    1  C1  UNL     1     -40.648  15.838   9.175  1.00 20.00     0.052 C 
HETATM    2  C2  UNL     1     -40.504  14.459   8.531  1.00 20.00     0.274 C 
HETATM    3  C3  UNL     1     -42.065  15.628   7.248  1.00 20.00     0.292 C 
HETATM    4  C4  UNL     1     -41.464  16.666   8.184  1.00 20.00     0.112 C 
HETATM    5  N10 UNL     1     -40.996  14.631   7.164  1.00 20.00     0.089 N 
HETATM    6 CL11 UNL     1     -40.405  17.790   7.279  1.00 20.00    -0.123 Cl
ENDROOT
BRANCH   5   7
HETATM    7  C8  UNL     1     -41.440  13.382   6.567  1.00 20.00     0.272 C 
BRANCH   7   8
HETATM    8  C7  UNL     1     -40.753  13.095   5.233  1.00 20.00     0.034 C 
BRANCH   8   9
HETATM    9  C9  UNL     1     -39.851  11.845   5.220  1.00 20.00    -0.021 C 
HETATM   10  C5  UNL     1     -38.857  11.913   6.384  1.00 20.00     0.009 C 
HETATM   11  C6  UNL     1     -39.090  11.688   3.902  1.00 20.00     0.009 C 
ENDBRANCH   8   9
ENDBRANCH   7   8
ENDBRANCH   5   7
TORSDOF 3
ENDMDL
MODEL 9
REMARK VINA RESULT:      -3.6      2.042      2.908
REMARK  3 active torsions:
REMARK  status: ('A' for Active; 'I' for Inactive)
REMARK    1  A    between atoms: C7_7  and  C8_8 
REMARK    2  A    between atoms: C7_7  and  C9_9 
REMARK    3  A    between atoms: C8_8  and  N10_10 
ROOT
HETATM    1  C1  UNL     1     -32.539  19.110  -2.092  1.00 20.00     0.052 C 
HETATM    2  C2  UNL     1     -33.348  18.904  -3.372  1.00 20.00     0.274 C 
HETATM    3  C3  UNL     1     -33.287  16.836  -2.290  1.00 20.00     0.292 C 
HETATM    4  C4  UNL     1     -32.730  17.829  -1.281  1.00 20.00     0.112 C 
HETATM    5  N10 UNL     1     -34.128  17.690  -3.131  1.00 20.00     0.089 N 
HETATM    6 CL11 UNL     1     -33.896  18.094   0.050  1.00 20.00    -0.123 Cl
ENDROOT
BRANCH   5   7
HETATM    7  C8  UNL     1     -34.539  17.034  -4.363  1.00 20.00     0.272 C 
BRANCH   7   8
HETATM    8  C7  UNL     1     -33.853  15.685  -4.564  1.00 20.00     0.034 C 
BRANCH   8   9
HETATM    9  C9  UNL     1     -34.435  14.821  -5.700  1.00 20.00    -0.021 C 
HETATM   10  C5  UNL     1     -34.142  15.478  -7.052  1.00 20.00     0.009 C 
HETATM   11  C6  UNL     1     -35.941  14.599  -5.551  1.00 20.00     0.009 C 
ENDBRANCH   8   9
ENDBRANCH   7   8
ENDBRANCH   5   7
TORSDOF 3
ENDMDL
