MODEL 1
REMARK VINA RESULT:      -3.8      0.000      0.000
REMARK  3 active torsions:
REMARK  status: ('A' for Active; 'I' for Inactive)
REMARK    1  A    between atoms: C7_7  and  C9_9 
REMARK    2  A    between atoms: C8_8  and  C9_9 
REMARK    3  A    between atoms: C8_8  and  N10_10 
ROOT
HETATM    1  C1  UNL     1     -33.582  15.035  -4.297  1.00 20.00     0.052 C 
HETATM    2  C2  UNL     1     -33.291  15.910  -3.089  1.00 20.00     0.274 C 
HETATM    3  C3  UNL     1     -34.364  17.314  -4.626  1.00 20.00     0.292 C 
HETATM    4  C4  UNL     1     -34.559  15.876  -5.113  1.00 20.00     0.112 C 
HETATM    5  N10 UNL     1     -33.226  17.237  -3.702  1.00 20.00     0.090 N 
HETATM    6 CL11 UNL     1     -34.266  15.704  -6.856  1.00 20.00    -0.123 Cl
ENDROOT
BRANCH   5   7
HETATM    7  C8  UNL     1     -33.229  18.308  -2.718  1.00 20.00     0.276 C 
BRANCH   7   8
HETATM    8  C9  UNL     1     -32.907  17.832  -1.293  1.00 20.00     0.009 C 
HETATM    9  C6  UNL     1     -31.597  18.451  -0.794  1.00 20.00     0.011 C 
BRANCH   8  10
HETATM   10  C7  UNL     1     -34.032  18.100  -0.275  1.00 20.00     0.001 C 
HETATM   11  C5  UNL     1     -33.570  18.864   0.957  1.00 20.00     0.005 C 
ENDBRANCH   8  10
ENDBRANCH   7   8
ENDBRANCH   5   7
TORSDOF 3
ENDMDL
MODEL 2
REMARK VINA RESULT:      -3.7      3.739      5.795
REMARK  3 active torsions:
REMARK  status: ('A' for Active; 'I' for Inactive)
REMARK    1  A    between atoms: C7_7  and  C9_9 
REMARK    2  A    between atoms: C8_8  and  C9_9 
REMARK    3  A    between atoms: C8_8  and  N10_10 
ROOT
HETATM    1  C1  UNL     1     -32.453  19.096   2.014  1.00 20.00     0.052 C 
HETATM    2  C2  UNL     1     -33.234  19.024   0.712  1.00 20.00     0.274 C 
HETATM    3  C3  UNL     1     -31.037  18.442   0.148  1.00 20.00     0.292 C 
HETATM    4  C4  UNL     1     -31.139  18.398   1.674  1.00 20.00     0.112 C 
HETATM    5  N10 UNL     1     -32.179  19.262  -0.273  1.00 20.00     0.090 N 
HETATM    6 CL11 UNL     1     -29.760  19.185   2.470  1.00 20.00    -0.123 Cl
ENDROOT
BRANCH   5   7
HETATM    7  C8  UNL     1     -32.607  18.973  -1.632  1.00 20.00     0.276 C 
BRANCH   7   8
HETATM    8  C9  UNL     1     -33.750  17.949  -1.710  1.00 20.00     0.009 C 
HETATM    9  C6  UNL     1     -34.931  18.509  -2.511  1.00 20.00     0.011 C 
BRANCH   8  10
HETATM   10  C7  UNL     1     -33.329  16.584  -2.286  1.00 20.00     0.001 C 
HETATM   11  C5  UNL     1     -33.670  16.413  -3.759  1.00 20.00     0.005 C 
ENDBRANCH   8  10
ENDBRANCH   7   8
ENDBRANCH   5   7
TORSDOF 3
ENDMDL
MODEL 3
REMARK VINA RESULT:      -3.6      0.985      1.559
REMARK  3 active torsions:
REMARK  status: ('A' for Active; 'I' for Inactive)
REMARK    1  A    between atoms: C7_7  and  C9_9 
REMARK    2  A    between atoms: C8_8  and  C9_9 
REMARK    3  A    between atoms: C8_8  and  N10_10 
ROOT
HETATM    1  C1  UNL     1     -33.976  15.122  -5.472  1.00 20.00     0.052 C 
HETATM    2  C2  UNL     1     -33.680  15.026  -3.985  1.00 20.00     0.274 C 
HETATM    3  C3  UNL     1     -34.569  17.169  -4.302  1.00 20.00     0.292 C 
HETATM    4  C4  UNL     1     -34.847  16.371  -5.577  1.00 20.00     0.112 C 
HETATM    5  N10 UNL     1     -33.487  16.434  -3.637  1.00 20.00     0.090 N 
HETATM    6 CL11 UNL     1     -34.483  17.294  -7.050  1.00 20.00    -0.123 Cl
ENDROOT
BRANCH   5   7
HETATM    7  C8  UNL     1     -33.459  16.656  -2.199  1.00 20.00     0.276 C 
BRANCH   7   8
HETATM    8  C9  UNL     1     -33.219  18.123  -1.811  1.00 20.00     0.009 C 
HETATM    9  C6  UNL     1     -34.378  18.661  -0.964  1.00 20.00     0.011 C 
BRANCH   8  10
HETATM   10  C7  UNL     1     -31.884  18.366  -1.082  1.00 20.00     0.001 C 
HETATM   11  C5  UNL     1     -32.032  18.530   0.423  1.00 20.00     0.005 C 
ENDBRANCH   8  10
ENDBRANCH   7   8
ENDBRANCH   5   7
TORSDOF 3
ENDMDL
MODEL 4
REMARK VINA RESULT:      -3.6      1.286      2.054
REMARK  3 active torsions:
REMARK  status: ('A' for Active; 'I' for Inactive)
REMARK    1  A    between atoms: C7_7  and  C9_9 
REMARK    2  A    between atoms: C8_8  and  C9_9 
REMARK    3  A    between atoms: C8_8  and  N10_10 
ROOT
HETATM    1  C1  UNL     1     -35.112  16.699  -4.816  1.00 20.00     0.052 C 
HETATM    2  C2  UNL     1     -34.523  18.008  -4.319  1.00 20.00     0.274 C 
HETATM    3  C3  UNL     1     -33.031  16.349  -3.608  1.00 20.00     0.292 C 
HETATM    4  C4  UNL     1     -33.968  15.707  -4.634  1.00 20.00     0.112 C 
HETATM    5  N10 UNL     1     -33.741  17.556  -3.168  1.00 20.00     0.090 N 
HETATM    6 CL11 UNL     1     -34.562  14.118  -4.109  1.00 20.00    -0.123 Cl
ENDROOT
BRANCH   5   7
HETATM    7  C8  UNL     1     -32.842  18.582  -2.663  1.00 20.00     0.276 C 
BRANCH   7   8
HETATM    8  C9  UNL     1     -32.809  18.667  -1.130  1.00 20.00     0.009 C 
HETATM    9  C6  UNL     1     -33.811  17.688  -0.507  1.00 20.00     0.011 C 
BRANCH   8  10
HETATM   10  C7  UNL     1     -31.412  18.441  -0.521  1.00 20.00     0.001 C 
HETATM   11  C5  UNL     1     -31.371  18.611   0.990  1.00 20.00     0.005 C 
ENDBRANCH   8  10
ENDBRANCH   7   8
ENDBRANCH   5   7
TORSDOF 3
ENDMDL
MODEL 5
REMARK VINA RESULT:      -3.6      1.161      1.660
REMARK  3 active torsions:
REMARK  status: ('A' for Active; 'I' for Inactive)
REMARK    1  A    between atoms: C7_7  and  C9_9 
REMARK    2  A    between atoms: C8_8  and  C9_9 
REMARK    3  A    between atoms: C8_8  and  N10_10 
ROOT
HETATM    1  C1  UNL     1     -35.319  16.348  -5.326  1.00 20.00     0.052 C 
HETATM    2  C2  UNL     1     -34.507  17.513  -4.785  1.00 20.00     0.274 C 
HETATM    3  C3  UNL     1     -33.548  15.598  -3.839  1.00 20.00     0.292 C 
HETATM    4  C4  UNL     1     -34.472  15.132  -4.967  1.00 20.00     0.112 C 
HETATM    5  N10 UNL     1     -34.005  16.958  -3.529  1.00 20.00     0.090 N 
HETATM    6 CL11 UNL     1     -35.483  13.753  -4.489  1.00 20.00    -0.123 Cl
ENDROOT
BRANCH   5   7
HETATM    7  C8  UNL     1     -32.961  17.777  -2.932  1.00 20.00     0.276 C 
BRANCH   7   8
HETATM    8  C9  UNL     1     -32.959  17.743  -1.396  1.00 20.00     0.009 C 
HETATM    9  C6  UNL     1     -31.724  18.457  -0.836  1.00 20.00     0.011 C 
BRANCH   8  10
HETATM   10  C7  UNL     1     -34.234  18.327  -0.757  1.00 20.00     0.001 C 
HETATM   11  C5  UNL     1     -34.103  18.584   0.737  1.00 20.00     0.005 C 
ENDBRANCH   8  10
ENDBRANCH   7   8
ENDBRANCH   5   7
TORSDOF 3
ENDMDL
MODEL 6
REMARK VINA RESULT:      -3.5     12.696     14.509
REMARK  3 active torsions:
REMARK  status: ('A' for Active; 'I' for Inactive)
REMARK    1  A    between atoms: C7_7  and  C9_9 
REMARK    2  A    between atoms: C8_8  and  C9_9 
REMARK    3  A    between atoms: C8_8  and  N10_10 
ROOT
HETATM    1  C1  UNL     1     -40.650  14.788  10.726  1.00 20.00     0.052 C 
HETATM    2  C2  UNL     1     -40.118  15.166   9.354  1.00 20.00     0.274 C 
HETATM    3  C3  UNL     1     -42.053  13.914   8.943  1.00 20.00     0.292 C 
HETATM    4  C4  UNL     1     -42.057  14.279  10.429  1.00 20.00     0.112 C 
HETATM    5  N10 UNL     1     -40.657  14.087   8.526  1.00 20.00     0.090 N 
HETATM    6 CL11 UNL     1     -42.483  12.902  11.466  1.00 20.00    -0.123 Cl
ENDROOT
BRANCH   5   7
HETATM    7  C8  UNL     1     -40.525  14.355   7.102  1.00 20.00     0.276 C 
BRANCH   7   8
HETATM    8  C9  UNL     1     -40.776  13.121   6.222  1.00 20.00     0.009 C 
HETATM    9  C6  UNL     1     -41.310  13.532   4.845  1.00 20.00     0.011 C 
BRANCH   8  10
HETATM   10  C7  UNL     1     -39.543  12.213   6.053  1.00 20.00     0.001 C 
HETATM   11  C5  UNL     1     -39.280  11.805   4.611  1.00 20.00     0.005 C 
ENDBRANCH   8  10
ENDBRANCH   7   8
ENDBRANCH   5   7
TORSDOF 3
ENDMDL
MODEL 7
REMARK VINA RESULT:      -3.4      2.485      5.151
REMARK  3 active torsions:
REMARK  status: ('A' for Active; 'I' for Inactive)
REMARK    1  A    between atoms: C7_7  and  C9_9 
REMARK    2  A    between atoms: C8_8  and  C9_9 
REMARK    3  A    between atoms: C8_8  and  N10_10 
ROOT
HETATM    1  C1  UNL     1     -33.807  18.799  -3.120  1.00 20.00     0.052 C 
HETATM    2  C2  UNL     1     -34.259  17.769  -4.141  1.00 20.00     0.274 C 
HETATM    3  C3  UNL     1     -33.339  16.531  -2.380  1.00 20.00     0.292 C 
HETATM    4  C4  UNL     1     -33.534  17.962  -1.874  1.00 20.00     0.112 C 
HETATM    5  N10 UNL     1     -33.363  16.652  -3.842  1.00 20.00     0.090 N 
HETATM    6 CL11 UNL     1     -32.121  18.566  -0.983  1.00 20.00    -0.123 Cl
ENDROOT
BRANCH   5   7
HETATM    7  C8  UNL     1     -33.767  15.419  -4.501  1.00 20.00     0.276 C 
BRANCH   7   8
HETATM    8  C9  UNL     1     -34.709  15.642  -5.693  1.00 20.00     0.009 C 
HETATM    9  C6  UNL     1     -33.987  15.374  -7.018  1.00 20.00     0.011 C 
BRANCH   8  10
HETATM   10  C7  UNL     1     -36.005  14.812  -5.628  1.00 20.00     0.001 C 
HETATM   11  C5  UNL     1     -35.945  13.663  -4.633  1.00 20.00     0.005 C 
ENDBRANCH   8  10
ENDBRANCH   7   8
ENDBRANCH   5   7
TORSDOF 3
ENDMDL
MODEL 8
REMARK VINA RESULT:      -3.4     11.617     13.300
REMARK  3 active torsions:
REMARK  status: ('A' for Active; 'I' for Inactive)
REMARK    1  A    between atoms: C7_7  and  C9_9 
REMARK    2  A    between atoms: C8_8  and  C9_9 
REMARK    3  A    between atoms: C8_8  and  N10_10 
ROOT
HETATM    1  C1  UNL     1     -42.446  16.933   7.668  1.00 20.00     0.052 C 
HETATM    2  C2  UNL     1     -42.631  15.431   7.804  1.00 20.00     0.274 C 
HETATM    3  C3  UNL     1     -40.315  15.762   7.690  1.00 20.00     0.292 C 
HETATM    4  C4  UNL     1     -40.956  17.130   7.934  1.00 20.00     0.112 C 
HETATM    5  N10 UNL     1     -41.409  14.931   7.173  1.00 20.00     0.090 N 
HETATM    6 CL11 UNL     1     -40.271  18.396   6.895  1.00 20.00    -0.123 Cl
ENDROOT
BRANCH   5   7
HETATM    7  C8  UNL     1     -41.197  13.512   7.413  1.00 20.00     0.276 C 
BRANCH   7   8
HETATM    8  C9  UNL     1     -41.006  12.695   6.126  1.00 20.00     0.009 C 
HETATM    9  C6  UNL     1     -41.323  13.544   4.889  1.00 20.00     0.011 C 
BRANCH   8  10
HETATM   10  C7  UNL     1     -39.606  12.069   5.984  1.00 20.00     0.001 C 
HETATM   11  C5  UNL     1     -39.220  11.756   4.546  1.00 20.00     0.005 C 
ENDBRANCH   8  10
ENDBRANCH   7   8
ENDBRANCH   5   7
TORSDOF 3
ENDMDL
MODEL 9
REMARK VINA RESULT:      -3.4      2.949      5.115
REMARK  3 active torsions:
REMARK  status: ('A' for Active; 'I' for Inactive)
REMARK    1  A    between atoms: C7_7  and  C9_9 
REMARK    2  A    between atoms: C8_8  and  C9_9 
REMARK    3  A    between atoms: C8_8  and  N10_10 
ROOT
HETATM    1  C1  UNL     1     -34.746  19.156  -0.349  1.00 20.00     0.052 C 
HETATM    2  C2  UNL     1     -34.786  18.874  -1.842  1.00 20.00     0.274 C 
HETATM    3  C3  UNL     1     -32.777  17.937  -1.089  1.00 20.00     0.292 C 
HETATM    4  C4  UNL     1     -33.618  18.256   0.148  1.00 20.00     0.112 C 
HETATM    5  N10 UNL     1     -33.361  18.760  -2.154  1.00 20.00     0.090 N 
HETATM    6 CL11 UNL     1     -32.673  19.046   1.428  1.00 20.00    -0.123 Cl
ENDROOT
BRANCH   5   7
HETATM    7  C8  UNL     1     -33.121  18.215  -3.481  1.00 20.00     0.276 C 
BRANCH   7   8
HETATM    8  C9  UNL     1     -33.993  16.994  -3.808  1.00 20.00     0.009 C 
HETATM    9  C6  UNL     1     -34.695  17.171  -5.160  1.00 20.00     0.011 C 
BRANCH   8  10
HETATM   10  C7  UNL     1     -33.229  15.656  -3.789  1.00 20.00     0.001 C 
HETATM   11  C5  UNL     1     -34.070  14.467  -4.229  1.00 20.00     0.005 C 
ENDBRANCH   8  10
ENDBRANCH   7   8
ENDBRANCH   5   7
TORSDOF 3
ENDMDL
