MODEL 1
REMARK VINA RESULT:      -3.7      0.000      0.000
REMARK  3 active torsions:
REMARK  status: ('A' for Active; 'I' for Inactive)
REMARK    1  A    between atoms: C1_1  and  C4_4 
REMARK       I    between atoms: C1_1  and  N7_7 
REMARK    2  A    between atoms: C5_5  and  C6_6 
REMARK    3  A    between atoms: C5_5  and  N7_7 
ROOT
HETATM    1  C1  UNL     1     -34.213   5.115   4.515  1.00 20.00     0.219 C 
HETATM    2  C3  UNL     1     -32.746   5.191   2.487  1.00 20.00     0.152 C 
HETATM    3  N7  UNL     1     -33.524   5.839   3.536  1.00 20.00    -0.355 N 
HETATM    4  O8  UNL     1     -34.219   3.881   4.570  1.00 20.00    -0.273 OA
ENDROOT
BRANCH   3   5
HETATM    5  C5  UNL     1     -33.532   7.299   3.492  1.00 20.00     0.140 C 
BRANCH   5   6
HETATM    6  C6  UNL     1     -32.161   7.898   3.755  1.00 20.00     0.134 C 
HETATM    7 CL9  UNL     1     -32.226   9.130   5.039  1.00 20.00    -0.129 Cl
ENDBRANCH   5   6
ENDBRANCH   3   5
BRANCH   1   8
HETATM    8  C4  UNL     1     -34.981   5.935   5.541  1.00 20.00     0.098 C 
HETATM    9  C2  UNL     1     -34.095   6.452   6.663  1.00 20.00     0.014 C 
ENDBRANCH   1   8
TORSDOF 3
ENDMDL
MODEL 2
REMARK VINA RESULT:      -3.6      2.308      3.166
REMARK  3 active torsions:
REMARK  status: ('A' for Active; 'I' for Inactive)
REMARK    1  A    between atoms: C1_1  and  C4_4 
REMARK       I    between atoms: C1_1  and  N7_7 
REMARK    2  A    between atoms: C5_5  and  C6_6 
REMARK    3  A    between atoms: C5_5  and  N7_7 
ROOT
HETATM    1  C1  UNL     1     -32.732   7.192   3.545  1.00 20.00     0.219 C 
HETATM    2  C3  UNL     1     -32.940   4.894   2.573  1.00 20.00     0.152 C 
HETATM    3  N7  UNL     1     -33.428   5.987   3.405  1.00 20.00    -0.355 N 
HETATM    4  O8  UNL     1     -31.658   7.426   2.983  1.00 20.00    -0.273 OA
ENDROOT
BRANCH   3   5
HETATM    5  C5  UNL     1     -34.698   5.733   4.083  1.00 20.00     0.140 C 
BRANCH   5   6
HETATM    6  C6  UNL     1     -34.527   4.921   5.355  1.00 20.00     0.134 C 
HETATM    7 CL9  UNL     1     -34.510   5.968   6.795  1.00 20.00    -0.129 Cl
ENDBRANCH   5   6
ENDBRANCH   3   5
BRANCH   1   8
HETATM    8  C4  UNL     1     -33.370   8.235   4.451  1.00 20.00     0.098 C 
HETATM    9  C2  UNL     1     -32.344   9.108   5.156  1.00 20.00     0.014 C 
ENDBRANCH   1   8
TORSDOF 3
ENDMDL
MODEL 3
REMARK VINA RESULT:      -3.6      2.499      3.019
REMARK  3 active torsions:
REMARK  status: ('A' for Active; 'I' for Inactive)
REMARK    1  A    between atoms: C1_1  and  C4_4 
REMARK       I    between atoms: C1_1  and  N7_7 
REMARK    2  A    between atoms: C5_5  and  C6_6 
REMARK    3  A    between atoms: C5_5  and  N7_7 
ROOT
HETATM    1  C1  UNL     1     -33.684   7.176   5.182  1.00 20.00     0.219 C 
HETATM    2  C3  UNL     1     -32.148   9.151   5.084  1.00 20.00     0.152 C 
HETATM    3  N7  UNL     1     -32.788   7.989   4.480  1.00 20.00    -0.355 N 
HETATM    4  O8  UNL     1     -34.002   7.373   6.359  1.00 20.00    -0.273 OA
ENDROOT
BRANCH   3   5
HETATM    5  C5  UNL     1     -32.426   7.734   3.088  1.00 20.00     0.140 C 
BRANCH   5   6
HETATM    6  C6  UNL     1     -32.631   8.950   2.200  1.00 20.00     0.134 C 
HETATM    7 CL9  UNL     1     -32.281   8.575   0.495  1.00 20.00    -0.129 Cl
ENDBRANCH   5   6
ENDBRANCH   3   5
BRANCH   1   8
HETATM    8  C4  UNL     1     -34.267   5.998   4.414  1.00 20.00     0.098 C 
HETATM    9  C2  UNL     1     -34.701   4.860   5.324  1.00 20.00     0.014 C 
ENDBRANCH   1   8
TORSDOF 3
ENDMDL
MODEL 4
REMARK VINA RESULT:      -3.5      2.573      3.719
REMARK  3 active torsions:
REMARK  status: ('A' for Active; 'I' for Inactive)
REMARK    1  A    between atoms: C1_1  and  C4_4 
REMARK       I    between atoms: C1_1  and  N7_7 
REMARK    2  A    between atoms: C5_5  and  C6_6 
REMARK    3  A    between atoms: C5_5  and  N7_7 
ROOT
HETATM    1  C1  UNL     1     -32.662   7.134   3.371  1.00 20.00     0.219 C 
HETATM    2  C3  UNL     1     -32.217   9.093   4.864  1.00 20.00     0.152 C 
HETATM    3  N7  UNL     1     -33.002   7.930   4.469  1.00 20.00    -0.355 N 
HETATM    4  O8  UNL     1     -31.681   7.348   2.654  1.00 20.00    -0.273 OA
ENDROOT
BRANCH   3   5
HETATM    5  C5  UNL     1     -34.170   7.656   5.303  1.00 20.00     0.140 C 
BRANCH   5   6
HETATM    6  C6  UNL     1     -33.841   6.772   6.494  1.00 20.00     0.134 C 
HETATM    7 CL9  UNL     1     -34.632   5.182   6.360  1.00 20.00    -0.129 Cl
ENDBRANCH   5   6
ENDBRANCH   3   5
BRANCH   1   8
HETATM    8  C4  UNL     1     -33.582   5.955   3.085  1.00 20.00     0.098 C 
HETATM    9  C2  UNL     1     -32.834   4.739   2.564  1.00 20.00     0.014 C 
ENDBRANCH   1   8
TORSDOF 3
ENDMDL
MODEL 5
REMARK VINA RESULT:      -3.5      2.545      3.625
REMARK  3 active torsions:
REMARK  status: ('A' for Active; 'I' for Inactive)
REMARK    1  A    between atoms: C1_1  and  C4_4 
REMARK       I    between atoms: C1_1  and  N7_7 
REMARK    2  A    between atoms: C5_5  and  C6_6 
REMARK    3  A    between atoms: C5_5  and  N7_7 
ROOT
HETATM    1  C1  UNL     1     -33.820   7.334   5.767  1.00 20.00     0.219 C 
HETATM    2  C3  UNL     1     -34.702   5.187   6.705  1.00 20.00     0.152 C 
HETATM    3  N7  UNL     1     -34.425   6.085   5.591  1.00 20.00    -0.355 N 
HETATM    4  O8  UNL     1     -33.476   7.773   6.868  1.00 20.00    -0.273 OA
ENDROOT
BRANCH   3   5
HETATM    5  C5  UNL     1     -34.824   5.587   4.277  1.00 20.00     0.140 C 
BRANCH   5   6
HETATM    6  C6  UNL     1     -33.888   4.512   3.752  1.00 20.00     0.134 C 
HETATM    7 CL9  UNL     1     -32.810   5.150   2.487  1.00 20.00    -0.129 Cl
ENDBRANCH   5   6
ENDBRANCH   3   5
BRANCH   1   8
HETATM    8  C4  UNL     1     -33.598   8.157   4.506  1.00 20.00     0.098 C 
HETATM    9  C2  UNL     1     -32.126   8.319   4.161  1.00 20.00     0.014 C 
ENDBRANCH   1   8
TORSDOF 3
ENDMDL
MODEL 6
REMARK VINA RESULT:      -3.4      9.684     10.441
REMARK  3 active torsions:
REMARK  status: ('A' for Active; 'I' for Inactive)
REMARK    1  A    between atoms: C1_1  and  C4_4 
REMARK       I    between atoms: C1_1  and  N7_7 
REMARK    2  A    between atoms: C5_5  and  C6_6 
REMARK    3  A    between atoms: C5_5  and  N7_7 
ROOT
HETATM    1  C1  UNL     1     -39.700  12.345   6.435  1.00 20.00     0.219 C 
HETATM    2  C3  UNL     1     -40.463  14.282   7.826  1.00 20.00     0.152 C 
HETATM    3  N7  UNL     1     -40.556  13.431   6.646  1.00 20.00    -0.355 N 
HETATM    4  O8  UNL     1     -38.806  12.022   7.221  1.00 20.00    -0.273 OA
ENDROOT
BRANCH   3   5
HETATM    5  C5  UNL     1     -41.608  13.795   5.699  1.00 20.00     0.140 C 
BRANCH   5   6
HETATM    6  C6  UNL     1     -43.001  13.611   6.277  1.00 20.00     0.134 C 
HETATM    7 CL9  UNL     1     -43.170  12.027   7.072  1.00 20.00    -0.129 Cl
ENDBRANCH   5   6
ENDBRANCH   3   5
BRANCH   1   8
HETATM    8  C4  UNL     1     -39.922  11.554   5.154  1.00 20.00     0.098 C 
HETATM    9  C2  UNL     1     -38.787  11.720   4.156  1.00 20.00     0.014 C 
ENDBRANCH   1   8
TORSDOF 3
ENDMDL
MODEL 7
REMARK VINA RESULT:      -3.4     12.677     13.491
REMARK  3 active torsions:
REMARK  status: ('A' for Active; 'I' for Inactive)
REMARK    1  A    between atoms: C1_1  and  C4_4 
REMARK       I    between atoms: C1_1  and  N7_7 
REMARK    2  A    between atoms: C5_5  and  C6_6 
REMARK    3  A    between atoms: C5_5  and  N7_7 
ROOT
HETATM    1  C1  UNL     1     -34.082  14.969  -4.362  1.00 20.00     0.219 C 
HETATM    2  C3  UNL     1     -35.814  14.710  -6.151  1.00 20.00     0.152 C 
HETATM    3  N7  UNL     1     -34.796  15.482  -5.450  1.00 20.00    -0.355 N 
HETATM    4  O8  UNL     1     -34.253  13.832  -3.912  1.00 20.00    -0.273 OA
ENDROOT
BRANCH   3   5
HETATM    5  C5  UNL     1     -34.575  16.831  -5.965  1.00 20.00     0.140 C 
BRANCH   5   6
HETATM    6  C6  UNL     1     -35.838  17.676  -5.946  1.00 20.00     0.134 C 
HETATM    7 CL9  UNL     1     -36.355  18.033  -4.280  1.00 20.00    -0.129 Cl
ENDBRANCH   5   6
ENDBRANCH   3   5
BRANCH   1   8
HETATM    8  C4  UNL     1     -33.053  15.899  -3.735  1.00 20.00     0.098 C 
HETATM    9  C2  UNL     1     -33.538  16.518  -2.433  1.00 20.00     0.014 C 
ENDBRANCH   1   8
TORSDOF 3
ENDMDL
MODEL 8
REMARK VINA RESULT:      -3.4      1.273      2.665
REMARK  3 active torsions:
REMARK  status: ('A' for Active; 'I' for Inactive)
REMARK    1  A    between atoms: C1_1  and  C4_4 
REMARK       I    between atoms: C1_1  and  N7_7 
REMARK    2  A    between atoms: C5_5  and  C6_6 
REMARK    3  A    between atoms: C5_5  and  N7_7 
ROOT
HETATM    1  C1  UNL     1     -34.248   5.460   4.474  1.00 20.00     0.219 C 
HETATM    2  C3  UNL     1     -34.407   6.615   6.690  1.00 20.00     0.152 C 
HETATM    3  N7  UNL     1     -34.205   6.626   5.246  1.00 20.00    -0.355 N 
HETATM    4  O8  UNL     1     -34.457   4.339   4.946  1.00 20.00    -0.273 OA
ENDROOT
BRANCH   3   5
HETATM    5  C5  UNL     1     -33.955   7.942   4.663  1.00 20.00     0.140 C 
BRANCH   5   6
HETATM    6  C6  UNL     1     -32.539   8.432   4.916  1.00 20.00     0.134 C 
HETATM    7 CL9  UNL     1     -31.448   7.978   3.585  1.00 20.00    -0.129 Cl
ENDBRANCH   5   6
ENDBRANCH   3   5
BRANCH   1   8
HETATM    8  C4  UNL     1     -34.016   5.635   2.980  1.00 20.00     0.098 C 
HETATM    9  C2  UNL     1     -32.780   4.900   2.487  1.00 20.00     0.014 C 
ENDBRANCH   1   8
TORSDOF 3
ENDMDL
MODEL 9
REMARK VINA RESULT:      -3.3      2.997      4.398
REMARK  3 active torsions:
REMARK  status: ('A' for Active; 'I' for Inactive)
REMARK    1  A    between atoms: C1_1  and  C4_4 
REMARK       I    between atoms: C1_1  and  N7_7 
REMARK    2  A    between atoms: C5_5  and  C6_6 
REMARK    3  A    between atoms: C5_5  and  N7_7 
ROOT
HETATM    1  C1  UNL     1     -32.558   8.247   3.464  1.00 20.00     0.219 C 
HETATM    2  C3  UNL     1     -33.687   7.908   5.672  1.00 20.00     0.152 C 
HETATM    3  N7  UNL     1     -33.284   7.445   4.350  1.00 20.00    -0.355 N 
HETATM    4  O8  UNL     1     -32.203   9.400   3.725  1.00 20.00    -0.273 OA
ENDROOT
BRANCH   3   5
HETATM    5  C5  UNL     1     -33.693   6.082   4.017  1.00 20.00     0.140 C 
BRANCH   5   6
HETATM    6  C6  UNL     1     -34.976   5.670   4.719  1.00 20.00     0.134 C 
HETATM    7 CL9  UNL     1     -34.637   4.878   6.277  1.00 20.00    -0.129 Cl
ENDBRANCH   5   6
ENDBRANCH   3   5
BRANCH   1   8
HETATM    8  C4  UNL     1     -32.214   7.622   2.119  1.00 20.00     0.098 C 
HETATM    9  C2  UNL     1     -32.313   8.611   0.969  1.00 20.00     0.014 C 
ENDBRANCH   1   8
TORSDOF 3
ENDMDL
