MODEL 1
REMARK VINA RESULT:      -4.0      0.000      0.000
REMARK  1 active torsions:
REMARK  status: ('A' for Active; 'I' for Inactive)
REMARK    1  A    between atoms: C3_3  and  N9_9 
ROOT
HETATM    1  C4  UNL     1     -33.763  18.156  -4.193  1.00 20.00     0.041 C 
HETATM    2  C5  UNL     1     -32.923  18.930  -3.177  1.00 20.00     0.126 C 
HETATM    3  C6  UNL     1     -33.246  16.660  -2.401  1.00 20.00     0.145 C 
HETATM    4  C7  UNL     1     -33.370  16.712  -3.923  1.00 20.00     0.102 C 
HETATM    5  N9  UNL     1     -32.785  18.003  -2.055  1.00 20.00    -0.358 N 
HETATM    6 CL11 UNL     1     -34.560  15.562  -4.547  1.00 20.00    -0.123 Cl
ENDROOT
BRANCH   5   7
HETATM    7  C3  UNL     1     -32.295  18.359  -0.816  1.00 20.00     0.168 A 
HETATM    8  N8  UNL     1     -31.031  18.613  -0.564  1.00 20.00    -0.236 NA
HETATM    9  C1  UNL     1     -30.896  18.933   0.773  1.00 20.00     0.126 A 
HETATM   10  C2  UNL     1     -32.058  18.918   1.515  1.00 20.00     0.072 A 
HETATM   11  S10 UNL     1     -33.379  18.487   0.510  1.00 20.00    -0.063 SA
ENDBRANCH   5   7
TORSDOF 1
ENDMDL
MODEL 2
REMARK VINA RESULT:      -4.0      1.090      1.635
REMARK  1 active torsions:
REMARK  status: ('A' for Active; 'I' for Inactive)
REMARK    1  A    between atoms: C3_3  and  N9_9 
ROOT
HETATM    1  C4  UNL     1     -33.587  16.849  -3.782  1.00 20.00     0.041 C 
HETATM    2  C5  UNL     1     -33.332  16.758  -2.278  1.00 20.00     0.126 C 
HETATM    3  C6  UNL     1     -33.000  19.038  -3.019  1.00 20.00     0.145 C 
HETATM    4  C7  UNL     1     -33.949  18.314  -3.972  1.00 20.00     0.102 C 
HETATM    5  N9  UNL     1     -32.832  18.085  -1.923  1.00 20.00    -0.358 N 
HETATM    6 CL11 UNL     1     -33.761  18.843  -5.650  1.00 20.00    -0.123 Cl
ENDROOT
BRANCH   5   7
HETATM    7  C3  UNL     1     -32.257  18.394  -0.709  1.00 20.00     0.168 A 
HETATM    8  N8  UNL     1     -30.973  18.613  -0.532  1.00 20.00    -0.236 NA
HETATM    9  C1  UNL     1     -30.746  18.891   0.802  1.00 20.00     0.126 A 
HETATM   10  C2  UNL     1     -31.858  18.880   1.617  1.00 20.00     0.072 A 
HETATM   11  S10 UNL     1     -33.250  18.507   0.687  1.00 20.00    -0.063 SA
ENDBRANCH   5   7
TORSDOF 1
ENDMDL
MODEL 3
REMARK VINA RESULT:      -3.6      2.317      3.169
REMARK  1 active torsions:
REMARK  status: ('A' for Active; 'I' for Inactive)
REMARK    1  A    between atoms: C3_3  and  N9_9 
ROOT
HETATM    1  C4  UNL     1     -33.771  14.782  -5.542  1.00 20.00     0.041 C 
HETATM    2  C5  UNL     1     -33.255  15.182  -4.160  1.00 20.00     0.126 C 
HETATM    3  C6  UNL     1     -34.922  16.776  -4.895  1.00 20.00     0.145 C 
HETATM    4  C7  UNL     1     -35.145  15.432  -5.588  1.00 20.00     0.102 C 
HETATM    5  N9  UNL     1     -33.884  16.477  -3.910  1.00 20.00    -0.358 N 
HETATM    6 CL11 UNL     1     -35.750  15.613  -7.241  1.00 20.00    -0.123 Cl
ENDROOT
BRANCH   5   7
HETATM    7  C3  UNL     1     -33.529  17.322  -2.879  1.00 20.00     0.168 A 
HETATM    8  N8  UNL     1     -33.549  16.988  -1.608  1.00 20.00    -0.236 NA
HETATM    9  C1  UNL     1     -33.136  18.070  -0.855  1.00 20.00     0.126 A 
HETATM   10  C2  UNL     1     -32.809  19.207  -1.563  1.00 20.00     0.072 A 
HETATM   11  S10 UNL     1     -33.022  18.921  -3.242  1.00 20.00    -0.063 SA
ENDBRANCH   5   7
TORSDOF 1
ENDMDL
MODEL 4
REMARK VINA RESULT:      -3.5      3.801      5.930
REMARK  1 active torsions:
REMARK  status: ('A' for Active; 'I' for Inactive)
REMARK    1  A    between atoms: C3_3  and  N9_9 
ROOT
HETATM    1  C4  UNL     1     -33.480  16.938  -1.916  1.00 20.00     0.041 C 
HETATM    2  C5  UNL     1     -33.330  16.281  -3.288  1.00 20.00     0.126 C 
HETATM    3  C6  UNL     1     -34.925  18.097  -3.428  1.00 20.00     0.145 C 
HETATM    4  C7  UNL     1     -33.963  18.337  -2.265  1.00 20.00     0.102 C 
HETATM    5  N9  UNL     1     -34.349  16.937  -4.106  1.00 20.00    -0.358 N 
HETATM    6 CL11 UNL     1     -34.742  19.142  -0.896  1.00 20.00    -0.123 Cl
ENDROOT
BRANCH   5   7
HETATM    7  C3  UNL     1     -34.732  16.502  -5.358  1.00 20.00     0.168 A 
HETATM    8  N8  UNL     1     -34.590  17.204  -6.460  1.00 20.00    -0.236 NA
HETATM    9  C1  UNL     1     -35.079  16.469  -7.523  1.00 20.00     0.126 A 
HETATM   10  C2  UNL     1     -35.583  15.224  -7.213  1.00 20.00     0.072 A 
HETATM   11  S10 UNL     1     -35.445  14.950  -5.525  1.00 20.00    -0.063 SA
ENDBRANCH   5   7
TORSDOF 1
ENDMDL
MODEL 5
REMARK VINA RESULT:      -3.4     11.665     12.439
REMARK  1 active torsions:
REMARK  status: ('A' for Active; 'I' for Inactive)
REMARK    1  A    between atoms: C3_3  and  N9_9 
ROOT
HETATM    1  C4  UNL     1     -38.245  11.891   5.390  1.00 20.00     0.041 C 
HETATM    2  C5  UNL     1     -38.931  12.207   6.718  1.00 20.00     0.126 C 
HETATM    3  C6  UNL     1     -40.398  12.803   4.887  1.00 20.00     0.145 C 
HETATM    4  C7  UNL     1     -39.419  11.718   4.439  1.00 20.00     0.102 C 
HETATM    5  N9  UNL     1     -40.159  12.897   6.326  1.00 20.00    -0.358 N 
HETATM    6 CL11 UNL     1     -38.944  11.890   2.743  1.00 20.00    -0.123 Cl
ENDROOT
BRANCH   5   7
HETATM    7  C3  UNL     1     -40.981  13.569   7.206  1.00 20.00     0.168 A 
HETATM    8  N8  UNL     1     -42.016  13.030   7.812  1.00 20.00    -0.236 NA
HETATM    9  C1  UNL     1     -42.611  13.984   8.614  1.00 20.00     0.126 A 
HETATM   10  C2  UNL     1     -42.022  15.230   8.605  1.00 20.00     0.072 A 
HETATM   11  S10 UNL     1     -40.666  15.220   7.554  1.00 20.00    -0.063 SA
ENDBRANCH   5   7
TORSDOF 1
ENDMDL
MODEL 6
REMARK VINA RESULT:      -3.3      2.989      4.939
REMARK  1 active torsions:
REMARK  status: ('A' for Active; 'I' for Inactive)
REMARK    1  A    between atoms: C3_3  and  N9_9 
ROOT
HETATM    1  C4  UNL     1     -31.113  18.403   1.024  1.00 20.00     0.041 C 
HETATM    2  C5  UNL     1     -31.121  18.141  -0.482  1.00 20.00     0.126 C 
HETATM    3  C6  UNL     1     -33.369  18.636   0.266  1.00 20.00     0.145 C 
HETATM    4  C7  UNL     1     -32.352  19.261   1.221  1.00 20.00     0.102 C 
HETATM    5  N9  UNL     1     -32.539  18.148  -0.834  1.00 20.00    -0.358 N 
HETATM    6 CL11 UNL     1     -32.911  19.263   2.900  1.00 20.00    -0.123 Cl
ENDROOT
BRANCH   5   7
HETATM    7  C3  UNL     1     -33.035  17.727  -2.050  1.00 20.00     0.168 A 
HETATM    8  N8  UNL     1     -33.480  16.513  -2.288  1.00 20.00    -0.236 NA
HETATM    9  C1  UNL     1     -33.896  16.440  -3.603  1.00 20.00     0.126 A 
HETATM   10  C2  UNL     1     -33.760  17.595  -4.344  1.00 20.00     0.072 A 
HETATM   11  S10 UNL     1     -33.086  18.831  -3.364  1.00 20.00    -0.063 SA
ENDBRANCH   5   7
TORSDOF 1
ENDMDL
MODEL 7
REMARK VINA RESULT:      -3.1     12.113     12.848
REMARK  1 active torsions:
REMARK  status: ('A' for Active; 'I' for Inactive)
REMARK    1  A    between atoms: C3_3  and  N9_9 
ROOT
HETATM    1  C4  UNL     1     -41.224  13.276   4.988  1.00 20.00     0.041 C 
HETATM    2  C5  UNL     1     -41.451  14.334   6.068  1.00 20.00     0.126 C 
HETATM    3  C6  UNL     1     -39.739  12.786   6.798  1.00 20.00     0.145 C 
HETATM    4  C7  UNL     1     -39.805  12.808   5.271  1.00 20.00     0.102 C 
HETATM    5  N9  UNL     1     -40.630  13.878   7.188  1.00 20.00    -0.358 N 
HETATM    6 CL11 UNL     1     -39.461  11.228   4.555  1.00 20.00    -0.123 Cl
ENDROOT
BRANCH   5   7
HETATM    7  C3  UNL     1     -40.702  14.402   8.462  1.00 20.00     0.168 A 
HETATM    8  N8  UNL     1     -40.780  13.678   9.556  1.00 20.00    -0.236 NA
HETATM    9  C1  UNL     1     -40.838  14.524  10.647  1.00 20.00     0.126 A 
HETATM   10  C2  UNL     1     -40.806  15.873  10.366  1.00 20.00     0.072 A 
HETATM   11  S10 UNL     1     -40.696  16.106   8.670  1.00 20.00    -0.063 SA
ENDBRANCH   5   7
TORSDOF 1
ENDMDL
MODEL 8
REMARK VINA RESULT:      -3.1     12.633     13.762
REMARK  1 active torsions:
REMARK  status: ('A' for Active; 'I' for Inactive)
REMARK    1  A    between atoms: C3_3  and  N9_9 
ROOT
HETATM    1  C4  UNL     1     -41.046  16.337   9.245  1.00 20.00     0.041 C 
HETATM    2  C5  UNL     1     -40.453  15.815   7.936  1.00 20.00     0.126 C 
HETATM    3  C6  UNL     1     -41.967  14.164   8.855  1.00 20.00     0.145 C 
HETATM    4  C7  UNL     1     -42.347  15.557   9.358  1.00 20.00     0.102 C 
HETATM    5  N9  UNL     1     -40.938  14.439   7.853  1.00 20.00    -0.358 N 
HETATM    6 CL11 UNL     1     -42.977  15.533  11.011  1.00 20.00    -0.123 Cl
ENDROOT
BRANCH   5   7
HETATM    7  C3  UNL     1     -40.468  13.508   6.951  1.00 20.00     0.168 A 
HETATM    8  N8  UNL     1     -39.555  12.604   7.228  1.00 20.00    -0.236 NA
HETATM    9  C1  UNL     1     -39.323  11.843   6.098  1.00 20.00     0.126 A 
HETATM   10  C2  UNL     1     -40.060  12.180   4.983  1.00 20.00     0.072 A 
HETATM   11  S10 UNL     1     -41.091  13.501   5.351  1.00 20.00    -0.063 SA
ENDBRANCH   5   7
TORSDOF 1
ENDMDL
MODEL 9
REMARK VINA RESULT:      -3.1     24.730     25.471
REMARK  1 active torsions:
REMARK  status: ('A' for Active; 'I' for Inactive)
REMARK    1  A    between atoms: C3_3  and  N9_9 
ROOT
HETATM    1  C4  UNL     1     -22.484  -3.946  10.806  1.00 20.00     0.041 C 
HETATM    2  C5  UNL     1     -23.625  -3.423  11.679  1.00 20.00     0.126 C 
HETATM    3  C6  UNL     1     -24.201  -3.150   9.343  1.00 20.00     0.145 C 
HETATM    4  C7  UNL     1     -23.189  -4.284   9.502  1.00 20.00     0.102 C 
HETATM    5  N9  UNL     1     -24.552  -2.819  10.723  1.00 20.00    -0.358 N 
HETATM    6 CL11 UNL     1     -22.068  -4.389   8.137  1.00 20.00    -0.123 Cl
ENDROOT
BRANCH   5   7
HETATM    7  C3  UNL     1     -25.617  -2.019  11.081  1.00 20.00     0.168 A 
HETATM    8  N8  UNL     1     -25.550  -1.050  11.966  1.00 20.00    -0.236 NA
HETATM    9  C1  UNL     1     -26.794  -0.461  12.080  1.00 20.00     0.126 A 
HETATM   10  C2  UNL     1     -27.786  -0.991  11.281  1.00 20.00     0.072 A 
HETATM   11  S10 UNL     1     -27.146  -2.278  10.345  1.00 20.00    -0.063 SA
ENDBRANCH   5   7
TORSDOF 1
ENDMDL
