MODEL 1
REMARK VINA RESULT:      -3.8      0.000      0.000
REMARK  2 active torsions:
REMARK  status: ('A' for Active; 'I' for Inactive)
REMARK    1  A    between atoms: C6_6  and  C8_8 
REMARK    2  A    between atoms: C8_8  and  N9_9 
ROOT
HETATM    1  C3  UNL     1     -34.095  14.652  -4.266  1.00 20.00     0.052 C 
HETATM    2  C4  UNL     1     -33.008  15.655  -3.884  1.00 20.00     0.274 C 
HETATM    3  C5  UNL     1     -34.473  16.812  -5.270  1.00 20.00     0.292 C 
HETATM    4  C7  UNL     1     -35.142  15.470  -5.013  1.00 20.00     0.112 C 
HETATM    5  N9  UNL     1     -33.554  16.997  -4.136  1.00 20.00     0.090 N 
HETATM    6 CL10 UNL     1     -35.670  14.691  -6.516  1.00 20.00    -0.123 Cl
ENDROOT
BRANCH   5   7
HETATM    7  C8  UNL     1     -34.242  17.523  -2.958  1.00 20.00     0.277 C 
BRANCH   7   8
HETATM    8  C6  UNL     1     -33.516  17.164  -1.706  1.00 20.00     0.014 A 
HETATM    9  C1  UNL     1     -32.454  18.076  -1.157  1.00 20.00     0.007 A 
HETATM   10  C2  UNL     1     -33.767  17.932  -0.438  1.00 20.00     0.007 A 
ENDBRANCH   7   8
ENDBRANCH   5   7
TORSDOF 2
ENDMDL
MODEL 2
REMARK VINA RESULT:      -3.6     11.721     13.026
REMARK  2 active torsions:
REMARK  status: ('A' for Active; 'I' for Inactive)
REMARK    1  A    between atoms: C6_6  and  C8_8 
REMARK    2  A    between atoms: C8_8  and  N9_9 
ROOT
HETATM    1  C3  UNL     1     -40.421  15.552   7.796  1.00 20.00     0.052 C 
HETATM    2  C4  UNL     1     -40.454  14.027   7.885  1.00 20.00     0.274 C 
HETATM    3  C5  UNL     1     -42.419  14.638   6.802  1.00 20.00     0.292 C 
HETATM    4  C7  UNL     1     -41.613  15.923   6.922  1.00 20.00     0.112 C 
HETATM    5  N9  UNL     1     -41.422  13.560   6.881  1.00 20.00     0.090 N 
HETATM    6 CL10 UNL     1     -42.572  17.249   7.605  1.00 20.00    -0.123 Cl
ENDROOT
BRANCH   5   7
HETATM    7  C8  UNL     1     -40.777  13.319   5.591  1.00 20.00     0.277 C 
BRANCH   7   8
HETATM    8  C6  UNL     1     -39.996  12.049   5.608  1.00 20.00     0.014 A 
HETATM    9  C1  UNL     1     -39.310  11.564   4.361  1.00 20.00     0.007 A 
HETATM   10  C2  UNL     1     -38.495  12.081   5.515  1.00 20.00     0.007 A 
ENDBRANCH   7   8
ENDBRANCH   5   7
TORSDOF 2
ENDMDL
MODEL 3
REMARK VINA RESULT:      -3.5     11.191     11.794
REMARK  2 active torsions:
REMARK  status: ('A' for Active; 'I' for Inactive)
REMARK    1  A    between atoms: C6_6  and  C8_8 
REMARK    2  A    between atoms: C8_8  and  N9_9 
ROOT
HETATM    1  C3  UNL     1     -32.341   7.452   2.313  1.00 20.00     0.052 C 
HETATM    2  C4  UNL     1     -31.804   7.395   3.741  1.00 20.00     0.274 C 
HETATM    3  C5  UNL     1     -32.620   9.554   3.462  1.00 20.00     0.292 C 
HETATM    4  C7  UNL     1     -33.040   8.803   2.207  1.00 20.00     0.112 C 
HETATM    5  N9  UNL     1     -32.421   8.509   4.477  1.00 20.00     0.090 N 
HETATM    6 CL10 UNL     1     -32.607   9.680   0.729  1.00 20.00    -0.123 Cl
ENDROOT
BRANCH   5   7
HETATM    7  C8  UNL     1     -33.682   8.104   5.097  1.00 20.00     0.277 C 
BRANCH   7   8
HETATM    8  C6  UNL     1     -33.729   6.629   5.307  1.00 20.00     0.014 A 
HETATM    9  C1  UNL     1     -34.577   6.046   6.404  1.00 20.00     0.007 A 
HETATM   10  C2  UNL     1     -34.973   5.855   4.966  1.00 20.00     0.007 A 
ENDBRANCH   7   8
ENDBRANCH   5   7
TORSDOF 2
ENDMDL
MODEL 4
REMARK VINA RESULT:      -3.5     12.174     13.542
REMARK  2 active torsions:
REMARK  status: ('A' for Active; 'I' for Inactive)
REMARK    1  A    between atoms: C6_6  and  C8_8 
REMARK    2  A    between atoms: C8_8  and  N9_9 
ROOT
HETATM    1  C3  UNL     1     -42.163  13.829   8.831  1.00 20.00     0.052 C 
HETATM    2  C4  UNL     1     -42.777  13.710   7.438  1.00 20.00     0.274 C 
HETATM    3  C5  UNL     1     -40.709  14.726   7.129  1.00 20.00     0.292 C 
HETATM    4  C7  UNL     1     -40.739  14.319   8.595  1.00 20.00     0.112 C 
HETATM    5  N9  UNL     1     -41.675  13.835   6.471  1.00 20.00     0.090 N 
HETATM    6 CL10 UNL     1     -40.293  15.658   9.668  1.00 20.00    -0.123 Cl
ENDROOT
BRANCH   5   7
HETATM    7  C8  UNL     1     -41.089  12.531   6.159  1.00 20.00     0.277 C 
BRANCH   7   8
HETATM    8  C6  UNL     1     -39.925  12.671   5.239  1.00 20.00     0.014 A 
HETATM    9  C1  UNL     1     -38.601  12.051   5.591  1.00 20.00     0.007 A 
HETATM   10  C2  UNL     1     -39.422  11.482   4.468  1.00 20.00     0.007 A 
ENDBRANCH   7   8
ENDBRANCH   5   7
TORSDOF 2
ENDMDL
MODEL 5
REMARK VINA RESULT:      -3.4      3.555      5.437
REMARK  2 active torsions:
REMARK  status: ('A' for Active; 'I' for Inactive)
REMARK    1  A    between atoms: C6_6  and  C8_8 
REMARK    2  A    between atoms: C8_8  and  N9_9 
ROOT
HETATM    1  C3  UNL     1     -33.956  18.840   0.661  1.00 20.00     0.052 C 
HETATM    2  C4  UNL     1     -34.297  19.051  -0.813  1.00 20.00     0.274 C 
HETATM    3  C5  UNL     1     -32.023  18.570  -0.755  1.00 20.00     0.292 C 
HETATM    4  C7  UNL     1     -32.516  18.342   0.666  1.00 20.00     0.112 C 
HETATM    5  N9  UNL     1     -33.220  18.426  -1.596  1.00 20.00     0.090 N 
HETATM    6 CL10 UNL     1     -31.510  19.180   1.862  1.00 20.00    -0.123 Cl
ENDROOT
BRANCH   5   7
HETATM    7  C8  UNL     1     -33.517  17.023  -1.885  1.00 20.00     0.277 C 
BRANCH   7   8
HETATM    8  C6  UNL     1     -33.172  16.679  -3.294  1.00 20.00     0.014 A 
HETATM    9  C1  UNL     1     -33.491  15.315  -3.842  1.00 20.00     0.007 A 
HETATM   10  C2  UNL     1     -34.258  16.516  -4.322  1.00 20.00     0.007 A 
ENDBRANCH   7   8
ENDBRANCH   5   7
TORSDOF 2
ENDMDL
MODEL 6
REMARK VINA RESULT:      -3.4      1.981      3.069
REMARK  2 active torsions:
REMARK  status: ('A' for Active; 'I' for Inactive)
REMARK    1  A    between atoms: C6_6  and  C8_8 
REMARK    2  A    between atoms: C8_8  and  N9_9 
ROOT
HETATM    1  C3  UNL     1     -34.718  18.401  -3.295  1.00 20.00     0.052 C 
HETATM    2  C4  UNL     1     -34.583  18.504  -1.777  1.00 20.00     0.274 C 
HETATM    3  C5  UNL     1     -33.404  16.594  -2.385  1.00 20.00     0.292 C 
HETATM    4  C7  UNL     1     -33.789  17.262  -3.698  1.00 20.00     0.112 C 
HETATM    5  N9  UNL     1     -33.429  17.678  -1.391  1.00 20.00     0.090 N 
HETATM    6 CL10 UNL     1     -34.553  16.125  -4.823  1.00 20.00    -0.123 Cl
ENDROOT
BRANCH   5   7
HETATM    7  C8  UNL     1     -32.190  18.455  -1.401  1.00 20.00     0.277 C 
BRANCH   7   8
HETATM    8  C6  UNL     1     -32.030  19.229  -0.137  1.00 20.00     0.014 A 
HETATM    9  C1  UNL     1     -32.227  18.556   1.194  1.00 20.00     0.007 A 
HETATM   10  C2  UNL     1     -30.850  18.976   0.761  1.00 20.00     0.007 A 
ENDBRANCH   7   8
ENDBRANCH   5   7
TORSDOF 2
ENDMDL
MODEL 7
REMARK VINA RESULT:      -3.3     10.968     11.811
REMARK  2 active torsions:
REMARK  status: ('A' for Active; 'I' for Inactive)
REMARK    1  A    between atoms: C6_6  and  C8_8 
REMARK    2  A    between atoms: C8_8  and  N9_9 
ROOT
HETATM    1  C3  UNL     1     -33.735   7.601   5.669  1.00 20.00     0.052 C 
HETATM    2  C4  UNL     1     -32.484   8.226   5.057  1.00 20.00     0.274 C 
HETATM    3  C5  UNL     1     -33.034   6.437   3.677  1.00 20.00     0.292 C 
HETATM    4  C7  UNL     1     -34.191   6.556   4.657  1.00 20.00     0.112 C 
HETATM    5  N9  UNL     1     -32.417   7.772   3.659  1.00 20.00     0.090 N 
HETATM    6 CL10 UNL     1     -34.586   5.002   5.414  1.00 20.00    -0.123 Cl
ENDROOT
BRANCH   5   7
HETATM    7  C8  UNL     1     -33.126   8.688   2.767  1.00 20.00     0.277 C 
BRANCH   7   8
HETATM    8  C6  UNL     1     -32.268   9.091   1.617  1.00 20.00     0.014 A 
HETATM    9  C1  UNL     1     -32.129   8.189   0.421  1.00 20.00     0.007 A 
HETATM   10  C2  UNL     1     -32.892   9.480   0.305  1.00 20.00     0.007 A 
ENDBRANCH   7   8
ENDBRANCH   5   7
TORSDOF 2
ENDMDL
MODEL 8
REMARK VINA RESULT:      -3.3     12.064     12.759
REMARK  2 active torsions:
REMARK  status: ('A' for Active; 'I' for Inactive)
REMARK    1  A    between atoms: C6_6  and  C8_8 
REMARK    2  A    between atoms: C8_8  and  N9_9 
ROOT
HETATM    1  C3  UNL     1     -31.456   8.392   4.077  1.00 20.00     0.052 C 
HETATM    2  C4  UNL     1     -32.324   9.013   5.169  1.00 20.00     0.274 C 
HETATM    3  C5  UNL     1     -33.796   7.912   3.745  1.00 20.00     0.292 C 
HETATM    4  C7  UNL     1     -32.407   7.521   3.264  1.00 20.00     0.112 C 
HETATM    5  N9  UNL     1     -33.612   8.301   5.152  1.00 20.00     0.090 N 
HETATM    6 CL10 UNL     1     -32.218   7.754   1.517  1.00 20.00    -0.123 Cl
ENDROOT
BRANCH   5   7
HETATM    7  C8  UNL     1     -33.591   7.140   6.040  1.00 20.00     0.277 C 
BRANCH   7   8
HETATM    8  C6  UNL     1     -34.725   6.218   5.747  1.00 20.00     0.014 A 
HETATM    9  C1  UNL     1     -34.487   4.940   4.991  1.00 20.00     0.007 A 
HETATM   10  C2  UNL     1     -34.828   4.895   6.455  1.00 20.00     0.007 A 
ENDBRANCH   7   8
ENDBRANCH   5   7
TORSDOF 2
ENDMDL
MODEL 9
REMARK VINA RESULT:      -3.3      2.687      4.704
REMARK  2 active torsions:
REMARK  status: ('A' for Active; 'I' for Inactive)
REMARK    1  A    between atoms: C6_6  and  C8_8 
REMARK    2  A    between atoms: C8_8  and  N9_9 
ROOT
HETATM    1  C3  UNL     1     -33.881  19.165  -2.386  1.00 20.00     0.052 C 
HETATM    2  C4  UNL     1     -33.112  18.704  -3.623  1.00 20.00     0.274 C 
HETATM    3  C5  UNL     1     -33.327  16.820  -2.278  1.00 20.00     0.292 C 
HETATM    4  C7  UNL     1     -34.179  17.888  -1.608  1.00 20.00     0.112 C 
HETATM    5  N9  UNL     1     -33.235  17.240  -3.684  1.00 20.00     0.090 N 
HETATM    6 CL10 UNL     1     -33.814  18.044   0.120  1.00 20.00    -0.123 Cl
ENDROOT
BRANCH   5   7
HETATM    7  C8  UNL     1     -34.412  16.835  -4.452  1.00 20.00     0.277 C 
BRANCH   7   8
HETATM    8  C6  UNL     1     -34.290  15.425  -4.921  1.00 20.00     0.014 A 
HETATM    9  C1  UNL     1     -35.419  14.775  -5.672  1.00 20.00     0.007 A 
HETATM   10  C2  UNL     1     -34.144  15.125  -6.387  1.00 20.00     0.007 A 
ENDBRANCH   7   8
ENDBRANCH   5   7
TORSDOF 2
ENDMDL
