MODEL 1
REMARK VINA RESULT:      -4.0      0.000      0.000
REMARK  1 active torsions:
REMARK  status: ('A' for Active; 'I' for Inactive)
REMARK    1  A    between atoms: C6_6  and  N7_7 
ROOT
HETATM    1  C1  UNL     1     -32.258   8.112   2.900  1.00 20.00     0.158 C 
HETATM    2  N7  UNL     1     -32.273   7.976   4.064  1.00 20.00    -0.268 NA
HETATM    3  S9  UNL     1     -32.203   8.313   1.321  1.00 20.00    -0.055 SA
ENDROOT
BRANCH   2   4
HETATM    4  C6  UNL     1     -33.501   7.381   4.591  1.00 20.00     0.133 C 
HETATM    5  C3  UNL     1     -33.673   5.980   4.007  1.00 20.00     0.032 C 
HETATM    6  C2  UNL     1     -34.828   5.257   4.691  1.00 20.00     0.028 C 
HETATM    7  C4  UNL     1     -34.680   5.317   6.206  1.00 20.00     0.167 C 
HETATM    8  O8  UNL     1     -34.571   6.667   6.652  1.00 20.00    -0.389 OA
HETATM    9  C5  UNL     1     -33.423   7.323   6.113  1.00 20.00     0.195 C 
ENDBRANCH   2   4
TORSDOF 1
ENDMDL
MODEL 2
REMARK VINA RESULT:      -3.6     12.595     12.991
REMARK  1 active torsions:
REMARK  status: ('A' for Active; 'I' for Inactive)
REMARK    1  A    between atoms: C6_6  and  N7_7 
ROOT
HETATM    1  C1  UNL     1     -30.596  19.071   3.340  1.00 20.00     0.158 C 
HETATM    2  N7  UNL     1     -31.667  19.064   2.863  1.00 20.00    -0.268 NA
HETATM    3  S9  UNL     1     -29.156  19.098   4.020  1.00 20.00    -0.055 SA
ENDROOT
BRANCH   2   4
HETATM    4  C6  UNL     1     -31.732  18.473   1.526  1.00 20.00     0.133 C 
HETATM    5  C3  UNL     1     -33.161  18.582   0.997  1.00 20.00     0.032 C 
HETATM    6  C2  UNL     1     -33.218  18.165  -0.469  1.00 20.00     0.028 C 
HETATM    7  C4  UNL     1     -32.164  18.906  -1.282  1.00 20.00     0.167 C 
HETATM    8  O8  UNL     1     -30.864  18.704  -0.731  1.00 20.00    -0.389 OA
HETATM    9  C5  UNL     1     -30.760  19.200   0.604  1.00 20.00     0.195 C 
ENDBRANCH   2   4
TORSDOF 1
ENDMDL
MODEL 3
REMARK VINA RESULT:      -3.4      1.121      1.740
REMARK  1 active torsions:
REMARK  status: ('A' for Active; 'I' for Inactive)
REMARK    1  A    between atoms: C6_6  and  N7_7 
ROOT
HETATM    1  C1  UNL     1     -32.517   8.401   2.896  1.00 20.00     0.158 C 
HETATM    2  N7  UNL     1     -32.774   8.451   4.039  1.00 20.00    -0.268 NA
HETATM    3  S9  UNL     1     -32.164   8.371   1.343  1.00 20.00    -0.055 SA
ENDROOT
BRANCH   2   4
HETATM    4  C6  UNL     1     -33.030   7.152   4.662  1.00 20.00     0.133 C 
HETATM    5  C3  UNL     1     -33.919   7.349   5.888  1.00 20.00     0.032 C 
HETATM    6  C2  UNL     1     -34.373   6.001   6.437  1.00 20.00     0.028 C 
HETATM    7  C4  UNL     1     -34.970   5.141   5.331  1.00 20.00     0.167 C 
HETATM    8  O8  UNL     1     -34.045   4.983   4.256  1.00 20.00    -0.389 OA
HETATM    9  C5  UNL     1     -33.703   6.230   3.651  1.00 20.00     0.195 C 
ENDBRANCH   2   4
TORSDOF 1
ENDMDL
MODEL 4
REMARK VINA RESULT:      -3.4     12.485     13.223
REMARK  1 active torsions:
REMARK  status: ('A' for Active; 'I' for Inactive)
REMARK    1  A    between atoms: C6_6  and  N7_7 
ROOT
HETATM    1  C1  UNL     1     -32.921  17.608  -1.653  1.00 20.00     0.158 C 
HETATM    2  N7  UNL     1     -33.483  16.673  -2.083  1.00 20.00    -0.268 NA
HETATM    3  S9  UNL     1     -32.169  18.868  -1.033  1.00 20.00    -0.055 SA
ENDROOT
BRANCH   2   4
HETATM    4  C6  UNL     1     -33.406  16.533  -3.537  1.00 20.00     0.133 C 
HETATM    5  C3  UNL     1     -33.719  15.089  -3.921  1.00 20.00     0.032 C 
HETATM    6  C2  UNL     1     -33.849  14.957  -5.435  1.00 20.00     0.028 C 
HETATM    7  C4  UNL     1     -34.812  16.001  -5.985  1.00 20.00     0.167 C 
HETATM    8  O8  UNL     1     -34.406  17.316  -5.608  1.00 20.00    -0.389 OA
HETATM    9  C5  UNL     1     -34.396  17.491  -4.191  1.00 20.00     0.195 C 
ENDBRANCH   2   4
TORSDOF 1
ENDMDL
MODEL 5
REMARK VINA RESULT:      -3.4     15.421     15.838
REMARK  1 active torsions:
REMARK  status: ('A' for Active; 'I' for Inactive)
REMARK    1  A    between atoms: C6_6  and  N7_7 
ROOT
HETATM    1  C1  UNL     1     -22.739  18.504   8.391  1.00 20.00     0.158 C 
HETATM    2  N7  UNL     1     -23.757  18.853   8.854  1.00 20.00    -0.268 NA
HETATM    3  S9  UNL     1     -21.366  18.043   7.727  1.00 20.00    -0.055 SA
ENDROOT
BRANCH   2   4
HETATM    4  C6  UNL     1     -23.916  18.546  10.275  1.00 20.00     0.133 C 
HETATM    5  C3  UNL     1     -25.268  19.068  10.755  1.00 20.00     0.032 C 
HETATM    6  C2  UNL     1     -25.552  18.584  12.173  1.00 20.00     0.028 C 
HETATM    7  C4  UNL     1     -25.362  17.076  12.276  1.00 20.00     0.167 C 
HETATM    8  O8  UNL     1     -24.055  16.698  11.847  1.00 20.00    -0.389 OA
HETATM    9  C5  UNL     1     -23.817  17.038  10.481  1.00 20.00     0.195 C 
ENDBRANCH   2   4
TORSDOF 1
ENDMDL
MODEL 6
REMARK VINA RESULT:      -3.4     12.540     13.266
REMARK  1 active torsions:
REMARK  status: ('A' for Active; 'I' for Inactive)
REMARK    1  A    between atoms: C6_6  and  N7_7 
ROOT
HETATM    1  C1  UNL     1     -32.024  18.669   0.640  1.00 20.00     0.158 C 
HETATM    2  N7  UNL     1     -32.858  18.884  -0.155  1.00 20.00    -0.268 NA
HETATM    3  S9  UNL     1     -30.909  18.398   1.745  1.00 20.00    -0.055 SA
ENDROOT
BRANCH   2   4
HETATM    4  C6  UNL     1     -32.631  18.260  -1.459  1.00 20.00     0.133 C 
HETATM    5  C3  UNL     1     -33.516  17.022  -1.585  1.00 20.00     0.032 C 
HETATM    6  C2  UNL     1     -33.457  16.469  -3.005  1.00 20.00     0.028 C 
HETATM    7  C4  UNL     1     -33.726  17.569  -4.024  1.00 20.00     0.167 C 
HETATM    8  O8  UNL     1     -32.819  18.656  -3.848  1.00 20.00    -0.389 OA
HETATM    9  C5  UNL     1     -32.948  19.263  -2.562  1.00 20.00     0.195 C 
ENDBRANCH   2   4
TORSDOF 1
ENDMDL
MODEL 7
REMARK VINA RESULT:      -3.3     12.482     12.787
REMARK  1 active torsions:
REMARK  status: ('A' for Active; 'I' for Inactive)
REMARK    1  A    between atoms: C6_6  and  N7_7 
ROOT
HETATM    1  C1  UNL     1     -33.813  17.292  -2.179  1.00 20.00     0.158 C 
HETATM    2  N7  UNL     1     -34.202  17.990  -1.322  1.00 20.00    -0.268 NA
HETATM    3  S9  UNL     1     -33.320  16.332  -3.351  1.00 20.00    -0.055 SA
ENDROOT
BRANCH   2   4
HETATM    4  C6  UNL     1     -33.156  18.737  -0.623  1.00 20.00     0.133 C 
HETATM    5  C3  UNL     1     -33.323  18.547   0.883  1.00 20.00     0.032 C 
HETATM    6  C2  UNL     1     -32.132  19.139   1.629  1.00 20.00     0.028 C 
HETATM    7  C4  UNL     1     -30.821  18.623   1.048  1.00 20.00     0.167 C 
HETATM    8  O8  UNL     1     -30.747  18.889  -0.351  1.00 20.00    -0.389 OA
HETATM    9  C5  UNL     1     -31.789  18.239  -1.080  1.00 20.00     0.195 C 
ENDBRANCH   2   4
TORSDOF 1
ENDMDL
MODEL 8
REMARK VINA RESULT:      -3.2     12.611     13.593
REMARK  1 active torsions:
REMARK  status: ('A' for Active; 'I' for Inactive)
REMARK    1  A    between atoms: C6_6  and  N7_7 
ROOT
HETATM    1  C1  UNL     1     -33.362  16.545  -2.879  1.00 20.00     0.158 C 
HETATM    2  N7  UNL     1     -33.175  15.921  -3.854  1.00 20.00    -0.268 NA
HETATM    3  S9  UNL     1     -33.579  17.391  -1.547  1.00 20.00    -0.055 SA
ENDROOT
BRANCH   2   4
HETATM    4  C6  UNL     1     -34.381  15.623  -4.626  1.00 20.00     0.133 C 
HETATM    5  C3  UNL     1     -35.132  16.922  -4.909  1.00 20.00     0.032 C 
HETATM    6  C2  UNL     1     -36.278  16.673  -5.883  1.00 20.00     0.028 C 
HETATM    7  C4  UNL     1     -35.785  15.924  -7.115  1.00 20.00     0.167 C 
HETATM    8  O8  UNL     1     -35.140  14.707  -6.744  1.00 20.00    -0.389 OA
HETATM    9  C5  UNL     1     -33.990  14.933  -5.928  1.00 20.00     0.195 C 
ENDBRANCH   2   4
TORSDOF 1
ENDMDL
MODEL 9
REMARK VINA RESULT:      -3.2      9.467      9.905
REMARK  1 active torsions:
REMARK  status: ('A' for Active; 'I' for Inactive)
REMARK    1  A    between atoms: C6_6  and  N7_7 
ROOT
HETATM    1  C1  UNL     1     -40.827  14.704   7.764  1.00 20.00     0.158 C 
HETATM    2  N7  UNL     1     -40.889  13.618   7.326  1.00 20.00    -0.268 NA
HETATM    3  S9  UNL     1     -40.769  16.170   8.385  1.00 20.00    -0.055 SA
ENDROOT
BRANCH   2   4
HETATM    4  C6  UNL     1     -40.026  13.379   6.169  1.00 20.00     0.133 C 
HETATM    5  C3  UNL     1     -39.079  12.222   6.477  1.00 20.00     0.032 C 
HETATM    6  C2  UNL     1     -38.311  11.815   5.225  1.00 20.00     0.028 C 
HETATM    7  C4  UNL     1     -39.266  11.582   4.060  1.00 20.00     0.167 C 
HETATM    8  O8  UNL     1     -40.073  12.735   3.827  1.00 20.00    -0.389 OA
HETATM    9  C5  UNL     1     -40.888  13.059   4.953  1.00 20.00     0.195 C 
ENDBRANCH   2   4
TORSDOF 1
ENDMDL
