MODEL 1
REMARK VINA RESULT:      -4.5      0.000      0.000
REMARK  1 active torsions:
REMARK  status: ('A' for Active; 'I' for Inactive)
REMARK    1  A    between atoms: C1_1  and  C8_8 
REMARK       I    between atoms: C1_1  and  N10_10 
ROOT
HETATM    1  C1  UNL     1     -34.211  17.788  -2.603  1.00 20.00     0.224 C 
HETATM    2  C2  UNL     1     -33.957  14.600  -4.263  1.00 20.00     0.021 C 
HETATM    3  C5  UNL     1     -34.542  14.877  -5.647  1.00 20.00     0.023 C 
HETATM    4  C6  UNL     1     -33.215  15.817  -3.719  1.00 20.00     0.126 C 
HETATM    5  C7  UNL     1     -34.629  17.336  -5.071  1.00 20.00     0.145 C 
HETATM    6  C9  UNL     1     -35.402  16.141  -5.630  1.00 20.00     0.100 C 
HETATM    7  N10 UNL     1     -34.055  17.014  -3.758  1.00 20.00    -0.350 N 
HETATM    8  O11 UNL     1     -34.892  18.808  -2.530  1.00 20.00    -0.273 OA
HETATM    9 CL12 UNL     1     -35.975  16.507  -7.281  1.00 20.00    -0.123 Cl
ENDROOT
BRANCH   1  10
HETATM   10  C8  UNL     1     -33.495  17.337  -1.372  1.00 20.00     0.078 A 
HETATM   11  C3  UNL     1     -32.432  18.216  -0.805  1.00 20.00     0.015 A 
HETATM   12  C4  UNL     1     -33.745  18.068  -0.097  1.00 20.00     0.015 A 
ENDBRANCH   1  10
TORSDOF 1
ENDMDL
MODEL 2
REMARK VINA RESULT:      -4.3     11.624     12.914
REMARK  1 active torsions:
REMARK  status: ('A' for Active; 'I' for Inactive)
REMARK    1  A    between atoms: C1_1  and  C8_8 
REMARK       I    between atoms: C1_1  and  N10_10 
ROOT
HETATM    1  C1  UNL     1     -40.944  13.386   5.301  1.00 20.00     0.224 C 
HETATM    2  C2  UNL     1     -40.304  15.037   8.439  1.00 20.00     0.021 C 
HETATM    3  C5  UNL     1     -41.147  16.308   8.346  1.00 20.00     0.023 C 
HETATM    4  C6  UNL     1     -40.979  13.868   7.728  1.00 20.00     0.126 C 
HETATM    5  C7  UNL     1     -42.166  15.424   6.209  1.00 20.00     0.145 C 
HETATM    6  C9  UNL     1     -41.499  16.619   6.892  1.00 20.00     0.100 C 
HETATM    7  N10 UNL     1     -41.340  14.218   6.354  1.00 20.00    -0.350 N 
HETATM    8  O11 UNL     1     -41.196  13.588   4.116  1.00 20.00    -0.273 OA
HETATM    9 CL12 UNL     1     -42.581  18.039   6.820  1.00 20.00    -0.123 Cl
ENDROOT
BRANCH   1  10
HETATM   10  C8  UNL     1     -40.161  12.162   5.650  1.00 20.00     0.078 A 
HETATM   11  C3  UNL     1     -39.429  11.452   4.562  1.00 20.00     0.015 A 
HETATM   12  C4  UNL     1     -38.673  12.232   5.595  1.00 20.00     0.015 A 
ENDBRANCH   1  10
TORSDOF 1
ENDMDL
MODEL 3
REMARK VINA RESULT:      -4.0      2.956      5.093
REMARK  1 active torsions:
REMARK  status: ('A' for Active; 'I' for Inactive)
REMARK    1  A    between atoms: C1_1  and  C8_8 
REMARK       I    between atoms: C1_1  and  N10_10 
ROOT
HETATM    1  C1  UNL     1     -33.698  16.111  -4.099  1.00 20.00     0.224 C 
HETATM    2  C2  UNL     1     -35.587  18.729  -2.500  1.00 20.00     0.021 C 
HETATM    3  C5  UNL     1     -34.774  19.032  -1.243  1.00 20.00     0.023 C 
HETATM    4  C6  UNL     1     -34.684  18.338  -3.666  1.00 20.00     0.126 C 
HETATM    5  C7  UNL     1     -32.956  17.501  -2.102  1.00 20.00     0.145 C 
HETATM    6  C9  UNL     1     -33.839  17.870  -0.909  1.00 20.00     0.100 C 
HETATM    7  N10 UNL     1     -33.775  17.253  -3.295  1.00 20.00    -0.350 N 
HETATM    8  O11 UNL     1     -32.969  15.147  -3.878  1.00 20.00    -0.273 OA
HETATM    9 CL12 UNL     1     -32.817  18.297   0.492  1.00 20.00    -0.123 Cl
ENDROOT
BRANCH   1  10
HETATM   10  C8  UNL     1     -34.564  16.066  -5.315  1.00 20.00     0.078 A 
HETATM   11  C3  UNL     1     -34.155  15.187  -6.448  1.00 20.00     0.015 A 
HETATM   12  C4  UNL     1     -35.331  14.818  -5.594  1.00 20.00     0.015 A 
ENDBRANCH   1  10
TORSDOF 1
ENDMDL
MODEL 4
REMARK VINA RESULT:      -3.6     12.169     13.550
REMARK  1 active torsions:
REMARK  status: ('A' for Active; 'I' for Inactive)
REMARK    1  A    between atoms: C1_1  and  C8_8 
REMARK       I    between atoms: C1_1  and  N10_10 
ROOT
HETATM    1  C1  UNL     1     -39.878  12.584   6.303  1.00 20.00     0.224 C 
HETATM    2  C2  UNL     1     -43.155  14.063   6.072  1.00 20.00     0.021 C 
HETATM    3  C5  UNL     1     -43.358  14.685   7.453  1.00 20.00     0.023 C 
HETATM    4  C6  UNL     1     -41.693  14.129   5.641  1.00 20.00     0.126 C 
HETATM    5  C7  UNL     1     -40.953  14.138   8.005  1.00 20.00     0.145 C 
HETATM    6  C9  UNL     1     -42.407  14.061   8.474  1.00 20.00     0.100 C 
HETATM    7  N10 UNL     1     -40.811  13.562   6.662  1.00 20.00    -0.350 N 
HETATM    8  O11 UNL     1     -39.093  12.046   7.080  1.00 20.00    -0.273 OA
HETATM    9 CL12 UNL     1     -42.581  14.887  10.048  1.00 20.00    -0.123 Cl
ENDROOT
BRANCH   1  10
HETATM   10  C8  UNL     1     -39.835  12.168   4.869  1.00 20.00     0.078 A 
HETATM   11  C3  UNL     1     -38.521  11.785   4.278  1.00 20.00     0.015 A 
HETATM   12  C4  UNL     1     -39.557  10.737   4.552  1.00 20.00     0.015 A 
ENDBRANCH   1  10
TORSDOF 1
ENDMDL
MODEL 5
REMARK VINA RESULT:      -3.4      1.568      2.451
REMARK  1 active torsions:
REMARK  status: ('A' for Active; 'I' for Inactive)
REMARK    1  A    between atoms: C1_1  and  C8_8 
REMARK       I    between atoms: C1_1  and  N10_10 
ROOT
HETATM    1  C1  UNL     1     -33.653  16.975  -3.196  1.00 20.00     0.224 C 
HETATM    2  C2  UNL     1     -35.341  18.972  -5.675  1.00 20.00     0.021 C 
HETATM    3  C5  UNL     1     -35.675  17.963  -6.772  1.00 20.00     0.023 C 
HETATM    4  C6  UNL     1     -35.408  18.333  -4.291  1.00 20.00     0.126 C 
HETATM    5  C7  UNL     1     -34.883  16.109  -5.248  1.00 20.00     0.145 C 
HETATM    6  C9  UNL     1     -34.798  16.717  -6.649  1.00 20.00     0.100 C 
HETATM    7  N10 UNL     1     -34.590  17.121  -4.225  1.00 20.00    -0.350 N 
HETATM    8  O11 UNL     1     -32.920  16.000  -3.051  1.00 20.00    -0.273 OA
HETATM    9 CL12 UNL     1     -35.289  15.506  -7.866  1.00 20.00    -0.123 Cl
ENDROOT
BRANCH   1  10
HETATM   10  C8  UNL     1     -33.541  18.087  -2.205  1.00 20.00     0.078 A 
HETATM   11  C3  UNL     1     -33.668  17.763  -0.755  1.00 20.00     0.015 A 
HETATM   12  C4  UNL     1     -32.335  18.139  -1.330  1.00 20.00     0.015 A 
ENDBRANCH   1  10
TORSDOF 1
ENDMDL
MODEL 6
REMARK VINA RESULT:      -3.4     12.787     14.183
REMARK  1 active torsions:
REMARK  status: ('A' for Active; 'I' for Inactive)
REMARK    1  A    between atoms: C1_1  and  C8_8 
REMARK       I    between atoms: C1_1  and  N10_10 
ROOT
HETATM    1  C1  UNL     1     -41.204  13.064   6.951  1.00 20.00     0.224 C 
HETATM    2  C2  UNL     1     -40.723  16.589   7.524  1.00 20.00     0.021 C 
HETATM    3  C5  UNL     1     -41.537  16.853   8.790  1.00 20.00     0.023 C 
HETATM    4  C6  UNL     1     -40.099  15.197   7.545  1.00 20.00     0.126 C 
HETATM    5  C7  UNL     1     -41.903  14.363   9.023  1.00 20.00     0.145 C 
HETATM    6  C9  UNL     1     -42.563  15.743   9.017  1.00 20.00     0.100 C 
HETATM    7  N10 UNL     1     -41.104  14.166   7.807  1.00 20.00    -0.350 N 
HETATM    8  O11 UNL     1     -42.010  12.146   7.083  1.00 20.00    -0.273 OA
HETATM    9 CL12 UNL     1     -43.417  16.014  10.562  1.00 20.00    -0.123 Cl
ENDROOT
BRANCH   1  10
HETATM   10  C8  UNL     1     -40.258  13.002   5.797  1.00 20.00     0.078 A 
HETATM   11  C3  UNL     1     -38.961  12.288   5.977  1.00 20.00     0.015 A 
HETATM   12  C4  UNL     1     -40.040  11.688   5.127  1.00 20.00     0.015 A 
ENDBRANCH   1  10
TORSDOF 1
ENDMDL
MODEL 7
REMARK VINA RESULT:      -3.3     25.226     26.004
REMARK  1 active torsions:
REMARK  status: ('A' for Active; 'I' for Inactive)
REMARK    1  A    between atoms: C1_1  and  C8_8 
REMARK       I    between atoms: C1_1  and  N10_10 
ROOT
HETATM    1  C1  UNL     1     -25.057  -3.416  10.994  1.00 20.00     0.224 C 
HETATM    2  C2  UNL     1     -26.703  -0.275  11.634  1.00 20.00     0.021 C 
HETATM    3  C5  UNL     1     -28.168  -0.673  11.802  1.00 20.00     0.023 C 
HETATM    4  C6  UNL     1     -25.767  -1.356  12.167  1.00 20.00     0.126 C 
HETATM    5  C7  UNL     1     -27.471  -3.102  11.734  1.00 20.00     0.145 C 
HETATM    6  C9  UNL     1     -28.431  -2.046  11.184  1.00 20.00     0.100 C 
HETATM    7  N10 UNL     1     -26.078  -2.662  11.585  1.00 20.00    -0.350 N 
HETATM    8  O11 UNL     1     -25.211  -4.521  10.479  1.00 20.00    -0.273 OA
HETATM    9 CL12 UNL     1     -30.119  -2.540  11.497  1.00 20.00    -0.123 Cl
ENDROOT
BRANCH   1  10
HETATM   10  C8  UNL     1     -23.683  -2.831  10.994  1.00 20.00     0.078 A 
HETATM   11  C3  UNL     1     -22.518  -3.750  10.846  1.00 20.00     0.015 A 
HETATM   12  C4  UNL     1     -22.907  -2.840   9.721  1.00 20.00     0.015 A 
ENDBRANCH   1  10
TORSDOF 1
ENDMDL
MODEL 8
REMARK VINA RESULT:      -3.2      2.996      4.679
REMARK  1 active torsions:
REMARK  status: ('A' for Active; 'I' for Inactive)
REMARK    1  A    between atoms: C1_1  and  C8_8 
REMARK       I    between atoms: C1_1  and  N10_10 
ROOT
HETATM    1  C1  UNL     1     -36.890  16.605  -5.383  1.00 20.00     0.224 C 
HETATM    2  C2  UNL     1     -34.486  17.880  -3.021  1.00 20.00     0.021 C 
HETATM    3  C5  UNL     1     -33.278  16.965  -3.219  1.00 20.00     0.023 C 
HETATM    4  C6  UNL     1     -35.231  18.111  -4.332  1.00 20.00     0.126 C 
HETATM    5  C7  UNL     1     -34.443  15.933  -5.211  1.00 20.00     0.145 C 
HETATM    6  C9  UNL     1     -33.692  15.663  -3.906  1.00 20.00     0.100 C 
HETATM    7  N10 UNL     1     -35.571  16.843  -4.981  1.00 20.00    -0.350 N 
HETATM    8  O11 UNL     1     -37.279  15.578  -5.934  1.00 20.00    -0.273 OA
HETATM    9 CL12 UNL     1     -32.248  14.664  -4.233  1.00 20.00    -0.123 Cl
ENDROOT
BRANCH   1  10
HETATM   10  C8  UNL     1     -37.893  17.681  -5.122  1.00 20.00     0.078 A 
HETATM   11  C3  UNL     1     -39.317  17.430  -5.488  1.00 20.00     0.015 A 
HETATM   12  C4  UNL     1     -38.904  17.463  -4.047  1.00 20.00     0.015 A 
ENDBRANCH   1  10
TORSDOF 1
ENDMDL
MODEL 9
REMARK VINA RESULT:      -3.2     18.041     19.449
REMARK  1 active torsions:
REMARK  status: ('A' for Active; 'I' for Inactive)
REMARK    1  A    between atoms: C1_1  and  C8_8 
REMARK       I    between atoms: C1_1  and  N10_10 
ROOT
HETATM    1  C1  UNL     1     -42.847   0.614  -3.149  1.00 20.00     0.224 C 
HETATM    2  C2  UNL     1     -40.577  -1.954  -4.260  1.00 20.00     0.021 C 
HETATM    3  C5  UNL     1     -40.881  -3.121  -3.322  1.00 20.00     0.023 C 
HETATM    4  C6  UNL     1     -41.833  -1.143  -4.565  1.00 20.00     0.126 C 
HETATM    5  C7  UNL     1     -42.843  -1.818  -2.406  1.00 20.00     0.145 C 
HETATM    6  C9  UNL     1     -41.595  -2.633  -2.062  1.00 20.00     0.100 C 
HETATM    7  N10 UNL     1     -42.512  -0.731  -3.335  1.00 20.00    -0.350 N 
HETATM    8  O11 UNL     1     -43.416   1.063  -2.157  1.00 20.00    -0.273 OA
HETATM    9 CL12 UNL     1     -42.043  -4.027  -1.040  1.00 20.00    -0.123 Cl
ENDROOT
BRANCH   1  10
HETATM   10  C8  UNL     1     -42.486   1.570  -4.239  1.00 20.00     0.078 A 
HETATM   11  C3  UNL     1     -42.867   3.003  -4.082  1.00 20.00     0.015 A 
HETATM   12  C4  UNL     1     -41.431   2.588  -3.969  1.00 20.00     0.015 A 
ENDBRANCH   1  10
TORSDOF 1
ENDMDL
