MODEL 1
REMARK VINA RESULT:      -4.2      0.000      0.000
REMARK  5 active torsions:
REMARK  status: ('A' for Active; 'I' for Inactive)
REMARK    1  A    between atoms: C2_2  and  C8_8 
REMARK    2  A    between atoms: C5_5  and  C9_9 
REMARK    3  A    between atoms: C7_7  and  C8_8 
REMARK    4  A    between atoms: C7_7  and  C9_9 
REMARK    5  A    between atoms: C9_9  and  O10_10 
ROOT
HETATM    1  C9  UNL     1     -32.682   7.894   4.846  1.00 20.00     0.122 C 
ENDROOT
BRANCH   1   2
HETATM    2  C5  UNL     1     -34.065   7.595   5.408  1.00 20.00     0.014 A 
HETATM    3  C3  UNL     1     -34.602   6.190   5.387  1.00 20.00     0.007 A 
HETATM    4  C4  UNL     1     -34.209   6.824   6.692  1.00 20.00     0.007 A 
ENDBRANCH   1   2
BRANCH   1   5
HETATM    5  C7  UNL     1     -32.712   8.395   3.394  1.00 20.00     0.040 C 
BRANCH   5   6
HETATM    6  C8  UNL     1     -32.158   7.415   2.342  1.00 20.00     0.005 C 
HETATM    7  C6  UNL     1     -32.017   8.126   0.993  1.00 20.00     0.014 C 
BRANCH   6   8
HETATM    8  C2  UNL     1     -33.046   6.207   2.181  1.00 20.00    -0.033 C 
HETATM    9  C1  UNL     1     -32.732   4.984   2.625  1.00 20.00     0.007 C 
ENDBRANCH   6   8
ENDBRANCH   5   6
ENDBRANCH   1   5
BRANCH   1  10
HETATM   10  O10 UNL     1     -32.102   8.913   5.663  1.00 20.00    -0.395 OA
HETATM   11  H26 UNL     1     -32.254   9.751   5.203  1.00 20.00     0.210 HD
ENDBRANCH   1  10
TORSDOF 5
ENDMDL
MODEL 2
REMARK VINA RESULT:      -4.1      1.114      3.706
REMARK  5 active torsions:
REMARK  status: ('A' for Active; 'I' for Inactive)
REMARK    1  A    between atoms: C2_2  and  C8_8 
REMARK    2  A    between atoms: C5_5  and  C9_9 
REMARK    3  A    between atoms: C7_7  and  C8_8 
REMARK    4  A    between atoms: C7_7  and  C9_9 
REMARK    5  A    between atoms: C9_9  and  O10_10 
ROOT
HETATM    1  C9  UNL     1     -33.027   8.150   4.500  1.00 20.00     0.122 C 
ENDROOT
BRANCH   1   2
HETATM    2  C5  UNL     1     -32.002   7.691   3.472  1.00 20.00     0.014 A 
HETATM    3  C3  UNL     1     -32.412   6.774   2.352  1.00 20.00     0.007 A 
HETATM    4  C4  UNL     1     -32.064   8.207   2.060  1.00 20.00     0.007 A 
ENDBRANCH   1   2
BRANCH   1   5
HETATM    5  C7  UNL     1     -33.249   7.135   5.631  1.00 20.00     0.040 C 
BRANCH   5   6
HETATM    6  C8  UNL     1     -34.603   6.400   5.606  1.00 20.00     0.005 C 
HETATM    7  C6  UNL     1     -34.746   5.532   6.860  1.00 20.00     0.014 C 
BRANCH   6   8
HETATM    8  C2  UNL     1     -34.747   5.533   4.380  1.00 20.00    -0.033 C 
HETATM    9  C1  UNL     1     -34.091   4.382   4.198  1.00 20.00     0.007 C 
ENDBRANCH   6   8
ENDBRANCH   5   6
ENDBRANCH   1   5
BRANCH   1  10
HETATM   10  O10 UNL     1     -32.540   9.365   5.073  1.00 20.00    -0.395 OA
HETATM   11  H26 UNL     1     -31.823   9.115   5.674  1.00 20.00     0.210 HD
ENDBRANCH   1  10
TORSDOF 5
ENDMDL
MODEL 3
REMARK VINA RESULT:      -4.0      1.313      2.242
REMARK  5 active torsions:
REMARK  status: ('A' for Active; 'I' for Inactive)
REMARK    1  A    between atoms: C2_2  and  C8_8 
REMARK    2  A    between atoms: C5_5  and  C9_9 
REMARK    3  A    between atoms: C7_7  and  C8_8 
REMARK    4  A    between atoms: C7_7  and  C9_9 
REMARK    5  A    between atoms: C9_9  and  O10_10 
ROOT
HETATM    1  C9  UNL     1     -33.160   7.134   5.229  1.00 20.00     0.122 C 
ENDROOT
BRANCH   1   2
HETATM    2  C5  UNL     1     -34.520   6.452   5.174  1.00 20.00     0.014 A 
HETATM    3  C3  UNL     1     -34.637   5.036   4.683  1.00 20.00     0.007 A 
HETATM    4  C4  UNL     1     -34.852   5.347   6.137  1.00 20.00     0.007 A 
ENDBRANCH   1   2
BRANCH   1   5
HETATM    5  C7  UNL     1     -33.066   8.375   4.329  1.00 20.00     0.040 C 
BRANCH   5   6
HETATM    6  C8  UNL     1     -33.012   8.093   2.815  1.00 20.00     0.005 C 
HETATM    7  C6  UNL     1     -32.009   6.971   2.530  1.00 20.00     0.014 C 
BRANCH   6   8
HETATM    8  C2  UNL     1     -32.625   9.322   2.030  1.00 20.00    -0.033 C 
HETATM    9  C1  UNL     1     -32.783   9.445   0.708  1.00 20.00     0.007 C 
ENDBRANCH   6   8
ENDBRANCH   5   6
ENDBRANCH   1   5
BRANCH   1  10
HETATM   10  O10 UNL     1     -32.942   7.540   6.582  1.00 20.00    -0.395 OA
HETATM   11  H26 UNL     1     -33.815   7.750   6.947  1.00 20.00     0.210 HD
ENDBRANCH   1  10
TORSDOF 5
ENDMDL
MODEL 4
REMARK VINA RESULT:      -4.0      2.045      2.899
REMARK  5 active torsions:
REMARK  status: ('A' for Active; 'I' for Inactive)
REMARK    1  A    between atoms: C2_2  and  C8_8 
REMARK    2  A    between atoms: C5_5  and  C9_9 
REMARK    3  A    between atoms: C7_7  and  C8_8 
REMARK    4  A    between atoms: C7_7  and  C9_9 
REMARK    5  A    between atoms: C9_9  and  O10_10 
ROOT
HETATM    1  C9  UNL     1     -33.995   5.488   4.114  1.00 20.00     0.122 C 
ENDROOT
BRANCH   1   2
HETATM    2  C5  UNL     1     -33.715   5.762   5.585  1.00 20.00     0.014 A 
HETATM    3  C3  UNL     1     -34.478   6.832   6.315  1.00 20.00     0.007 A 
HETATM    4  C4  UNL     1     -34.727   5.384   6.631  1.00 20.00     0.007 A 
ENDBRANCH   1   2
BRANCH   1   5
HETATM    5  C7  UNL     1     -32.873   5.971   3.182  1.00 20.00     0.040 C 
BRANCH   5   6
HETATM    6  C8  UNL     1     -32.757   7.500   3.021  1.00 20.00     0.005 C 
HETATM    7  C6  UNL     1     -32.194   7.835   1.636  1.00 20.00     0.014 C 
BRANCH   6   8
HETATM    8  C2  UNL     1     -31.874   8.109   4.080  1.00 20.00    -0.033 C 
HETATM    9  C1  UNL     1     -32.231   9.146   4.846  1.00 20.00     0.007 C 
ENDBRANCH   6   8
ENDBRANCH   5   6
ENDBRANCH   1   5
BRANCH   1  10
HETATM   10  O10 UNL     1     -34.130   4.074   3.962  1.00 20.00    -0.395 OA
HETATM   11  H26 UNL     1     -34.868   3.809   4.532  1.00 20.00     0.210 HD
ENDBRANCH   1  10
TORSDOF 5
ENDMDL
MODEL 5
REMARK VINA RESULT:      -4.0     11.320     12.426
REMARK  5 active torsions:
REMARK  status: ('A' for Active; 'I' for Inactive)
REMARK    1  A    between atoms: C2_2  and  C8_8 
REMARK    2  A    between atoms: C5_5  and  C9_9 
REMARK    3  A    between atoms: C7_7  and  C8_8 
REMARK    4  A    between atoms: C7_7  and  C9_9 
REMARK    5  A    between atoms: C9_9  and  O10_10 
ROOT
HETATM    1  C9  UNL     1     -34.029  17.268  -3.527  1.00 20.00     0.122 C 
ENDROOT
BRANCH   1   2
HETATM    2  C5  UNL     1     -33.516  15.862  -3.248  1.00 20.00     0.014 A 
HETATM    3  C3  UNL     1     -34.136  14.680  -3.940  1.00 20.00     0.007 A 
HETATM    4  C4  UNL     1     -32.744  15.116  -4.301  1.00 20.00     0.007 A 
ENDBRANCH   1   2
BRANCH   1   5
HETATM    5  C7  UNL     1     -34.195  18.117  -2.258  1.00 20.00     0.040 C 
BRANCH   5   6
HETATM    6  C8  UNL     1     -33.283  17.731  -1.078  1.00 20.00     0.005 C 
HETATM    7  C6  UNL     1     -34.002  18.006   0.247  1.00 20.00     0.014 C 
BRANCH   6   8
HETATM    8  C2  UNL     1     -31.980  18.490  -1.106  1.00 20.00    -0.033 C 
HETATM    9  C1  UNL     1     -31.127  18.550  -0.077  1.00 20.00     0.007 C 
ENDBRANCH   6   8
ENDBRANCH   5   6
ENDBRANCH   1   5
BRANCH   1  10
HETATM   10  O10 UNL     1     -33.075  17.908  -4.378  1.00 20.00    -0.395 OA
HETATM   11  H26 UNL     1     -32.610  18.555  -3.826  1.00 20.00     0.210 HD
ENDBRANCH   1  10
TORSDOF 5
ENDMDL
MODEL 6
REMARK VINA RESULT:      -4.0      1.215      1.616
REMARK  5 active torsions:
REMARK  status: ('A' for Active; 'I' for Inactive)
REMARK    1  A    between atoms: C2_2  and  C8_8 
REMARK    2  A    between atoms: C5_5  and  C9_9 
REMARK    3  A    between atoms: C7_7  and  C8_8 
REMARK    4  A    between atoms: C7_7  and  C9_9 
REMARK    5  A    between atoms: C9_9  and  O10_10 
ROOT
HETATM    1  C9  UNL     1     -33.335   7.138   5.405  1.00 20.00     0.122 C 
ENDROOT
BRANCH   1   2
HETATM    2  C5  UNL     1     -34.638   6.352   5.457  1.00 20.00     0.014 A 
HETATM    3  C3  UNL     1     -34.716   4.976   4.855  1.00 20.00     0.007 A 
HETATM    4  C4  UNL     1     -34.759   5.147   6.347  1.00 20.00     0.007 A 
ENDBRANCH   1   2
BRANCH   1   5
HETATM    5  C7  UNL     1     -33.437   8.431   4.581  1.00 20.00     0.040 C 
BRANCH   5   6
HETATM    6  C8  UNL     1     -32.394   8.585   3.457  1.00 20.00     0.005 C 
HETATM    7  C6  UNL     1     -33.001   9.368   2.289  1.00 20.00     0.014 C 
BRANCH   6   8
HETATM    8  C2  UNL     1     -31.904   7.247   2.962  1.00 20.00    -0.033 C 
HETATM    9  C1  UNL     1     -32.654   6.390   2.260  1.00 20.00     0.007 C 
ENDBRANCH   6   8
ENDBRANCH   5   6
ENDBRANCH   1   5
BRANCH   1  10
HETATM   10  O10 UNL     1     -32.993   7.485   6.749  1.00 20.00    -0.395 OA
HETATM   11  H26 UNL     1     -33.768   7.933   7.119  1.00 20.00     0.210 HD
ENDBRANCH   1  10
TORSDOF 5
ENDMDL
MODEL 7
REMARK VINA RESULT:      -4.0     11.544     12.609
REMARK  5 active torsions:
REMARK  status: ('A' for Active; 'I' for Inactive)
REMARK    1  A    between atoms: C2_2  and  C8_8 
REMARK    2  A    between atoms: C5_5  and  C9_9 
REMARK    3  A    between atoms: C7_7  and  C8_8 
REMARK    4  A    between atoms: C7_7  and  C9_9 
REMARK    5  A    between atoms: C9_9  and  O10_10 
ROOT
HETATM    1  C9  UNL     1     -33.574  15.172  -4.862  1.00 20.00     0.122 C 
ENDROOT
BRANCH   1   2
HETATM    2  C5  UNL     1     -35.064  15.417  -5.053  1.00 20.00     0.014 A 
HETATM    3  C3  UNL     1     -35.578  15.991  -6.344  1.00 20.00     0.007 A 
HETATM    4  C4  UNL     1     -35.858  14.556  -5.996  1.00 20.00     0.007 A 
ENDBRANCH   1   2
BRANCH   1   5
HETATM    5  C7  UNL     1     -33.007  15.832  -3.596  1.00 20.00     0.040 C 
BRANCH   5   6
HETATM    6  C8  UNL     1     -33.777  17.068  -3.091  1.00 20.00     0.005 C 
HETATM    7  C6  UNL     1     -33.287  18.321  -3.826  1.00 20.00     0.014 C 
BRANCH   6   8
HETATM    8  C2  UNL     1     -33.610  17.263  -1.605  1.00 20.00    -0.033 C 
HETATM    9  C1  UNL     1     -32.648  18.011  -1.053  1.00 20.00     0.007 C 
ENDBRANCH   6   8
ENDBRANCH   5   6
ENDBRANCH   1   5
BRANCH   1  10
HETATM   10  O10 UNL     1     -33.384  13.760  -4.759  1.00 20.00    -0.395 OA
HETATM   11  H26 UNL     1     -33.683  13.509  -3.872  1.00 20.00     0.210 HD
ENDBRANCH   1  10
TORSDOF 5
ENDMDL
MODEL 8
REMARK VINA RESULT:      -3.9      9.358     10.864
REMARK  5 active torsions:
REMARK  status: ('A' for Active; 'I' for Inactive)
REMARK    1  A    between atoms: C2_2  and  C8_8 
REMARK    2  A    between atoms: C5_5  and  C9_9 
REMARK    3  A    between atoms: C7_7  and  C8_8 
REMARK    4  A    between atoms: C7_7  and  C9_9 
REMARK    5  A    between atoms: C9_9  and  O10_10 
ROOT
HETATM    1  C9  UNL     1     -40.333  13.006   6.410  1.00 20.00     0.122 C 
ENDROOT
BRANCH   1   2
HETATM    2  C5  UNL     1     -39.604  11.803   5.827  1.00 20.00     0.014 A 
HETATM    3  C3  UNL     1     -39.281  11.752   4.359  1.00 20.00     0.007 A 
HETATM    4  C4  UNL     1     -38.179  11.934   5.364  1.00 20.00     0.007 A 
ENDBRANCH   1   2
BRANCH   1   5
HETATM    5  C7  UNL     1     -41.840  12.772   6.594  1.00 20.00     0.040 C 
BRANCH   5   6
HETATM    6  C8  UNL     1     -42.758  13.838   5.964  1.00 20.00     0.005 C 
HETATM    7  C6  UNL     1     -42.174  14.301   4.626  1.00 20.00     0.014 C 
BRANCH   6   8
HETATM    8  C2  UNL     1     -42.936  15.029   6.871  1.00 20.00    -0.033 C 
HETATM    9  C1  UNL     1     -42.298  16.194   6.708  1.00 20.00     0.007 C 
ENDBRANCH   6   8
ENDBRANCH   5   6
ENDBRANCH   1   5
BRANCH   1  10
HETATM   10  O10 UNL     1     -39.758  13.273   7.691  1.00 20.00    -0.395 OA
HETATM   11  H26 UNL     1     -38.846  12.948   7.652  1.00 20.00     0.210 HD
ENDBRANCH   1  10
TORSDOF 5
ENDMDL
MODEL 9
REMARK VINA RESULT:      -3.7     11.417     12.774
REMARK  5 active torsions:
REMARK  status: ('A' for Active; 'I' for Inactive)
REMARK    1  A    between atoms: C2_2  and  C8_8 
REMARK    2  A    between atoms: C5_5  and  C9_9 
REMARK    3  A    between atoms: C7_7  and  C8_8 
REMARK    4  A    between atoms: C7_7  and  C9_9 
REMARK    5  A    between atoms: C9_9  and  O10_10 
ROOT
HETATM    1  C9  UNL     1     -33.877  14.877  -4.704  1.00 20.00     0.122 C 
ENDROOT
BRANCH   1   2
HETATM    2  C5  UNL     1     -33.171  16.025  -3.997  1.00 20.00     0.014 A 
HETATM    3  C3  UNL     1     -33.916  17.293  -3.683  1.00 20.00     0.007 A 
HETATM    4  C4  UNL     1     -33.514  16.364  -2.573  1.00 20.00     0.007 A 
ENDBRANCH   1   2
BRANCH   1   5
HETATM    5  C7  UNL     1     -33.987  15.074  -6.223  1.00 20.00     0.040 C 
BRANCH   5   6
HETATM    6  C8  UNL     1     -35.396  15.414  -6.747  1.00 20.00     0.005 C 
HETATM    7  C6  UNL     1     -35.407  16.835  -7.322  1.00 20.00     0.014 C 
BRANCH   6   8
HETATM    8  C2  UNL     1     -36.438  15.306  -5.663  1.00 20.00    -0.033 C 
HETATM    9  C1  UNL     1     -37.320  16.270  -5.374  1.00 20.00     0.007 C 
ENDBRANCH   6   8
ENDBRANCH   5   6
ENDBRANCH   1   5
BRANCH   1  10
HETATM   10  O10 UNL     1     -33.117  13.692  -4.455  1.00 20.00    -0.395 OA
HETATM   11  H26 UNL     1     -32.842  13.359  -5.322  1.00 20.00     0.210 HD
ENDBRANCH   1  10
TORSDOF 5
ENDMDL
