MODEL 1
REMARK VINA RESULT:      -4.0      0.000      0.000
REMARK  3 active torsions:
REMARK  status: ('A' for Active; 'I' for Inactive)
REMARK    1  A    between atoms: C6_6  and  C7_7 
REMARK    2  A    between atoms: C7_7  and  C8_8 
REMARK    3  A    between atoms: C8_8  and  N9_9 
ROOT
HETATM    1  C1  UNL     1     -32.544   9.602   3.153  1.00 20.00     0.052 C 
HETATM    2  C2  UNL     1     -32.273   9.123   4.578  1.00 20.00     0.274 C 
HETATM    3  C3  UNL     1     -32.300   7.209   3.256  1.00 20.00     0.292 C 
HETATM    4  C4  UNL     1     -32.773   8.331   2.345  1.00 20.00     0.112 C 
HETATM    5  N9  UNL     1     -32.587   7.687   4.618  1.00 20.00     0.089 N 
HETATM    6 CL10 UNL     1     -31.907   8.342   0.798  1.00 20.00    -0.123 Cl
ENDROOT
BRANCH   5   7
HETATM    7  C8  UNL     1     -33.982   7.456   4.995  1.00 20.00     0.272 C 
BRANCH   7   8
HETATM    8  C7  UNL     1     -34.114   6.830   6.379  1.00 20.00     0.030 C 
BRANCH   8   9
HETATM    9  C6  UNL     1     -34.486   5.347   6.319  1.00 20.00    -0.003 C 
HETATM   10  C5  UNL     1     -34.748   4.896   4.890  1.00 20.00     0.005 C 
ENDBRANCH   8   9
ENDBRANCH   7   8
ENDBRANCH   5   7
TORSDOF 3
ENDMDL
MODEL 2
REMARK VINA RESULT:      -3.7     11.597     12.178
REMARK  3 active torsions:
REMARK  status: ('A' for Active; 'I' for Inactive)
REMARK    1  A    between atoms: C6_6  and  C7_7 
REMARK    2  A    between atoms: C7_7  and  C8_8 
REMARK    3  A    between atoms: C8_8  and  N9_9 
ROOT
HETATM    1  C1  UNL     1     -30.873  18.633   0.494  1.00 20.00     0.052 C 
HETATM    2  C2  UNL     1     -31.820  19.263  -0.527  1.00 20.00     0.274 C 
HETATM    3  C3  UNL     1     -32.982  19.232   1.488  1.00 20.00     0.292 C 
HETATM    4  C4  UNL     1     -31.720  18.423   1.743  1.00 20.00     0.112 C 
HETATM    5  N9  UNL     1     -33.177  19.173   0.031  1.00 20.00     0.089 N 
HETATM    6 CL10 UNL     1     -30.888  18.934   3.223  1.00 20.00    -0.123 Cl
ENDROOT
BRANCH   5   7
HETATM    7  C8  UNL     1     -33.842  17.936  -0.380  1.00 20.00     0.272 C 
BRANCH   7   8
HETATM    8  C7  UNL     1     -33.963  17.817  -1.896  1.00 20.00     0.030 C 
BRANCH   8   9
HETATM    9  C6  UNL     1     -33.366  16.514  -2.432  1.00 20.00    -0.003 C 
HETATM   10  C5  UNL     1     -33.732  16.294  -3.892  1.00 20.00     0.005 C 
ENDBRANCH   8   9
ENDBRANCH   7   8
ENDBRANCH   5   7
TORSDOF 3
ENDMDL
MODEL 3
REMARK VINA RESULT:      -3.6     10.323     10.908
REMARK  3 active torsions:
REMARK  status: ('A' for Active; 'I' for Inactive)
REMARK    1  A    between atoms: C6_6  and  C7_7 
REMARK    2  A    between atoms: C7_7  and  C8_8 
REMARK    3  A    between atoms: C8_8  and  N9_9 
ROOT
HETATM    1  C1  UNL     1     -40.702  16.201   7.521  1.00 20.00     0.052 C 
HETATM    2  C2  UNL     1     -41.856  15.770   6.616  1.00 20.00     0.274 C 
HETATM    3  C3  UNL     1     -41.473  13.984   8.057  1.00 20.00     0.292 C 
HETATM    4  C4  UNL     1     -40.325  14.950   8.304  1.00 20.00     0.112 C 
HETATM    5  N9  UNL     1     -41.948  14.305   6.702  1.00 20.00     0.089 N 
HETATM    6 CL10 UNL     1     -40.087  15.274  10.032  1.00 20.00    -0.123 Cl
ENDROOT
BRANCH   5   7
HETATM    7  C8  UNL     1     -41.133  13.659   5.672  1.00 20.00     0.272 C 
BRANCH   7   8
HETATM    8  C7  UNL     1     -40.713  12.246   6.063  1.00 20.00     0.030 C 
BRANCH   8   9
HETATM    9  C6  UNL     1     -39.252  11.951   5.718  1.00 20.00    -0.003 C 
HETATM   10  C5  UNL     1     -39.074  11.685   4.231  1.00 20.00     0.005 C 
ENDBRANCH   8   9
ENDBRANCH   7   8
ENDBRANCH   5   7
TORSDOF 3
ENDMDL
MODEL 4
REMARK VINA RESULT:      -3.5     11.580     12.314
REMARK  3 active torsions:
REMARK  status: ('A' for Active; 'I' for Inactive)
REMARK    1  A    between atoms: C6_6  and  C7_7 
REMARK    2  A    between atoms: C7_7  and  C8_8 
REMARK    3  A    between atoms: C8_8  and  N9_9 
ROOT
HETATM    1  C1  UNL     1     -34.603  17.405  -4.738  1.00 20.00     0.052 C 
HETATM    2  C2  UNL     1     -33.509  18.082  -3.913  1.00 20.00     0.274 C 
HETATM    3  C3  UNL     1     -33.077  15.799  -3.794  1.00 20.00     0.292 C 
HETATM    4  C4  UNL     1     -34.433  15.915  -4.472  1.00 20.00     0.112 C 
HETATM    5  N9  UNL     1     -32.928  17.052  -3.038  1.00 20.00     0.089 N 
HETATM    6 CL10 UNL     1     -34.523  14.944  -5.953  1.00 20.00    -0.123 Cl
ENDROOT
BRANCH   5   7
HETATM    7  C8  UNL     1     -33.619  16.997  -1.749  1.00 20.00     0.272 C 
BRANCH   7   8
HETATM    8  C7  UNL     1     -33.259  18.171  -0.845  1.00 20.00     0.030 C 
BRANCH   8   9
HETATM    9  C6  UNL     1     -31.750  18.414  -0.771  1.00 20.00    -0.003 C 
HETATM   10  C5  UNL     1     -31.271  18.505   0.670  1.00 20.00     0.005 C 
ENDBRANCH   8   9
ENDBRANCH   7   8
ENDBRANCH   5   7
TORSDOF 3
ENDMDL
MODEL 5
REMARK VINA RESULT:      -3.5     11.721     12.564
REMARK  3 active torsions:
REMARK  status: ('A' for Active; 'I' for Inactive)
REMARK    1  A    between atoms: C6_6  and  C7_7 
REMARK    2  A    between atoms: C7_7  and  C8_8 
REMARK    3  A    between atoms: C8_8  and  N9_9 
ROOT
HETATM    1  C1  UNL     1     -33.325  16.591  -3.028  1.00 20.00     0.052 C 
HETATM    2  C2  UNL     1     -33.552  17.055  -1.590  1.00 20.00     0.274 C 
HETATM    3  C3  UNL     1     -34.193  18.834  -2.944  1.00 20.00     0.292 C 
HETATM    4  C4  UNL     1     -33.541  17.832  -3.883  1.00 20.00     0.112 C 
HETATM    5  N9  UNL     1     -33.636  18.523  -1.618  1.00 20.00     0.089 N 
HETATM    6 CL10 UNL     1     -34.541  17.509  -5.312  1.00 20.00    -0.123 Cl
ENDROOT
BRANCH   5   7
HETATM    7  C8  UNL     1     -32.322  19.136  -1.421  1.00 20.00     0.272 C 
BRANCH   7   8
HETATM    8  C7  UNL     1     -31.463  18.362  -0.426  1.00 20.00     0.030 C 
BRANCH   8   9
HETATM    9  C6  UNL     1     -31.729  18.773   1.024  1.00 20.00    -0.003 C 
HETATM   10  C5  UNL     1     -30.506  18.545   1.899  1.00 20.00     0.005 C 
ENDBRANCH   8   9
ENDBRANCH   7   8
ENDBRANCH   5   7
TORSDOF 3
ENDMDL
MODEL 6
REMARK VINA RESULT:      -3.4     15.128     16.393
REMARK  3 active torsions:
REMARK  status: ('A' for Active; 'I' for Inactive)
REMARK    1  A    between atoms: C6_6  and  C7_7 
REMARK    2  A    between atoms: C7_7  and  C8_8 
REMARK    3  A    between atoms: C8_8  and  N9_9 
ROOT
HETATM    1  C1  UNL     1     -24.934  17.413  10.893  1.00 20.00     0.052 C 
HETATM    2  C2  UNL     1     -23.563  16.849  11.262  1.00 20.00     0.274 C 
HETATM    3  C3  UNL     1     -23.715  18.910  12.332  1.00 20.00     0.292 C 
HETATM    4  C4  UNL     1     -24.929  18.843  11.419  1.00 20.00     0.112 C 
HETATM    5  N9  UNL     1     -22.746  17.976  11.736  1.00 20.00     0.089 N 
HETATM    6 CL10 UNL     1     -26.427  19.262  12.270  1.00 20.00    -0.123 Cl
ENDROOT
BRANCH   5   7
HETATM    7  C8  UNL     1     -22.000  18.593  10.638  1.00 20.00     0.272 C 
BRANCH   7   8
HETATM    8  C7  UNL     1     -21.880  17.672   9.428  1.00 20.00     0.030 C 
BRANCH   8   9
HETATM    9  C6  UNL     1     -21.977  18.429   8.102  1.00 20.00    -0.003 C 
HETATM   10  C5  UNL     1     -23.348  19.064   7.924  1.00 20.00     0.005 C 
ENDBRANCH   8   9
ENDBRANCH   7   8
ENDBRANCH   5   7
TORSDOF 3
ENDMDL
MODEL 7
REMARK VINA RESULT:      -3.4     11.520     12.337
REMARK  3 active torsions:
REMARK  status: ('A' for Active; 'I' for Inactive)
REMARK    1  A    between atoms: C6_6  and  C7_7 
REMARK    2  A    between atoms: C7_7  and  C8_8 
REMARK    3  A    between atoms: C8_8  and  N9_9 
ROOT
HETATM    1  C1  UNL     1     -32.635  19.013  -2.621  1.00 20.00     0.052 C 
HETATM    2  C2  UNL     1     -33.702  18.363  -3.501  1.00 20.00     0.274 C 
HETATM    3  C3  UNL     1     -33.670  17.136  -1.525  1.00 20.00     0.292 C 
HETATM    4  C4  UNL     1     -32.477  18.074  -1.432  1.00 20.00     0.112 C 
HETATM    5  N9  UNL     1     -33.940  17.015  -2.966  1.00 20.00     0.089 N 
HETATM    6 CL10 UNL     1     -32.426  18.938   0.116  1.00 20.00    -0.123 Cl
ENDROOT
BRANCH   5   7
HETATM    7  C8  UNL     1     -33.067  16.028  -3.603  1.00 20.00     0.272 C 
BRANCH   7   8
HETATM    8  C7  UNL     1     -33.838  14.818  -4.121  1.00 20.00     0.030 C 
BRANCH   8   9
HETATM    9  C6  UNL     1     -34.565  15.104  -5.436  1.00 20.00    -0.003 C 
HETATM   10  C5  UNL     1     -35.930  14.434  -5.474  1.00 20.00     0.005 C 
ENDBRANCH   8   9
ENDBRANCH   7   8
ENDBRANCH   5   7
TORSDOF 3
ENDMDL
MODEL 8
REMARK VINA RESULT:      -3.3      2.565      4.569
REMARK  3 active torsions:
REMARK  status: ('A' for Active; 'I' for Inactive)
REMARK    1  A    between atoms: C6_6  and  C7_7 
REMARK    2  A    between atoms: C7_7  and  C8_8 
REMARK    3  A    between atoms: C8_8  and  N9_9 
ROOT
HETATM    1  C1  UNL     1     -33.509   7.377   6.445  1.00 20.00     0.052 C 
HETATM    2  C2  UNL     1     -33.518   8.533   5.445  1.00 20.00     0.274 C 
HETATM    3  C3  UNL     1     -34.287   6.674   4.278  1.00 20.00     0.292 C 
HETATM    4  C4  UNL     1     -33.805   6.135   5.616  1.00 20.00     0.112 C 
HETATM    5  N9  UNL     1     -33.560   7.940   4.101  1.00 20.00     0.089 N 
HETATM    6 CL10 UNL     1     -35.005   5.076   6.379  1.00 20.00    -0.123 Cl
ENDROOT
BRANCH   5   7
HETATM    7  C8  UNL     1     -32.212   7.726   3.571  1.00 20.00     0.272 C 
BRANCH   7   8
HETATM    8  C7  UNL     1     -32.158   7.850   2.052  1.00 20.00     0.030 C 
BRANCH   8   9
HETATM    9  C6  UNL     1     -32.669   9.204   1.555  1.00 20.00    -0.003 C 
HETATM   10  C5  UNL     1     -32.917   9.188   0.054  1.00 20.00     0.005 C 
ENDBRANCH   8   9
ENDBRANCH   7   8
ENDBRANCH   5   7
TORSDOF 3
ENDMDL
MODEL 9
REMARK VINA RESULT:      -3.2     10.547     11.164
REMARK  3 active torsions:
REMARK  status: ('A' for Active; 'I' for Inactive)
REMARK    1  A    between atoms: C6_6  and  C7_7 
REMARK    2  A    between atoms: C7_7  and  C8_8 
REMARK    3  A    between atoms: C8_8  and  N9_9 
ROOT
HETATM    1  C1  UNL     1     -42.610  15.647   8.004  1.00 20.00     0.052 C 
HETATM    2  C2  UNL     1     -42.205  14.192   8.240  1.00 20.00     0.274 C 
HETATM    3  C3  UNL     1     -40.254  15.308   7.642  1.00 20.00     0.292 C 
HETATM    4  C4  UNL     1     -41.374  16.309   7.408  1.00 20.00     0.112 C 
HETATM    5  N9  UNL     1     -40.908  13.992   7.578  1.00 20.00     0.089 N 
HETATM    6 CL10 UNL     1     -41.025  17.885   8.143  1.00 20.00    -0.123 Cl
ENDROOT
BRANCH   5   7
HETATM    7  C8  UNL     1     -41.079  13.535   6.198  1.00 20.00     0.272 C 
BRANCH   7   8
HETATM    8  C7  UNL     1     -40.538  12.126   5.981  1.00 20.00     0.030 C 
BRANCH   8   9
HETATM    9  C6  UNL     1     -39.084  12.122   5.504  1.00 20.00    -0.003 C 
HETATM   10  C5  UNL     1     -38.973  11.645   4.064  1.00 20.00     0.005 C 
ENDBRANCH   8   9
ENDBRANCH   7   8
ENDBRANCH   5   7
TORSDOF 3
ENDMDL
