MODEL 1
REMARK VINA RESULT:      -4.5      0.000      0.000
REMARK  2 active torsions:
REMARK  status: ('A' for Active; 'I' for Inactive)
REMARK    1  A    between atoms: C3_3  and  C6_6 
REMARK    2  A    between atoms: C5_5  and  C6_6 
ROOT
HETATM    1  C6  UNL     1     -33.415   6.116   4.208  1.00 20.00     0.086 C 
HETATM    2 CL7  UNL     1     -33.016   5.391   2.621  1.00 20.00    -0.125 Cl
ENDROOT
BRANCH   1   3
HETATM    3  C3  UNL     1     -33.408   7.610   4.059  1.00 20.00     0.004 A 
HETATM    4  C1  UNL     1     -33.417   8.493   5.276  1.00 20.00     0.006 A 
HETATM    5  C2  UNL     1     -32.183   8.402   4.424  1.00 20.00     0.006 A 
ENDBRANCH   1   3
BRANCH   1   6
HETATM    6  C5  UNL     1     -34.767   5.609   4.721  1.00 20.00     0.016 C 
HETATM    7  C4  UNL     1     -34.773   5.303   6.213  1.00 20.00     0.006 C 
ENDBRANCH   1   6
TORSDOF 2
ENDMDL
MODEL 2
REMARK VINA RESULT:      -4.3      1.962      3.111
REMARK  2 active torsions:
REMARK  status: ('A' for Active; 'I' for Inactive)
REMARK    1  A    between atoms: C3_3  and  C6_6 
REMARK    2  A    between atoms: C5_5  and  C6_6 
ROOT
HETATM    1  C6  UNL     1     -32.846   7.084   4.428  1.00 20.00     0.086 C 
HETATM    2 CL7  UNL     1     -32.344   8.775   4.734  1.00 20.00    -0.125 Cl
ENDROOT
BRANCH   1   3
HETATM    3  C3  UNL     1     -34.225   6.891   4.990  1.00 20.00     0.004 A 
HETATM    4  C1  UNL     1     -34.710   5.516   5.355  1.00 20.00     0.006 A 
HETATM    5  C2  UNL     1     -34.409   6.517   6.435  1.00 20.00     0.006 A 
ENDBRANCH   1   3
BRANCH   1   6
HETATM    6  C5  UNL     1     -32.798   6.756   2.931  1.00 20.00     0.016 C 
HETATM    7  C4  UNL     1     -32.839   5.264   2.635  1.00 20.00     0.006 C 
ENDBRANCH   1   6
TORSDOF 2
ENDMDL
MODEL 3
REMARK VINA RESULT:      -4.3      2.007      2.203
REMARK  2 active torsions:
REMARK  status: ('A' for Active; 'I' for Inactive)
REMARK    1  A    between atoms: C3_3  and  C6_6 
REMARK    2  A    between atoms: C5_5  and  C6_6 
ROOT
HETATM    1  C6  UNL     1     -34.106   7.261   4.912  1.00 20.00     0.086 C 
HETATM    2 CL7  UNL     1     -34.216   7.161   6.695  1.00 20.00    -0.125 Cl
ENDROOT
BRANCH   1   3
HETATM    3  C3  UNL     1     -32.736   7.757   4.550  1.00 20.00     0.004 A 
HETATM    4  C1  UNL     1     -32.155   7.461   3.195  1.00 20.00     0.006 A 
HETATM    5  C2  UNL     1     -32.570   8.863   3.545  1.00 20.00     0.006 A 
ENDBRANCH   1   3
BRANCH   1   6
HETATM    6  C5  UNL     1     -34.401   5.904   4.264  1.00 20.00     0.016 C 
HETATM    7  C4  UNL     1     -34.525   4.766   5.268  1.00 20.00     0.006 C 
ENDBRANCH   1   6
TORSDOF 2
ENDMDL
MODEL 4
REMARK VINA RESULT:      -4.2      1.910      3.524
REMARK  2 active torsions:
REMARK  status: ('A' for Active; 'I' for Inactive)
REMARK    1  A    between atoms: C3_3  and  C6_6 
REMARK    2  A    between atoms: C5_5  and  C6_6 
ROOT
HETATM    1  C6  UNL     1     -33.040   7.026   4.657  1.00 20.00     0.086 C 
HETATM    2 CL7  UNL     1     -32.954   8.790   4.950  1.00 20.00    -0.125 Cl
ENDROOT
BRANCH   1   3
HETATM    3  C3  UNL     1     -34.413   6.550   5.035  1.00 20.00     0.004 A 
HETATM    4  C1  UNL     1     -34.786   5.103   4.874  1.00 20.00     0.006 A 
HETATM    5  C2  UNL     1     -34.608   5.684   6.249  1.00 20.00     0.006 A 
ENDBRANCH   1   3
BRANCH   1   6
HETATM    6  C5  UNL     1     -32.712   6.693   3.197  1.00 20.00     0.016 C 
HETATM    7  C4  UNL     1     -32.184   7.882   2.407  1.00 20.00     0.006 C 
ENDBRANCH   1   6
TORSDOF 2
ENDMDL
MODEL 5
REMARK VINA RESULT:      -4.2      1.972      2.345
REMARK  2 active torsions:
REMARK  status: ('A' for Active; 'I' for Inactive)
REMARK    1  A    between atoms: C3_3  and  C6_6 
REMARK    2  A    between atoms: C5_5  and  C6_6 
ROOT
HETATM    1  C6  UNL     1     -34.068   6.804   4.712  1.00 20.00     0.086 C 
HETATM    2 CL7  UNL     1     -34.244   6.642   6.485  1.00 20.00    -0.125 Cl
ENDROOT
BRANCH   1   3
HETATM    3  C3  UNL     1     -32.750   7.464   4.426  1.00 20.00     0.004 A 
HETATM    4  C1  UNL     1     -32.669   8.610   3.456  1.00 20.00     0.006 A 
HETATM    5  C2  UNL     1     -32.474   8.855   4.926  1.00 20.00     0.006 A 
ENDBRANCH   1   3
BRANCH   1   6
HETATM    6  C5  UNL     1     -34.176   5.442   4.019  1.00 20.00     0.016 C 
HETATM    7  C4  UNL     1     -33.130   5.228   2.934  1.00 20.00     0.006 C 
ENDBRANCH   1   6
TORSDOF 2
ENDMDL
MODEL 6
REMARK VINA RESULT:      -4.1      2.001      3.578
REMARK  2 active torsions:
REMARK  status: ('A' for Active; 'I' for Inactive)
REMARK    1  A    between atoms: C3_3  and  C6_6 
REMARK    2  A    between atoms: C5_5  and  C6_6 
ROOT
HETATM    1  C6  UNL     1     -33.662   6.736   5.294  1.00 20.00     0.086 C 
HETATM    2 CL7  UNL     1     -34.647   6.493   6.768  1.00 20.00    -0.125 Cl
ENDROOT
BRANCH   1   3
HETATM    3  C3  UNL     1     -34.239   5.890   4.195  1.00 20.00     0.004 A 
HETATM    4  C1  UNL     1     -33.342   5.291   3.148  1.00 20.00     0.006 A 
HETATM    5  C2  UNL     1     -33.995   4.407   4.173  1.00 20.00     0.006 A 
ENDBRANCH   1   3
BRANCH   1   6
HETATM    6  C5  UNL     1     -33.615   8.216   4.898  1.00 20.00     0.016 C 
HETATM    7  C4  UNL     1     -32.250   8.668   4.399  1.00 20.00     0.006 C 
ENDBRANCH   1   6
TORSDOF 2
ENDMDL
MODEL 7
REMARK VINA RESULT:      -4.1      0.905      3.167
REMARK  2 active torsions:
REMARK  status: ('A' for Active; 'I' for Inactive)
REMARK    1  A    between atoms: C3_3  and  C6_6 
REMARK    2  A    between atoms: C5_5  and  C6_6 
ROOT
HETATM    1  C6  UNL     1     -33.700   7.152   4.244  1.00 20.00     0.086 C 
HETATM    2 CL7  UNL     1     -32.385   6.956   3.046  1.00 20.00    -0.125 Cl
ENDROOT
BRANCH   1   3
HETATM    3  C3  UNL     1     -33.882   5.847   4.964  1.00 20.00     0.004 A 
HETATM    4  C1  UNL     1     -34.564   5.808   6.303  1.00 20.00     0.006 A 
HETATM    5  C2  UNL     1     -35.250   5.237   5.094  1.00 20.00     0.006 A 
ENDBRANCH   1   3
BRANCH   1   6
HETATM    6  C5  UNL     1     -33.393   8.293   5.219  1.00 20.00     0.016 C 
HETATM    7  C4  UNL     1     -32.142   9.082   4.855  1.00 20.00     0.006 C 
ENDBRANCH   1   6
TORSDOF 2
ENDMDL
MODEL 8
REMARK VINA RESULT:      -4.0      1.986      2.465
REMARK  2 active torsions:
REMARK  status: ('A' for Active; 'I' for Inactive)
REMARK    1  A    between atoms: C3_3  and  C6_6 
REMARK    2  A    between atoms: C5_5  and  C6_6 
ROOT
HETATM    1  C6  UNL     1     -34.144   7.010   4.401  1.00 20.00     0.086 C 
HETATM    2 CL7  UNL     1     -33.743   8.198   5.679  1.00 20.00    -0.125 Cl
ENDROOT
BRANCH   1   3
HETATM    3  C3  UNL     1     -32.860   6.476   3.834  1.00 20.00     0.004 A 
HETATM    4  C1  UNL     1     -32.881   5.574   2.631  1.00 20.00     0.006 A 
HETATM    5  C2  UNL     1     -32.351   6.976   2.510  1.00 20.00     0.006 A 
ENDBRANCH   1   3
BRANCH   1   6
HETATM    6  C5  UNL     1     -35.026   5.885   4.952  1.00 20.00     0.016 C 
HETATM    7  C4  UNL     1     -34.565   5.358   6.304  1.00 20.00     0.006 C 
ENDBRANCH   1   6
TORSDOF 2
ENDMDL
MODEL 9
REMARK VINA RESULT:      -3.5      1.367      2.782
REMARK  2 active torsions:
REMARK  status: ('A' for Active; 'I' for Inactive)
REMARK    1  A    between atoms: C3_3  and  C6_6 
REMARK    2  A    between atoms: C5_5  and  C6_6 
ROOT
HETATM    1  C6  UNL     1     -33.986   6.086   3.896  1.00 20.00     0.086 C 
HETATM    2 CL7  UNL     1     -33.877   4.319   4.162  1.00 20.00    -0.125 Cl
ENDROOT
BRANCH   1   3
HETATM    3  C3  UNL     1     -34.459   6.727   5.169  1.00 20.00     0.004 A 
HETATM    4  C1  UNL     1     -34.812   5.879   6.359  1.00 20.00     0.006 A 
HETATM    5  C2  UNL     1     -33.577   6.734   6.387  1.00 20.00     0.006 A 
ENDBRANCH   1   3
BRANCH   1   6
HETATM    6  C5  UNL     1     -32.639   6.660   3.445  1.00 20.00     0.016 C 
HETATM    7  C4  UNL     1     -32.588   8.182   3.471  1.00 20.00     0.006 C 
ENDBRANCH   1   6
TORSDOF 2
ENDMDL
