MODEL 1
REMARK VINA RESULT:      -4.2      0.000      0.000
REMARK  2 active torsions:
REMARK  status: ('A' for Active; 'I' for Inactive)
REMARK    1  A    between atoms: C6_6  and  C7_7 
REMARK    2  A    between atoms: C6_6  and  N8_8 
ROOT
HETATM    1  C1  UNL     1     -33.648   5.471   3.870  1.00 20.00     0.050 C 
HETATM    2  C2  UNL     1     -33.402   7.527   5.284  1.00 20.00     0.050 C 
HETATM    3  C3  UNL     1     -33.154   6.286   2.672  1.00 20.00     0.274 C 
HETATM    4  C4  UNL     1     -32.915   8.275   4.041  1.00 20.00     0.274 C 
HETATM    5  C5  UNL     1     -34.325   6.374   4.899  1.00 20.00     0.085 C 
HETATM    6  N8  UNL     1     -32.250   7.363   3.100  1.00 20.00     0.093 N 
HETATM    7 CL11 UNL     1     -34.776   5.433   6.346  1.00 20.00    -0.125 Cl
ENDROOT
BRANCH   6   8
HETATM    8  C6  UNL     1     -31.749   8.100   1.940  1.00 20.00     0.343 C 
BRANCH   8   9
HETATM    9  C7  UNL     1     -32.887   8.789   1.215  1.00 20.00     0.381 C 
HETATM   10  F9  UNL     1     -32.724   8.663  -0.126  1.00 20.00    -0.213 F 
HETATM   11  F10 UNL     1     -32.846  10.119   1.484  1.00 20.00    -0.213 F 
ENDBRANCH   8   9
ENDBRANCH   6   8
TORSDOF 2
ENDMDL
MODEL 2
REMARK VINA RESULT:      -4.1      3.770      4.698
REMARK  2 active torsions:
REMARK  status: ('A' for Active; 'I' for Inactive)
REMARK    1  A    between atoms: C6_6  and  C7_7 
REMARK    2  A    between atoms: C6_6  and  N8_8 
ROOT
HETATM    1  C1  UNL     1     -32.914   6.585   2.545  1.00 20.00     0.050 C 
HETATM    2  C2  UNL     1     -32.593   8.967   3.261  1.00 20.00     0.050 C 
HETATM    3  C3  UNL     1     -33.039   6.201   4.022  1.00 20.00     0.274 C 
HETATM    4  C4  UNL     1     -32.728   8.506   4.714  1.00 20.00     0.274 C 
HETATM    5  C5  UNL     1     -32.060   7.839   2.380  1.00 20.00     0.085 C 
HETATM    6  N8  UNL     1     -33.581   7.313   4.815  1.00 20.00     0.093 N 
HETATM    7 CL11 UNL     1     -32.034   8.350   0.671  1.00 20.00    -0.125 Cl
ENDROOT
BRANCH   6   8
HETATM    8  C6  UNL     1     -33.739   6.914   6.214  1.00 20.00     0.343 C 
BRANCH   8   9
HETATM    9  C7  UNL     1     -34.798   5.839   6.344  1.00 20.00     0.381 C 
HETATM   10  F9  UNL     1     -34.210   4.618   6.422  1.00 20.00    -0.213 F 
HETATM   11  F10 UNL     1     -35.560   5.827   5.221  1.00 20.00    -0.213 F 
ENDBRANCH   8   9
ENDBRANCH   6   8
TORSDOF 2
ENDMDL
MODEL 3
REMARK VINA RESULT:      -4.1     11.199     11.599
REMARK  2 active torsions:
REMARK  status: ('A' for Active; 'I' for Inactive)
REMARK    1  A    between atoms: C6_6  and  C7_7 
REMARK    2  A    between atoms: C6_6  and  N8_8 
ROOT
HETATM    1  C1  UNL     1     -33.155  19.089   1.673  1.00 20.00     0.050 C 
HETATM    2  C2  UNL     1     -30.818  18.320   1.189  1.00 20.00     0.050 C 
HETATM    3  C3  UNL     1     -33.376  19.232   0.164  1.00 20.00     0.274 C 
HETATM    4  C4  UNL     1     -31.114  18.488  -0.303  1.00 20.00     0.274 C 
HETATM    5  C5  UNL     1     -31.680  19.263   2.024  1.00 20.00     0.085 C 
HETATM    6  N8  UNL     1     -32.542  18.283  -0.587  1.00 20.00     0.093 N 
HETATM    7 CL11 UNL     1     -31.419  18.962   3.763  1.00 20.00    -0.125 Cl
ENDROOT
BRANCH   6   8
HETATM    8  C6  UNL     1     -32.801  18.400  -2.022  1.00 20.00     0.343 C 
BRANCH   8   9
HETATM    9  C7  UNL     1     -33.519  17.169  -2.535  1.00 20.00     0.381 C 
HETATM   10  F9  UNL     1     -33.778  16.323  -1.507  1.00 20.00    -0.213 F 
HETATM   11  F10 UNL     1     -32.701  16.500  -3.387  1.00 20.00    -0.213 F 
ENDBRANCH   8   9
ENDBRANCH   6   8
TORSDOF 2
ENDMDL
MODEL 4
REMARK VINA RESULT:      -3.8     11.124     11.965
REMARK  2 active torsions:
REMARK  status: ('A' for Active; 'I' for Inactive)
REMARK    1  A    between atoms: C6_6  and  C7_7 
REMARK    2  A    between atoms: C6_6  and  N8_8 
ROOT
HETATM    1  C1  UNL     1     -33.983  14.933  -4.289  1.00 20.00     0.050 C 
HETATM    2  C2  UNL     1     -35.380  16.860  -5.081  1.00 20.00     0.050 C 
HETATM    3  C3  UNL     1     -33.058  15.941  -3.601  1.00 20.00     0.274 C 
HETATM    4  C4  UNL     1     -34.409  17.805  -4.367  1.00 20.00     0.274 C 
HETATM    5  C5  UNL     1     -34.678  15.568  -5.492  1.00 20.00     0.085 C 
HETATM    6  N8  UNL     1     -33.792  17.151  -3.204  1.00 20.00     0.093 N 
HETATM    7 CL11 UNL     1     -35.851  14.427  -6.202  1.00 20.00    -0.125 Cl
ENDROOT
BRANCH   6   8
HETATM    8  C6  UNL     1     -32.905  18.081  -2.506  1.00 20.00     0.343 C 
BRANCH   8   9
HETATM    9  C7  UNL     1     -33.212  18.098  -1.023  1.00 20.00     0.381 C 
HETATM   10  F9  UNL     1     -32.059  18.028  -0.311  1.00 20.00    -0.213 F 
HETATM   11  F10 UNL     1     -33.928  16.989  -0.704  1.00 20.00    -0.213 F 
ENDBRANCH   8   9
ENDBRANCH   6   8
TORSDOF 2
ENDMDL
MODEL 5
REMARK VINA RESULT:      -3.8     11.206     11.654
REMARK  2 active torsions:
REMARK  status: ('A' for Active; 'I' for Inactive)
REMARK    1  A    between atoms: C6_6  and  C7_7 
REMARK    2  A    between atoms: C6_6  and  N8_8 
ROOT
HETATM    1  C1  UNL     1     -33.469  18.764   1.258  1.00 20.00     0.050 C 
HETATM    2  C2  UNL     1     -31.061  18.548   0.592  1.00 20.00     0.050 C 
HETATM    3  C3  UNL     1     -33.828  18.872  -0.226  1.00 20.00     0.274 C 
HETATM    4  C4  UNL     1     -31.498  18.663  -0.871  1.00 20.00     0.274 C 
HETATM    5  C5  UNL     1     -32.049  19.263   1.512  1.00 20.00     0.085 C 
HETATM    6  N8  UNL     1     -32.860  18.145  -1.060  1.00 20.00     0.093 N 
HETATM    7 CL11 UNL     1     -31.599  19.008   3.219  1.00 20.00    -0.125 Cl
ENDROOT
BRANCH   6   8
HETATM    8  C6  UNL     1     -33.244  18.217  -2.470  1.00 20.00     0.343 C 
BRANCH   8   9
HETATM    9  C7  UNL     1     -33.276  16.833  -3.085  1.00 20.00     0.381 C 
HETATM   10  F9  UNL     1     -34.187  16.795  -4.090  1.00 20.00    -0.213 F 
HETATM   11  F10 UNL     1     -33.697  15.942  -2.151  1.00 20.00    -0.213 F 
ENDBRANCH   8   9
ENDBRANCH   6   8
TORSDOF 2
ENDMDL
MODEL 6
REMARK VINA RESULT:      -3.8     11.218     12.164
REMARK  2 active torsions:
REMARK  status: ('A' for Active; 'I' for Inactive)
REMARK    1  A    between atoms: C6_6  and  C7_7 
REMARK    2  A    between atoms: C6_6  and  N8_8 
ROOT
HETATM    1  C1  UNL     1     -34.997  18.475  -2.625  1.00 20.00     0.050 C 
HETATM    2  C2  UNL     1     -33.448  16.534  -2.276  1.00 20.00     0.050 C 
HETATM    3  C3  UNL     1     -34.905  18.224  -4.133  1.00 20.00     0.274 C 
HETATM    4  C4  UNL     1     -33.407  16.346  -3.795  1.00 20.00     0.274 C 
HETATM    5  C5  UNL     1     -33.735  17.989  -1.916  1.00 20.00     0.085 C 
HETATM    6  N8  UNL     1     -34.655  16.805  -4.421  1.00 20.00     0.093 N 
HETATM    7 CL11 UNL     1     -33.912  18.166  -0.150  1.00 20.00    -0.125 Cl
ENDROOT
BRANCH   6   8
HETATM    8  C6  UNL     1     -34.618  16.575  -5.865  1.00 20.00     0.343 C 
BRANCH   8   9
HETATM    9  C7  UNL     1     -34.277  15.130  -6.165  1.00 20.00     0.381 C 
HETATM   10  F9  UNL     1     -33.443  15.064  -7.234  1.00 20.00    -0.213 F 
HETATM   11  F10 UNL     1     -35.409  14.470  -6.520  1.00 20.00    -0.213 F 
ENDBRANCH   8   9
ENDBRANCH   6   8
TORSDOF 2
ENDMDL
MODEL 7
REMARK VINA RESULT:      -3.8     11.477     12.328
REMARK  2 active torsions:
REMARK  status: ('A' for Active; 'I' for Inactive)
REMARK    1  A    between atoms: C6_6  and  C7_7 
REMARK    2  A    between atoms: C6_6  and  N8_8 
ROOT
HETATM    1  C1  UNL     1     -34.300  17.528  -5.146  1.00 20.00     0.050 C 
HETATM    2  C2  UNL     1     -33.386  15.654  -3.753  1.00 20.00     0.050 C 
HETATM    3  C3  UNL     1     -34.146  18.449  -3.933  1.00 20.00     0.274 C 
HETATM    4  C4  UNL     1     -33.261  16.636  -2.586  1.00 20.00     0.274 C 
HETATM    5  C5  UNL     1     -34.500  16.080  -4.706  1.00 20.00     0.085 C 
HETATM    6  N8  UNL     1     -33.043  18.007  -3.068  1.00 20.00     0.093 N 
HETATM    7 CL11 UNL     1     -34.545  15.002  -6.126  1.00 20.00    -0.125 Cl
ENDROOT
BRANCH   6   8
HETATM    8  C6  UNL     1     -32.878  18.925  -1.941  1.00 20.00     0.343 C 
BRANCH   8   9
HETATM    9  C7  UNL     1     -32.290  18.202  -0.747  1.00 20.00     0.381 C 
HETATM   10  F9  UNL     1     -32.843  18.675   0.399  1.00 20.00    -0.213 F 
HETATM   11  F10 UNL     1     -30.962  18.473  -0.673  1.00 20.00    -0.213 F 
ENDBRANCH   8   9
ENDBRANCH   6   8
TORSDOF 2
ENDMDL
MODEL 8
REMARK VINA RESULT:      -3.7     10.213     10.864
REMARK  2 active torsions:
REMARK  status: ('A' for Active; 'I' for Inactive)
REMARK    1  A    between atoms: C6_6  and  C7_7 
REMARK    2  A    between atoms: C6_6  and  N8_8 
ROOT
HETATM    1  C1  UNL     1     -40.698  15.412   7.692  1.00 20.00     0.050 C 
HETATM    2  C2  UNL     1     -42.251  15.274   5.727  1.00 20.00     0.050 C 
HETATM    3  C3  UNL     1     -40.384  13.927   7.494  1.00 20.00     0.274 C 
HETATM    4  C4  UNL     1     -41.886  13.794   5.594  1.00 20.00     0.274 C 
HETATM    5  C5  UNL     1     -42.094  15.745   7.171  1.00 20.00     0.085 C 
HETATM    6  N8  UNL     1     -40.524  13.537   6.084  1.00 20.00     0.093 N 
HETATM    7 CL11 UNL     1     -42.394  17.500   7.285  1.00 20.00    -0.125 Cl
ENDROOT
BRANCH   6   8
HETATM    8  C6  UNL     1     -40.173  12.128   5.906  1.00 20.00     0.343 C 
BRANCH   8   9
HETATM    9  C7  UNL     1     -39.220  11.960   4.740  1.00 20.00     0.381 C 
HETATM   10  F9  UNL     1     -39.387  10.736   4.179  1.00 20.00    -0.213 F 
HETATM   11  F10 UNL     1     -37.944  12.001   5.200  1.00 20.00    -0.213 F 
ENDBRANCH   8   9
ENDBRANCH   6   8
TORSDOF 2
ENDMDL
MODEL 9
REMARK VINA RESULT:      -3.7      9.894     10.522
REMARK  2 active torsions:
REMARK  status: ('A' for Active; 'I' for Inactive)
REMARK    1  A    between atoms: C6_6  and  C7_7 
REMARK    2  A    between atoms: C6_6  and  N8_8 
ROOT
HETATM    1  C1  UNL     1     -42.827  12.914   8.049  1.00 20.00     0.050 C 
HETATM    2  C2  UNL     1     -40.816  14.330   8.536  1.00 20.00     0.050 C 
HETATM    3  C3  UNL     1     -42.343  12.798   6.601  1.00 20.00     0.274 C 
HETATM    4  C4  UNL     1     -40.397  14.169   7.072  1.00 20.00     0.274 C 
HETATM    5  C5  UNL     1     -42.330  14.210   8.685  1.00 20.00     0.085 C 
HETATM    6  N8  UNL     1     -40.879  12.894   6.521  1.00 20.00     0.093 N 
HETATM    7 CL11 UNL     1     -42.788  14.268  10.408  1.00 20.00    -0.125 Cl
ENDROOT
BRANCH   6   8
HETATM    8  C6  UNL     1     -40.431  12.733   5.138  1.00 20.00     0.343 C 
BRANCH   8   9
HETATM    9  C7  UNL     1     -39.329  11.696   5.053  1.00 20.00     0.381 C 
HETATM   10  F9  UNL     1     -38.138  12.260   5.378  1.00 20.00    -0.213 F 
HETATM   11  F10 UNL     1     -39.215  11.273   3.768  1.00 20.00    -0.213 F 
ENDBRANCH   8   9
ENDBRANCH   6   8
TORSDOF 2
ENDMDL
