MODEL 1
REMARK VINA RESULT:      -3.7      0.000      0.000
REMARK  3 active torsions:
REMARK  status: ('A' for Active; 'I' for Inactive)
REMARK    1  A    between atoms: C1_1  and  C7_7 
REMARK       I    between atoms: C1_1  and  N8_8 
REMARK    2  A    between atoms: C5_5  and  C6_6 
REMARK    3  A    between atoms: C5_5  and  N8_8 
ROOT
HETATM    1  C1  UNL     1     -33.751   7.161   5.438  1.00 20.00     0.222 C 
HETATM    2  C4  UNL     1     -32.356   9.167   5.108  1.00 20.00     0.152 C 
HETATM    3  N8  UNL     1     -32.885   7.897   4.622  1.00 20.00    -0.355 N 
HETATM    4  O9  UNL     1     -34.092   7.542   6.564  1.00 20.00    -0.273 OA
ENDROOT
BRANCH   1   5
HETATM    5  C7  UNL     1     -34.309   5.846   4.885  1.00 20.00     0.070 C 
HETATM    6  C2  UNL     1     -35.677   6.087   4.247  1.00 20.00     0.019 C 
HETATM    7  C3  UNL     1     -34.435   4.798   5.994  1.00 20.00     0.019 C 
ENDBRANCH   1   5
BRANCH   3   8
HETATM    8  C5  UNL     1     -32.405   7.504   3.299  1.00 20.00     0.140 C 
BRANCH   8   9
HETATM    9  C6  UNL     1     -32.478   8.638   2.290  1.00 20.00     0.134 C 
HETATM   10 CL10 UNL     1     -31.977   8.097   0.670  1.00 20.00    -0.129 Cl
ENDBRANCH   8   9
ENDBRANCH   3   8
TORSDOF 3
ENDMDL
MODEL 2
REMARK VINA RESULT:      -3.3     11.965     12.538
REMARK  3 active torsions:
REMARK  status: ('A' for Active; 'I' for Inactive)
REMARK    1  A    between atoms: C1_1  and  C7_7 
REMARK       I    between atoms: C1_1  and  N8_8 
REMARK    2  A    between atoms: C5_5  and  C6_6 
REMARK    3  A    between atoms: C5_5  and  N8_8 
ROOT
HETATM    1  C1  UNL     1     -34.099  18.211  -2.045  1.00 20.00     0.222 C 
HETATM    2  C4  UNL     1     -34.946  17.686  -4.300  1.00 20.00     0.152 C 
HETATM    3  N8  UNL     1     -34.107  17.356  -3.153  1.00 20.00    -0.355 N 
HETATM    4  O9  UNL     1     -34.778  19.243  -1.994  1.00 20.00    -0.273 OA
ENDROOT
BRANCH   1   5
HETATM    5  C7  UNL     1     -33.228  17.819  -0.847  1.00 20.00     0.070 C 
HETATM    6  C2  UNL     1     -33.949  18.159   0.456  1.00 20.00     0.019 C 
HETATM    7  C3  UNL     1     -31.879  18.544  -0.894  1.00 20.00     0.019 C 
ENDBRANCH   1   5
BRANCH   3   8
HETATM    8  C5  UNL     1     -33.312  16.140  -3.309  1.00 20.00     0.140 C 
BRANCH   8   9
HETATM    9  C6  UNL     1     -33.646  15.383  -4.583  1.00 20.00     0.134 C 
HETATM   10 CL10 UNL     1     -34.770  14.040  -4.264  1.00 20.00    -0.129 Cl
ENDBRANCH   8   9
ENDBRANCH   3   8
TORSDOF 3
ENDMDL
MODEL 3
REMARK VINA RESULT:      -3.3     10.024     10.825
REMARK  3 active torsions:
REMARK  status: ('A' for Active; 'I' for Inactive)
REMARK    1  A    between atoms: C1_1  and  C7_7 
REMARK       I    between atoms: C1_1  and  N8_8 
REMARK    2  A    between atoms: C5_5  and  C6_6 
REMARK    3  A    between atoms: C5_5  and  N8_8 
ROOT
HETATM    1  C1  UNL     1     -41.560  14.115   8.174  1.00 20.00     0.222 C 
HETATM    2  C4  UNL     1     -42.644  12.325   6.871  1.00 20.00     0.152 C 
HETATM    3  N8  UNL     1     -41.552  13.274   7.055  1.00 20.00    -0.355 N 
HETATM    4  O9  UNL     1     -42.459  14.089   9.021  1.00 20.00    -0.273 OA
ENDROOT
BRANCH   1   5
HETATM    5  C7  UNL     1     -40.383  15.079   8.351  1.00 20.00     0.070 C 
HETATM    6  C2  UNL     1     -40.060  15.243   9.835  1.00 20.00     0.019 C 
HETATM    7  C3  UNL     1     -40.703  16.447   7.739  1.00 20.00     0.019 C 
ENDBRANCH   1   5
BRANCH   3   8
HETATM    8  C5  UNL     1     -40.550  13.264   5.992  1.00 20.00     0.140 C 
BRANCH   8   9
HETATM    9  C6  UNL     1     -39.764  11.965   5.942  1.00 20.00     0.134 C 
HETATM   10 CL10 UNL     1     -39.066  11.691   4.327  1.00 20.00    -0.129 Cl
ENDBRANCH   8   9
ENDBRANCH   3   8
TORSDOF 3
ENDMDL
MODEL 4
REMARK VINA RESULT:      -3.2      1.325      1.325
REMARK  3 active torsions:
REMARK  status: ('A' for Active; 'I' for Inactive)
REMARK    1  A    between atoms: C1_1  and  C7_7 
REMARK       I    between atoms: C1_1  and  N8_8 
REMARK    2  A    between atoms: C5_5  and  C6_6 
REMARK    3  A    between atoms: C5_5  and  N8_8 
ROOT
HETATM    1  C1  UNL     1     -33.713   7.456   5.374  1.00 20.00     0.222 C 
HETATM    2  C4  UNL     1     -32.230   9.319   4.736  1.00 20.00     0.152 C 
HETATM    3  N8  UNL     1     -32.651   7.929   4.595  1.00 20.00    -0.355 N 
HETATM    4  O9  UNL     1     -34.316   8.170   6.184  1.00 20.00    -0.273 OA
ENDROOT
BRANCH   1   5
HETATM    5  C7  UNL     1     -34.147   6.000   5.181  1.00 20.00     0.070 C 
HETATM    6  C2  UNL     1     -35.480   5.946   4.438  1.00 20.00     0.019 C 
HETATM    7  C3  UNL     1     -34.280   5.287   6.531  1.00 20.00     0.019 C 
ENDBRANCH   1   5
BRANCH   3   8
HETATM    8  C5  UNL     1     -31.864   7.147   3.644  1.00 20.00     0.140 C 
BRANCH   8   9
HETATM    9  C6  UNL     1     -32.627   6.842   2.366  1.00 20.00     0.134 C 
HETATM   10 CL10 UNL     1     -32.878   5.092   2.162  1.00 20.00    -0.129 Cl
ENDBRANCH   8   9
ENDBRANCH   3   8
TORSDOF 3
ENDMDL
MODEL 5
REMARK VINA RESULT:      -3.2     12.088     13.477
REMARK  3 active torsions:
REMARK  status: ('A' for Active; 'I' for Inactive)
REMARK    1  A    between atoms: C1_1  and  C7_7 
REMARK       I    between atoms: C1_1  and  N8_8 
REMARK    2  A    between atoms: C5_5  and  C6_6 
REMARK    3  A    between atoms: C5_5  and  N8_8 
ROOT
HETATM    1  C1  UNL     1     -35.715  15.340  -5.952  1.00 20.00     0.222 C 
HETATM    2  C4  UNL     1     -33.829  14.419  -4.659  1.00 20.00     0.152 C 
HETATM    3  N8  UNL     1     -34.707  15.533  -5.002  1.00 20.00    -0.355 N 
HETATM    4  O9  UNL     1     -35.898  14.257  -6.520  1.00 20.00    -0.273 OA
ENDROOT
BRANCH   1   5
HETATM    5  C7  UNL     1     -36.636  16.523  -6.267  1.00 20.00     0.070 C 
HETATM    6  C2  UNL     1     -37.931  16.405  -5.464  1.00 20.00     0.019 C 
HETATM    7  C3  UNL     1     -36.960  16.578  -7.763  1.00 20.00     0.019 C 
ENDBRANCH   1   5
BRANCH   3   8
HETATM    8  C5  UNL     1     -34.401  16.784  -4.312  1.00 20.00     0.140 C 
BRANCH   8   9
HETATM    9  C6  UNL     1     -33.191  16.668  -3.400  1.00 20.00     0.134 C 
HETATM   10 CL10 UNL     1     -33.624  16.991  -1.704  1.00 20.00    -0.129 Cl
ENDBRANCH   8   9
ENDBRANCH   3   8
TORSDOF 3
ENDMDL
MODEL 6
REMARK VINA RESULT:      -3.2     12.014     13.307
REMARK  3 active torsions:
REMARK  status: ('A' for Active; 'I' for Inactive)
REMARK    1  A    between atoms: C1_1  and  C7_7 
REMARK       I    between atoms: C1_1  and  N8_8 
REMARK    2  A    between atoms: C5_5  and  C6_6 
REMARK    3  A    between atoms: C5_5  and  N8_8 
ROOT
HETATM    1  C1  UNL     1     -35.041  16.706  -4.886  1.00 20.00     0.222 C 
HETATM    2  C4  UNL     1     -35.647  18.955  -4.077  1.00 20.00     0.152 C 
HETATM    3  N8  UNL     1     -34.642  17.930  -4.338  1.00 20.00    -0.355 N 
HETATM    4  O9  UNL     1     -36.219  16.451  -5.162  1.00 20.00    -0.273 OA
ENDROOT
BRANCH   1   5
HETATM    5  C7  UNL     1     -33.956  15.663  -5.172  1.00 20.00     0.070 C 
HETATM    6  C2  UNL     1     -34.073  15.169  -6.613  1.00 20.00     0.019 C 
HETATM    7  C3  UNL     1     -34.072  14.477  -4.209  1.00 20.00     0.019 C 
ENDBRANCH   1   5
BRANCH   3   8
HETATM    8  C5  UNL     1     -33.282  18.298  -3.950  1.00 20.00     0.140 C 
BRANCH   8   9
HETATM    9  C6  UNL     1     -33.129  18.475  -2.449  1.00 20.00     0.134 C 
HETATM   10 CL10 UNL     1     -33.600  17.000  -1.571  1.00 20.00    -0.129 Cl
ENDBRANCH   8   9
ENDBRANCH   3   8
TORSDOF 3
ENDMDL
MODEL 7
REMARK VINA RESULT:      -3.2     12.187     13.399
REMARK  3 active torsions:
REMARK  status: ('A' for Active; 'I' for Inactive)
REMARK    1  A    between atoms: C1_1  and  C7_7 
REMARK       I    between atoms: C1_1  and  N8_8 
REMARK    2  A    between atoms: C5_5  and  C6_6 
REMARK    3  A    between atoms: C5_5  and  N8_8 
ROOT
HETATM    1  C1  UNL     1     -34.962  17.914  -3.626  1.00 20.00     0.222 C 
HETATM    2  C4  UNL     1     -36.787  17.342  -5.182  1.00 20.00     0.152 C 
HETATM    3  N8  UNL     1     -35.383  17.263  -4.791  1.00 20.00    -0.355 N 
HETATM    4  O9  UNL     1     -35.733  18.559  -2.906  1.00 20.00    -0.273 OA
ENDROOT
BRANCH   1   5
HETATM    5  C7  UNL     1     -33.488  17.788  -3.231  1.00 20.00     0.070 C 
HETATM    6  C2  UNL     1     -33.366  17.058  -1.894  1.00 20.00     0.019 C 
HETATM    7  C3  UNL     1     -32.831  19.168  -3.127  1.00 20.00     0.019 C 
ENDBRANCH   1   5
BRANCH   3   8
HETATM    8  C5  UNL     1     -34.535  16.513  -5.714  1.00 20.00     0.140 C 
BRANCH   8   9
HETATM    9  C6  UNL     1     -34.788  15.016  -5.655  1.00 20.00     0.134 C 
HETATM   10 CL10 UNL     1     -34.167  14.312  -4.142  1.00 20.00    -0.129 Cl
ENDBRANCH   8   9
ENDBRANCH   3   8
TORSDOF 3
ENDMDL
MODEL 8
REMARK VINA RESULT:      -3.1      1.799      2.671
REMARK  3 active torsions:
REMARK  status: ('A' for Active; 'I' for Inactive)
REMARK    1  A    between atoms: C1_1  and  C7_7 
REMARK       I    between atoms: C1_1  and  N8_8 
REMARK    2  A    between atoms: C5_5  and  C6_6 
REMARK    3  A    between atoms: C5_5  and  N8_8 
ROOT
HETATM    1  C1  UNL     1     -33.724   6.004   4.385  1.00 20.00     0.222 C 
HETATM    2  C4  UNL     1     -32.955   5.242   2.170  1.00 20.00     0.152 C 
HETATM    3  N8  UNL     1     -32.921   6.214   3.258  1.00 20.00    -0.355 N 
HETATM    4  O9  UNL     1     -34.467   5.024   4.502  1.00 20.00    -0.273 OA
ENDROOT
BRANCH   1   5
HETATM    5  C7  UNL     1     -33.642   7.030   5.520  1.00 20.00     0.070 C 
HETATM    6  C2  UNL     1     -34.499   6.573   6.700  1.00 20.00     0.019 C 
HETATM    7  C3  UNL     1     -34.112   8.408   5.044  1.00 20.00     0.019 C 
ENDBRANCH   1   5
BRANCH   3   8
HETATM    8  C5  UNL     1     -32.044   7.359   3.025  1.00 20.00     0.140 C 
BRANCH   8   9
HETATM    9  C6  UNL     1     -32.170   7.914   1.616  1.00 20.00     0.134 C 
HETATM   10 CL10 UNL     1     -32.877   9.547   1.623  1.00 20.00    -0.129 Cl
ENDBRANCH   8   9
ENDBRANCH   3   8
TORSDOF 3
ENDMDL
MODEL 9
REMARK VINA RESULT:      -3.1     10.603     11.174
REMARK  3 active torsions:
REMARK  status: ('A' for Active; 'I' for Inactive)
REMARK    1  A    between atoms: C1_1  and  C7_7 
REMARK       I    between atoms: C1_1  and  N8_8 
REMARK    2  A    between atoms: C5_5  and  C6_6 
REMARK    3  A    between atoms: C5_5  and  N8_8 
ROOT
HETATM    1  C1  UNL     1     -41.490  13.189   7.205  1.00 20.00     0.222 C 
HETATM    2  C4  UNL     1     -42.134  14.090   9.407  1.00 20.00     0.152 C 
HETATM    3  N8  UNL     1     -41.299  14.142   8.212  1.00 20.00    -0.355 N 
HETATM    4  O9  UNL     1     -42.342  12.297   7.283  1.00 20.00    -0.273 OA
ENDROOT
BRANCH   1   5
HETATM    5  C7  UNL     1     -40.615  13.291   5.951  1.00 20.00     0.070 C 
HETATM    6  C2  UNL     1     -41.462  13.729   4.758  1.00 20.00     0.019 C 
HETATM    7  C3  UNL     1     -39.946  11.947   5.643  1.00 20.00     0.019 C 
ENDBRANCH   1   5
BRANCH   3   8
HETATM    8  C5  UNL     1     -40.296  15.204   8.215  1.00 20.00     0.140 C 
BRANCH   8   9
HETATM    9  C6  UNL     1     -40.914  16.591   8.175  1.00 20.00     0.134 C 
HETATM   10 CL10 UNL     1     -41.958  16.795   6.748  1.00 20.00    -0.129 Cl
ENDBRANCH   8   9
ENDBRANCH   3   8
TORSDOF 3
ENDMDL
