MODEL 1
REMARK VINA RESULT:      -4.0      0.000      0.000
REMARK  3 active torsions:
REMARK  status: ('A' for Active; 'I' for Inactive)
REMARK    1  A    between atoms: C6_6  and  C7_7 
REMARK    2  A    between atoms: C7_7  and  C8_8 
REMARK    3  A    between atoms: C8_8  and  N9_9 
ROOT
HETATM    1  C1  UNL     1     -34.125   7.362   6.343  1.00 20.00     0.052 C 
HETATM    2  C2  UNL     1     -33.476   8.412   5.460  1.00 20.00     0.274 C 
HETATM    3  C3  UNL     1     -33.739   6.532   4.091  1.00 20.00     0.292 C 
HETATM    4  C4  UNL     1     -34.580   6.298   5.349  1.00 20.00     0.112 C 
HETATM    5  N9  UNL     1     -32.786   7.579   4.477  1.00 20.00     0.089 N 
HETATM    6 CL10 UNL     1     -34.376   4.661   6.007  1.00 20.00    -0.123 Cl
ENDROOT
BRANCH   5   7
HETATM    7  C8  UNL     1     -32.299   8.342   3.338  1.00 20.00     0.272 C 
BRANCH   7   8
HETATM    8  C7  UNL     1     -32.195   7.497   2.073  1.00 20.00     0.030 C 
BRANCH   8   9
HETATM    9  C6  UNL     1     -32.111   8.347   0.803  1.00 20.00    -0.003 C 
HETATM   10  C5  UNL     1     -32.855   9.663   0.966  1.00 20.00     0.005 C 
ENDBRANCH   8   9
ENDBRANCH   7   8
ENDBRANCH   5   7
TORSDOF 3
ENDMDL
MODEL 2
REMARK VINA RESULT:      -3.8      0.904      1.069
REMARK  3 active torsions:
REMARK  status: ('A' for Active; 'I' for Inactive)
REMARK    1  A    between atoms: C6_6  and  C7_7 
REMARK    2  A    between atoms: C7_7  and  C8_8 
REMARK    3  A    between atoms: C8_8  and  N9_9 
ROOT
HETATM    1  C1  UNL     1     -34.383   6.309   6.201  1.00 20.00     0.052 C 
HETATM    2  C2  UNL     1     -33.858   7.712   5.956  1.00 20.00     0.274 C 
HETATM    3  C3  UNL     1     -33.642   6.605   3.905  1.00 20.00     0.292 C 
HETATM    4  C4  UNL     1     -34.539   5.741   4.794  1.00 20.00     0.112 C 
HETATM    5  N9  UNL     1     -32.938   7.487   4.842  1.00 20.00     0.089 N 
HETATM    6 CL10 UNL     1     -34.100   4.021   4.733  1.00 20.00    -0.123 Cl
ENDROOT
BRANCH   5   7
HETATM    7  C8  UNL     1     -32.495   8.727   4.222  1.00 20.00     0.272 C 
BRANCH   7   8
HETATM    8  C7  UNL     1     -32.216   8.564   2.732  1.00 20.00     0.030 C 
BRANCH   8   9
HETATM    9  C6  UNL     1     -32.957   9.596   1.879  1.00 20.00    -0.003 C 
HETATM   10  C5  UNL     1     -32.708   9.374   0.396  1.00 20.00     0.005 C 
ENDBRANCH   8   9
ENDBRANCH   7   8
ENDBRANCH   5   7
TORSDOF 3
ENDMDL
MODEL 3
REMARK VINA RESULT:      -3.6     11.763     12.620
REMARK  3 active torsions:
REMARK  status: ('A' for Active; 'I' for Inactive)
REMARK    1  A    between atoms: C6_6  and  C7_7 
REMARK    2  A    between atoms: C7_7  and  C8_8 
REMARK    3  A    between atoms: C8_8  and  N9_9 
ROOT
HETATM    1  C1  UNL     1     -33.598  15.063  -4.437  1.00 20.00     0.052 C 
HETATM    2  C2  UNL     1     -33.383  15.876  -3.173  1.00 20.00     0.274 C 
HETATM    3  C3  UNL     1     -34.499  17.311  -4.648  1.00 20.00     0.292 C 
HETATM    4  C4  UNL     1     -34.603  15.898  -5.225  1.00 20.00     0.112 C 
HETATM    5  N9  UNL     1     -33.380  17.239  -3.702  1.00 20.00     0.089 N 
HETATM    6 CL10 UNL     1     -34.264  15.850  -6.968  1.00 20.00    -0.123 Cl
ENDROOT
BRANCH   5   7
HETATM    7  C8  UNL     1     -33.463  18.247  -2.655  1.00 20.00     0.272 C 
BRANCH   7   8
HETATM    8  C7  UNL     1     -33.709  17.637  -1.279  1.00 20.00     0.030 C 
BRANCH   8   9
HETATM    9  C6  UNL     1     -32.933  18.353  -0.172  1.00 20.00    -0.003 C 
HETATM   10  C5  UNL     1     -31.458  18.478  -0.519  1.00 20.00     0.005 C 
ENDBRANCH   8   9
ENDBRANCH   7   8
ENDBRANCH   5   7
TORSDOF 3
ENDMDL
MODEL 4
REMARK VINA RESULT:      -3.6     11.602     11.986
REMARK  3 active torsions:
REMARK  status: ('A' for Active; 'I' for Inactive)
REMARK    1  A    between atoms: C6_6  and  C7_7 
REMARK    2  A    between atoms: C7_7  and  C8_8 
REMARK    3  A    between atoms: C8_8  and  N9_9 
ROOT
HETATM    1  C1  UNL     1     -32.308  19.080   2.017  1.00 20.00     0.052 C 
HETATM    2  C2  UNL     1     -33.205  18.883   0.808  1.00 20.00     0.274 C 
HETATM    3  C3  UNL     1     -31.056  18.302   0.084  1.00 20.00     0.292 C 
HETATM    4  C4  UNL     1     -31.013  18.384   1.611  1.00 20.00     0.112 C 
HETATM    5  N9  UNL     1     -32.256  19.060  -0.290  1.00 20.00     0.089 N 
HETATM    6 CL10 UNL     1     -29.588  19.262   2.205  1.00 20.00    -0.123 Cl
ENDROOT
BRANCH   5   7
HETATM    7  C8  UNL     1     -32.802  18.650  -1.575  1.00 20.00     0.272 C 
BRANCH   7   8
HETATM    8  C7  UNL     1     -33.545  17.320  -1.493  1.00 20.00     0.030 C 
BRANCH   8   9
HETATM    9  C6  UNL     1     -33.387  16.480  -2.762  1.00 20.00    -0.003 C 
HETATM   10  C5  UNL     1     -33.672  17.300  -4.010  1.00 20.00     0.005 C 
ENDBRANCH   8   9
ENDBRANCH   7   8
ENDBRANCH   5   7
TORSDOF 3
ENDMDL
MODEL 5
REMARK VINA RESULT:      -3.5     11.384     12.336
REMARK  3 active torsions:
REMARK  status: ('A' for Active; 'I' for Inactive)
REMARK    1  A    between atoms: C6_6  and  C7_7 
REMARK    2  A    between atoms: C7_7  and  C8_8 
REMARK    3  A    between atoms: C8_8  and  N9_9 
ROOT
HETATM    1  C1  UNL     1     -34.339  17.247  -4.513  1.00 20.00     0.052 C 
HETATM    2  C2  UNL     1     -34.266  18.420  -3.553  1.00 20.00     0.274 C 
HETATM    3  C3  UNL     1     -33.327  16.616  -2.395  1.00 20.00     0.292 C 
HETATM    4  C4  UNL     1     -33.432  16.205  -3.865  1.00 20.00     0.112 C 
HETATM    5  N9  UNL     1     -34.262  17.738  -2.260  1.00 20.00     0.089 N 
HETATM    6 CL10 UNL     1     -34.077  14.563  -4.068  1.00 20.00    -0.123 Cl
ENDROOT
BRANCH   5   7
HETATM    7  C8  UNL     1     -33.920  18.625  -1.159  1.00 20.00     0.272 C 
BRANCH   7   8
HETATM    8  C7  UNL     1     -32.464  18.485  -0.729  1.00 20.00     0.030 C 
BRANCH   8   9
HETATM    9  C6  UNL     1     -32.286  18.586   0.787  1.00 20.00    -0.003 C 
HETATM   10  C5  UNL     1     -30.817  18.560   1.177  1.00 20.00     0.005 C 
ENDBRANCH   8   9
ENDBRANCH   7   8
ENDBRANCH   5   7
TORSDOF 3
ENDMDL
MODEL 6
REMARK VINA RESULT:      -3.5     11.459     12.395
REMARK  3 active torsions:
REMARK  status: ('A' for Active; 'I' for Inactive)
REMARK    1  A    between atoms: C6_6  and  C7_7 
REMARK    2  A    between atoms: C7_7  and  C8_8 
REMARK    3  A    between atoms: C8_8  and  N9_9 
ROOT
HETATM    1  C1  UNL     1     -34.721  16.678  -5.108  1.00 20.00     0.052 C 
HETATM    2  C2  UNL     1     -34.167  17.952  -4.497  1.00 20.00     0.274 C 
HETATM    3  C3  UNL     1     -33.159  16.208  -3.305  1.00 20.00     0.292 C 
HETATM    4  C4  UNL     1     -33.806  15.593  -4.548  1.00 20.00     0.112 C 
HETATM    5  N9  UNL     1     -33.828  17.505  -3.147  1.00 20.00     0.089 N 
HETATM    6 CL10 UNL     1     -34.706  14.107  -4.180  1.00 20.00    -0.123 Cl
ENDROOT
BRANCH   5   7
HETATM    7  C8  UNL     1     -33.017  18.471  -2.423  1.00 20.00     0.272 C 
BRANCH   7   8
HETATM    8  C7  UNL     1     -32.732  18.033  -0.990  1.00 20.00     0.030 C 
BRANCH   8   9
HETATM    9  C6  UNL     1     -31.379  18.535  -0.481  1.00 20.00    -0.003 C 
HETATM   10  C5  UNL     1     -31.297  18.468   1.036  1.00 20.00     0.005 C 
ENDBRANCH   8   9
ENDBRANCH   7   8
ENDBRANCH   5   7
TORSDOF 3
ENDMDL
MODEL 7
REMARK VINA RESULT:      -3.5      9.783     10.622
REMARK  3 active torsions:
REMARK  status: ('A' for Active; 'I' for Inactive)
REMARK    1  A    between atoms: C6_6  and  C7_7 
REMARK    2  A    between atoms: C7_7  and  C8_8 
REMARK    3  A    between atoms: C8_8  and  N9_9 
ROOT
HETATM    1  C1  UNL     1     -40.396  15.642   9.330  1.00 20.00     0.052 C 
HETATM    2  C2  UNL     1     -40.336  15.515   7.819  1.00 20.00     0.274 C 
HETATM    3  C3  UNL     1     -41.762  13.799   8.528  1.00 20.00     0.292 C 
HETATM    4  C4  UNL     1     -41.571  14.748   9.713  1.00 20.00     0.112 C 
HETATM    5  N9  UNL     1     -40.636  14.096   7.635  1.00 20.00     0.089 N 
HETATM    6 CL10 UNL     1     -41.262  13.882  11.233  1.00 20.00    -0.123 Cl
ENDROOT
BRANCH   5   7
HETATM    7  C8  UNL     1     -40.914  13.756   6.248  1.00 20.00     0.272 C 
BRANCH   7   8
HETATM    8  C7  UNL     1     -40.617  12.293   5.937  1.00 20.00     0.030 C 
BRANCH   8   9
HETATM    9  C6  UNL     1     -39.151  12.056   5.570  1.00 20.00    -0.003 C 
HETATM   10  C5  UNL     1     -39.001  11.648   4.113  1.00 20.00     0.005 C 
ENDBRANCH   8   9
ENDBRANCH   7   8
ENDBRANCH   5   7
TORSDOF 3
ENDMDL
MODEL 8
REMARK VINA RESULT:      -3.4     10.271     11.129
REMARK  3 active torsions:
REMARK  status: ('A' for Active; 'I' for Inactive)
REMARK    1  A    between atoms: C6_6  and  C7_7 
REMARK    2  A    between atoms: C7_7  and  C8_8 
REMARK    3  A    between atoms: C8_8  and  N9_9 
ROOT
HETATM    1  C1  UNL     1     -40.325  15.657   8.872  1.00 20.00     0.052 C 
HETATM    2  C2  UNL     1     -40.351  14.209   8.420  1.00 20.00     0.274 C 
HETATM    3  C3  UNL     1     -41.477  15.398   6.747  1.00 20.00     0.292 C 
HETATM    4  C4  UNL     1     -40.756  16.423   7.625  1.00 20.00     0.112 C 
HETATM    5  N9  UNL     1     -41.544  14.189   7.576  1.00 20.00     0.089 N 
HETATM    6 CL10 UNL     1     -41.787  17.810   8.036  1.00 20.00    -0.123 Cl
ENDROOT
BRANCH   5   7
HETATM    7  C8  UNL     1     -41.653  12.972   6.786  1.00 20.00     0.272 C 
BRANCH   7   8
HETATM    8  C7  UNL     1     -40.731  12.983   5.571  1.00 20.00     0.030 C 
BRANCH   8   9
HETATM    9  C6  UNL     1     -39.747  11.812   5.569  1.00 20.00    -0.003 C 
HETATM   10  C5  UNL     1     -39.052  11.671   4.224  1.00 20.00     0.005 C 
ENDBRANCH   8   9
ENDBRANCH   7   8
ENDBRANCH   5   7
TORSDOF 3
ENDMDL
MODEL 9
REMARK VINA RESULT:      -3.4     12.051     13.036
REMARK  3 active torsions:
REMARK  status: ('A' for Active; 'I' for Inactive)
REMARK    1  A    between atoms: C6_6  and  C7_7 
REMARK    2  A    between atoms: C7_7  and  C8_8 
REMARK    3  A    between atoms: C8_8  and  N9_9 
ROOT
HETATM    1  C1  UNL     1     -35.590  14.993  -5.906  1.00 20.00     0.052 C 
HETATM    2  C2  UNL     1     -34.459  15.346  -4.956  1.00 20.00     0.274 C 
HETATM    3  C3  UNL     1     -35.850  17.228  -4.986  1.00 20.00     0.292 C 
HETATM    4  C4  UNL     1     -36.625  16.082  -5.640  1.00 20.00     0.112 C 
HETATM    5  N9  UNL     1     -34.447  16.805  -5.048  1.00 20.00     0.089 N 
HETATM    6 CL10 UNL     1     -37.443  16.581  -7.136  1.00 20.00    -0.123 Cl
ENDROOT
BRANCH   5   7
HETATM    7  C8  UNL     1     -33.627  17.425  -4.019  1.00 20.00     0.272 C 
BRANCH   7   8
HETATM    8  C7  UNL     1     -33.397  16.504  -2.825  1.00 20.00     0.030 C 
BRANCH   8   9
HETATM    9  C6  UNL     1     -33.607  17.214  -1.486  1.00 20.00    -0.003 C 
HETATM   10  C5  UNL     1     -32.414  18.084  -1.126  1.00 20.00     0.005 C 
ENDBRANCH   8   9
ENDBRANCH   7   8
ENDBRANCH   5   7
TORSDOF 3
ENDMDL
