MODEL 1
REMARK VINA RESULT:      -3.8      0.000      0.000
REMARK  5 active torsions:
REMARK  status: ('A' for Active; 'I' for Inactive)
REMARK    1  A    between atoms: C5_5  and  C9_9 
REMARK    2  A    between atoms: C6_6  and  C7_7 
REMARK    3  A    between atoms: C6_6  and  C8_8 
REMARK    4  A    between atoms: C7_7  and  C9_9 
REMARK    5  A    between atoms: C8_8  and  C10_10 
ROOT
HETATM    1  C6  UNL     1     -33.599   8.306   5.254  1.00 20.00     0.002 C 
ENDROOT
BRANCH   1   2
HETATM    2  C7  UNL     1     -32.570   8.789   4.220  1.00 20.00     0.020 C 
BRANCH   2   3
HETATM    3  C9  UNL     1     -32.959   8.443   2.775  1.00 20.00     0.082 C 
HETATM    4 CL11 UNL     1     -32.002   7.047   2.184  1.00 20.00    -0.125 Cl
BRANCH   3   5
HETATM    5  C5  UNL     1     -32.818   9.633   1.814  1.00 20.00     0.016 C 
HETATM    6  C1  UNL     1     -32.648   9.272   0.343  1.00 20.00     0.006 C 
ENDBRANCH   3   5
ENDBRANCH   2   3
ENDBRANCH   1   2
BRANCH   1   7
HETATM    7  C8  UNL     1     -33.313   6.858   5.676  1.00 20.00     0.008 C 
BRANCH   7   8
HETATM    8  C10 UNL     1     -34.373   5.808   5.246  1.00 20.00    -0.051 C 
HETATM    9  C2  UNL     1     -33.751   4.726   4.349  1.00 20.00     0.014 C 
HETATM   10  C3  UNL     1     -34.922   5.134   6.517  1.00 20.00     0.014 C 
HETATM   11  C4  UNL     1     -35.544   6.471   4.502  1.00 20.00     0.014 C 
ENDBRANCH   7   8
ENDBRANCH   1   7
TORSDOF 5
ENDMDL
MODEL 2
REMARK VINA RESULT:      -3.8     11.565     12.478
REMARK  5 active torsions:
REMARK  status: ('A' for Active; 'I' for Inactive)
REMARK    1  A    between atoms: C5_5  and  C9_9 
REMARK    2  A    between atoms: C6_6  and  C7_7 
REMARK    3  A    between atoms: C6_6  and  C8_8 
REMARK    4  A    between atoms: C7_7  and  C9_9 
REMARK    5  A    between atoms: C8_8  and  C10_10 
ROOT
HETATM    1  C6  UNL     1     -33.153  16.408  -3.502  1.00 20.00     0.002 C 
ENDROOT
BRANCH   1   2
HETATM    2  C7  UNL     1     -33.539  16.655  -2.036  1.00 20.00     0.020 C 
BRANCH   2   3
HETATM    3  C9  UNL     1     -33.503  18.140  -1.645  1.00 20.00     0.082 C 
HETATM    4 CL11 UNL     1     -32.716  19.109  -2.931  1.00 20.00    -0.125 Cl
BRANCH   3   5
HETATM    5  C5  UNL     1     -32.816  18.388  -0.293  1.00 20.00     0.016 C 
HETATM    6  C1  UNL     1     -31.299  18.524  -0.343  1.00 20.00     0.006 C 
ENDBRANCH   3   5
ENDBRANCH   2   3
ENDBRANCH   1   2
BRANCH   1   7
HETATM    7  C8  UNL     1     -33.822  15.134  -4.038  1.00 20.00     0.008 C 
BRANCH   7   8
HETATM    8  C10 UNL     1     -34.765  15.329  -5.256  1.00 20.00    -0.051 C 
HETATM    9  C2  UNL     1     -34.005  15.156  -6.581  1.00 20.00     0.014 C 
HETATM   10  C3  UNL     1     -35.869  14.257  -5.183  1.00 20.00     0.014 C 
HETATM   11  C4  UNL     1     -35.430  16.715  -5.230  1.00 20.00     0.014 C 
ENDBRANCH   7   8
ENDBRANCH   1   7
TORSDOF 5
ENDMDL
MODEL 3
REMARK VINA RESULT:      -3.7     11.263     12.338
REMARK  5 active torsions:
REMARK  status: ('A' for Active; 'I' for Inactive)
REMARK    1  A    between atoms: C5_5  and  C9_9 
REMARK    2  A    between atoms: C6_6  and  C7_7 
REMARK    3  A    between atoms: C6_6  and  C8_8 
REMARK    4  A    between atoms: C7_7  and  C9_9 
REMARK    5  A    between atoms: C8_8  and  C10_10 
ROOT
HETATM    1  C6  UNL     1     -33.227  16.503  -3.528  1.00 20.00     0.002 C 
ENDROOT
BRANCH   1   2
HETATM    2  C7  UNL     1     -33.563  15.096  -4.045  1.00 20.00     0.020 C 
BRANCH   2   3
HETATM    3  C9  UNL     1     -34.804  15.066  -4.949  1.00 20.00     0.082 C 
HETATM    4 CL11 UNL     1     -35.807  13.623  -4.592  1.00 20.00    -0.125 Cl
BRANCH   3   5
HETATM    5  C5  UNL     1     -34.458  15.119  -6.446  1.00 20.00     0.016 C 
HETATM    6  C1  UNL     1     -35.637  15.345  -7.384  1.00 20.00     0.006 C 
ENDBRANCH   3   5
ENDBRANCH   2   3
ENDBRANCH   1   2
BRANCH   1   7
HETATM    7  C8  UNL     1     -33.543  16.627  -2.032  1.00 20.00     0.008 C 
BRANCH   7   8
HETATM    8  C10 UNL     1     -33.691  18.075  -1.491  1.00 20.00    -0.051 C 
HETATM    9  C2  UNL     1     -34.972  18.738  -2.020  1.00 20.00     0.014 C 
HETATM   10  C3  UNL     1     -33.775  18.006   0.047  1.00 20.00     0.014 C 
HETATM   11  C4  UNL     1     -32.478  18.938  -1.873  1.00 20.00     0.014 C 
ENDBRANCH   7   8
ENDBRANCH   1   7
TORSDOF 5
ENDMDL
MODEL 4
REMARK VINA RESULT:      -3.7     11.377     12.749
REMARK  5 active torsions:
REMARK  status: ('A' for Active; 'I' for Inactive)
REMARK    1  A    between atoms: C5_5  and  C9_9 
REMARK    2  A    between atoms: C6_6  and  C7_7 
REMARK    3  A    between atoms: C6_6  and  C8_8 
REMARK    4  A    between atoms: C7_7  and  C9_9 
REMARK    5  A    between atoms: C8_8  and  C10_10 
ROOT
HETATM    1  C6  UNL     1     -33.126  15.778  -3.799  1.00 20.00     0.002 C 
ENDROOT
BRANCH   1   2
HETATM    2  C7  UNL     1     -34.097  14.645  -4.165  1.00 20.00     0.020 C 
BRANCH   2   3
HETATM    3  C9  UNL     1     -34.906  14.932  -5.439  1.00 20.00     0.082 C 
HETATM    4 CL11 UNL     1     -33.811  15.142  -6.844  1.00 20.00    -0.125 Cl
BRANCH   3   5
HETATM    5  C5  UNL     1     -35.835  16.148  -5.299  1.00 20.00     0.016 C 
HETATM    6  C1  UNL     1     -35.554  17.301  -6.255  1.00 20.00     0.006 C 
ENDBRANCH   3   5
ENDBRANCH   2   3
ENDBRANCH   1   2
BRANCH   1   7
HETATM    7  C8  UNL     1     -33.494  16.396  -2.443  1.00 20.00     0.008 C 
BRANCH   7   8
HETATM    8  C10 UNL     1     -33.453  17.947  -2.375  1.00 20.00    -0.051 C 
HETATM    9  C2  UNL     1     -32.392  18.433  -1.375  1.00 20.00     0.014 C 
HETATM   10  C3  UNL     1     -33.085  18.478  -3.775  1.00 20.00     0.014 C 
HETATM   11  C4  UNL     1     -34.823  18.523  -1.981  1.00 20.00     0.014 C 
ENDBRANCH   7   8
ENDBRANCH   1   7
TORSDOF 5
ENDMDL
MODEL 5
REMARK VINA RESULT:      -3.7     11.375     12.404
REMARK  5 active torsions:
REMARK  status: ('A' for Active; 'I' for Inactive)
REMARK    1  A    between atoms: C5_5  and  C9_9 
REMARK    2  A    between atoms: C6_6  and  C7_7 
REMARK    3  A    between atoms: C6_6  and  C8_8 
REMARK    4  A    between atoms: C7_7  and  C9_9 
REMARK    5  A    between atoms: C8_8  and  C10_10 
ROOT
HETATM    1  C6  UNL     1     -33.028  16.440  -3.343  1.00 20.00     0.002 C 
ENDROOT
BRANCH   1   2
HETATM    2  C7  UNL     1     -33.649  15.237  -4.069  1.00 20.00     0.020 C 
BRANCH   2   3
HETATM    3  C9  UNL     1     -34.312  15.614  -5.403  1.00 20.00     0.082 C 
HETATM    4 CL11 UNL     1     -34.791  17.341  -5.400  1.00 20.00    -0.125 Cl
BRANCH   3   5
HETATM    5  C5  UNL     1     -35.518  14.725  -5.746  1.00 20.00     0.016 C 
HETATM    6  C1  UNL     1     -35.956  13.763  -4.649  1.00 20.00     0.006 C 
ENDBRANCH   3   5
ENDBRANCH   2   3
ENDBRANCH   1   2
BRANCH   1   7
HETATM    7  C8  UNL     1     -33.639  16.611  -1.946  1.00 20.00     0.008 C 
BRANCH   7   8
HETATM    8  C10 UNL     1     -33.683  18.065  -1.402  1.00 20.00    -0.051 C 
HETATM    9  C2  UNL     1     -32.441  18.859  -1.836  1.00 20.00     0.014 C 
HETATM   10  C3  UNL     1     -34.933  18.756  -1.983  1.00 20.00     0.014 C 
HETATM   11  C4  UNL     1     -33.786  18.083   0.132  1.00 20.00     0.014 C 
ENDBRANCH   7   8
ENDBRANCH   1   7
TORSDOF 5
ENDMDL
MODEL 6
REMARK VINA RESULT:      -3.5     11.371     12.532
REMARK  5 active torsions:
REMARK  status: ('A' for Active; 'I' for Inactive)
REMARK    1  A    between atoms: C5_5  and  C9_9 
REMARK    2  A    between atoms: C6_6  and  C7_7 
REMARK    3  A    between atoms: C6_6  and  C8_8 
REMARK    4  A    between atoms: C7_7  and  C9_9 
REMARK    5  A    between atoms: C8_8  and  C10_10 
ROOT
HETATM    1  C6  UNL     1     -33.191  16.457  -3.499  1.00 20.00     0.002 C 
ENDROOT
BRANCH   1   2
HETATM    2  C7  UNL     1     -33.548  16.622  -2.015  1.00 20.00     0.020 C 
BRANCH   2   3
HETATM    3  C9  UNL     1     -33.295  18.042  -1.487  1.00 20.00     0.082 C 
HETATM    4 CL11 UNL     1     -33.656  18.134   0.267  1.00 20.00    -0.125 Cl
BRANCH   3   5
HETATM    5  C5  UNL     1     -34.083  19.116  -2.252  1.00 20.00     0.016 C 
HETATM    6  C1  UNL     1     -35.600  18.988  -2.186  1.00 20.00     0.006 C 
ENDBRANCH   3   5
ENDBRANCH   2   3
ENDBRANCH   1   2
BRANCH   1   7
HETATM    7  C8  UNL     1     -33.765  15.149  -4.059  1.00 20.00     0.008 C 
BRANCH   7   8
HETATM    8  C10 UNL     1     -34.785  15.302  -5.220  1.00 20.00    -0.051 C 
HETATM    9  C2  UNL     1     -35.452  16.686  -5.197  1.00 20.00     0.014 C 
HETATM   10  C3  UNL     1     -34.023  15.149  -6.551  1.00 20.00     0.014 C 
HETATM   11  C4  UNL     1     -35.871  14.215  -5.154  1.00 20.00     0.014 C 
ENDBRANCH   7   8
ENDBRANCH   1   7
TORSDOF 5
ENDMDL
MODEL 7
REMARK VINA RESULT:      -3.3     11.600     12.930
REMARK  5 active torsions:
REMARK  status: ('A' for Active; 'I' for Inactive)
REMARK    1  A    between atoms: C5_5  and  C9_9 
REMARK    2  A    between atoms: C6_6  and  C7_7 
REMARK    3  A    between atoms: C6_6  and  C8_8 
REMARK    4  A    between atoms: C7_7  and  C9_9 
REMARK    5  A    between atoms: C8_8  and  C10_10 
ROOT
HETATM    1  C6  UNL     1     -34.247  17.796  -5.204  1.00 20.00     0.002 C 
ENDROOT
BRANCH   1   2
HETATM    2  C7  UNL     1     -33.692  18.420  -3.915  1.00 20.00     0.020 C 
BRANCH   2   3
HETATM    3  C9  UNL     1     -34.404  17.922  -2.649  1.00 20.00     0.082 C 
HETATM    4 CL11 UNL     1     -35.300  19.263  -1.865  1.00 20.00    -0.125 Cl
BRANCH   3   5
HETATM    5  C5  UNL     1     -33.450  17.258  -1.644  1.00 20.00     0.016 C 
HETATM    6  C1  UNL     1     -32.324  18.145  -1.125  1.00 20.00     0.006 C 
ENDBRANCH   3   5
ENDBRANCH   2   3
ENDBRANCH   1   2
BRANCH   1   7
HETATM    7  C8  UNL     1     -35.231  16.662  -4.884  1.00 20.00     0.008 C 
BRANCH   7   8
HETATM    8  C10 UNL     1     -34.775  15.236  -5.299  1.00 20.00    -0.051 C 
HETATM    9  C2  UNL     1     -35.970  14.273  -5.381  1.00 20.00     0.014 C 
HETATM   10  C3  UNL     1     -34.124  15.328  -6.692  1.00 20.00     0.014 C 
HETATM   11  C4  UNL     1     -33.738  14.675  -4.312  1.00 20.00     0.014 C 
ENDBRANCH   7   8
ENDBRANCH   1   7
TORSDOF 5
ENDMDL
MODEL 8
REMARK VINA RESULT:      -3.3      1.834      4.726
REMARK  5 active torsions:
REMARK  status: ('A' for Active; 'I' for Inactive)
REMARK    1  A    between atoms: C5_5  and  C9_9 
REMARK    2  A    between atoms: C6_6  and  C7_7 
REMARK    3  A    between atoms: C6_6  and  C8_8 
REMARK    4  A    between atoms: C7_7  and  C9_9 
REMARK    5  A    between atoms: C8_8  and  C10_10 
ROOT
HETATM    1  C6  UNL     1     -33.423   5.937   2.910  1.00 20.00     0.002 C 
ENDROOT
BRANCH   1   2
HETATM    2  C7  UNL     1     -33.473   4.717   3.841  1.00 20.00     0.020 C 
BRANCH   2   3
HETATM    3  C9  UNL     1     -34.618   4.783   4.862  1.00 20.00     0.082 C 
HETATM    4 CL11 UNL     1     -35.906   5.892   4.290  1.00 20.00    -0.125 Cl
BRANCH   3   5
HETATM    5  C5  UNL     1     -34.147   5.190   6.267  1.00 20.00     0.016 C 
HETATM    6  C1  UNL     1     -34.342   6.659   6.624  1.00 20.00     0.006 C 
ENDBRANCH   3   5
ENDBRANCH   2   3
ENDBRANCH   1   2
BRANCH   1   7
HETATM    7  C8  UNL     1     -32.310   6.905   3.335  1.00 20.00     0.008 C 
BRANCH   7   8
HETATM    8  C10 UNL     1     -32.759   8.361   3.634  1.00 20.00    -0.051 C 
HETATM    9  C2  UNL     1     -31.917   8.982   4.760  1.00 20.00     0.014 C 
HETATM   10  C3  UNL     1     -32.558   9.196   2.355  1.00 20.00     0.014 C 
HETATM   11  C4  UNL     1     -34.245   8.416   4.023  1.00 20.00     0.014 C 
ENDBRANCH   7   8
ENDBRANCH   1   7
TORSDOF 5
ENDMDL
MODEL 9
REMARK VINA RESULT:      -3.2     10.156     11.320
REMARK  5 active torsions:
REMARK  status: ('A' for Active; 'I' for Inactive)
REMARK    1  A    between atoms: C5_5  and  C9_9 
REMARK    2  A    between atoms: C6_6  and  C7_7 
REMARK    3  A    between atoms: C6_6  and  C8_8 
REMARK    4  A    between atoms: C7_7  and  C9_9 
REMARK    5  A    between atoms: C8_8  and  C10_10 
ROOT
HETATM    1  C6  UNL     1     -42.519  13.383   8.093  1.00 20.00     0.002 C 
ENDROOT
BRANCH   1   2
HETATM    2  C7  UNL     1     -42.241  12.552   6.832  1.00 20.00     0.020 C 
BRANCH   2   3
HETATM    3  C9  UNL     1     -40.967  12.987   6.092  1.00 20.00     0.082 C 
HETATM    4 CL11 UNL     1     -41.380  13.744   4.521  1.00 20.00    -0.125 Cl
BRANCH   3   5
HETATM    5  C5  UNL     1     -39.970  11.835   5.886  1.00 20.00     0.016 C 
HETATM    6  C1  UNL     1     -39.304  11.783   4.516  1.00 20.00     0.006 C 
ENDBRANCH   3   5
ENDBRANCH   2   3
ENDBRANCH   1   2
BRANCH   1   7
HETATM    7  C8  UNL     1     -42.427  14.884   7.791  1.00 20.00     0.008 C 
BRANCH   7   8
HETATM    8  C10 UNL     1     -41.311  15.657   8.547  1.00 20.00    -0.051 C 
HETATM    9  C2  UNL     1     -40.561  16.613   7.605  1.00 20.00     0.014 C 
HETATM   10  C3  UNL     1     -41.975  16.489   9.661  1.00 20.00     0.014 C 
HETATM   11  C4  UNL     1     -40.306  14.691   9.194  1.00 20.00     0.014 C 
ENDBRANCH   7   8
ENDBRANCH   1   7
TORSDOF 5
ENDMDL
