MODEL 1
REMARK VINA RESULT:      -5.7      0.000      0.000
REMARK  1 active torsions:
REMARK  status: ('A' for Active; 'I' for Inactive)
REMARK    1  A    between atoms: C4_4  and  C9_9 
ROOT
HETATM    1  C1  UNL     1     -32.354   8.732   4.591  1.00 20.00    -0.003 A 
HETATM    2  C2  UNL     1     -33.347   7.936   5.266  1.00 20.00     0.004 A 
HETATM    3  C3  UNL     1     -31.952   8.101   3.480  1.00 20.00    -0.022 A 
HETATM    4  C4  UNL     1     -33.562   6.808   4.572  1.00 20.00    -0.069 A 
HETATM    5  C5  UNL     1     -32.685   6.796   3.350  1.00 20.00     0.062 A 
ENDROOT
BRANCH   4   6
HETATM    6  C9  UNL     1     -34.510   5.683   4.893  1.00 20.00    -0.028 C 
HETATM    7  C6  UNL     1     -33.955   4.377   4.309  1.00 20.00     0.019 C 
HETATM    8  C7  UNL     1     -35.886   5.980   4.280  1.00 20.00     0.019 C 
HETATM    9  C8  UNL     1     -34.651   5.548   6.417  1.00 20.00     0.019 C 
ENDBRANCH   4   6
TORSDOF 1
ENDMDL
MODEL 2
REMARK VINA RESULT:      -5.7      0.009      1.449
REMARK  1 active torsions:
REMARK  status: ('A' for Active; 'I' for Inactive)
REMARK    1  A    between atoms: C4_4  and  C9_9 
ROOT
HETATM    1  C1  UNL     1     -32.357   8.730   4.594  1.00 20.00    -0.003 A 
HETATM    2  C2  UNL     1     -33.345   7.930   5.271  1.00 20.00     0.004 A 
HETATM    3  C3  UNL     1     -31.961   8.103   3.477  1.00 20.00    -0.022 A 
HETATM    4  C4  UNL     1     -33.564   6.805   4.574  1.00 20.00    -0.069 A 
HETATM    5  C5  UNL     1     -32.694   6.799   3.346  1.00 20.00     0.062 A 
ENDROOT
BRANCH   4   6
HETATM    6  C9  UNL     1     -34.509   5.678   4.896  1.00 20.00    -0.028 C 
HETATM    7  C6  UNL     1     -35.881   5.984   4.283  1.00 20.00     0.019 C 
HETATM    8  C7  UNL     1     -34.643   5.539   6.419  1.00 20.00     0.019 C 
HETATM    9  C8  UNL     1     -33.964   4.366   4.312  1.00 20.00     0.019 C 
ENDBRANCH   4   6
TORSDOF 1
ENDMDL
MODEL 3
REMARK VINA RESULT:      -5.7      0.016      1.449
REMARK  1 active torsions:
REMARK  status: ('A' for Active; 'I' for Inactive)
REMARK    1  A    between atoms: C4_4  and  C9_9 
ROOT
HETATM    1  C1  UNL     1     -32.360   8.721   4.597  1.00 20.00    -0.003 A 
HETATM    2  C2  UNL     1     -33.348   7.922   5.275  1.00 20.00     0.004 A 
HETATM    3  C3  UNL     1     -31.968   8.097   3.478  1.00 20.00    -0.022 A 
HETATM    4  C4  UNL     1     -33.570   6.798   4.576  1.00 20.00    -0.069 A 
HETATM    5  C5  UNL     1     -32.705   6.794   3.345  1.00 20.00     0.062 A 
ENDROOT
BRANCH   4   6
HETATM    6  C9  UNL     1     -34.517   5.673   4.898  1.00 20.00    -0.028 C 
HETATM    7  C6  UNL     1     -34.649   5.550   6.422  1.00 20.00     0.019 C 
HETATM    8  C7  UNL     1     -33.970   4.360   4.319  1.00 20.00     0.019 C 
HETATM    9  C8  UNL     1     -35.893   5.966   4.282  1.00 20.00     0.019 C 
ENDBRANCH   4   6
TORSDOF 1
ENDMDL
MODEL 4
REMARK VINA RESULT:      -4.8      1.044      3.558
REMARK  1 active torsions:
REMARK  status: ('A' for Active; 'I' for Inactive)
REMARK    1  A    between atoms: C4_4  and  C9_9 
ROOT
HETATM    1  C1  UNL     1     -34.656   5.717   6.482  1.00 20.00    -0.003 A 
HETATM    2  C2  UNL     1     -33.951   6.934   6.173  1.00 20.00     0.004 A 
HETATM    3  C3  UNL     1     -34.803   4.987   5.368  1.00 20.00    -0.022 A 
HETATM    4  C4  UNL     1     -33.658   6.960   4.864  1.00 20.00    -0.069 A 
HETATM    5  C5  UNL     1     -34.177   5.709   4.209  1.00 20.00     0.062 A 
ENDROOT
BRANCH   4   6
HETATM    6  C9  UNL     1     -32.930   8.029   4.093  1.00 20.00    -0.028 C 
HETATM    7  C6  UNL     1     -33.957   8.972   3.452  1.00 20.00     0.019 C 
HETATM    8  C7  UNL     1     -32.071   7.380   2.999  1.00 20.00     0.019 C 
HETATM    9  C8  UNL     1     -32.025   8.824   5.046  1.00 20.00     0.019 C 
ENDBRANCH   4   6
TORSDOF 1
ENDMDL
MODEL 5
REMARK VINA RESULT:      -4.8      1.040      3.554
REMARK  1 active torsions:
REMARK  status: ('A' for Active; 'I' for Inactive)
REMARK    1  A    between atoms: C4_4  and  C9_9 
ROOT
HETATM    1  C1  UNL     1     -34.675   5.727   6.425  1.00 20.00    -0.003 A 
HETATM    2  C2  UNL     1     -33.958   6.940   6.127  1.00 20.00     0.004 A 
HETATM    3  C3  UNL     1     -34.822   5.005   5.306  1.00 20.00    -0.022 A 
HETATM    4  C4  UNL     1     -33.658   6.972   4.819  1.00 20.00    -0.069 A 
HETATM    5  C5  UNL     1     -34.183   5.728   4.154  1.00 20.00     0.062 A 
ENDROOT
BRANCH   4   6
HETATM    6  C9  UNL     1     -32.917   8.039   4.059  1.00 20.00    -0.028 C 
HETATM    7  C6  UNL     1     -32.030   8.825   5.034  1.00 20.00     0.019 C 
HETATM    8  C7  UNL     1     -33.923   8.990   3.395  1.00 20.00     0.019 C 
HETATM    9  C8  UNL     1     -32.043   7.388   2.977  1.00 20.00     0.019 C 
ENDBRANCH   4   6
TORSDOF 1
ENDMDL
MODEL 6
REMARK VINA RESULT:      -4.8      1.037      3.550
REMARK  1 active torsions:
REMARK  status: ('A' for Active; 'I' for Inactive)
REMARK    1  A    between atoms: C4_4  and  C9_9 
ROOT
HETATM    1  C1  UNL     1     -34.659   5.719   6.453  1.00 20.00    -0.003 A 
HETATM    2  C2  UNL     1     -33.934   6.926   6.150  1.00 20.00     0.004 A 
HETATM    3  C3  UNL     1     -34.818   4.998   5.334  1.00 20.00    -0.022 A 
HETATM    4  C4  UNL     1     -33.641   6.955   4.841  1.00 20.00    -0.069 A 
HETATM    5  C5  UNL     1     -34.180   5.716   4.179  1.00 20.00     0.062 A 
ENDROOT
BRANCH   4   6
HETATM    6  C9  UNL     1     -32.895   8.017   4.077  1.00 20.00    -0.028 C 
HETATM    7  C6  UNL     1     -32.053   7.348   2.983  1.00 20.00     0.019 C 
HETATM    8  C7  UNL     1     -31.978   8.792   5.034  1.00 20.00     0.019 C 
HETATM    9  C8  UNL     1     -33.897   8.988   3.435  1.00 20.00     0.019 C 
ENDBRANCH   4   6
TORSDOF 1
ENDMDL
MODEL 7
REMARK VINA RESULT:      -4.0     12.288     13.192
REMARK  1 active torsions:
REMARK  status: ('A' for Active; 'I' for Inactive)
REMARK    1  A    between atoms: C4_4  and  C9_9 
ROOT
HETATM    1  C1  UNL     1     -30.926  18.627   0.870  1.00 20.00    -0.003 A 
HETATM    2  C2  UNL     1     -31.266  18.471  -0.521  1.00 20.00     0.004 A 
HETATM    3  C3  UNL     1     -32.044  18.625   1.608  1.00 20.00    -0.022 A 
HETATM    4  C4  UNL     1     -32.598  18.372  -0.647  1.00 20.00    -0.069 A 
HETATM    5  C5  UNL     1     -33.238  18.461   0.711  1.00 20.00     0.062 A 
ENDROOT
BRANCH   4   6
HETATM    6  C9  UNL     1     -33.404  18.197  -1.907  1.00 20.00    -0.028 C 
HETATM    7  C6  UNL     1     -34.839  18.677  -1.655  1.00 20.00     0.019 C 
HETATM    8  C7  UNL     1     -33.418  16.714  -2.306  1.00 20.00     0.019 C 
HETATM    9  C8  UNL     1     -32.775  19.022  -3.039  1.00 20.00     0.019 C 
ENDBRANCH   4   6
TORSDOF 1
ENDMDL
MODEL 8
REMARK VINA RESULT:      -3.9     12.281     13.097
REMARK  1 active torsions:
REMARK  status: ('A' for Active; 'I' for Inactive)
REMARK    1  A    between atoms: C4_4  and  C9_9 
ROOT
HETATM    1  C1  UNL     1     -32.039  18.632   1.701  1.00 20.00    -0.003 A 
HETATM    2  C2  UNL     1     -33.133  18.514   0.774  1.00 20.00     0.004 A 
HETATM    3  C3  UNL     1     -30.878  18.601   1.032  1.00 20.00    -0.022 A 
HETATM    4  C4  UNL     1     -32.653  18.411  -0.475  1.00 20.00    -0.069 A 
HETATM    5  C5  UNL     1     -31.149  18.456  -0.438  1.00 20.00     0.062 A 
ENDROOT
BRANCH   4   6
HETATM    6  C9  UNL     1     -33.422  18.271  -1.761  1.00 20.00    -0.028 C 
HETATM    7  C6  UNL     1     -32.730  19.098  -2.852  1.00 20.00     0.019 C 
HETATM    8  C7  UNL     1     -34.857  18.780  -1.560  1.00 20.00     0.019 C 
HETATM    9  C8  UNL     1     -33.461  16.794  -2.179  1.00 20.00     0.019 C 
ENDBRANCH   4   6
TORSDOF 1
ENDMDL
MODEL 9
REMARK VINA RESULT:      -3.7      8.653      9.705
REMARK  1 active torsions:
REMARK  status: ('A' for Active; 'I' for Inactive)
REMARK    1  A    between atoms: C4_4  and  C9_9 
ROOT
HETATM    1  C1  UNL     1     -39.014  11.927   4.263  1.00 20.00    -0.003 A 
HETATM    2  C2  UNL     1     -40.286  12.539   4.546  1.00 20.00     0.004 A 
HETATM    3  C3  UNL     1     -38.305  11.820   5.396  1.00 20.00    -0.022 A 
HETATM    4  C4  UNL     1     -40.369  12.813   5.857  1.00 20.00    -0.069 A 
HETATM    5  C5  UNL     1     -39.101  12.379   6.540  1.00 20.00     0.062 A 
ENDROOT
BRANCH   4   6
HETATM    6  C9  UNL     1     -41.510  13.449   6.605  1.00 20.00    -0.028 C 
HETATM    7  C6  UNL     1     -40.969  14.101   7.885  1.00 20.00     0.019 C 
HETATM    8  C7  UNL     1     -42.548  12.378   6.969  1.00 20.00     0.019 C 
HETATM    9  C8  UNL     1     -42.171  14.518   5.722  1.00 20.00     0.019 C 
ENDBRANCH   4   6
TORSDOF 1
ENDMDL
