MODEL 1
REMARK VINA RESULT:      -3.8      0.000      0.000
REMARK  2 active torsions:
REMARK  status: ('A' for Active; 'I' for Inactive)
REMARK    1  A    between atoms: C3_3  and  C10_10 
REMARK    2  A    between atoms: C4_4  and  C10_10 
ROOT
HETATM    1  C5  UNL     1     -32.371  18.865   0.764  1.00 20.00     0.000 C 
HETATM    2  C6  UNL     1     -33.736  18.192   0.666  1.00 20.00     0.001 C 
HETATM    3  C7  UNL     1     -31.492  18.521  -0.432  1.00 20.00     0.001 C 
HETATM    4  C8  UNL     1     -34.440  18.535  -0.646  1.00 20.00     0.017 C 
HETATM    5  C9  UNL     1     -32.177  18.862  -1.756  1.00 20.00     0.017 C 
HETATM    6  C10 UNL     1     -33.578  18.239  -1.886  1.00 20.00    -0.006 C 
ENDROOT
BRANCH   6   7
HETATM    7  C3  UNL     1     -33.461  16.747  -2.082  1.00 20.00    -0.023 C 
HETATM    8  C1  UNL     1     -33.377  16.153  -3.276  1.00 20.00     0.008 C 
ENDBRANCH   6   7
BRANCH   6   9
HETATM    9  C4  UNL     1     -34.236  18.856  -3.092  1.00 20.00    -0.023 C 
HETATM   10  C2  UNL     1     -35.510  19.263  -3.125  1.00 20.00     0.008 C 
ENDBRANCH   6   9
TORSDOF 2
ENDMDL
MODEL 2
REMARK VINA RESULT:      -3.6     12.157     13.201
REMARK  2 active torsions:
REMARK  status: ('A' for Active; 'I' for Inactive)
REMARK    1  A    between atoms: C3_3  and  C10_10 
REMARK    2  A    between atoms: C4_4  and  C10_10 
ROOT
HETATM    1  C5  UNL     1     -34.836   5.450   6.494  1.00 20.00     0.000 C 
HETATM    2  C6  UNL     1     -35.207   5.217   5.033  1.00 20.00     0.001 C 
HETATM    3  C7  UNL     1     -33.423   6.004   6.628  1.00 20.00     0.001 C 
HETATM    4  C8  UNL     1     -35.036   6.486   4.199  1.00 20.00     0.017 C 
HETATM    5  C9  UNL     1     -33.232   7.278   5.806  1.00 20.00     0.017 C 
HETATM    6  C10 UNL     1     -33.634   7.107   4.330  1.00 20.00    -0.006 C 
ENDROOT
BRANCH   6   7
HETATM    7  C3  UNL     1     -32.624   6.238   3.620  1.00 20.00    -0.023 C 
HETATM    8  C1  UNL     1     -32.916   5.444   2.584  1.00 20.00     0.008 C 
ENDBRANCH   6   7
BRANCH   6   9
HETATM    9  C4  UNL     1     -33.650   8.477   3.704  1.00 20.00    -0.023 C 
HETATM   10  C2  UNL     1     -32.557   9.121   3.281  1.00 20.00     0.008 C 
ENDBRANCH   6   9
TORSDOF 2
ENDMDL
MODEL 3
REMARK VINA RESULT:      -3.5     11.276     12.726
REMARK  2 active torsions:
REMARK  status: ('A' for Active; 'I' for Inactive)
REMARK    1  A    between atoms: C3_3  and  C10_10 
REMARK    2  A    between atoms: C4_4  and  C10_10 
ROOT
HETATM    1  C5  UNL     1     -42.324  13.710   9.047  1.00 20.00     0.000 C 
HETATM    2  C6  UNL     1     -41.317  14.707   8.484  1.00 20.00     0.001 C 
HETATM    3  C7  UNL     1     -43.209  13.132   7.949  1.00 20.00     0.001 C 
HETATM    4  C8  UNL     1     -40.471  14.086   7.372  1.00 20.00     0.017 C 
HETATM    5  C9  UNL     1     -42.382  12.500   6.829  1.00 20.00     0.017 C 
HETATM    6  C10 UNL     1     -41.320  13.454   6.254  1.00 20.00    -0.006 C 
ENDROOT
BRANCH   6   7
HETATM    7  C3  UNL     1     -41.987  14.539   5.445  1.00 20.00    -0.023 C 
HETATM    8  C1  UNL     1     -42.319  14.414   4.156  1.00 20.00     0.008 C 
ENDBRANCH   6   7
BRANCH   6   9
HETATM    9  C4  UNL     1     -40.418  12.640   5.363  1.00 20.00    -0.023 C 
HETATM   10  C2  UNL     1     -39.407  11.887   5.808  1.00 20.00     0.008 C 
ENDBRANCH   6   9
TORSDOF 2
ENDMDL
MODEL 4
REMARK VINA RESULT:      -3.5     11.087     12.314
REMARK  2 active torsions:
REMARK  status: ('A' for Active; 'I' for Inactive)
REMARK    1  A    between atoms: C3_3  and  C10_10 
REMARK    2  A    between atoms: C4_4  and  C10_10 
ROOT
HETATM    1  C5  UNL     1     -42.079  14.026   8.844  1.00 20.00     0.000 C 
HETATM    2  C6  UNL     1     -42.768  12.884   8.104  1.00 20.00     0.001 C 
HETATM    3  C7  UNL     1     -40.667  14.258   8.320  1.00 20.00     0.001 C 
HETATM    4  C8  UNL     1     -42.776  13.115   6.593  1.00 20.00     0.017 C 
HETATM    5  C9  UNL     1     -40.654  14.497   6.810  1.00 20.00     0.017 C 
HETATM    6  C10 UNL     1     -41.374  13.390   6.020  1.00 20.00    -0.006 C 
ENDROOT
BRANCH   6   7
HETATM    7  C3  UNL     1     -40.555  12.123   6.045  1.00 20.00    -0.023 C 
HETATM    8  C1  UNL     1     -39.426  11.947   5.351  1.00 20.00     0.008 C 
ENDBRANCH   6   7
BRANCH   6   9
HETATM    9  C4  UNL     1     -41.518  13.871   4.599  1.00 20.00    -0.023 C 
HETATM   10  C2  UNL     1     -42.515  14.651   4.169  1.00 20.00     0.008 C 
ENDBRANCH   6   9
TORSDOF 2
ENDMDL
MODEL 5
REMARK VINA RESULT:      -3.4     12.105     13.364
REMARK  2 active torsions:
REMARK  status: ('A' for Active; 'I' for Inactive)
REMARK    1  A    between atoms: C3_3  and  C10_10 
REMARK    2  A    between atoms: C4_4  and  C10_10 
ROOT
HETATM    1  C5  UNL     1     -31.960   7.284   2.803  1.00 20.00     0.000 C 
HETATM    2  C6  UNL     1     -32.884   6.073   2.715  1.00 20.00     0.001 C 
HETATM    3  C7  UNL     1     -32.616   8.431   3.562  1.00 20.00     0.001 C 
HETATM    4  C8  UNL     1     -33.349   5.618   4.098  1.00 20.00     0.017 C 
HETATM    5  C9  UNL     1     -33.084   7.997   4.952  1.00 20.00     0.017 C 
HETATM    6  C10 UNL     1     -33.987   6.751   4.921  1.00 20.00    -0.006 C 
ENDROOT
BRANCH   6   7
HETATM    7  C3  UNL     1     -35.333   7.107   4.340  1.00 20.00    -0.023 C 
HETATM    8  C1  UNL     1     -36.232   6.207   3.927  1.00 20.00     0.008 C 
ENDBRANCH   6   7
BRANCH   6   9
HETATM    9  C4  UNL     1     -34.157   6.282   6.342  1.00 20.00    -0.023 C 
HETATM   10  C2  UNL     1     -34.474   5.028   6.684  1.00 20.00     0.008 C 
ENDBRANCH   6   9
TORSDOF 2
ENDMDL
MODEL 6
REMARK VINA RESULT:      -3.4     11.530     12.655
REMARK  2 active torsions:
REMARK  status: ('A' for Active; 'I' for Inactive)
REMARK    1  A    between atoms: C3_3  and  C10_10 
REMARK    2  A    between atoms: C4_4  and  C10_10 
ROOT
HETATM    1  C5  UNL     1     -41.573  16.322   6.752  1.00 20.00     0.000 C 
HETATM    2  C6  UNL     1     -42.617  15.530   5.973  1.00 20.00     0.001 C 
HETATM    3  C7  UNL     1     -41.026  15.519   7.926  1.00 20.00     0.001 C 
HETATM    4  C8  UNL     1     -42.068  14.183   5.504  1.00 20.00     0.017 C 
HETATM    5  C9  UNL     1     -40.466  14.169   7.477  1.00 20.00     0.017 C 
HETATM    6  C10 UNL     1     -41.469  13.347   6.650  1.00 20.00    -0.006 C 
ENDROOT
BRANCH   6   7
HETATM    7  C3  UNL     1     -42.575  12.837   7.540  1.00 20.00    -0.023 C 
HETATM    8  C1  UNL     1     -43.417  11.856   7.201  1.00 20.00     0.008 C 
ENDBRANCH   6   7
BRANCH   6   9
HETATM    9  C4  UNL     1     -40.719  12.182   6.058  1.00 20.00    -0.023 C 
HETATM   10  C2  UNL     1     -39.385  12.088   6.027  1.00 20.00     0.008 C 
ENDBRANCH   6   9
TORSDOF 2
ENDMDL
MODEL 7
REMARK VINA RESULT:      -3.4      3.055      4.794
REMARK  2 active torsions:
REMARK  status: ('A' for Active; 'I' for Inactive)
REMARK    1  A    between atoms: C3_3  and  C10_10 
REMARK    2  A    between atoms: C4_4  and  C10_10 
ROOT
HETATM    1  C5  UNL     1     -33.294  16.259  -3.182  1.00 20.00     0.000 C 
HETATM    2  C6  UNL     1     -33.195  15.094  -4.161  1.00 20.00     0.001 C 
HETATM    3  C7  UNL     1     -33.842  17.510  -3.858  1.00 20.00     0.001 C 
HETATM    4  C8  UNL     1     -34.537  14.808  -4.835  1.00 20.00     0.017 C 
HETATM    5  C9  UNL     1     -35.188  17.246  -4.533  1.00 20.00     0.017 C 
HETATM    6  C10 UNL     1     -35.151  16.051  -5.502  1.00 20.00    -0.006 C 
ENDROOT
BRANCH   6   7
HETATM    7  C3  UNL     1     -34.358  16.412  -6.734  1.00 20.00    -0.023 C 
HETATM    8  C1  UNL     1     -34.029  15.541  -7.695  1.00 20.00     0.008 C 
ENDBRANCH   6   7
BRANCH   6   9
HETATM    9  C4  UNL     1     -36.573  15.740  -5.890  1.00 20.00    -0.023 C 
HETATM   10  C2  UNL     1     -37.643  16.347  -5.364  1.00 20.00     0.008 C 
ENDBRANCH   6   9
TORSDOF 2
ENDMDL
MODEL 8
REMARK VINA RESULT:      -3.3     14.183     15.505
REMARK  2 active torsions:
REMARK  status: ('A' for Active; 'I' for Inactive)
REMARK    1  A    between atoms: C3_3  and  C10_10 
REMARK    2  A    between atoms: C4_4  and  C10_10 
ROOT
HETATM    1  C5  UNL     1     -41.270   8.012  -0.094  1.00 20.00     0.000 C 
HETATM    2  C6  UNL     1     -42.683   7.843   0.454  1.00 20.00     0.001 C 
HETATM    3  C7  UNL     1     -40.466   6.723   0.028  1.00 20.00     0.001 C 
HETATM    4  C8  UNL     1     -43.412   6.678  -0.217  1.00 20.00     0.017 C 
HETATM    5  C9  UNL     1     -41.176   5.546  -0.642  1.00 20.00     0.017 C 
HETATM    6  C10 UNL     1     -42.623   5.358  -0.152  1.00 20.00    -0.006 C 
ENDROOT
BRANCH   6   7
HETATM    7  C3  UNL     1     -42.623   4.834   1.263  1.00 20.00    -0.023 C 
HETATM    8  C1  UNL     1     -43.386   5.326   2.244  1.00 20.00     0.008 C 
ENDBRANCH   6   7
BRANCH   6   9
HETATM    9  C4  UNL     1     -43.281   4.356  -1.063  1.00 20.00    -0.023 C 
HETATM   10  C2  UNL     1     -42.806   4.009  -2.264  1.00 20.00     0.008 C 
ENDBRANCH   6   9
TORSDOF 2
ENDMDL
MODEL 9
REMARK VINA RESULT:      -3.3     10.784     12.175
REMARK  2 active torsions:
REMARK  status: ('A' for Active; 'I' for Inactive)
REMARK    1  A    between atoms: C3_3  and  C10_10 
REMARK    2  A    between atoms: C4_4  and  C10_10 
ROOT
HETATM    1  C5  UNL     1     -38.689  12.145   5.479  1.00 20.00     0.000 C 
HETATM    2  C6  UNL     1     -39.103  12.226   6.944  1.00 20.00     0.001 C 
HETATM    3  C7  UNL     1     -39.903  12.079   4.560  1.00 20.00     0.001 C 
HETATM    4  C8  UNL     1     -40.047  13.400   7.200  1.00 20.00     0.017 C 
HETATM    5  C9  UNL     1     -40.858  13.249   4.796  1.00 20.00     0.017 C 
HETATM    6  C10 UNL     1     -41.273  13.398   6.270  1.00 20.00    -0.006 C 
ENDROOT
BRANCH   6   7
HETATM    7  C3  UNL     1     -42.205  12.277   6.658  1.00 20.00    -0.023 C 
HETATM    8  C1  UNL     1     -43.350  12.453   7.327  1.00 20.00     0.008 C 
ENDBRANCH   6   7
BRANCH   6   9
HETATM    9  C4  UNL     1     -41.986  14.719   6.406  1.00 20.00    -0.023 C 
HETATM   10  C2  UNL     1     -41.459  15.798   6.994  1.00 20.00     0.008 C 
ENDBRANCH   6   9
TORSDOF 2
ENDMDL
