MODEL 1
REMARK VINA RESULT:      -5.3      0.000      0.000
REMARK  0 active torsions:
REMARK  status: ('A' for Active; 'I' for Inactive)
ROOT
HETATM    1  C1  UNL     1     -33.238   8.130   5.464  1.00 20.00     0.009 A 
HETATM    2  C2  UNL     1     -32.668   8.489   4.240  1.00 20.00     0.019 A 
HETATM    3  C3  UNL     1     -33.333   6.363   3.250  1.00 20.00     0.026 A 
HETATM    4  C4  UNL     1     -33.837   6.895   5.541  1.00 20.00    -0.051 A 
HETATM    5  C5  UNL     1     -33.883   6.038   4.467  1.00 20.00    -0.050 A 
HETATM    6  C6  UNL     1     -32.716   7.612   3.140  1.00 20.00     0.011 A 
HETATM    7  C7  UNL     1     -34.573   5.952   6.446  1.00 20.00     0.043 A 
HETATM    8  C8  UNL     1     -34.624   4.977   5.223  1.00 20.00     0.043 A 
HETATM    9 BR9  UNL     1     -31.936   8.132   1.496  1.00 20.00    -0.051 Br
ENDROOT
TORSDOF 0
ENDMDL
MODEL 2
REMARK VINA RESULT:      -5.2      0.769      1.985
REMARK  0 active torsions:
REMARK  status: ('A' for Active; 'I' for Inactive)
ROOT
HETATM    1  C1  UNL     1     -33.770   4.982   3.769  1.00 20.00     0.009 A 
HETATM    2  C2  UNL     1     -33.134   5.745   2.787  1.00 20.00     0.019 A 
HETATM    3  C3  UNL     1     -33.122   7.701   4.242  1.00 20.00     0.026 A 
HETATM    4  C4  UNL     1     -34.062   5.606   4.959  1.00 20.00    -0.051 A 
HETATM    5  C5  UNL     1     -33.747   6.925   5.188  1.00 20.00    -0.050 A 
HETATM    6  C6  UNL     1     -32.812   7.096   3.021  1.00 20.00     0.011 A 
HETATM    7  C7  UNL     1     -34.673   5.417   6.316  1.00 20.00     0.043 A 
HETATM    8  C8  UNL     1     -34.315   6.918   6.576  1.00 20.00     0.043 A 
HETATM    9 BR9  UNL     1     -31.949   8.098   1.669  1.00 20.00    -0.051 Br
ENDROOT
TORSDOF 0
ENDMDL
MODEL 3
REMARK VINA RESULT:      -4.4      2.341      4.087
REMARK  0 active torsions:
REMARK  status: ('A' for Active; 'I' for Inactive)
ROOT
HETATM    1  C1  UNL     1     -32.993   5.573   2.714  1.00 20.00     0.009 A 
HETATM    2  C2  UNL     1     -33.639   5.132   3.871  1.00 20.00     0.019 A 
HETATM    3  C3  UNL     1     -33.573   7.375   4.823  1.00 20.00     0.026 A 
HETATM    4  C4  UNL     1     -32.658   6.905   2.649  1.00 20.00    -0.051 A 
HETATM    5  C5  UNL     1     -32.939   7.779   3.672  1.00 20.00    -0.050 A 
HETATM    6  C6  UNL     1     -33.927   6.027   4.919  1.00 20.00     0.011 A 
HETATM    7  C7  UNL     1     -32.016   7.959   1.797  1.00 20.00     0.043 A 
HETATM    8  C8  UNL     1     -32.335   8.953   2.962  1.00 20.00     0.043 A 
HETATM    9 BR9  UNL     1     -34.804   5.396   6.472  1.00 20.00    -0.051 Br
ENDROOT
TORSDOF 0
ENDMDL
MODEL 4
REMARK VINA RESULT:      -4.3      1.594      2.848
REMARK  0 active torsions:
REMARK  status: ('A' for Active; 'I' for Inactive)
ROOT
HETATM    1  C1  UNL     1     -34.517   6.186   5.202  1.00 20.00     0.009 A 
HETATM    2  C2  UNL     1     -34.258   5.265   4.185  1.00 20.00     0.019 A 
HETATM    3  C3  UNL     1     -32.560   6.727   3.225  1.00 20.00     0.026 A 
HETATM    4  C4  UNL     1     -33.788   7.351   5.197  1.00 20.00    -0.051 A 
HETATM    5  C5  UNL     1     -32.838   7.614   4.238  1.00 20.00    -0.050 A 
HETATM    6  C6  UNL     1     -33.286   5.533   3.202  1.00 20.00     0.011 A 
HETATM    7  C7  UNL     1     -33.562   8.651   5.911  1.00 20.00     0.043 A 
HETATM    8  C8  UNL     1     -32.483   8.949   4.818  1.00 20.00     0.043 A 
HETATM    9 BR9  UNL     1     -32.959   4.262   1.840  1.00 20.00    -0.051 Br
ENDROOT
TORSDOF 0
ENDMDL
MODEL 5
REMARK VINA RESULT:      -4.2      1.378      2.233
REMARK  0 active torsions:
REMARK  status: ('A' for Active; 'I' for Inactive)
ROOT
HETATM    1  C1  UNL     1     -32.943   6.211   3.222  1.00 20.00     0.009 A 
HETATM    2  C2  UNL     1     -32.380   7.473   3.429  1.00 20.00     0.019 A 
HETATM    3  C3  UNL     1     -33.486   7.665   5.594  1.00 20.00     0.026 A 
HETATM    4  C4  UNL     1     -33.761   5.717   4.210  1.00 20.00    -0.051 A 
HETATM    5  C5  UNL     1     -34.025   6.422   5.360  1.00 20.00    -0.050 A 
HETATM    6  C6  UNL     1     -32.650   8.195   4.608  1.00 20.00     0.011 A 
HETATM    7  C7  UNL     1     -34.614   4.552   4.616  1.00 20.00     0.043 A 
HETATM    8  C8  UNL     1     -34.914   5.355   5.924  1.00 20.00     0.043 A 
HETATM    9 BR9  UNL     1     -31.870   9.901   4.857  1.00 20.00    -0.051 Br
ENDROOT
TORSDOF 0
ENDMDL
MODEL 6
REMARK VINA RESULT:      -4.1      1.492      1.978
REMARK  0 active torsions:
REMARK  status: ('A' for Active; 'I' for Inactive)
ROOT
HETATM    1  C1  UNL     1     -32.734   7.751   4.196  1.00 20.00     0.009 A 
HETATM    2  C2  UNL     1     -32.563   6.877   3.120  1.00 20.00     0.019 A 
HETATM    3  C3  UNL     1     -33.972   5.201   4.194  1.00 20.00     0.026 A 
HETATM    4  C4  UNL     1     -33.520   7.321   5.239  1.00 20.00    -0.051 A 
HETATM    5  C5  UNL     1     -34.120   6.084   5.238  1.00 20.00    -0.050 A 
HETATM    6  C6  UNL     1     -33.178   5.610   3.119  1.00 20.00     0.011 A 
HETATM    7  C7  UNL     1     -34.079   7.697   6.579  1.00 20.00     0.043 A 
HETATM    8  C8  UNL     1     -34.762   6.288   6.577  1.00 20.00     0.043 A 
HETATM    9 BR9  UNL     1     -32.927   4.451   1.645  1.00 20.00    -0.051 Br
ENDROOT
TORSDOF 0
ENDMDL
MODEL 7
REMARK VINA RESULT:      -4.0     12.008     12.518
REMARK  0 active torsions:
REMARK  status: ('A' for Active; 'I' for Inactive)
ROOT
HETATM    1  C1  UNL     1     -33.871  18.245   0.765  1.00 20.00     0.009 A 
HETATM    2  C2  UNL     1     -34.036  17.786  -0.544  1.00 20.00     0.019 A 
HETATM    3  C3  UNL     1     -31.696  18.244  -1.053  1.00 20.00     0.026 A 
HETATM    4  C4  UNL     1     -32.620  18.691   1.123  1.00 20.00    -0.051 A 
HETATM    5  C5  UNL     1     -31.566  18.690   0.241  1.00 20.00    -0.050 A 
HETATM    6  C6  UNL     1     -32.956  17.785  -1.447  1.00 20.00     0.011 A 
HETATM    7  C7  UNL     1     -31.806  19.263   2.245  1.00 20.00     0.043 A 
HETATM    8  C8  UNL     1     -30.606  19.263   1.240  1.00 20.00     0.043 A 
HETATM    9 BR9  UNL     1     -33.214  17.154  -3.212  1.00 20.00    -0.051 Br
ENDROOT
TORSDOF 0
ENDMDL
MODEL 8
REMARK VINA RESULT:      -4.0      2.312      3.587
REMARK  0 active torsions:
REMARK  status: ('A' for Active; 'I' for Inactive)
ROOT
HETATM    1  C1  UNL     1     -33.224   8.673   5.109  1.00 20.00     0.009 A 
HETATM    2  C2  UNL     1     -33.822   7.658   5.861  1.00 20.00     0.019 A 
HETATM    3  C3  UNL     1     -33.514   6.063   4.043  1.00 20.00     0.026 A 
HETATM    4  C4  UNL     1     -32.790   8.348   3.846  1.00 20.00    -0.051 A 
HETATM    5  C5  UNL     1     -32.931   7.082   3.329  1.00 20.00    -0.050 A 
HETATM    6  C6  UNL     1     -33.966   6.361   5.331  1.00 20.00     0.011 A 
HETATM    7  C7  UNL     1     -32.127   8.882   2.611  1.00 20.00     0.043 A 
HETATM    8  C8  UNL     1     -32.288   7.441   2.023  1.00 20.00     0.043 A 
HETATM    9 BR9  UNL     1     -34.778   5.010   6.377  1.00 20.00    -0.051 Br
ENDROOT
TORSDOF 0
ENDMDL
MODEL 9
REMARK VINA RESULT:      -3.9     12.535     12.706
REMARK  0 active torsions:
REMARK  status: ('A' for Active; 'I' for Inactive)
ROOT
HETATM    1  C1  UNL     1     -33.774  18.817   0.910  1.00 20.00     0.009 A 
HETATM    2  C2  UNL     1     -32.649  19.081   1.694  1.00 20.00     0.019 A 
HETATM    3  C3  UNL     1     -31.165  18.435  -0.129  1.00 20.00     0.026 A 
HETATM    4  C4  UNL     1     -33.557  18.369  -0.372  1.00 20.00    -0.051 A 
HETATM    5  C5  UNL     1     -32.291  18.184  -0.876  1.00 20.00    -0.050 A 
HETATM    6  C6  UNL     1     -31.352  18.891   1.178  1.00 20.00     0.011 A 
HETATM    7  C7  UNL     1     -34.229  17.934  -1.640  1.00 20.00     0.043 A 
HETATM    8  C8  UNL     1     -32.788  17.722  -2.213  1.00 20.00     0.043 A 
HETATM    9 BR9  UNL     1     -29.850  19.260   2.267  1.00 20.00    -0.051 Br
ENDROOT
TORSDOF 0
ENDMDL
