MODEL 1
REMARK VINA RESULT:      -3.9      0.000      0.000
REMARK  0 active torsions:
REMARK  status: ('A' for Active; 'I' for Inactive)
ROOT
HETATM    1  C1  UNL     1     -22.290  17.394   8.828  1.00 20.00     0.119 C 
HETATM    2  C2  UNL     1     -24.266  18.031  10.192  1.00 20.00     0.063 A 
HETATM    3  C3  UNL     1     -23.167  18.585  12.020  1.00 20.00     0.137 A 
HETATM    4  C4  UNL     1     -22.909  17.865  10.028  1.00 20.00     0.137 A 
HETATM    5  C5  UNL     1     -24.433  18.499  11.486  1.00 20.00     0.031 A 
HETATM    6  N6  UNL     1     -21.789  17.011   7.854  1.00 20.00    -0.190 NA
HETATM    7  N7  UNL     1     -22.240  18.201  11.136  1.00 20.00    -0.249 NA
HETATM    8 BR8  UNL     1     -26.053  18.924  12.332  1.00 20.00    -0.050 Br
ENDROOT
TORSDOF 0
ENDMDL
MODEL 2
REMARK VINA RESULT:      -3.5     12.372     13.186
REMARK  0 active torsions:
REMARK  status: ('A' for Active; 'I' for Inactive)
ROOT
HETATM    1  C1  UNL     1     -30.205  18.633   2.151  1.00 20.00     0.119 C 
HETATM    2  C2  UNL     1     -32.450  18.888   1.121  1.00 20.00     0.063 A 
HETATM    3  C3  UNL     1     -31.806  18.725  -0.980  1.00 20.00     0.137 A 
HETATM    4  C4  UNL     1     -31.089  18.706   1.030  1.00 20.00     0.137 A 
HETATM    5  C5  UNL     1     -32.915  18.901  -0.185  1.00 20.00     0.031 A 
HETATM    6  N6  UNL     1     -29.488  18.573   3.062  1.00 20.00    -0.190 NA
HETATM    7  N7  UNL     1     -30.695  18.607  -0.244  1.00 20.00    -0.249 NA
HETATM    8 BR8  UNL     1     -34.693  19.115  -0.748  1.00 20.00    -0.050 Br
ENDROOT
TORSDOF 0
ENDMDL
MODEL 3
REMARK VINA RESULT:      -3.5     10.007     10.667
REMARK  0 active torsions:
REMARK  status: ('A' for Active; 'I' for Inactive)
ROOT
HETATM    1  C1  UNL     1     -30.784  18.907   0.701  1.00 20.00     0.119 C 
HETATM    2  C2  UNL     1     -29.299  19.051   2.686  1.00 20.00     0.063 A 
HETATM    3  C3  UNL     1     -30.889  19.194   4.205  1.00 20.00     0.137 A 
HETATM    4  C4  UNL     1     -30.547  19.019   2.106  1.00 20.00     0.137 A 
HETATM    5  C5  UNL     1     -29.522  19.165   4.049  1.00 20.00     0.031 A 
HETATM    6  N6  UNL     1     -30.976  18.816  -0.440  1.00 20.00    -0.190 NA
HETATM    7  N7  UNL     1     -31.514  19.105   3.026  1.00 20.00    -0.249 NA
HETATM    8 BR8  UNL     1     -28.223  19.262   5.401  1.00 20.00    -0.050 Br
ENDROOT
TORSDOF 0
ENDMDL
MODEL 4
REMARK VINA RESULT:      -3.4     15.241     15.815
REMARK  0 active torsions:
REMARK  status: ('A' for Active; 'I' for Inactive)
ROOT
HETATM    1  C1  UNL     1     -32.220   8.003   1.965  1.00 20.00     0.119 C 
HETATM    2  C2  UNL     1     -33.394   6.669   3.700  1.00 20.00     0.063 A 
HETATM    3  C3  UNL     1     -33.032   8.039   5.387  1.00 20.00     0.137 A 
HETATM    4  C4  UNL     1     -32.675   7.773   3.300  1.00 20.00     0.137 A 
HETATM    5  C5  UNL     1     -33.626   6.843   5.055  1.00 20.00     0.031 A 
HETATM    6  N6  UNL     1     -31.851   8.189   0.880  1.00 20.00    -0.190 NA
HETATM    7  N7  UNL     1     -32.454   8.607   4.322  1.00 20.00    -0.249 NA
HETATM    8 BR8  UNL     1     -34.556   5.681   6.199  1.00 20.00    -0.050 Br
ENDROOT
TORSDOF 0
ENDMDL
MODEL 5
REMARK VINA RESULT:      -3.4      9.170      9.823
REMARK  0 active torsions:
REMARK  status: ('A' for Active; 'I' for Inactive)
ROOT
HETATM    1  C1  UNL     1     -27.768  18.702   4.320  1.00 20.00     0.119 C 
HETATM    2  C2  UNL     1     -29.545  18.586   2.590  1.00 20.00     0.063 A 
HETATM    3  C3  UNL     1     -31.211  19.263   3.864  1.00 20.00     0.137 A 
HETATM    4  C4  UNL     1     -29.117  18.849   3.871  1.00 20.00     0.137 A 
HETATM    5  C5  UNL     1     -30.905  18.855   2.586  1.00 20.00     0.031 A 
HETATM    6  N6  UNL     1     -26.672  18.583   4.684  1.00 20.00    -0.190 NA
HETATM    7  N7  UNL     1     -30.126  19.260   4.647  1.00 20.00    -0.249 NA
HETATM    8 BR8  UNL     1     -32.083  18.694   1.134  1.00 20.00    -0.050 Br
ENDROOT
TORSDOF 0
ENDMDL
MODEL 6
REMARK VINA RESULT:      -3.4     16.383     17.054
REMARK  0 active torsions:
REMARK  status: ('A' for Active; 'I' for Inactive)
ROOT
HETATM    1  C1  UNL     1     -33.922  15.116  -3.862  1.00 20.00     0.119 C 
HETATM    2  C2  UNL     1     -33.165  16.797  -2.197  1.00 20.00     0.063 A 
HETATM    3  C3  UNL     1     -33.257  18.553  -3.524  1.00 20.00     0.137 A 
HETATM    4  C4  UNL     1     -33.587  16.446  -3.460  1.00 20.00     0.137 A 
HETATM    5  C5  UNL     1     -32.951  18.165  -2.239  1.00 20.00     0.031 A 
HETATM    6  N6  UNL     1     -34.194  14.035  -4.187  1.00 20.00    -0.190 NA
HETATM    7  N7  UNL     1     -33.644  17.511  -4.267  1.00 20.00    -0.249 NA
HETATM    8 BR8  UNL     1     -32.363  19.259  -0.832  1.00 20.00    -0.050 Br
ENDROOT
TORSDOF 0
ENDMDL
MODEL 7
REMARK VINA RESULT:      -3.3     18.224     18.977
REMARK  0 active torsions:
REMARK  status: ('A' for Active; 'I' for Inactive)
ROOT
HETATM    1  C1  UNL     1     -35.352  14.918  -6.137  1.00 20.00     0.119 C 
HETATM    2  C2  UNL     1     -34.506  16.949  -4.984  1.00 20.00     0.063 A 
HETATM    3  C3  UNL     1     -33.288  15.913  -3.468  1.00 20.00     0.137 A 
HETATM    4  C4  UNL     1     -34.583  15.582  -5.132  1.00 20.00     0.137 A 
HETATM    5  C5  UNL     1     -33.665  17.164  -3.903  1.00 20.00     0.031 A 
HETATM    6  N6  UNL     1     -35.977  14.380  -6.953  1.00 20.00    -0.190 NA
HETATM    7  N7  UNL     1     -33.844  14.951  -4.213  1.00 20.00    -0.249 NA
HETATM    8 BR8  UNL     1     -33.151  18.819  -3.184  1.00 20.00    -0.050 Br
ENDROOT
TORSDOF 0
ENDMDL
MODEL 8
REMARK VINA RESULT:      -3.3     13.268     14.012
REMARK  0 active torsions:
REMARK  status: ('A' for Active; 'I' for Inactive)
ROOT
HETATM    1  C1  UNL     1     -30.614  18.953   1.344  1.00 20.00     0.119 C 
HETATM    2  C2  UNL     1     -31.678  18.192  -0.768  1.00 20.00     0.063 A 
HETATM    3  C3  UNL     1     -33.751  18.137  -0.023  1.00 20.00     0.137 A 
HETATM    4  C4  UNL     1     -31.743  18.572   0.554  1.00 20.00     0.137 A 
HETATM    5  C5  UNL     1     -32.983  17.910  -1.142  1.00 20.00     0.031 A 
HETATM    6  N6  UNL     1     -29.697  19.262   1.984  1.00 20.00    -0.190 NA
HETATM    7  N7  UNL     1     -33.001  18.540   1.009  1.00 20.00    -0.249 NA
HETATM    8 BR8  UNL     1     -33.574  17.334  -2.828  1.00 20.00    -0.050 Br
ENDROOT
TORSDOF 0
ENDMDL
MODEL 9
REMARK VINA RESULT:      -3.3     12.519     13.252
REMARK  0 active torsions:
REMARK  status: ('A' for Active; 'I' for Inactive)
ROOT
HETATM    1  C1  UNL     1     -32.737  18.083  -1.329  1.00 20.00     0.119 C 
HETATM    2  C2  UNL     1     -32.529  18.551   1.101  1.00 20.00     0.063 A 
HETATM    3  C3  UNL     1     -30.400  19.119   1.087  1.00 20.00     0.137 A 
HETATM    4  C4  UNL     1     -32.002  18.477  -0.169  1.00 20.00     0.137 A 
HETATM    5  C5  UNL     1     -31.489  18.967   1.916  1.00 20.00     0.031 A 
HETATM    6  N6  UNL     1     -33.335  17.763  -2.271  1.00 20.00    -0.190 NA
HETATM    7  N7  UNL     1     -30.710  18.822  -0.180  1.00 20.00    -0.249 NA
HETATM    8 BR8  UNL     1     -31.554  19.261   3.769  1.00 20.00    -0.050 Br
ENDROOT
TORSDOF 0
ENDMDL
