MODEL 1
REMARK VINA RESULT:      -4.3      0.000      0.000
REMARK  0 active torsions:
REMARK  status: ('A' for Active; 'I' for Inactive)
ROOT
HETATM    1  C1  UNL     1     -33.807   7.243   6.306  1.00 20.00     0.036 A 
HETATM    2  C2  UNL     1     -34.562   6.201   5.948  1.00 20.00     0.007 A 
HETATM    3  C3  UNL     1     -33.025   7.771   5.180  1.00 20.00     0.086 A 
HETATM    4  C4  UNL     1     -34.511   5.747   4.528  1.00 20.00     0.172 A 
HETATM    5  N5  UNL     1     -32.207   8.761   5.218  1.00 20.00    -0.293 NA
HETATM    6  S6  UNL     1     -33.340   6.871   3.713  1.00 20.00    -0.086 SA
HETATM    7 CL7  UNL     1     -33.955   4.067   4.432  1.00 20.00    -0.109 Cl
HETATM    8  H11 UNL     1     -31.806   8.911   4.285  1.00 20.00     0.187 HD
ENDROOT
TORSDOF 0
ENDMDL
MODEL 2
REMARK VINA RESULT:      -4.2      2.745      3.123
REMARK  0 active torsions:
REMARK  status: ('A' for Active; 'I' for Inactive)
ROOT
HETATM    1  C1  UNL     1     -34.114   7.004   5.866  1.00 20.00     0.036 A 
HETATM    2  C2  UNL     1     -33.159   7.801   5.380  1.00 20.00     0.007 A 
HETATM    3  C3  UNL     1     -34.408   5.882   4.964  1.00 20.00     0.086 A 
HETATM    4  C4  UNL     1     -32.554   7.456   4.062  1.00 20.00     0.172 A 
HETATM    5  N5  UNL     1     -35.279   4.957   5.157  1.00 20.00    -0.293 NA
HETATM    6  S6  UNL     1     -33.401   5.937   3.535  1.00 20.00    -0.086 SA
HETATM    7 CL7  UNL     1     -32.813   8.767   2.897  1.00 20.00    -0.109 Cl
HETATM    8  H11 UNL     1     -35.266   4.303   4.366  1.00 20.00     0.187 HD
ENDROOT
TORSDOF 0
ENDMDL
MODEL 3
REMARK VINA RESULT:      -3.8      1.635      2.064
REMARK  0 active torsions:
REMARK  status: ('A' for Active; 'I' for Inactive)
ROOT
HETATM    1  C1  UNL     1     -32.506   7.304   3.477  1.00 20.00     0.036 A 
HETATM    2  C2  UNL     1     -33.261   6.203   3.476  1.00 20.00     0.007 A 
HETATM    3  C3  UNL     1     -32.621   8.052   4.736  1.00 20.00     0.086 A 
HETATM    4  C4  UNL     1     -34.069   5.900   4.693  1.00 20.00     0.172 A 
HETATM    5  N5  UNL     1     -32.022   9.150   5.028  1.00 20.00    -0.293 NA
HETATM    6  S6  UNL     1     -33.709   7.253   5.850  1.00 20.00    -0.086 SA
HETATM    7 CL7  UNL     1     -35.795   5.845   4.294  1.00 20.00    -0.109 Cl
HETATM    8  H11 UNL     1     -32.285   9.444   5.976  1.00 20.00     0.187 HD
ENDROOT
TORSDOF 0
ENDMDL
MODEL 4
REMARK VINA RESULT:      -3.6      3.092      3.689
REMARK  0 active torsions:
REMARK  status: ('A' for Active; 'I' for Inactive)
ROOT
HETATM    1  C1  UNL     1     -32.862   5.725   3.027  1.00 20.00     0.036 A 
HETATM    2  C2  UNL     1     -32.577   7.029   2.972  1.00 20.00     0.007 A 
HETATM    3  C3  UNL     1     -33.794   5.409   4.118  1.00 20.00     0.086 A 
HETATM    4  C4  UNL     1     -33.216   7.934   3.971  1.00 20.00     0.172 A 
HETATM    5  N5  UNL     1     -34.244   4.245   4.422  1.00 20.00    -0.293 NA
HETATM    6  S6  UNL     1     -34.250   6.850   4.999  1.00 20.00    -0.086 SA
HETATM    7 CL7  UNL     1     -31.983   8.752   4.946  1.00 20.00    -0.109 Cl
HETATM    8  H11 UNL     1     -34.881   4.322   5.224  1.00 20.00     0.187 HD
ENDROOT
TORSDOF 0
ENDMDL
MODEL 5
REMARK VINA RESULT:      -3.6      2.760      3.221
REMARK  0 active torsions:
REMARK  status: ('A' for Active; 'I' for Inactive)
ROOT
HETATM    1  C1  UNL     1     -32.432   7.053   3.240  1.00 20.00     0.036 A 
HETATM    2  C2  UNL     1     -32.976   7.806   4.200  1.00 20.00     0.007 A 
HETATM    3  C3  UNL     1     -33.099   5.750   3.117  1.00 20.00     0.086 A 
HETATM    4  C4  UNL     1     -34.127   7.249   4.968  1.00 20.00     0.172 A 
HETATM    5  N5  UNL     1     -32.796   4.814   2.290  1.00 20.00    -0.293 NA
HETATM    6  S6  UNL     1     -34.412   5.598   4.264  1.00 20.00    -0.086 SA
HETATM    7 CL7  UNL     1     -33.732   7.147   6.693  1.00 20.00    -0.109 Cl
HETATM    8  H11 UNL     1     -33.432   4.019   2.424  1.00 20.00     0.187 HD
ENDROOT
TORSDOF 0
ENDMDL
MODEL 6
REMARK VINA RESULT:      -3.4     16.379     16.762
REMARK  0 active torsions:
REMARK  status: ('A' for Active; 'I' for Inactive)
ROOT
HETATM    1  C1  UNL     1     -24.357  18.173  10.507  1.00 20.00     0.036 A 
HETATM    2  C2  UNL     1     -24.083  18.899   9.420  1.00 20.00     0.007 A 
HETATM    3  C3  UNL     1     -23.143  17.815  11.253  1.00 20.00     0.086 A 
HETATM    4  C4  UNL     1     -22.658  19.231   9.133  1.00 20.00     0.172 A 
HETATM    5  N5  UNL     1     -23.089  17.121  12.332  1.00 20.00    -0.293 NA
HETATM    6  S6  UNL     1     -21.712  18.467  10.484  1.00 20.00    -0.086 SA
HETATM    7 CL7  UNL     1     -22.170  18.572   7.562  1.00 20.00    -0.109 Cl
HETATM    8  H11 UNL     1     -22.111  17.032  12.634  1.00 20.00     0.187 HD
ENDROOT
TORSDOF 0
ENDMDL
MODEL 7
REMARK VINA RESULT:      -3.4     13.271     13.747
REMARK  0 active torsions:
REMARK  status: ('A' for Active; 'I' for Inactive)
ROOT
HETATM    1  C1  UNL     1     -33.289  15.989  -3.334  1.00 20.00     0.036 A 
HETATM    2  C2  UNL     1     -33.798  17.215  -3.483  1.00 20.00     0.007 A 
HETATM    3  C3  UNL     1     -33.616  15.113  -4.468  1.00 20.00     0.086 A 
HETATM    4  C4  UNL     1     -34.582  17.509  -4.717  1.00 20.00     0.172 A 
HETATM    5  N5  UNL     1     -33.272  13.884  -4.605  1.00 20.00    -0.293 NA
HETATM    6  S6  UNL     1     -34.565  15.961  -5.669  1.00 20.00    -0.086 SA
HETATM    7 CL7  UNL     1     -36.238  17.984  -4.303  1.00 20.00    -0.109 Cl
HETATM    8  H11 UNL     1     -33.635  13.523  -5.495  1.00 20.00     0.187 HD
ENDROOT
TORSDOF 0
ENDMDL
MODEL 8
REMARK VINA RESULT:      -3.4     15.455     15.834
REMARK  0 active torsions:
REMARK  status: ('A' for Active; 'I' for Inactive)
ROOT
HETATM    1  C1  UNL     1     -24.415  16.220  11.465  1.00 20.00     0.036 A 
HETATM    2  C2  UNL     1     -25.148  16.925  12.331  1.00 20.00     0.007 A 
HETATM    3  C3  UNL     1     -23.572  17.082  10.625  1.00 20.00     0.086 A 
HETATM    4  C4  UNL     1     -25.012  18.410  12.327  1.00 20.00     0.172 A 
HETATM    5  N5  UNL     1     -22.768  16.694   9.701  1.00 20.00    -0.293 NA
HETATM    6  S6  UNL     1     -23.786  18.770  11.034  1.00 20.00    -0.086 SA
HETATM    7 CL7  UNL     1     -26.567  19.176  11.962  1.00 20.00    -0.109 Cl
HETATM    8  H11 UNL     1     -22.307  17.511   9.283  1.00 20.00     0.187 HD
ENDROOT
TORSDOF 0
ENDMDL
MODEL 9
REMARK VINA RESULT:      -3.3     13.321     13.763
REMARK  0 active torsions:
REMARK  status: ('A' for Active; 'I' for Inactive)
ROOT
HETATM    1  C1  UNL     1     -33.759  14.826  -4.151  1.00 20.00     0.036 A 
HETATM    2  C2  UNL     1     -33.333  15.904  -3.488  1.00 20.00     0.007 A 
HETATM    3  C3  UNL     1     -34.629  15.181  -5.281  1.00 20.00     0.086 A 
HETATM    4  C4  UNL     1     -33.772  17.247  -3.965  1.00 20.00     0.172 A 
HETATM    5  N5  UNL     1     -35.194  14.363  -6.094  1.00 20.00    -0.293 NA
HETATM    6  S6  UNL     1     -34.824  16.915  -5.410  1.00 20.00    -0.086 SA
HETATM    7 CL7  UNL     1     -34.678  18.091  -2.697  1.00 20.00    -0.109 Cl
HETATM    8  H11 UNL     1     -35.739  14.889  -6.787  1.00 20.00     0.187 HD
ENDROOT
TORSDOF 0
ENDMDL
