MODEL 1
REMARK VINA RESULT:      -4.0      0.000      0.000
REMARK  1 active torsions:
REMARK  status: ('A' for Active; 'I' for Inactive)
REMARK    1  A    between atoms: C6_6  and  C7_7 
ROOT
HETATM    1  C3  UNL     1     -34.432   5.044   4.591  1.00 20.00     0.296 C 
HETATM    2  C4  UNL     1     -34.575   4.870   6.096  1.00 20.00     0.197 C 
HETATM    3  C5  UNL     1     -34.210   7.166   6.456  1.00 20.00     0.203 C 
HETATM    4  C7  UNL     1     -34.113   7.429   4.949  1.00 20.00     0.248 C 
HETATM    5  N8  UNL     1     -34.821   6.396   4.178  1.00 20.00     0.092 N 
HETATM    6  O9  UNL     1     -33.784   5.841   6.779  1.00 20.00    -0.387 OA
HETATM    7  H22 UNL     1     -34.594   6.508   3.184  1.00 20.00     0.316 HD
ENDROOT
BRANCH   4   8
HETATM    8  C6  UNL     1     -32.686   7.578   4.490  1.00 20.00     0.021 A 
HETATM    9  C1  UNL     1     -32.346   7.481   3.028  1.00 20.00     0.007 A 
HETATM   10  C2  UNL     1     -32.259   8.806   3.734  1.00 20.00     0.007 A 
ENDBRANCH   4   8
TORSDOF 1
ENDMDL
MODEL 2
REMARK VINA RESULT:      -3.7      9.201      9.866
REMARK  1 active torsions:
REMARK  status: ('A' for Active; 'I' for Inactive)
REMARK    1  A    between atoms: C6_6  and  C7_7 
ROOT
HETATM    1  C3  UNL     1     -42.740  13.146   6.421  1.00 20.00     0.296 C 
HETATM    2  C4  UNL     1     -42.750  13.608   7.871  1.00 20.00     0.197 C 
HETATM    3  C5  UNL     1     -40.441  14.055   7.807  1.00 20.00     0.203 C 
HETATM    4  C7  UNL     1     -40.364  13.661   6.328  1.00 20.00     0.248 C 
HETATM    5  N8  UNL     1     -41.669  13.805   5.667  1.00 20.00     0.092 N 
HETATM    6  O9  UNL     1     -41.485  13.347   8.478  1.00 20.00    -0.387 OA
HETATM    7  H22 UNL     1     -41.620  13.377   4.735  1.00 20.00     0.316 HD
ENDROOT
BRANCH   4   8
HETATM    8  C6  UNL     1     -39.799  12.278   6.138  1.00 20.00     0.021 A 
HETATM    9  C1  UNL     1     -39.607  11.721   4.754  1.00 20.00     0.007 A 
HETATM   10  C2  UNL     1     -38.412  12.096   5.585  1.00 20.00     0.007 A 
ENDBRANCH   4   8
TORSDOF 1
ENDMDL
MODEL 3
REMARK VINA RESULT:      -3.6     15.705     16.302
REMARK  1 active torsions:
REMARK  status: ('A' for Active; 'I' for Inactive)
REMARK    1  A    between atoms: C6_6  and  C7_7 
ROOT
HETATM    1  C3  UNL     1     -24.040  16.803  11.937  1.00 20.00     0.296 C 
HETATM    2  C4  UNL     1     -25.297  17.578  12.309  1.00 20.00     0.197 C 
HETATM    3  C5  UNL     1     -25.145  18.879  10.355  1.00 20.00     0.203 C 
HETATM    4  C7  UNL     1     -23.909  18.104   9.886  1.00 20.00     0.248 C 
HETATM    5  N8  UNL     1     -23.859  16.761  10.483  1.00 20.00     0.092 N 
HETATM    6  O9  UNL     1     -25.231  18.902  11.781  1.00 20.00    -0.387 OA
HETATM    7  H22 UNL     1     -22.944  16.342  10.284  1.00 20.00     0.316 HD
ENDROOT
BRANCH   4   8
HETATM    8  C6  UNL     1     -22.633  18.865  10.135  1.00 20.00     0.021 A 
HETATM    9  C1  UNL     1     -21.300  18.196   9.942  1.00 20.00     0.007 A 
HETATM   10  C2  UNL     1     -21.751  19.263   8.984  1.00 20.00     0.007 A 
ENDBRANCH   4   8
TORSDOF 1
ENDMDL
MODEL 4
REMARK VINA RESULT:      -3.3     12.598     13.477
REMARK  1 active torsions:
REMARK  status: ('A' for Active; 'I' for Inactive)
REMARK    1  A    between atoms: C6_6  and  C7_7 
ROOT
HETATM    1  C3  UNL     1     -33.860  14.744  -4.181  1.00 20.00     0.296 C 
HETATM    2  C4  UNL     1     -34.821  14.923  -5.348  1.00 20.00     0.197 C 
HETATM    3  C5  UNL     1     -34.635  17.265  -5.219  1.00 20.00     0.203 C 
HETATM    4  C7  UNL     1     -33.617  17.163  -4.078  1.00 20.00     0.248 C 
HETATM    5  N8  UNL     1     -32.922  15.867  -4.095  1.00 20.00     0.092 N 
HETATM    6  O9  UNL     1     -35.532  16.153  -5.214  1.00 20.00    -0.387 OA
HETATM    7  H22 UNL     1     -32.379  15.769  -3.229  1.00 20.00     0.316 HD
ENDROOT
BRANCH   4   8
HETATM    8  C6  UNL     1     -34.241  17.436  -2.734  1.00 20.00     0.021 A 
HETATM    9  C1  UNL     1     -33.428  17.292  -1.478  1.00 20.00     0.007 A 
HETATM   10  C2  UNL     1     -33.845  18.656  -1.950  1.00 20.00     0.007 A 
ENDBRANCH   4   8
TORSDOF 1
ENDMDL
MODEL 5
REMARK VINA RESULT:      -3.3     13.015     14.208
REMARK  1 active torsions:
REMARK  status: ('A' for Active; 'I' for Inactive)
REMARK    1  A    between atoms: C6_6  and  C7_7 
ROOT
HETATM    1  C3  UNL     1     -34.382  15.417  -7.375  1.00 20.00     0.296 C 
HETATM    2  C4  UNL     1     -35.888  15.351  -7.589  1.00 20.00     0.197 C 
HETATM    3  C5  UNL     1     -36.286  16.431  -5.537  1.00 20.00     0.203 C 
HETATM    4  C7  UNL     1     -34.784  16.587  -5.280  1.00 20.00     0.248 C 
HETATM    5  N8  UNL     1     -34.020  16.564  -6.536  1.00 20.00     0.092 N 
HETATM    6  O9  UNL     1     -36.558  15.275  -6.332  1.00 20.00    -0.387 OA
HETATM    7  H22 UNL     1     -33.020  16.500  -6.317  1.00 20.00     0.316 HD
ENDROOT
BRANCH   4   8
HETATM    8  C6  UNL     1     -34.266  15.565  -4.302  1.00 20.00     0.021 A 
HETATM    9  C1  UNL     1     -32.790  15.295  -4.197  1.00 20.00     0.007 A 
HETATM   10  C2  UNL     1     -33.506  16.003  -3.081  1.00 20.00     0.007 A 
ENDBRANCH   4   8
TORSDOF 1
ENDMDL
MODEL 6
REMARK VINA RESULT:      -3.2      9.466     10.255
REMARK  1 active torsions:
REMARK  status: ('A' for Active; 'I' for Inactive)
REMARK    1  A    between atoms: C6_6  and  C7_7 
ROOT
HETATM    1  C3  UNL     1     -40.425  15.255   7.352  1.00 20.00     0.296 C 
HETATM    2  C4  UNL     1     -41.886  15.491   6.997  1.00 20.00     0.197 C 
HETATM    3  C5  UNL     1     -42.148  13.248   6.336  1.00 20.00     0.203 C 
HETATM    4  C7  UNL     1     -40.702  12.921   6.726  1.00 20.00     0.248 C 
HETATM    5  N8  UNL     1     -40.195  13.859   7.737  1.00 20.00     0.092 N 
HETATM    6  O9  UNL     1     -42.282  14.615   5.942  1.00 20.00    -0.387 OA
HETATM    7  H22 UNL     1     -39.185  13.717   7.846  1.00 20.00     0.316 HD
ENDROOT
BRANCH   4   8
HETATM    8  C6  UNL     1     -39.792  12.857   5.527  1.00 20.00     0.021 A 
HETATM    9  C1  UNL     1     -38.461  12.163   5.622  1.00 20.00     0.007 A 
HETATM   10  C2  UNL     1     -39.571  11.552   4.813  1.00 20.00     0.007 A 
ENDBRANCH   4   8
TORSDOF 1
ENDMDL
MODEL 7
REMARK VINA RESULT:      -3.2      1.774      3.713
REMARK  1 active torsions:
REMARK  status: ('A' for Active; 'I' for Inactive)
REMARK    1  A    between atoms: C6_6  and  C7_7 
ROOT
HETATM    1  C3  UNL     1     -32.551   8.343   3.911  1.00 20.00     0.296 C 
HETATM    2  C4  UNL     1     -32.011   7.526   2.746  1.00 20.00     0.197 C 
HETATM    3  C5  UNL     1     -33.596   5.829   3.126  1.00 20.00     0.203 C 
HETATM    4  C7  UNL     1     -34.231   6.621   4.274  1.00 20.00     0.248 C 
HETATM    5  N8  UNL     1     -33.972   8.062   4.137  1.00 20.00     0.092 N 
HETATM    6  O9  UNL     1     -32.207   6.134   2.992  1.00 20.00    -0.387 OA
HETATM    7  H22 UNL     1     -34.261   8.536   5.000  1.00 20.00     0.316 HD
ENDROOT
BRANCH   4   8
HETATM    8  C6  UNL     1     -33.800   6.110   5.623  1.00 20.00     0.021 A 
HETATM    9  C1  UNL     1     -34.301   6.767   6.879  1.00 20.00     0.007 A 
HETATM   10  C2  UNL     1     -34.780   5.391   6.509  1.00 20.00     0.007 A 
ENDBRANCH   4   8
TORSDOF 1
ENDMDL
MODEL 8
REMARK VINA RESULT:      -3.2     12.709     13.366
REMARK  1 active torsions:
REMARK  status: ('A' for Active; 'I' for Inactive)
REMARK    1  A    between atoms: C6_6  and  C7_7 
ROOT
HETATM    1  C3  UNL     1     -35.246  18.549  -2.896  1.00 20.00     0.296 C 
HETATM    2  C4  UNL     1     -34.814  18.867  -1.471  1.00 20.00     0.197 C 
HETATM    3  C5  UNL     1     -32.820  17.649  -1.741  1.00 20.00     0.203 C 
HETATM    4  C7  UNL     1     -33.160  17.336  -3.202  1.00 20.00     0.248 C 
HETATM    5  N8  UNL     1     -34.084  18.333  -3.762  1.00 20.00     0.092 N 
HETATM    6  O9  UNL     1     -34.003  17.812  -0.957  1.00 20.00    -0.387 OA
HETATM    7  H22 UNL     1     -34.419  18.002  -4.674  1.00 20.00     0.316 HD
ENDROOT
BRANCH   4   8
HETATM    8  C6  UNL     1     -33.689  15.936  -3.375  1.00 20.00     0.021 A 
HETATM    9  C1  UNL     1     -34.256  15.497  -4.697  1.00 20.00     0.007 A 
HETATM   10  C2  UNL     1     -32.942  14.943  -4.222  1.00 20.00     0.007 A 
ENDBRANCH   4   8
TORSDOF 1
ENDMDL
MODEL 9
REMARK VINA RESULT:      -3.1     16.105     16.700
REMARK  1 active torsions:
REMARK  status: ('A' for Active; 'I' for Inactive)
REMARK    1  A    between atoms: C6_6  and  C7_7 
ROOT
HETATM    1  C3  UNL     1     -23.005  18.491   9.523  1.00 20.00     0.296 C 
HETATM    2  C4  UNL     1     -21.716  18.409  10.329  1.00 20.00     0.197 C 
HETATM    3  C5  UNL     1     -22.887  17.695  12.241  1.00 20.00     0.203 C 
HETATM    4  C7  UNL     1     -24.216  17.697  11.478  1.00 20.00     0.248 C 
HETATM    5  N8  UNL     1     -24.003  17.545  10.031  1.00 20.00     0.092 N 
HETATM    6  O9  UNL     1     -21.982  18.664  11.707  1.00 20.00    -0.387 OA
HETATM    7  H22 UNL     1     -24.889  17.720   9.544  1.00 20.00     0.316 HD
ENDROOT
BRANCH   4   8
HETATM    8  C6  UNL     1     -25.047  18.915  11.788  1.00 20.00     0.021 A 
HETATM    9  C1  UNL     1     -26.232  19.263  10.929  1.00 20.00     0.007 A 
HETATM   10  C2  UNL     1     -26.441  18.761  12.330  1.00 20.00     0.007 A 
ENDBRANCH   4   8
TORSDOF 1
ENDMDL
