MODEL 1
REMARK VINA RESULT:      -4.5      0.000      0.000
REMARK  0 active torsions:
REMARK  status: ('A' for Active; 'I' for Inactive)
ROOT
HETATM    1  C1  UNL     1     -35.019  18.446  -3.606  1.00 20.00     0.017 A 
HETATM    2  C2  UNL     1     -34.659  18.723  -2.288  1.00 20.00     0.025 A 
HETATM    3  C3  UNL     1     -33.363  15.175  -4.145  1.00 20.00     0.031 A 
HETATM    4  C4  UNL     1     -33.432  16.644  -2.183  1.00 20.00     0.036 A 
HETATM    5  C5  UNL     1     -33.753  14.956  -5.458  1.00 20.00     0.119 A 
HETATM    6  C6  UNL     1     -34.585  17.262  -4.226  1.00 20.00     0.010 A 
HETATM    7  C7  UNL     1     -33.783  16.349  -3.510  1.00 20.00    -0.020 A 
HETATM    8  C8  UNL     1     -33.867  17.823  -1.577  1.00 20.00     0.034 A 
HETATM    9  C9  UNL     1     -34.916  16.936  -5.543  1.00 20.00     0.113 A 
HETATM   10  N10 UNL     1     -34.519  15.807  -6.173  1.00 20.00    -0.253 NA
HETATM   11 CL11 UNL     1     -33.426  18.167   0.050  1.00 20.00    -0.084 Cl
HETATM   12 BR12 UNL     1     -35.996  18.070  -6.646  1.00 20.00    -0.028 Br
ENDROOT
TORSDOF 0
ENDMDL
MODEL 2
REMARK VINA RESULT:      -4.1      1.813      2.576
REMARK  0 active torsions:
REMARK  status: ('A' for Active; 'I' for Inactive)
ROOT
HETATM    1  C1  UNL     1     -33.662  16.486  -2.960  1.00 20.00     0.017 A 
HETATM    2  C2  UNL     1     -33.040  17.121  -1.886  1.00 20.00     0.025 A 
HETATM    3  C3  UNL     1     -33.780  19.220  -5.459  1.00 20.00     0.031 A 
HETATM    4  C4  UNL     1     -32.900  19.163  -3.171  1.00 20.00     0.036 A 
HETATM    5  C5  UNL     1     -34.402  18.535  -6.491  1.00 20.00     0.119 A 
HETATM    6  C6  UNL     1     -33.910  17.187  -4.152  1.00 20.00     0.010 A 
HETATM    7  C7  UNL     1     -33.525  18.540  -4.262  1.00 20.00    -0.020 A 
HETATM    8  C8  UNL     1     -32.659  18.457  -1.991  1.00 20.00     0.034 A 
HETATM    9  C9  UNL     1     -34.528  16.600  -5.257  1.00 20.00     0.113 A 
HETATM   10  N10 UNL     1     -34.783  17.242  -6.421  1.00 20.00    -0.253 NA
HETATM   11 CL11 UNL     1     -31.891  19.238  -0.664  1.00 20.00    -0.084 Cl
HETATM   12 BR12 UNL     1     -35.109  14.774  -5.265  1.00 20.00    -0.028 Br
ENDROOT
TORSDOF 0
ENDMDL
MODEL 3
REMARK VINA RESULT:      -4.0      1.376      2.591
REMARK  0 active torsions:
REMARK  status: ('A' for Active; 'I' for Inactive)
ROOT
HETATM    1  C1  UNL     1     -33.624  16.291  -3.590  1.00 20.00     0.017 A 
HETATM    2  C2  UNL     1     -33.327  16.618  -2.267  1.00 20.00     0.025 A 
HETATM    3  C3  UNL     1     -36.060  18.941  -4.469  1.00 20.00     0.031 A 
HETATM    4  C4  UNL     1     -34.843  18.496  -2.388  1.00 20.00     0.036 A 
HETATM    5  C5  UNL     1     -36.314  18.566  -5.779  1.00 20.00     0.119 A 
HETATM    6  C6  UNL     1     -34.537  17.067  -4.324  1.00 20.00     0.010 A 
HETATM    7  C7  UNL     1     -35.154  18.181  -3.720  1.00 20.00    -0.020 A 
HETATM    8  C8  UNL     1     -33.935  17.719  -1.667  1.00 20.00     0.034 A 
HETATM    9  C9  UNL     1     -34.870  16.784  -5.650  1.00 20.00     0.113 A 
HETATM   10  N10 UNL     1     -35.743  17.507  -6.390  1.00 20.00    -0.253 NA
HETATM   11 CL11 UNL     1     -33.565  18.120  -0.035  1.00 20.00    -0.084 Cl
HETATM   12 BR12 UNL     1     -34.118  15.307  -6.610  1.00 20.00    -0.028 Br
ENDROOT
TORSDOF 0
ENDMDL
MODEL 4
REMARK VINA RESULT:      -3.8      3.508      4.687
REMARK  0 active torsions:
REMARK  status: ('A' for Active; 'I' for Inactive)
ROOT
HETATM    1  C1  UNL     1     -33.250  16.509  -2.996  1.00 20.00     0.017 A 
HETATM    2  C2  UNL     1     -33.173  15.732  -4.152  1.00 20.00     0.025 A 
HETATM    3  C3  UNL     1     -36.289  18.521  -3.666  1.00 20.00     0.031 A 
HETATM    4  C4  UNL     1     -35.169  16.798  -5.003  1.00 20.00     0.036 A 
HETATM    5  C5  UNL     1     -36.311  19.263  -2.495  1.00 20.00     0.119 A 
HETATM    6  C6  UNL     1     -34.290  17.440  -2.835  1.00 20.00     0.010 A 
HETATM    7  C7  UNL     1     -35.261  17.588  -3.846  1.00 20.00    -0.020 A 
HETATM    8  C8  UNL     1     -34.131  15.877  -5.154  1.00 20.00     0.034 A 
HETATM    9  C9  UNL     1     -34.414  18.241  -1.698  1.00 20.00     0.113 A 
HETATM   10  N10 UNL     1     -35.400  19.148  -1.506  1.00 20.00    -0.253 NA
HETATM   11 CL11 UNL     1     -34.034  14.916  -6.579  1.00 20.00    -0.084 Cl
HETATM   12 BR12 UNL     1     -33.177  18.158  -0.238  1.00 20.00    -0.028 Br
ENDROOT
TORSDOF 0
ENDMDL
MODEL 5
REMARK VINA RESULT:      -3.8     12.239     13.171
REMARK  0 active torsions:
REMARK  status: ('A' for Active; 'I' for Inactive)
ROOT
HETATM    1  C1  UNL     1     -40.225  14.053   7.922  1.00 20.00     0.017 A 
HETATM    2  C2  UNL     1     -40.379  14.931   8.995  1.00 20.00     0.025 A 
HETATM    3  C3  UNL     1     -42.496  15.561   5.412  1.00 20.00     0.031 A 
HETATM    4  C4  UNL     1     -41.944  16.242   7.701  1.00 20.00     0.036 A 
HETATM    5  C5  UNL     1     -42.301  14.654   4.381  1.00 20.00     0.119 A 
HETATM    6  C6  UNL     1     -40.932  14.264   6.726  1.00 20.00     0.010 A 
HETATM    7  C7  UNL     1     -41.801  15.368   6.611  1.00 20.00    -0.020 A 
HETATM    8  C8  UNL     1     -41.237  16.023   8.884  1.00 20.00     0.034 A 
HETATM    9  C9  UNL     1     -40.815  13.417   5.622  1.00 20.00     0.113 A 
HETATM   10  N10 UNL     1     -41.479  13.587   4.455  1.00 20.00    -0.253 NA
HETATM   11 CL11 UNL     1     -41.424  17.104  10.210  1.00 20.00    -0.084 Cl
HETATM   12 BR12 UNL     1     -39.678  11.876   5.621  1.00 20.00    -0.028 Br
ENDROOT
TORSDOF 0
ENDMDL
MODEL 6
REMARK VINA RESULT:      -3.7     12.535     13.530
REMARK  0 active torsions:
REMARK  status: ('A' for Active; 'I' for Inactive)
ROOT
HETATM    1  C1  UNL     1     -39.784  12.951   7.370  1.00 20.00     0.017 A 
HETATM    2  C2  UNL     1     -39.223  12.244   6.307  1.00 20.00     0.025 A 
HETATM    3  C3  UNL     1     -42.570  14.720   5.684  1.00 20.00     0.031 A 
HETATM    4  C4  UNL     1     -40.880  13.173   4.812  1.00 20.00     0.036 A 
HETATM    5  C5  UNL     1     -43.083  15.397   6.780  1.00 20.00     0.119 A 
HETATM    6  C6  UNL     1     -40.901  13.778   7.161  1.00 20.00     0.010 A 
HETATM    7  C7  UNL     1     -41.457  13.892   5.870  1.00 20.00    -0.020 A 
HETATM    8  C8  UNL     1     -39.771  12.355   5.030  1.00 20.00     0.034 A 
HETATM    9  C9  UNL     1     -41.501  14.507   8.190  1.00 20.00     0.113 A 
HETATM   10  N10 UNL     1     -42.576  15.312   8.029  1.00 20.00    -0.253 NA
HETATM   11 CL11 UNL     1     -39.077  11.480   3.720  1.00 20.00    -0.084 Cl
HETATM   12 BR12 UNL     1     -40.865  14.459   9.996  1.00 20.00    -0.028 Br
ENDROOT
TORSDOF 0
ENDMDL
MODEL 7
REMARK VINA RESULT:      -3.7      4.974      6.448
REMARK  0 active torsions:
REMARK  status: ('A' for Active; 'I' for Inactive)
ROOT
HETATM    1  C1  UNL     1     -30.931  18.737   0.850  1.00 20.00     0.017 A 
HETATM    2  C2  UNL     1     -30.126  18.857   1.982  1.00 20.00     0.025 A 
HETATM    3  C3  UNL     1     -34.304  19.262   2.292  1.00 20.00     0.031 A 
HETATM    4  C4  UNL     1     -32.087  19.250   3.339  1.00 20.00     0.036 A 
HETATM    5  C5  UNL     1     -35.051  19.132   1.131  1.00 20.00     0.119 A 
HETATM    6  C6  UNL     1     -32.326  18.871   0.954  1.00 20.00     0.010 A 
HETATM    7  C7  UNL     1     -32.913  19.131   2.210  1.00 20.00    -0.020 A 
HETATM    8  C8  UNL     1     -30.703  19.114   3.224  1.00 20.00     0.034 A 
HETATM    9  C9  UNL     1     -33.178  18.760  -0.146  1.00 20.00     0.113 A 
HETATM   10  N10 UNL     1     -34.524  18.884  -0.086  1.00 20.00    -0.253 NA
HETATM   11 CL11 UNL     1     -29.706  19.263   4.619  1.00 20.00    -0.084 Cl
HETATM   12 BR12 UNL     1     -32.535  18.410  -1.917  1.00 20.00    -0.028 Br
ENDROOT
TORSDOF 0
ENDMDL
MODEL 8
REMARK VINA RESULT:      -3.6     12.418     13.470
REMARK  0 active torsions:
REMARK  status: ('A' for Active; 'I' for Inactive)
ROOT
HETATM    1  C1  UNL     1     -41.911  14.740   5.455  1.00 20.00     0.017 A 
HETATM    2  C2  UNL     1     -41.326  13.627   4.853  1.00 20.00     0.025 A 
HETATM    3  C3  UNL     1     -40.245  14.741   8.765  1.00 20.00     0.031 A 
HETATM    4  C4  UNL     1     -40.012  13.236   6.843  1.00 20.00     0.036 A 
HETATM    5  C5  UNL     1     -40.861  15.857   9.310  1.00 20.00     0.119 A 
HETATM    6  C6  UNL     1     -41.550  15.111   6.762  1.00 20.00     0.010 A 
HETATM    7  C7  UNL     1     -40.591  14.354   7.466  1.00 20.00    -0.020 A 
HETATM    8  C8  UNL     1     -40.378  12.876   5.546  1.00 20.00     0.034 A 
HETATM    9  C9  UNL     1     -42.104  16.216   7.411  1.00 20.00     0.113 A 
HETATM   10  N10 UNL     1     -41.782  16.605   8.667  1.00 20.00    -0.253 NA
HETATM   11 CL11 UNL     1     -39.658  11.503   4.799  1.00 20.00    -0.084 Cl
HETATM   12 BR12 UNL     1     -43.417  17.343   6.591  1.00 20.00    -0.028 Br
ENDROOT
TORSDOF 0
ENDMDL
MODEL 9
REMARK VINA RESULT:      -3.5     12.174     12.962
REMARK  0 active torsions:
REMARK  status: ('A' for Active; 'I' for Inactive)
ROOT
HETATM    1  C1  UNL     1     -42.218  15.727   7.041  1.00 20.00     0.017 A 
HETATM    2  C2  UNL     1     -41.950  16.071   8.366  1.00 20.00     0.025 A 
HETATM    3  C3  UNL     1     -39.897  12.882   6.540  1.00 20.00     0.031 A 
HETATM    4  C4  UNL     1     -40.311  14.299   8.497  1.00 20.00     0.036 A 
HETATM    5  C5  UNL     1     -40.208  12.587   5.221  1.00 20.00     0.119 A 
HETATM    6  C6  UNL     1     -41.533  14.662   6.432  1.00 20.00     0.010 A 
HETATM    7  C7  UNL     1     -40.569  13.939   7.165  1.00 20.00    -0.020 A 
HETATM    8  C8  UNL     1     -40.998  15.358   9.092  1.00 20.00     0.034 A 
HETATM    9  C9  UNL     1     -41.763  14.275   5.111  1.00 20.00     0.113 A 
HETATM   10  N10 UNL     1     -41.124  13.257   4.490  1.00 20.00    -0.253 NA
HETATM   11 CL11 UNL     1     -40.669  15.786  10.727  1.00 20.00    -0.084 Cl
HETATM   12 BR12 UNL     1     -43.038  15.157   3.985  1.00 20.00    -0.028 Br
ENDROOT
TORSDOF 0
ENDMDL
