MODEL 1
REMARK VINA RESULT:      -3.7      0.000      0.000
REMARK  0 active torsions:
REMARK  status: ('A' for Active; 'I' for Inactive)
ROOT
HETATM    1  C1  UNL     1     -43.417   4.711   0.126  1.00 20.00     0.009 C 
HETATM    2  C2  UNL     1     -41.398   4.899   1.604  1.00 20.00     0.012 C 
HETATM    3  C3  UNL     1     -43.416   6.333   2.039  1.00 20.00     0.012 C 
HETATM    4  C4  UNL     1     -41.310   5.746  -0.756  1.00 20.00     0.012 C 
HETATM    5  C5  UNL     1     -43.322   7.176  -0.320  1.00 20.00     0.012 C 
HETATM    6  C6  UNL     1     -42.938   4.946   1.570  1.00 20.00    -0.013 C 
HETATM    7  C7  UNL     1     -42.846   5.796  -0.804  1.00 20.00    -0.013 C 
HETATM    8  C8  UNL     1     -40.818   5.987   0.684  1.00 20.00     0.021 C 
HETATM    9  C9  UNL     1     -42.843   7.426   1.121  1.00 20.00     0.021 C 
HETATM   10  C10 UNL     1     -41.309   7.358   1.169  1.00 20.00     0.178 C 
HETATM   11  F11 UNL     1     -40.792   8.330   0.369  1.00 20.00    -0.249 F 
ENDROOT
TORSDOF 0
ENDMDL
MODEL 2
REMARK VINA RESULT:      -3.7      1.556      2.706
REMARK  0 active torsions:
REMARK  status: ('A' for Active; 'I' for Inactive)
ROOT
HETATM    1  C1  UNL     1     -41.989   8.022  -0.713  1.00 20.00     0.009 C 
HETATM    2  C2  UNL     1     -43.416   5.960  -0.791  1.00 20.00     0.012 C 
HETATM    3  C3  UNL     1     -43.417   7.416   1.258  1.00 20.00     0.012 C 
HETATM    4  C4  UNL     1     -40.921   5.754  -0.638  1.00 20.00     0.012 C 
HETATM    5  C5  UNL     1     -40.923   7.206   1.405  1.00 20.00     0.012 C 
HETATM    6  C6  UNL     1     -43.334   7.411  -0.280  1.00 20.00    -0.013 C 
HETATM    7  C7  UNL     1     -40.824   7.202  -0.130  1.00 20.00    -0.013 C 
HETATM    8  C8  UNL     1     -42.261   5.130  -0.205  1.00 20.00     0.021 C 
HETATM    9  C9  UNL     1     -42.262   6.591   1.851  1.00 20.00     0.021 C 
HETATM   10  C10 UNL     1     -42.363   5.151   1.327  1.00 20.00     0.178 C 
HETATM   11  F11 UNL     1     -41.352   4.409   1.855  1.00 20.00    -0.249 F 
ENDROOT
TORSDOF 0
ENDMDL
MODEL 3
REMARK VINA RESULT:      -3.7      1.709      3.042
REMARK  0 active torsions:
REMARK  status: ('A' for Active; 'I' for Inactive)
ROOT
HETATM    1  C1  UNL     1     -42.024   7.956  -0.779  1.00 20.00     0.009 C 
HETATM    2  C2  UNL     1     -40.915   7.306   1.376  1.00 20.00     0.012 C 
HETATM    3  C3  UNL     1     -40.810   5.767  -0.610  1.00 20.00     0.012 C 
HETATM    4  C4  UNL     1     -43.417   7.339   1.213  1.00 20.00     0.012 C 
HETATM    5  C5  UNL     1     -43.312   5.804  -0.766  1.00 20.00     0.012 C 
HETATM    6  C6  UNL     1     -40.809   7.241  -0.160  1.00 20.00    -0.013 C 
HETATM    7  C7  UNL     1     -43.327   7.277  -0.321  1.00 20.00    -0.013 C 
HETATM    8  C8  UNL     1     -42.210   6.620   1.844  1.00 20.00     0.021 C 
HETATM    9  C9  UNL     1     -42.105   5.077  -0.148  1.00 20.00     0.021 C 
HETATM   10  C10 UNL     1     -42.189   5.156   1.384  1.00 20.00     0.178 C 
HETATM   11  F11 UNL     1     -43.326   4.537   1.803  1.00 20.00    -0.249 F 
ENDROOT
TORSDOF 0
ENDMDL
MODEL 4
REMARK VINA RESULT:      -3.7      0.674      2.334
REMARK  0 active torsions:
REMARK  status: ('A' for Active; 'I' for Inactive)
ROOT
HETATM    1  C1  UNL     1     -41.540   4.812   1.536  1.00 20.00     0.009 C 
HETATM    2  C2  UNL     1     -43.390   6.460   1.932  1.00 20.00     0.012 C 
HETATM    3  C3  UNL     1     -43.416   5.005  -0.118  1.00 20.00     0.012 C 
HETATM    4  C4  UNL     1     -41.096   7.271   1.323  1.00 20.00     0.012 C 
HETATM    5  C5  UNL     1     -41.123   5.821  -0.722  1.00 20.00     0.012 C 
HETATM    6  C6  UNL     1     -43.050   5.063   1.377  1.00 20.00    -0.013 C 
HETATM    7  C7  UNL     1     -40.743   5.881   0.768  1.00 20.00    -0.013 C 
HETATM    8  C8  UNL     1     -42.605   7.536   1.163  1.00 20.00     0.021 C 
HETATM    9  C9  UNL     1     -42.631   6.077  -0.894  1.00 20.00     0.021 C 
HETATM   10  C10 UNL     1     -42.983   7.459  -0.323  1.00 20.00     0.178 C 
HETATM   11  F11 UNL     1     -42.302   8.415  -1.011  1.00 20.00    -0.249 F 
ENDROOT
TORSDOF 0
ENDMDL
MODEL 5
REMARK VINA RESULT:      -3.6      1.163      2.448
REMARK  0 active torsions:
REMARK  status: ('A' for Active; 'I' for Inactive)
ROOT
HETATM    1  C1  UNL     1     -43.414   6.158   2.146  1.00 20.00     0.009 C 
HETATM    2  C2  UNL     1     -41.362   7.389   1.393  1.00 20.00     0.012 C 
HETATM    3  C3  UNL     1     -43.415   7.357  -0.057  1.00 20.00     0.012 C 
HETATM    4  C4  UNL     1     -41.369   4.882   1.453  1.00 20.00     0.012 C 
HETATM    5  C5  UNL     1     -43.416   4.850   0.006  1.00 20.00     0.012 C 
HETATM    6  C6  UNL     1     -42.903   7.400   1.395  1.00 20.00    -0.013 C 
HETATM    7  C7  UNL     1     -42.907   4.878   1.458  1.00 20.00    -0.013 C 
HETATM    8  C8  UNL     1     -40.846   6.118   0.698  1.00 20.00     0.021 C 
HETATM    9  C9  UNL     1     -42.906   6.085  -0.757  1.00 20.00     0.021 C 
HETATM   10  C10 UNL     1     -41.370   6.095  -0.745  1.00 20.00     0.178 C 
HETATM   11  F11 UNL     1     -40.909   4.979  -1.373  1.00 20.00    -0.249 F 
ENDROOT
TORSDOF 0
ENDMDL
MODEL 6
REMARK VINA RESULT:      -3.6     19.049     20.066
REMARK  0 active torsions:
REMARK  status: ('A' for Active; 'I' for Inactive)
ROOT
HETATM    1  C1  UNL     1     -28.804  -2.855  10.310  1.00 20.00     0.009 C 
HETATM    2  C2  UNL     1     -27.452  -3.470  12.332  1.00 20.00     0.012 C 
HETATM    3  C3  UNL     1     -28.833  -1.370  12.332  1.00 20.00     0.012 C 
HETATM    4  C4  UNL     1     -26.302  -2.710  10.237  1.00 20.00     0.012 C 
HETATM    5  C5  UNL     1     -27.679  -0.615  10.238  1.00 20.00     0.012 C 
HETATM    6  C6  UNL     1     -28.768  -2.831  11.849  1.00 20.00    -0.013 C 
HETATM    7  C7  UNL     1     -27.609  -2.069   9.742  1.00 20.00    -0.013 C 
HETATM    8  C8  UNL     1     -26.251  -2.686  11.776  1.00 20.00     0.021 C 
HETATM    9  C9  UNL     1     -27.637  -0.578  11.776  1.00 20.00     0.021 C 
HETATM   10  C10 UNL     1     -26.338  -1.234  12.268  1.00 20.00     0.178 C 
HETATM   11  F11 UNL     1     -25.273  -0.533  11.791  1.00 20.00    -0.249 F 
ENDROOT
TORSDOF 0
ENDMDL
MODEL 7
REMARK VINA RESULT:      -3.4      1.031      2.709
REMARK  0 active torsions:
REMARK  status: ('A' for Active; 'I' for Inactive)
ROOT
HETATM    1  C1  UNL     1     -42.291   5.165   1.418  1.00 20.00     0.009 C 
HETATM    2  C2  UNL     1     -43.364   5.869  -0.738  1.00 20.00     0.012 C 
HETATM    3  C3  UNL     1     -40.860   5.734  -0.562  1.00 20.00     0.012 C 
HETATM    4  C4  UNL     1     -43.417   7.400   1.249  1.00 20.00     0.012 C 
HETATM    5  C5  UNL     1     -40.919   7.265   1.423  1.00 20.00     0.012 C 
HETATM    6  C6  UNL     1     -42.187   5.092  -0.116  1.00 20.00    -0.013 C 
HETATM    7  C7  UNL     1     -42.244   6.632   1.882  1.00 20.00    -0.013 C 
HETATM    8  C8  UNL     1     -43.320   7.339  -0.287  1.00 20.00     0.021 C 
HETATM    9  C9  UNL     1     -40.808   7.203  -0.111  1.00 20.00     0.021 C 
HETATM   10  C10 UNL     1     -41.989   7.956  -0.740  1.00 20.00     0.178 C 
HETATM   11  F11 UNL     1     -41.945   9.261  -0.357  1.00 20.00    -0.249 F 
ENDROOT
TORSDOF 0
ENDMDL
MODEL 8
REMARK VINA RESULT:      -3.4     18.883     20.064
REMARK  0 active torsions:
REMARK  status: ('A' for Active; 'I' for Inactive)
ROOT
HETATM    1  C1  UNL     1     -26.279  -1.231  12.200  1.00 20.00     0.009 C 
HETATM    2  C2  UNL     1     -27.664  -0.588  10.208  1.00 20.00     0.012 C 
HETATM    3  C3  UNL     1     -28.782  -1.338  12.331  1.00 20.00     0.012 C 
HETATM    4  C4  UNL     1     -26.321  -2.706  10.172  1.00 20.00     0.012 C 
HETATM    5  C5  UNL     1     -27.437  -3.454  12.289  1.00 20.00     0.012 C 
HETATM    6  C6  UNL     1     -27.588  -0.559  11.747  1.00 20.00    -0.013 C 
HETATM    7  C7  UNL     1     -26.236  -2.688  11.708  1.00 20.00    -0.013 C 
HETATM    8  C8  UNL     1     -27.630  -2.042   9.708  1.00 20.00     0.021 C 
HETATM    9  C9  UNL     1     -28.752  -2.795  11.838  1.00 20.00     0.021 C 
HETATM   10  C10 UNL     1     -28.826  -2.799  10.303  1.00 20.00     0.178 C 
HETATM   11  F11 UNL     1     -28.813  -4.084   9.857  1.00 20.00    -0.249 F 
ENDROOT
TORSDOF 0
ENDMDL
MODEL 9
REMARK VINA RESULT:      -3.4      1.590      3.056
REMARK  0 active torsions:
REMARK  status: ('A' for Active; 'I' for Inactive)
ROOT
HETATM    1  C1  UNL     1     -41.117   7.350   1.231  1.00 20.00     0.009 C 
HETATM    2  C2  UNL     1     -43.008   7.482  -0.413  1.00 20.00     0.012 C 
HETATM    3  C3  UNL     1     -43.393   6.513   1.875  1.00 20.00     0.012 C 
HETATM    4  C4  UNL     1     -41.135   5.856  -0.783  1.00 20.00     0.012 C 
HETATM    5  C5  UNL     1     -41.519   4.890   1.499  1.00 20.00     0.012 C 
HETATM    6  C6  UNL     1     -42.630   7.589   1.077  1.00 20.00    -0.013 C 
HETATM    7  C7  UNL     1     -40.745   5.954   0.702  1.00 20.00    -0.013 C 
HETATM    8  C8  UNL     1     -42.649   6.086  -0.948  1.00 20.00     0.021 C 
HETATM    9  C9  UNL     1     -43.034   5.114   1.347  1.00 20.00     0.021 C 
HETATM   10  C10 UNL     1     -43.417   5.032  -0.138  1.00 20.00     0.178 C 
HETATM   11  F11 UNL     1     -43.116   3.792  -0.612  1.00 20.00    -0.249 F 
ENDROOT
TORSDOF 0
ENDMDL
