MODEL 1
REMARK VINA RESULT:      -4.8      0.000      0.000
REMARK  1 active torsions:
REMARK  status: ('A' for Active; 'I' for Inactive)
REMARK    1  A    between atoms: C1_1  and  C4_4 
ROOT
HETATM    1  C2  UNL     1     -34.162   6.872   6.675  1.00 20.00     0.013 C 
HETATM    2  C3  UNL     1     -34.822   5.492   6.498  1.00 20.00     0.010 C 
HETATM    3  C4  UNL     1     -33.382   6.618   5.361  1.00 20.00     0.062 C 
HETATM    4  C5  UNL     1     -34.505   5.590   4.977  1.00 20.00    -0.037 C 
HETATM    5  C7  UNL     1     -33.970   4.294   4.375  1.00 20.00     0.015 C 
HETATM    6  C8  UNL     1     -35.671   6.142   4.153  1.00 20.00     0.015 C 
ENDROOT
BRANCH   3   7
HETATM    7  C1  UNL     1     -33.128   7.809   4.432  1.00 20.00     0.128 C 
HETATM    8  C6  UNL     1     -32.252   7.558   3.234  1.00 20.00     0.091 C 
HETATM    9  O9  UNL     1     -33.618   8.916   4.653  1.00 20.00    -0.298 OA
ENDBRANCH   3   7
TORSDOF 1
ENDMDL
MODEL 2
REMARK VINA RESULT:      -4.3      1.416      1.880
REMARK  1 active torsions:
REMARK  status: ('A' for Active; 'I' for Inactive)
REMARK    1  A    between atoms: C1_1  and  C4_4 
ROOT
HETATM    1  C2  UNL     1     -33.337   8.215   5.179  1.00 20.00     0.013 C 
HETATM    2  C3  UNL     1     -34.292   7.565   6.197  1.00 20.00     0.010 C 
HETATM    3  C4  UNL     1     -32.971   6.793   4.683  1.00 20.00     0.062 C 
HETATM    4  C5  UNL     1     -34.343   6.311   5.277  1.00 20.00    -0.037 C 
HETATM    5  C7  UNL     1     -34.251   4.988   6.033  1.00 20.00     0.015 C 
HETATM    6  C8  UNL     1     -35.533   6.316   4.315  1.00 20.00     0.015 C 
ENDROOT
BRANCH   3   7
HETATM    7  C1  UNL     1     -32.710   6.597   3.187  1.00 20.00     0.128 C 
HETATM    8  C6  UNL     1     -32.890   5.205   2.645  1.00 20.00     0.091 C 
HETATM    9  O9  UNL     1     -32.371   7.533   2.463  1.00 20.00    -0.298 OA
ENDBRANCH   3   7
TORSDOF 1
ENDMDL
MODEL 3
REMARK VINA RESULT:      -3.7     15.382     16.623
REMARK  1 active torsions:
REMARK  status: ('A' for Active; 'I' for Inactive)
REMARK    1  A    between atoms: C1_1  and  C4_4 
ROOT
HETATM    1  C2  UNL     1     -24.704  19.263   9.536  1.00 20.00     0.013 C 
HETATM    2  C3  UNL     1     -23.477  19.256   8.605  1.00 20.00     0.010 C 
HETATM    3  C4  UNL     1     -24.287  17.852  10.021  1.00 20.00     0.062 C 
HETATM    4  C5  UNL     1     -22.831  18.196   9.545  1.00 20.00    -0.037 C 
HETATM    5  C7  UNL     1     -22.143  17.053   8.802  1.00 20.00     0.015 C 
HETATM    6  C8  UNL     1     -21.904  18.808  10.598  1.00 20.00     0.015 C 
ENDROOT
BRANCH   3   7
HETATM    7  C1  UNL     1     -24.514  17.501  11.494  1.00 20.00     0.128 C 
HETATM    8  C6  UNL     1     -24.409  16.047  11.868  1.00 20.00     0.091 C 
HETATM    9  O9  UNL     1     -24.767  18.366  12.332  1.00 20.00    -0.298 OA
ENDBRANCH   3   7
TORSDOF 1
ENDMDL
MODEL 4
REMARK VINA RESULT:      -3.6      9.376     10.281
REMARK  1 active torsions:
REMARK  status: ('A' for Active; 'I' for Inactive)
REMARK    1  A    between atoms: C1_1  and  C4_4 
ROOT
HETATM    1  C2  UNL     1     -39.415  12.443   6.556  1.00 20.00     0.013 C 
HETATM    2  C3  UNL     1     -40.343  12.132   5.367  1.00 20.00     0.010 C 
HETATM    3  C4  UNL     1     -40.127  13.812   6.696  1.00 20.00     0.062 C 
HETATM    4  C5  UNL     1     -41.348  13.173   5.942  1.00 20.00    -0.037 C 
HETATM    5  C7  UNL     1     -41.961  14.087   4.885  1.00 20.00     0.015 C 
HETATM    6  C8  UNL     1     -42.430  12.544   6.824  1.00 20.00     0.015 C 
ENDROOT
BRANCH   3   7
HETATM    7  C1  UNL     1     -40.344  14.369   8.106  1.00 20.00     0.128 C 
HETATM    8  C6  UNL     1     -40.587  15.850   8.218  1.00 20.00     0.091 C 
HETATM    9  O9  UNL     1     -40.324  13.641   9.098  1.00 20.00    -0.298 OA
ENDBRANCH   3   7
TORSDOF 1
ENDMDL
MODEL 5
REMARK VINA RESULT:      -3.4     15.622     16.833
REMARK  1 active torsions:
REMARK  status: ('A' for Active; 'I' for Inactive)
REMARK    1  A    between atoms: C1_1  and  C4_4 
ROOT
HETATM    1  C2  UNL     1     -21.976  18.753  11.534  1.00 20.00     0.013 C 
HETATM    2  C3  UNL     1     -23.288  18.482  12.294  1.00 20.00     0.010 C 
HETATM    3  C4  UNL     1     -22.347  17.595  10.572  1.00 20.00     0.062 C 
HETATM    4  C5  UNL     1     -23.842  17.814  11.001  1.00 20.00    -0.037 C 
HETATM    5  C7  UNL     1     -24.601  16.514  11.257  1.00 20.00     0.015 C 
HETATM    6  C8  UNL     1     -24.660  18.770  10.131  1.00 20.00     0.015 C 
ENDROOT
BRANCH   3   7
HETATM    7  C1  UNL     1     -21.979  17.743   9.093  1.00 20.00     0.128 C 
HETATM    8  C6  UNL     1     -21.293  19.020   8.690  1.00 20.00     0.091 C 
HETATM    9  O9  UNL     1     -22.230  16.859   8.274  1.00 20.00    -0.298 OA
ENDBRANCH   3   7
TORSDOF 1
ENDMDL
MODEL 6
REMARK VINA RESULT:      -3.4      1.596      3.651
REMARK  1 active torsions:
REMARK  status: ('A' for Active; 'I' for Inactive)
REMARK    1  A    between atoms: C1_1  and  C4_4 
ROOT
HETATM    1  C2  UNL     1     -32.991   6.017   2.884  1.00 20.00     0.013 C 
HETATM    2  C3  UNL     1     -32.191   7.329   2.783  1.00 20.00     0.010 C 
HETATM    3  C4  UNL     1     -33.223   6.327   4.384  1.00 20.00     0.062 C 
HETATM    4  C5  UNL     1     -32.957   7.836   4.040  1.00 20.00    -0.037 C 
HETATM    5  C7  UNL     1     -32.068   8.548   5.056  1.00 20.00     0.015 C 
HETATM    6  C8  UNL     1     -34.189   8.678   3.698  1.00 20.00     0.015 C 
ENDROOT
BRANCH   3   7
HETATM    7  C1  UNL     1     -34.572   5.942   4.999  1.00 20.00     0.128 C 
HETATM    8  C6  UNL     1     -34.604   5.744   6.490  1.00 20.00     0.091 C 
HETATM    9  O9  UNL     1     -35.580   5.804   4.307  1.00 20.00    -0.298 OA
ENDBRANCH   3   7
TORSDOF 1
ENDMDL
MODEL 7
REMARK VINA RESULT:      -3.4     12.593     13.800
REMARK  1 active torsions:
REMARK  status: ('A' for Active; 'I' for Inactive)
REMARK    1  A    between atoms: C1_1  and  C4_4 
ROOT
HETATM    1  C2  UNL     1     -34.008  15.195  -6.868  1.00 20.00     0.013 C 
HETATM    2  C3  UNL     1     -35.492  15.409  -7.221  1.00 20.00     0.010 C 
HETATM    3  C4  UNL     1     -34.287  15.849  -5.492  1.00 20.00     0.062 C 
HETATM    4  C5  UNL     1     -35.796  15.465  -5.695  1.00 20.00    -0.037 C 
HETATM    5  C7  UNL     1     -36.769  16.573  -5.300  1.00 20.00     0.015 C 
HETATM    6  C8  UNL     1     -36.232  14.115  -5.117  1.00 20.00     0.015 C 
ENDROOT
BRANCH   3   7
HETATM    7  C1  UNL     1     -33.547  15.298  -4.270  1.00 20.00     0.128 C 
HETATM    8  C6  UNL     1     -33.385  16.230  -3.099  1.00 20.00     0.091 C 
HETATM    9  O9  UNL     1     -33.109  14.148  -4.245  1.00 20.00    -0.298 OA
ENDBRANCH   3   7
TORSDOF 1
ENDMDL
MODEL 8
REMARK VINA RESULT:      -3.4      9.287     10.215
REMARK  1 active torsions:
REMARK  status: ('A' for Active; 'I' for Inactive)
REMARK    1  A    between atoms: C1_1  and  C4_4 
ROOT
HETATM    1  C2  UNL     1     -42.388  12.300   7.111  1.00 20.00     0.013 C 
HETATM    2  C3  UNL     1     -43.178  13.561   6.715  1.00 20.00     0.010 C 
HETATM    3  C4  UNL     1     -41.475  12.541   5.883  1.00 20.00     0.062 C 
HETATM    4  C5  UNL     1     -41.919  14.046   5.938  1.00 20.00    -0.037 C 
HETATM    5  C7  UNL     1     -42.233  14.642   4.567  1.00 20.00     0.015 C 
HETATM    6  C8  UNL     1     -41.028  14.983   6.757  1.00 20.00     0.015 C 
ENDROOT
BRANCH   3   7
HETATM    7  C1  UNL     1     -39.986  12.210   6.017  1.00 20.00     0.128 C 
HETATM    8  C6  UNL     1     -39.244  11.900   4.746  1.00 20.00     0.091 C 
HETATM    9  O9  UNL     1     -39.423  12.200   7.112  1.00 20.00    -0.298 OA
ENDBRANCH   3   7
TORSDOF 1
ENDMDL
MODEL 9
REMARK VINA RESULT:      -3.4      9.250     10.208
REMARK  1 active torsions:
REMARK  status: ('A' for Active; 'I' for Inactive)
REMARK    1  A    between atoms: C1_1  and  C4_4 
ROOT
HETATM    1  C2  UNL     1     -41.587  13.924   4.845  1.00 20.00     0.013 C 
HETATM    2  C3  UNL     1     -42.724  14.375   5.781  1.00 20.00     0.010 C 
HETATM    3  C4  UNL     1     -40.728  13.633   6.101  1.00 20.00     0.062 C 
HETATM    4  C5  UNL     1     -42.073  13.516   6.905  1.00 20.00    -0.037 C 
HETATM    5  C7  UNL     1     -42.034  14.209   8.265  1.00 20.00     0.015 C 
HETATM    6  C8  UNL     1     -42.673  12.113   7.016  1.00 20.00     0.015 C 
ENDROOT
BRANCH   3   7
HETATM    7  C1  UNL     1     -39.788  12.425   6.065  1.00 20.00     0.128 C 
HETATM    8  C6  UNL     1     -39.588  11.762   4.729  1.00 20.00     0.091 C 
HETATM    9  O9  UNL     1     -39.222  12.017   7.079  1.00 20.00    -0.298 OA
ENDBRANCH   3   7
TORSDOF 1
ENDMDL
