MODEL 1
REMARK VINA RESULT:      -4.9      0.000      0.000
REMARK  0 active torsions:
REMARK  status: ('A' for Active; 'I' for Inactive)
ROOT
HETATM    1  C1  UNL     1     -34.253   7.112   5.831  1.00 20.00     0.105 C 
HETATM    2  C2  UNL     1     -33.472   5.976   4.200  1.00 20.00     0.260 C 
HETATM    3  C3  UNL     1     -33.567   7.492   4.502  1.00 20.00     0.128 C 
HETATM    4  C4  UNL     1     -34.686   5.794   5.150  1.00 20.00     0.276 C 
HETATM    5  F5  UNL     1     -33.672   5.617   2.913  1.00 20.00    -0.241 F 
HETATM    6  F6  UNL     1     -35.898   5.821   4.549  1.00 20.00    -0.203 F 
HETATM    7  F7  UNL     1     -34.659   4.691   5.930  1.00 20.00    -0.203 F 
HETATM    8 CL8  UNL     1     -32.065   8.452   4.560  1.00 20.00    -0.122 Cl
ENDROOT
TORSDOF 0
ENDMDL
MODEL 2
REMARK VINA RESULT:      -4.8      1.056      2.222
REMARK  0 active torsions:
REMARK  status: ('A' for Active; 'I' for Inactive)
ROOT
HETATM    1  C1  UNL     1     -33.636   6.376   3.879  1.00 20.00     0.105 C 
HETATM    2  C2  UNL     1     -34.432   7.248   5.658  1.00 20.00     0.260 C 
HETATM    3  C3  UNL     1     -33.029   7.243   5.002  1.00 20.00     0.128 C 
HETATM    4  C4  UNL     1     -34.701   5.919   4.901  1.00 20.00     0.276 C 
HETATM    5  F5  UNL     1     -34.453   7.172   7.007  1.00 20.00    -0.241 F 
HETATM    6  F6  UNL     1     -34.401   4.793   5.588  1.00 20.00    -0.203 F 
HETATM    7  F7  UNL     1     -35.952   5.764   4.418  1.00 20.00    -0.203 F 
HETATM    8 CL8  UNL     1     -32.278   8.801   4.568  1.00 20.00    -0.122 Cl
ENDROOT
TORSDOF 0
ENDMDL
MODEL 3
REMARK VINA RESULT:      -4.7      2.855      3.599
REMARK  0 active torsions:
REMARK  status: ('A' for Active; 'I' for Inactive)
ROOT
HETATM    1  C1  UNL     1     -33.097   6.355   3.690  1.00 20.00     0.105 C 
HETATM    2  C2  UNL     1     -33.297   7.693   5.341  1.00 20.00     0.260 C 
HETATM    3  C3  UNL     1     -34.227   6.632   4.703  1.00 20.00     0.128 C 
HETATM    4  C4  UNL     1     -32.596   7.793   3.960  1.00 20.00     0.276 C 
HETATM    5  F5  UNL     1     -33.901   8.821   5.778  1.00 20.00    -0.241 F 
HETATM    6  F6  UNL     1     -33.086   8.743   3.131  1.00 20.00    -0.203 F 
HETATM    7  F7  UNL     1     -31.256   7.953   3.993  1.00 20.00    -0.203 F 
HETATM    8 CL8  UNL     1     -34.816   5.286   5.714  1.00 20.00    -0.122 Cl
ENDROOT
TORSDOF 0
ENDMDL
MODEL 4
REMARK VINA RESULT:      -4.5      2.605      3.410
REMARK  0 active torsions:
REMARK  status: ('A' for Active; 'I' for Inactive)
ROOT
HETATM    1  C1  UNL     1     -33.558   8.099   5.096  1.00 20.00     0.105 C 
HETATM    2  C2  UNL     1     -33.238   6.758   3.467  1.00 20.00     0.260 C 
HETATM    3  C3  UNL     1     -33.617   6.564   4.955  1.00 20.00     0.128 C 
HETATM    4  C4  UNL     1     -32.591   8.104   3.891  1.00 20.00     0.276 C 
HETATM    5  F5  UNL     1     -32.395   5.838   2.947  1.00 20.00    -0.241 F 
HETATM    6  F6  UNL     1     -31.275   8.040   4.201  1.00 20.00    -0.203 F 
HETATM    7  F7  UNL     1     -32.740   9.126   3.020  1.00 20.00    -0.203 F 
HETATM    8 CL8  UNL     1     -35.141   5.728   5.352  1.00 20.00    -0.122 Cl
ENDROOT
TORSDOF 0
ENDMDL
MODEL 5
REMARK VINA RESULT:      -4.4      1.461      2.216
REMARK  0 active torsions:
REMARK  status: ('A' for Active; 'I' for Inactive)
ROOT
HETATM    1  C1  UNL     1     -33.751   5.590   3.617  1.00 20.00     0.105 C 
HETATM    2  C2  UNL     1     -34.135   7.379   4.717  1.00 20.00     0.260 C 
HETATM    3  C3  UNL     1     -32.883   6.802   4.013  1.00 20.00     0.128 C 
HETATM    4  C4  UNL     1     -34.641   5.917   4.837  1.00 20.00     0.276 C 
HETATM    5  F5  UNL     1     -33.913   8.024   5.883  1.00 20.00    -0.241 F 
HETATM    6  F6  UNL     1     -34.308   5.283   5.985  1.00 20.00    -0.203 F 
HETATM    7  F7  UNL     1     -35.969   5.740   4.662  1.00 20.00    -0.203 F 
HETATM    8 CL8  UNL     1     -32.107   7.756   2.721  1.00 20.00    -0.122 Cl
ENDROOT
TORSDOF 0
ENDMDL
MODEL 6
REMARK VINA RESULT:      -4.1      2.001      2.301
REMARK  0 active torsions:
REMARK  status: ('A' for Active; 'I' for Inactive)
ROOT
HETATM    1  C1  UNL     1     -32.331   8.282   4.904  1.00 20.00     0.105 C 
HETATM    2  C2  UNL     1     -33.666   6.674   4.465  1.00 20.00     0.260 C 
HETATM    3  C3  UNL     1     -33.098   7.853   3.636  1.00 20.00     0.128 C 
HETATM    4  C4  UNL     1     -33.414   7.546   5.725  1.00 20.00     0.276 C 
HETATM    5  F5  UNL     1     -34.955   6.348   4.222  1.00 20.00    -0.241 F 
HETATM    6  F6  UNL     1     -34.462   8.306   6.119  1.00 20.00    -0.203 F 
HETATM    7  F7  UNL     1     -32.977   6.883   6.817  1.00 20.00    -0.203 F 
HETATM    8 CL8  UNL     1     -32.170   7.494   2.156  1.00 20.00    -0.122 Cl
ENDROOT
TORSDOF 0
ENDMDL
MODEL 7
REMARK VINA RESULT:      -4.0      2.429      2.893
REMARK  0 active torsions:
REMARK  status: ('A' for Active; 'I' for Inactive)
ROOT
HETATM    1  C1  UNL     1     -33.483   6.455   4.157  1.00 20.00     0.105 C 
HETATM    2  C2  UNL     1     -33.035   8.492   4.612  1.00 20.00     0.260 C 
HETATM    3  C3  UNL     1     -32.384   7.432   3.690  1.00 20.00     0.128 C 
HETATM    4  C4  UNL     1     -33.599   7.307   5.441  1.00 20.00     0.276 C 
HETATM    5  F5  UNL     1     -32.181   9.313   5.263  1.00 20.00    -0.241 F 
HETATM    6  F6  UNL     1     -32.824   6.906   6.476  1.00 20.00    -0.203 F 
HETATM    7  F7  UNL     1     -34.848   7.474   5.927  1.00 20.00    -0.203 F 
HETATM    8 CL8  UNL     1     -32.236   7.784   1.948  1.00 20.00    -0.122 Cl
ENDROOT
TORSDOF 0
ENDMDL
MODEL 8
REMARK VINA RESULT:      -4.0      2.182      2.603
REMARK  0 active torsions:
REMARK  status: ('A' for Active; 'I' for Inactive)
ROOT
HETATM    1  C1  UNL     1     -32.542   7.286   4.341  1.00 20.00     0.105 C 
HETATM    2  C2  UNL     1     -34.225   6.065   4.825  1.00 20.00     0.260 C 
HETATM    3  C3  UNL     1     -33.524   6.447   3.498  1.00 20.00     0.128 C 
HETATM    4  C4  UNL     1     -33.653   7.383   5.412  1.00 20.00     0.276 C 
HETATM    5  F5  UNL     1     -35.573   5.978   4.777  1.00 20.00    -0.241 F 
HETATM    6  F6  UNL     1     -34.465   8.460   5.312  1.00 20.00    -0.203 F 
HETATM    7  F7  UNL     1     -33.239   7.321   6.696  1.00 20.00    -0.203 F 
HETATM    8 CL8  UNL     1     -32.869   5.146   2.468  1.00 20.00    -0.122 Cl
ENDROOT
TORSDOF 0
ENDMDL
MODEL 9
REMARK VINA RESULT:      -3.8      2.302      2.685
REMARK  0 active torsions:
REMARK  status: ('A' for Active; 'I' for Inactive)
ROOT
HETATM    1  C1  UNL     1     -34.149   5.094   4.314  1.00 20.00     0.105 C 
HETATM    2  C2  UNL     1     -32.862   6.757   3.947  1.00 20.00     0.260 C 
HETATM    3  C3  UNL     1     -34.198   6.584   4.711  1.00 20.00     0.128 C 
HETATM    4  C4  UNL     1     -33.272   5.513   3.114  1.00 20.00     0.276 C 
HETATM    5  F5  UNL     1     -32.722   7.909   3.256  1.00 20.00    -0.241 F 
HETATM    6  F6  UNL     1     -33.943   5.781   1.969  1.00 20.00    -0.203 F 
HETATM    7  F7  UNL     1     -32.269   4.667   2.792  1.00 20.00    -0.203 F 
HETATM    8 CL8  UNL     1     -34.257   7.005   6.444  1.00 20.00    -0.122 Cl
ENDROOT
TORSDOF 0
ENDMDL
