MODEL 1
REMARK VINA RESULT:      -4.6      0.000      0.000
REMARK  1 active torsions:
REMARK  status: ('A' for Active; 'I' for Inactive)
REMARK    1  A    between atoms: C2_2  and  C3_3 
ROOT
HETATM    1  C1  UNL     1     -34.450   5.387   6.196  1.00 20.00     0.058 C 
HETATM    2  C2  UNL     1     -34.333   5.932   4.773  1.00 20.00     0.189 C 
HETATM    3 CL6  UNL     1     -33.596   4.677   3.720  1.00 20.00    -0.094 Cl
HETATM    4 CL7  UNL     1     -36.001   6.235   4.156  1.00 20.00    -0.094 Cl
ENDROOT
BRANCH   2   5
HETATM    5  C3  UNL     1     -33.537   7.242   4.692  1.00 20.00     0.354 C 
HETATM    6  F4  UNL     1     -32.898   7.461   5.873  1.00 20.00    -0.184 F 
HETATM    7  F5  UNL     1     -34.385   8.291   4.520  1.00 20.00    -0.184 F 
HETATM    8 CL8  UNL     1     -32.326   7.273   3.389  1.00 20.00    -0.045 Cl
ENDBRANCH   2   5
TORSDOF 1
ENDMDL
MODEL 2
REMARK VINA RESULT:      -4.5      1.192      1.669
REMARK  1 active torsions:
REMARK  status: ('A' for Active; 'I' for Inactive)
REMARK    1  A    between atoms: C2_2  and  C3_3 
ROOT
HETATM    1  C1  UNL     1     -35.729   6.165   4.265  1.00 20.00     0.058 C 
HETATM    2  C2  UNL     1     -34.274   5.995   4.703  1.00 20.00     0.189 C 
HETATM    3 CL6  UNL     1     -34.233   5.260   6.342  1.00 20.00    -0.094 Cl
HETATM    4 CL7  UNL     1     -33.487   4.828   3.574  1.00 20.00    -0.094 Cl
ENDROOT
BRANCH   2   5
HETATM    5  C3  UNL     1     -33.480   7.308   4.679  1.00 20.00     0.354 C 
HETATM    6  F4  UNL     1     -32.866   7.492   5.879  1.00 20.00    -0.184 F 
HETATM    7  F5  UNL     1     -34.328   8.361   4.523  1.00 20.00    -0.184 F 
HETATM    8 CL8  UNL     1     -32.244   7.383   3.402  1.00 20.00    -0.045 Cl
ENDBRANCH   2   5
TORSDOF 1
ENDMDL
MODEL 3
REMARK VINA RESULT:      -4.5      1.166      1.702
REMARK  1 active torsions:
REMARK  status: ('A' for Active; 'I' for Inactive)
REMARK    1  A    between atoms: C2_2  and  C3_3 
ROOT
HETATM    1  C1  UNL     1     -33.681   4.823   3.853  1.00 20.00     0.058 C 
HETATM    2  C2  UNL     1     -34.306   5.936   4.695  1.00 20.00     0.189 C 
HETATM    3 CL6  UNL     1     -35.998   6.205   4.154  1.00 20.00    -0.094 Cl
HETATM    4 CL7  UNL     1     -34.377   5.363   6.405  1.00 20.00    -0.094 Cl
ENDROOT
BRANCH   2   5
HETATM    5  C3  UNL     1     -33.509   7.246   4.651  1.00 20.00     0.354 C 
HETATM    6  F4  UNL     1     -32.880   7.437   5.842  1.00 20.00    -0.184 F 
HETATM    7  F5  UNL     1     -34.355   8.299   4.496  1.00 20.00    -0.184 F 
HETATM    8 CL8  UNL     1     -32.287   7.307   3.359  1.00 20.00    -0.045 Cl
ENDBRANCH   2   5
TORSDOF 1
ENDMDL
MODEL 4
REMARK VINA RESULT:      -4.0      1.395      1.676
REMARK  1 active torsions:
REMARK  status: ('A' for Active; 'I' for Inactive)
REMARK    1  A    between atoms: C2_2  and  C3_3 
ROOT
HETATM    1  C1  UNL     1     -34.411   4.899   5.722  1.00 20.00     0.058 C 
HETATM    2  C2  UNL     1     -34.341   5.855   4.531  1.00 20.00     0.189 C 
HETATM    3 CL6  UNL     1     -33.491   5.044   3.172  1.00 20.00    -0.094 Cl
HETATM    4 CL7  UNL     1     -36.029   6.185   3.985  1.00 20.00    -0.094 Cl
ENDROOT
BRANCH   2   5
HETATM    5  C3  UNL     1     -33.667   7.192   4.869  1.00 20.00     0.354 C 
HETATM    6  F4  UNL     1     -34.426   8.217   4.397  1.00 20.00    -0.184 F 
HETATM    7  F5  UNL     1     -32.469   7.283   4.232  1.00 20.00    -0.184 F 
HETATM    8 CL8  UNL     1     -33.403   7.449   6.610  1.00 20.00    -0.045 Cl
ENDBRANCH   2   5
TORSDOF 1
ENDMDL
MODEL 5
REMARK VINA RESULT:      -3.9      1.710      2.410
REMARK  1 active torsions:
REMARK  status: ('A' for Active; 'I' for Inactive)
REMARK    1  A    between atoms: C2_2  and  C3_3 
ROOT
HETATM    1  C1  UNL     1     -33.590   5.098   3.396  1.00 20.00     0.058 C 
HETATM    2  C2  UNL     1     -34.313   5.866   4.501  1.00 20.00     0.189 C 
HETATM    3 CL6  UNL     1     -36.028   6.112   4.024  1.00 20.00    -0.094 Cl
HETATM    4 CL7  UNL     1     -34.313   4.837   5.984  1.00 20.00    -0.094 Cl
ENDROOT
BRANCH   2   5
HETATM    5  C3  UNL     1     -33.648   7.207   4.838  1.00 20.00     0.354 C 
HETATM    6  F4  UNL     1     -34.400   8.226   4.342  1.00 20.00    -0.184 F 
HETATM    7  F5  UNL     1     -32.439   7.294   4.221  1.00 20.00    -0.184 F 
HETATM    8 CL8  UNL     1     -33.415   7.482   6.580  1.00 20.00    -0.045 Cl
ENDBRANCH   2   5
TORSDOF 1
ENDMDL
MODEL 6
REMARK VINA RESULT:      -3.9      1.700      2.309
REMARK  1 active torsions:
REMARK  status: ('A' for Active; 'I' for Inactive)
REMARK    1  A    between atoms: C2_2  and  C3_3 
ROOT
HETATM    1  C1  UNL     1     -35.773   6.067   4.096  1.00 20.00     0.058 C 
HETATM    2  C2  UNL     1     -34.320   5.907   4.540  1.00 20.00     0.189 C 
HETATM    3 CL6  UNL     1     -34.251   4.777   5.935  1.00 20.00    -0.094 Cl
HETATM    4 CL7  UNL     1     -33.407   5.139   3.185  1.00 20.00    -0.094 Cl
ENDROOT
BRANCH   2   5
HETATM    5  C3  UNL     1     -33.645   7.240   4.889  1.00 20.00     0.354 C 
HETATM    6  F4  UNL     1     -34.381   8.268   4.388  1.00 20.00    -0.184 F 
HETATM    7  F5  UNL     1     -32.428   7.317   4.286  1.00 20.00    -0.184 F 
HETATM    8 CL8  UNL     1     -33.430   7.506   6.635  1.00 20.00    -0.045 Cl
ENDBRANCH   2   5
TORSDOF 1
ENDMDL
MODEL 7
REMARK VINA RESULT:      -3.9      1.617      1.756
REMARK  1 active torsions:
REMARK  status: ('A' for Active; 'I' for Inactive)
REMARK    1  A    between atoms: C2_2  and  C3_3 
ROOT
HETATM    1  C1  UNL     1     -34.020   4.447   5.126  1.00 20.00     0.058 C 
HETATM    2  C2  UNL     1     -34.194   5.921   4.760  1.00 20.00     0.189 C 
HETATM    3 CL6  UNL     1     -33.099   6.322   3.393  1.00 20.00    -0.094 Cl
HETATM    4 CL7  UNL     1     -35.885   6.151   4.175  1.00 20.00    -0.094 Cl
ENDROOT
BRANCH   2   5
HETATM    5  C3  UNL     1     -33.953   6.868   5.943  1.00 20.00     0.354 C 
HETATM    6  F4  UNL     1     -32.848   6.469   6.628  1.00 20.00    -0.184 F 
HETATM    7  F5  UNL     1     -34.990   6.791   6.819  1.00 20.00    -0.184 F 
HETATM    8 CL8  UNL     1     -33.734   8.570   5.473  1.00 20.00    -0.045 Cl
ENDBRANCH   2   5
TORSDOF 1
ENDMDL
MODEL 8
REMARK VINA RESULT:      -3.8      1.818      2.121
REMARK  1 active torsions:
REMARK  status: ('A' for Active; 'I' for Inactive)
REMARK    1  A    between atoms: C2_2  and  C3_3 
ROOT
HETATM    1  C1  UNL     1     -35.651   6.091   4.270  1.00 20.00     0.058 C 
HETATM    2  C2  UNL     1     -34.218   5.971   4.788  1.00 20.00     0.189 C 
HETATM    3 CL6  UNL     1     -33.903   4.267   5.263  1.00 20.00    -0.094 Cl
HETATM    4 CL7  UNL     1     -33.101   6.360   3.425  1.00 20.00    -0.094 Cl
ENDROOT
BRANCH   2   5
HETATM    5  C3  UNL     1     -33.916   6.922   5.954  1.00 20.00     0.354 C 
HETATM    6  F4  UNL     1     -32.823   6.478   6.632  1.00 20.00    -0.184 F 
HETATM    7  F5  UNL     1     -34.945   6.908   6.843  1.00 20.00    -0.184 F 
HETATM    8 CL8  UNL     1     -33.619   8.604   5.457  1.00 20.00    -0.045 Cl
ENDBRANCH   2   5
TORSDOF 1
ENDMDL
MODEL 9
REMARK VINA RESULT:      -3.7      1.754      2.387
REMARK  1 active torsions:
REMARK  status: ('A' for Active; 'I' for Inactive)
REMARK    1  A    between atoms: C2_2  and  C3_3 
ROOT
HETATM    1  C1  UNL     1     -33.280   6.301   3.545  1.00 20.00     0.058 C 
HETATM    2  C2  UNL     1     -34.207   6.007   4.724  1.00 20.00     0.189 C 
HETATM    3 CL6  UNL     1     -35.914   6.141   4.180  1.00 20.00    -0.094 Cl
HETATM    4 CL7  UNL     1     -33.940   4.294   5.226  1.00 20.00    -0.094 Cl
ENDROOT
BRANCH   2   5
HETATM    5  C3  UNL     1     -33.951   6.916   5.934  1.00 20.00     0.354 C 
HETATM    6  F4  UNL     1     -32.842   6.491   6.597  1.00 20.00    -0.184 F 
HETATM    7  F5  UNL     1     -34.981   6.815   6.816  1.00 20.00    -0.184 F 
HETATM    8 CL8  UNL     1     -33.729   8.631   5.516  1.00 20.00    -0.045 Cl
ENDBRANCH   2   5
TORSDOF 1
ENDMDL
