MODEL 1
REMARK VINA RESULT:      -4.9      0.000      0.000
REMARK  1 active torsions:
REMARK  status: ('A' for Active; 'I' for Inactive)
REMARK    1  A    between atoms: C1_1  and  C2_2 
ROOT
HETATM    1  C2  UNL     1     -34.609   5.892   4.830  1.00 20.00     0.357 C 
HETATM    2  F5  UNL     1     -34.074   4.750   4.335  1.00 20.00    -0.187 F 
HETATM    3  F6  UNL     1     -35.821   6.049   4.242  1.00 20.00    -0.187 F 
HETATM    4 BR7  UNL     1     -33.472   7.403   4.402  1.00 20.00    -0.005 Br
ENDROOT
BRANCH   1   5
HETATM    5  C1  UNL     1     -34.787   5.767   6.321  1.00 20.00     0.436 C 
HETATM    6  F3  UNL     1     -34.562   6.960   6.923  1.00 20.00    -0.207 F 
HETATM    7  F4  UNL     1     -33.855   4.907   6.808  1.00 20.00    -0.207 F 
ENDBRANCH   1   5
TORSDOF 1
ENDMDL
MODEL 2
REMARK VINA RESULT:      -4.5      1.453      1.825
REMARK  1 active torsions:
REMARK  status: ('A' for Active; 'I' for Inactive)
REMARK    1  A    between atoms: C1_1  and  C2_2 
ROOT
HETATM    1  C2  UNL     1     -34.460   5.728   4.783  1.00 20.00     0.357 C 
HETATM    2  F5  UNL     1     -34.520   4.617   5.557  1.00 20.00    -0.187 F 
HETATM    3  F6  UNL     1     -35.729   6.010   4.396  1.00 20.00    -0.187 F 
HETATM    4 BR7  UNL     1     -33.358   5.395   3.223  1.00 20.00    -0.005 Br
ENDROOT
BRANCH   1   5
HETATM    5  C1  UNL     1     -33.912   6.879   5.585  1.00 20.00     0.436 C 
HETATM    6  F3  UNL     1     -34.595   7.010   6.748  1.00 20.00    -0.207 F 
HETATM    7  F4  UNL     1     -34.103   8.032   4.893  1.00 20.00    -0.207 F 
ENDBRANCH   1   5
TORSDOF 1
ENDMDL
MODEL 3
REMARK VINA RESULT:      -4.5      0.698      2.751
REMARK  1 active torsions:
REMARK  status: ('A' for Active; 'I' for Inactive)
REMARK    1  A    between atoms: C1_1  and  C2_2 
ROOT
HETATM    1  C2  UNL     1     -34.383   5.964   6.091  1.00 20.00     0.357 C 
HETATM    2  F5  UNL     1     -35.361   6.304   6.965  1.00 20.00    -0.187 F 
HETATM    3  F6  UNL     1     -33.509   5.174   6.762  1.00 20.00    -0.187 F 
HETATM    4 BR7  UNL     1     -33.473   7.555   5.456  1.00 20.00    -0.005 Br
ENDROOT
BRANCH   1   5
HETATM    5  C1  UNL     1     -34.973   5.194   4.939  1.00 20.00     0.436 C 
HETATM    6  F3  UNL     1     -34.011   4.893   4.032  1.00 20.00    -0.207 F 
HETATM    7  F4  UNL     1     -35.875   5.980   4.296  1.00 20.00    -0.207 F 
ENDBRANCH   1   5
TORSDOF 1
ENDMDL
MODEL 4
REMARK VINA RESULT:      -4.5      1.171      2.548
REMARK  1 active torsions:
REMARK  status: ('A' for Active; 'I' for Inactive)
REMARK    1  A    between atoms: C1_1  and  C2_2 
ROOT
HETATM    1  C2  UNL     1     -34.864   5.847   4.878  1.00 20.00     0.357 C 
HETATM    2  F5  UNL     1     -36.070   6.180   4.358  1.00 20.00    -0.187 F 
HETATM    3  F6  UNL     1     -35.090   5.356   6.122  1.00 20.00    -0.187 F 
HETATM    4 BR7  UNL     1     -33.729   7.416   4.990  1.00 20.00    -0.005 Br
ENDROOT
BRANCH   1   5
HETATM    5  C1  UNL     1     -34.218   4.784   4.028  1.00 20.00     0.436 C 
HETATM    6  F3  UNL     1     -33.669   3.825   4.811  1.00 20.00    -0.207 F 
HETATM    7  F4  UNL     1     -33.197   5.339   3.325  1.00 20.00    -0.207 F 
ENDBRANCH   1   5
TORSDOF 1
ENDMDL
MODEL 5
REMARK VINA RESULT:      -4.4      1.949      2.781
REMARK  1 active torsions:
REMARK  status: ('A' for Active; 'I' for Inactive)
REMARK    1  A    between atoms: C1_1  and  C2_2 
ROOT
HETATM    1  C2  UNL     1     -34.772   6.025   4.592  1.00 20.00     0.357 C 
HETATM    2  F5  UNL     1     -34.269   7.267   4.390  1.00 20.00    -0.187 F 
HETATM    3  F6  UNL     1     -36.095   6.081   4.297  1.00 20.00    -0.187 F 
HETATM    4 BR7  UNL     1     -34.537   5.501   6.444  1.00 20.00    -0.005 Br
ENDROOT
BRANCH   1   5
HETATM    5  C1  UNL     1     -34.093   5.044   3.672  1.00 20.00     0.436 C 
HETATM    6  F3  UNL     1     -33.761   3.917   4.349  1.00 20.00    -0.207 F 
HETATM    7  F4  UNL     1     -32.929   5.584   3.229  1.00 20.00    -0.207 F 
ENDBRANCH   1   5
TORSDOF 1
ENDMDL
MODEL 6
REMARK VINA RESULT:      -4.4      1.447      2.626
REMARK  1 active torsions:
REMARK  status: ('A' for Active; 'I' for Inactive)
REMARK    1  A    between atoms: C1_1  and  C2_2 
ROOT
HETATM    1  C2  UNL     1     -33.670   7.432   5.508  1.00 20.00     0.357 C 
HETATM    2  F5  UNL     1     -34.317   8.547   5.928  1.00 20.00    -0.187 F 
HETATM    3  F6  UNL     1     -32.950   6.971   6.560  1.00 20.00    -0.187 F 
HETATM    4 BR7  UNL     1     -32.481   7.865   4.039  1.00 20.00    -0.005 Br
ENDROOT
BRANCH   1   5
HETATM    5  C1  UNL     1     -34.673   6.388   5.090  1.00 20.00     0.436 C 
HETATM    6  F3  UNL     1     -35.038   5.633   6.155  1.00 20.00    -0.207 F 
HETATM    7  F4  UNL     1     -34.090   5.544   4.200  1.00 20.00    -0.207 F 
ENDBRANCH   1   5
TORSDOF 1
ENDMDL
MODEL 7
REMARK VINA RESULT:      -4.3      1.281      2.524
REMARK  1 active torsions:
REMARK  status: ('A' for Active; 'I' for Inactive)
REMARK    1  A    between atoms: C1_1  and  C2_2 
ROOT
HETATM    1  C2  UNL     1     -33.710   7.190   5.628  1.00 20.00     0.357 C 
HETATM    2  F5  UNL     1     -34.532   8.188   6.033  1.00 20.00    -0.187 F 
HETATM    3  F6  UNL     1     -32.887   6.907   6.668  1.00 20.00    -0.187 F 
HETATM    4 BR7  UNL     1     -32.661   7.766   4.102  1.00 20.00    -0.005 Br
ENDROOT
BRANCH   1   5
HETATM    5  C1  UNL     1     -34.522   5.968   5.283  1.00 20.00     0.436 C 
HETATM    6  F3  UNL     1     -35.564   6.306   4.486  1.00 20.00    -0.207 F 
HETATM    7  F4  UNL     1     -35.057   5.456   6.421  1.00 20.00    -0.207 F 
ENDBRANCH   1   5
TORSDOF 1
ENDMDL
MODEL 8
REMARK VINA RESULT:      -4.3      1.884      2.602
REMARK  1 active torsions:
REMARK  status: ('A' for Active; 'I' for Inactive)
REMARK    1  A    between atoms: C1_1  and  C2_2 
ROOT
HETATM    1  C2  UNL     1     -34.514   6.073   4.627  1.00 20.00     0.357 C 
HETATM    2  F5  UNL     1     -35.789   6.127   4.172  1.00 20.00    -0.187 F 
HETATM    3  F6  UNL     1     -33.831   5.245   3.797  1.00 20.00    -0.187 F 
HETATM    4 BR7  UNL     1     -34.479   5.365   6.432  1.00 20.00    -0.005 Br
ENDROOT
BRANCH   1   5
HETATM    5  C1  UNL     1     -33.898   7.447   4.584  1.00 20.00     0.436 C 
HETATM    6  F3  UNL     1     -32.589   7.365   4.241  1.00 20.00    -0.207 F 
HETATM    7  F4  UNL     1     -33.937   7.990   5.828  1.00 20.00    -0.207 F 
ENDBRANCH   1   5
TORSDOF 1
ENDMDL
MODEL 9
REMARK VINA RESULT:      -4.3      2.584      3.413
REMARK  1 active torsions:
REMARK  status: ('A' for Active; 'I' for Inactive)
REMARK    1  A    between atoms: C1_1  and  C2_2 
ROOT
HETATM    1  C2  UNL     1     -33.621   7.451   5.220  1.00 20.00     0.357 C 
HETATM    2  F5  UNL     1     -32.828   7.154   6.278  1.00 20.00    -0.187 F 
HETATM    3  F6  UNL     1     -34.323   8.563   5.551  1.00 20.00    -0.187 F 
HETATM    4 BR7  UNL     1     -34.842   5.986   4.868  1.00 20.00    -0.005 Br
ENDROOT
BRANCH   1   5
HETATM    5  C1  UNL     1     -32.770   7.736   4.010  1.00 20.00     0.436 C 
HETATM    6  F3  UNL     1     -32.504   6.588   3.341  1.00 20.00    -0.207 F 
HETATM    7  F4  UNL     1     -31.573   8.232   4.416  1.00 20.00    -0.207 F 
ENDBRANCH   1   5
TORSDOF 1
ENDMDL
