MODEL 1
REMARK VINA RESULT:      -5.7      0.000      0.000
REMARK  1 active torsions:
REMARK  status: ('A' for Active; 'I' for Inactive)
REMARK    1  A    between atoms: C7_7  and  O9_9 
ROOT
HETATM    1  C1  UNL     1     -34.273   4.595   4.621  1.00 20.00    -0.019 A 
HETATM    2  C2  UNL     1     -33.777   5.409   3.669  1.00 20.00    -0.080 A 
HETATM    3  C3  UNL     1     -34.588   6.238   6.617  1.00 20.00     0.012 C 
HETATM    4  C4  UNL     1     -33.374   7.085   6.256  1.00 20.00     0.033 C 
HETATM    5  C5  UNL     1     -35.092   5.686   5.280  1.00 20.00     0.019 A 
HETATM    6  C6  UNL     1     -34.540   6.626   4.180  1.00 20.00     0.050 A 
HETATM    7  C7  UNL     1     -33.771   7.718   4.927  1.00 20.00     0.127 C 
HETATM    8  C8  UNL     1     -32.805   5.198   2.492  1.00 20.00     0.043 C 
ENDROOT
BRANCH   7   9
HETATM    9  O9  UNL     1     -32.640   8.133   4.182  1.00 20.00    -0.395 OA
HETATM   10  H21 UNL     1     -32.966   8.449   3.322  1.00 20.00     0.210 HD
ENDBRANCH   7   9
TORSDOF 1
ENDMDL
MODEL 2
REMARK VINA RESULT:      -5.1      1.583      2.885
REMARK  1 active torsions:
REMARK  status: ('A' for Active; 'I' for Inactive)
REMARK    1  A    between atoms: C7_7  and  O9_9 
ROOT
HETATM    1  C1  UNL     1     -33.741   7.392   6.402  1.00 20.00    -0.019 A 
HETATM    2  C2  UNL     1     -34.145   6.358   5.639  1.00 20.00    -0.080 A 
HETATM    3  C3  UNL     1     -32.355   8.798   4.703  1.00 20.00     0.012 C 
HETATM    4  C4  UNL     1     -31.847   7.580   3.939  1.00 20.00     0.033 C 
HETATM    5  C5  UNL     1     -33.722   8.375   5.250  1.00 20.00     0.019 A 
HETATM    6  C6  UNL     1     -34.203   7.197   4.367  1.00 20.00     0.050 A 
HETATM    7  C7  UNL     1     -33.113   7.009   3.310  1.00 20.00     0.127 C 
HETATM    8  C8  UNL     1     -34.449   4.876   5.934  1.00 20.00     0.043 C 
ENDROOT
BRANCH   7   9
HETATM    9  O9  UNL     1     -32.966   5.639   2.981  1.00 20.00    -0.395 OA
HETATM   10  H21 UNL     1     -33.591   5.143   3.537  1.00 20.00     0.210 HD
ENDBRANCH   7   9
TORSDOF 1
ENDMDL
MODEL 3
REMARK VINA RESULT:      -4.8      1.503      2.595
REMARK  1 active torsions:
REMARK  status: ('A' for Active; 'I' for Inactive)
REMARK    1  A    between atoms: C7_7  and  O9_9 
ROOT
HETATM    1  C1  UNL     1     -32.724   6.327   3.410  1.00 20.00    -0.019 A 
HETATM    2  C2  UNL     1     -33.055   7.374   4.190  1.00 20.00    -0.080 A 
HETATM    3  C3  UNL     1     -34.092   4.397   4.500  1.00 20.00     0.012 C 
HETATM    4  C4  UNL     1     -33.956   4.950   5.915  1.00 20.00     0.033 C 
HETATM    5  C5  UNL     1     -34.057   5.630   3.593  1.00 20.00     0.019 A 
HETATM    6  C6  UNL     1     -34.453   6.838   4.477  1.00 20.00     0.050 A 
HETATM    7  C7  UNL     1     -34.748   6.251   5.859  1.00 20.00     0.127 C 
HETATM    8  C8  UNL     1     -32.309   8.650   4.628  1.00 20.00     0.043 C 
ENDROOT
BRANCH   7   9
HETATM    9  O9  UNL     1     -34.355   7.151   6.880  1.00 20.00    -0.395 OA
HETATM   10  H21 UNL     1     -35.149   7.349   7.406  1.00 20.00     0.210 HD
ENDBRANCH   7   9
TORSDOF 1
ENDMDL
MODEL 4
REMARK VINA RESULT:      -4.3      1.479      2.729
REMARK  1 active torsions:
REMARK  status: ('A' for Active; 'I' for Inactive)
REMARK    1  A    between atoms: C7_7  and  O9_9 
ROOT
HETATM    1  C1  UNL     1     -33.892   8.329   5.511  1.00 20.00    -0.019 A 
HETATM    2  C2  UNL     1     -33.158   8.026   4.422  1.00 20.00    -0.080 A 
HETATM    3  C3  UNL     1     -34.993   6.035   6.066  1.00 20.00     0.012 C 
HETATM    4  C4  UNL     1     -35.103   5.608   4.606  1.00 20.00     0.033 C 
HETATM    5  C5  UNL     1     -33.763   6.946   6.116  1.00 20.00     0.019 A 
HETATM    6  C6  UNL     1     -32.904   6.593   4.876  1.00 20.00     0.050 A 
HETATM    7  C7  UNL     1     -33.649   5.455   4.176  1.00 20.00     0.127 C 
HETATM    8  C8  UNL     1     -32.723   8.826   3.179  1.00 20.00     0.043 C 
ENDROOT
BRANCH   7   9
HETATM    9  O9  UNL     1     -33.503   5.551   2.770  1.00 20.00    -0.395 OA
HETATM   10  H21 UNL     1     -32.605   5.243   2.555  1.00 20.00     0.210 HD
ENDBRANCH   7   9
TORSDOF 1
ENDMDL
MODEL 5
REMARK VINA RESULT:      -4.0     12.437     13.421
REMARK  1 active torsions:
REMARK  status: ('A' for Active; 'I' for Inactive)
REMARK    1  A    between atoms: C7_7  and  O9_9 
ROOT
HETATM    1  C1  UNL     1     -30.941  18.506  -0.359  1.00 20.00    -0.019 A 
HETATM    2  C2  UNL     1     -31.595  18.671   0.808  1.00 20.00    -0.080 A 
HETATM    3  C3  UNL     1     -32.902  18.046  -2.009  1.00 20.00     0.012 C 
HETATM    4  C4  UNL     1     -33.747  17.310  -0.975  1.00 20.00     0.033 C 
HETATM    5  C5  UNL     1     -32.078  19.051  -1.198  1.00 20.00     0.019 A 
HETATM    6  C6  UNL     1     -32.832  19.260   0.139  1.00 20.00     0.050 A 
HETATM    7  C7  UNL     1     -34.093  18.400   0.034  1.00 20.00     0.127 C 
HETATM    8  C8  UNL     1     -31.233  18.384   2.278  1.00 20.00     0.043 C 
ENDROOT
BRANCH   7   9
HETATM    9  O9  UNL     1     -34.436  17.858   1.297  1.00 20.00    -0.395 OA
HETATM   10  H21 UNL     1     -35.268  17.368   1.180  1.00 20.00     0.210 HD
ENDBRANCH   7   9
TORSDOF 1
ENDMDL
MODEL 6
REMARK VINA RESULT:      -4.0     12.647     13.177
REMARK  1 active torsions:
REMARK  status: ('A' for Active; 'I' for Inactive)
REMARK    1  A    between atoms: C7_7  and  O9_9 
ROOT
HETATM    1  C1  UNL     1     -34.154  18.038   0.438  1.00 20.00    -0.019 A 
HETATM    2  C2  UNL     1     -33.441  18.000  -0.704  1.00 20.00    -0.080 A 
HETATM    3  C3  UNL     1     -32.433  19.057   2.106  1.00 20.00     0.012 C 
HETATM    4  C4  UNL     1     -31.230  18.392   1.445  1.00 20.00     0.033 C 
HETATM    5  C5  UNL     1     -33.439  19.263   0.971  1.00 20.00     0.019 A 
HETATM    6  C6  UNL     1     -32.626  19.239  -0.347  1.00 20.00     0.050 A 
HETATM    7  C7  UNL     1     -31.167  19.063   0.078  1.00 20.00     0.127 C 
HETATM    8  C8  UNL     1     -33.446  17.065  -1.929  1.00 20.00     0.043 C 
ENDROOT
BRANCH   7   9
HETATM    9  O9  UNL     1     -30.462  18.275  -0.864  1.00 20.00    -0.395 OA
HETATM   10  H21 UNL     1     -30.836  17.377  -0.821  1.00 20.00     0.210 HD
ENDBRANCH   7   9
TORSDOF 1
ENDMDL
MODEL 7
REMARK VINA RESULT:      -3.8     15.688     16.535
REMARK  1 active torsions:
REMARK  status: ('A' for Active; 'I' for Inactive)
REMARK    1  A    between atoms: C7_7  and  O9_9 
ROOT
HETATM    1  C1  UNL     1     -25.555  19.225   9.968  1.00 20.00    -0.019 A 
HETATM    2  C2  UNL     1     -24.384  19.138   9.307  1.00 20.00    -0.080 A 
HETATM    3  C3  UNL     1     -25.168  17.587  11.956  1.00 20.00     0.012 C 
HETATM    4  C4  UNL     1     -24.299  16.632  11.145  1.00 20.00     0.033 C 
HETATM    5  C5  UNL     1     -24.933  18.963  11.324  1.00 20.00     0.019 A 
HETATM    6  C6  UNL     1     -23.580  18.877  10.576  1.00 20.00     0.050 A 
HETATM    7  C7  UNL     1     -23.058  17.463  10.839  1.00 20.00     0.127 C 
HETATM    8  C8  UNL     1     -23.992  19.263   7.822  1.00 20.00     0.043 C 
ENDROOT
BRANCH   7   9
HETATM    9  O9  UNL     1     -22.358  16.969   9.711  1.00 20.00    -0.395 OA
HETATM   10  H21 UNL     1     -21.574  17.534   9.592  1.00 20.00     0.210 HD
ENDBRANCH   7   9
TORSDOF 1
ENDMDL
MODEL 8
REMARK VINA RESULT:      -3.8     12.819     13.848
REMARK  1 active torsions:
REMARK  status: ('A' for Active; 'I' for Inactive)
REMARK    1  A    between atoms: C7_7  and  O9_9 
ROOT
HETATM    1  C1  UNL     1     -33.567  14.747  -4.541  1.00 20.00    -0.019 A 
HETATM    2  C2  UNL     1     -33.751  15.943  -3.947  1.00 20.00    -0.080 A 
HETATM    3  C3  UNL     1     -35.538  14.688  -6.242  1.00 20.00     0.012 C 
HETATM    4  C4  UNL     1     -36.490  15.461  -5.336  1.00 20.00     0.033 C 
HETATM    5  C5  UNL     1     -34.143  15.196  -5.868  1.00 20.00     0.019 A 
HETATM    6  C6  UNL     1     -34.343  16.579  -5.200  1.00 20.00     0.050 A 
HETATM    7  C7  UNL     1     -35.849  16.841  -5.252  1.00 20.00     0.127 C 
HETATM    8  C8  UNL     1     -33.465  16.481  -2.532  1.00 20.00     0.043 C 
ENDROOT
BRANCH   7   9
HETATM    9  O9  UNL     1     -36.274  17.551  -4.102  1.00 20.00    -0.395 OA
HETATM   10  H21 UNL     1     -36.036  17.009  -3.330  1.00 20.00     0.210 HD
ENDBRANCH   7   9
TORSDOF 1
ENDMDL
MODEL 9
REMARK VINA RESULT:      -3.7      8.753      9.531
REMARK  1 active torsions:
REMARK  status: ('A' for Active; 'I' for Inactive)
REMARK    1  A    between atoms: C7_7  and  O9_9 
ROOT
HETATM    1  C1  UNL     1     -43.248   6.413   1.836  1.00 20.00    -0.019 A 
HETATM    2  C2  UNL     1     -43.138   5.409   0.944  1.00 20.00    -0.080 A 
HETATM    3  C3  UNL     1     -41.338   8.012   1.079  1.00 20.00     0.012 C 
HETATM    4  C4  UNL     1     -40.419   6.882   0.629  1.00 20.00     0.033 C 
HETATM    5  C5  UNL     1     -42.755   7.471   0.871  1.00 20.00     0.019 A 
HETATM    6  C6  UNL     1     -42.641   6.328  -0.167  1.00 20.00     0.050 A 
HETATM    7  C7  UNL     1     -41.162   6.279  -0.557  1.00 20.00     0.127 C 
HETATM    8  C8  UNL     1     -43.417   3.895   1.008  1.00 20.00     0.043 C 
ENDROOT
BRANCH   7   9
HETATM    9  O9  UNL     1     -40.755   4.946  -0.812  1.00 20.00    -0.395 OA
HETATM   10  H21 UNL     1     -39.851   4.987  -1.169  1.00 20.00     0.210 HD
ENDBRANCH   7   9
TORSDOF 1
ENDMDL
