MODEL 1
REMARK VINA RESULT:      -5.7      0.000      0.000
REMARK  2 active torsions:
REMARK  status: ('A' for Active; 'I' for Inactive)
REMARK    1  A    between atoms: C1_1  and  C2_2 
REMARK    2  A    between atoms: C1_1  and  C3_3 
ROOT
HETATM    1  C1  UNL     1     -33.897   6.870   5.719  1.00 20.00     0.386 C 
HETATM    2  F4  UNL     1     -32.814   6.403   6.405  1.00 20.00    -0.191 F 
HETATM    3  F5  UNL     1     -34.576   7.663   6.597  1.00 20.00    -0.191 F 
ENDROOT
BRANCH   1   4
HETATM    4  C2  UNL     1     -34.781   5.674   5.394  1.00 20.00     0.390 C 
HETATM    5  F6  UNL     1     -35.816   6.103   4.621  1.00 20.00    -0.181 F 
HETATM    6  F7  UNL     1     -35.339   5.172   6.522  1.00 20.00    -0.181 F 
HETATM    7 CL9  UNL     1     -33.932   4.382   4.529  1.00 20.00    -0.042 Cl
ENDBRANCH   1   4
BRANCH   1   8
HETATM    8  C3  UNL     1     -33.408   7.741   4.559  1.00 20.00     0.328 C 
HETATM    9  F8  UNL     1     -34.461   8.394   4.001  1.00 20.00    -0.200 F 
HETATM   10 CL10 UNL     1     -32.596   6.787   3.291  1.00 20.00    -0.059 Cl
HETATM   11 CL11 UNL     1     -32.262   8.975   5.161  1.00 20.00    -0.059 Cl
ENDBRANCH   1   8
TORSDOF 2
ENDMDL
MODEL 2
REMARK VINA RESULT:      -5.4      1.102      3.277
REMARK  2 active torsions:
REMARK  status: ('A' for Active; 'I' for Inactive)
REMARK    1  A    between atoms: C1_1  and  C2_2 
REMARK    2  A    between atoms: C1_1  and  C3_3 
ROOT
HETATM    1  C1  UNL     1     -33.842   6.830   5.876  1.00 20.00     0.386 C 
HETATM    2  F4  UNL     1     -34.569   7.629   6.710  1.00 20.00    -0.191 F 
HETATM    3  F5  UNL     1     -32.796   6.372   6.622  1.00 20.00    -0.191 F 
ENDROOT
BRANCH   1   4
HETATM    4  C2  UNL     1     -33.274   7.718   4.776  1.00 20.00     0.390 C 
HETATM    5  F6  UNL     1     -32.281   8.479   5.310  1.00 20.00    -0.181 F 
HETATM    6  F7  UNL     1     -34.215   8.587   4.331  1.00 20.00    -0.181 F 
HETATM    7 CL9  UNL     1     -32.613   6.811   3.406  1.00 20.00    -0.042 Cl
ENDBRANCH   1   4
BRANCH   1   8
HETATM    8  C3  UNL     1     -34.704   5.635   5.463  1.00 20.00     0.328 C 
HETATM    9  F8  UNL     1     -35.392   5.174   6.541  1.00 20.00    -0.200 F 
HETATM   10 CL10 UNL     1     -33.735   4.297   4.795  1.00 20.00    -0.059 Cl
HETATM   11 CL11 UNL     1     -35.901   6.138   4.233  1.00 20.00    -0.059 Cl
ENDBRANCH   1   8
TORSDOF 2
ENDMDL
MODEL 3
REMARK VINA RESULT:      -5.2      2.108      3.614
REMARK  2 active torsions:
REMARK  status: ('A' for Active; 'I' for Inactive)
REMARK    1  A    between atoms: C1_1  and  C2_2 
REMARK    2  A    between atoms: C1_1  and  C3_3 
ROOT
HETATM    1  C1  UNL     1     -33.451   7.372   4.619  1.00 20.00     0.386 C 
HETATM    2  F4  UNL     1     -34.357   8.390   4.544  1.00 20.00    -0.191 F 
HETATM    3  F5  UNL     1     -32.759   7.578   5.776  1.00 20.00    -0.191 F 
ENDROOT
BRANCH   1   4
HETATM    4  C2  UNL     1     -32.478   7.543   3.459  1.00 20.00     0.390 C 
HETATM    5  F6  UNL     1     -32.567   6.445   2.661  1.00 20.00    -0.181 F 
HETATM    6  F7  UNL     1     -31.200   7.576   3.910  1.00 20.00    -0.181 F 
HETATM    7 CL9  UNL     1     -32.796   8.982   2.476  1.00 20.00    -0.042 Cl
ENDBRANCH   1   4
BRANCH   1   8
HETATM    8  C3  UNL     1     -34.208   6.047   4.734  1.00 20.00     0.328 C 
HETATM    9  F8  UNL     1     -33.549   5.082   4.039  1.00 20.00    -0.200 F 
HETATM   10 CL10 UNL     1     -35.873   6.159   4.110  1.00 20.00    -0.059 Cl
HETATM   11 CL11 UNL     1     -34.278   5.529   6.445  1.00 20.00    -0.059 Cl
ENDBRANCH   1   8
TORSDOF 2
ENDMDL
MODEL 4
REMARK VINA RESULT:      -5.2      1.286      3.449
REMARK  2 active torsions:
REMARK  status: ('A' for Active; 'I' for Inactive)
REMARK    1  A    between atoms: C1_1  and  C2_2 
REMARK    2  A    between atoms: C1_1  and  C3_3 
ROOT
HETATM    1  C1  UNL     1     -33.624   7.347   5.337  1.00 20.00     0.386 C 
HETATM    2  F4  UNL     1     -34.514   8.234   5.871  1.00 20.00    -0.191 F 
HETATM    3  F5  UNL     1     -32.813   6.972   6.368  1.00 20.00    -0.191 F 
ENDROOT
BRANCH   1   4
HETATM    4  C2  UNL     1     -32.773   8.107   4.329  1.00 20.00     0.390 C 
HETATM    5  F6  UNL     1     -33.585   8.548   3.330  1.00 20.00    -0.181 F 
HETATM    6  F7  UNL     1     -31.874   7.278   3.742  1.00 20.00    -0.181 F 
HETATM    7 CL9  UNL     1     -31.927   9.499   5.024  1.00 20.00    -0.042 Cl
ENDBRANCH   1   4
BRANCH   1   8
HETATM    8  C3  UNL     1     -34.390   6.114   4.850  1.00 20.00     0.328 C 
HETATM    9  F8  UNL     1     -35.631   6.482   4.436  1.00 20.00    -0.200 F 
HETATM   10 CL10 UNL     1     -34.560   4.875   6.119  1.00 20.00    -0.059 Cl
HETATM   11 CL11 UNL     1     -33.547   5.383   3.452  1.00 20.00    -0.059 Cl
ENDBRANCH   1   8
TORSDOF 2
ENDMDL
MODEL 5
REMARK VINA RESULT:      -5.1      1.548      2.498
REMARK  2 active torsions:
REMARK  status: ('A' for Active; 'I' for Inactive)
REMARK    1  A    between atoms: C1_1  and  C2_2 
REMARK    2  A    between atoms: C1_1  and  C3_3 
ROOT
HETATM    1  C1  UNL     1     -33.678   8.046   4.826  1.00 20.00     0.386 C 
HETATM    2  F4  UNL     1     -33.376   9.167   5.543  1.00 20.00    -0.191 F 
HETATM    3  F5  UNL     1     -34.840   8.329   4.171  1.00 20.00    -0.191 F 
ENDROOT
BRANCH   1   4
HETATM    4  C2  UNL     1     -33.965   6.931   5.823  1.00 20.00     0.390 C 
HETATM    5  F6  UNL     1     -34.576   7.476   6.910  1.00 20.00    -0.181 F 
HETATM    6  F7  UNL     1     -32.809   6.388   6.278  1.00 20.00    -0.181 F 
HETATM    7 CL9  UNL     1     -35.004   5.653   5.174  1.00 20.00    -0.042 Cl
ENDBRANCH   1   4
BRANCH   1   8
HETATM    8  C3  UNL     1     -32.578   7.817   3.786  1.00 20.00     0.328 C 
HETATM    9  F8  UNL     1     -31.359   7.928   4.377  1.00 20.00    -0.200 F 
HETATM   10 CL10 UNL     1     -32.663   8.982   2.440  1.00 20.00    -0.059 Cl
HETATM   11 CL11 UNL     1     -32.705   6.164   3.115  1.00 20.00    -0.059 Cl
ENDBRANCH   1   8
TORSDOF 2
ENDMDL
MODEL 6
REMARK VINA RESULT:      -5.0      1.718      2.326
REMARK  2 active torsions:
REMARK  status: ('A' for Active; 'I' for Inactive)
REMARK    1  A    between atoms: C1_1  and  C2_2 
REMARK    2  A    between atoms: C1_1  and  C3_3 
ROOT
HETATM    1  C1  UNL     1     -33.501   7.389   4.741  1.00 20.00     0.386 C 
HETATM    2  F4  UNL     1     -32.795   7.472   5.906  1.00 20.00    -0.191 F 
HETATM    3  F5  UNL     1     -34.340   8.465   4.741  1.00 20.00    -0.191 F 
ENDROOT
BRANCH   1   4
HETATM    4  C2  UNL     1     -34.357   6.132   4.815  1.00 20.00     0.390 C 
HETATM    5  F6  UNL     1     -33.701   5.129   4.169  1.00 20.00    -0.181 F 
HETATM    6  F7  UNL     1     -35.523   6.308   4.146  1.00 20.00    -0.181 F 
HETATM    7 CL9  UNL     1     -34.699   5.606   6.471  1.00 20.00    -0.042 Cl
ENDBRANCH   1   4
BRANCH   1   8
HETATM    8  C3  UNL     1     -32.530   7.531   3.566  1.00 20.00     0.328 C 
HETATM    9  F8  UNL     1     -31.258   7.635   4.035  1.00 20.00    -0.200 F 
HETATM   10 CL10 UNL     1     -32.883   8.961   2.562  1.00 20.00    -0.059 Cl
HETATM   11 CL11 UNL     1     -32.607   6.077   2.528  1.00 20.00    -0.059 Cl
ENDBRANCH   1   8
TORSDOF 2
ENDMDL
MODEL 7
REMARK VINA RESULT:      -5.0      1.297      3.488
REMARK  2 active torsions:
REMARK  status: ('A' for Active; 'I' for Inactive)
REMARK    1  A    between atoms: C1_1  and  C2_2 
REMARK    2  A    between atoms: C1_1  and  C3_3 
ROOT
HETATM    1  C1  UNL     1     -33.929   7.015   4.443  1.00 20.00     0.386 C 
HETATM    2  F4  UNL     1     -32.905   6.622   3.631  1.00 20.00    -0.191 F 
HETATM    3  F5  UNL     1     -34.717   7.825   3.679  1.00 20.00    -0.191 F 
ENDROOT
BRANCH   1   4
HETATM    4  C2  UNL     1     -33.328   7.864   5.555  1.00 20.00     0.390 C 
HETATM    5  F6  UNL     1     -32.766   7.032   6.473  1.00 20.00    -0.181 F 
HETATM    6  F7  UNL     1     -34.298   8.546   6.212  1.00 20.00    -0.181 F 
HETATM    7 CL9  UNL     1     -32.090   8.996   4.988  1.00 20.00    -0.042 Cl
ENDBRANCH   1   4
BRANCH   1   8
HETATM    8  C3  UNL     1     -34.743   5.781   4.840  1.00 20.00     0.328 C 
HETATM    9  F8  UNL     1     -36.001   5.880   4.334  1.00 20.00    -0.200 F 
HETATM   10 CL10 UNL     1     -34.858   5.582   6.607  1.00 20.00    -0.059 Cl
HETATM   11 CL11 UNL     1     -33.998   4.308   4.151  1.00 20.00    -0.059 Cl
ENDBRANCH   1   8
TORSDOF 2
ENDMDL
MODEL 8
REMARK VINA RESULT:      -4.6      1.579      2.708
REMARK  2 active torsions:
REMARK  status: ('A' for Active; 'I' for Inactive)
REMARK    1  A    between atoms: C1_1  and  C2_2 
REMARK    2  A    between atoms: C1_1  and  C3_3 
ROOT
HETATM    1  C1  UNL     1     -33.672   7.252   4.475  1.00 20.00     0.386 C 
HETATM    2  F4  UNL     1     -34.829   7.835   4.044  1.00 20.00    -0.191 F 
HETATM    3  F5  UNL     1     -33.566   6.084   3.778  1.00 20.00    -0.191 F 
ENDROOT
BRANCH   1   4
HETATM    4  C2  UNL     1     -33.859   6.901   5.945  1.00 20.00     0.390 C 
HETATM    5  F6  UNL     1     -34.535   7.918   6.545  1.00 20.00    -0.181 F 
HETATM    6  F7  UNL     1     -32.660   6.827   6.574  1.00 20.00    -0.181 F 
HETATM    7 CL9  UNL     1     -34.757   5.397   6.205  1.00 20.00    -0.042 Cl
ENDBRANCH   1   4
BRANCH   1   8
HETATM    8  C3  UNL     1     -32.495   8.153   4.093  1.00 20.00     0.328 C 
HETATM    9  F8  UNL     1     -31.376   7.399   3.928  1.00 20.00    -0.200 F 
HETATM   10 CL10 UNL     1     -32.165   9.397   5.325  1.00 20.00    -0.059 Cl
HETATM   11 CL11 UNL     1     -32.830   8.971   2.537  1.00 20.00    -0.059 Cl
ENDBRANCH   1   8
TORSDOF 2
ENDMDL
MODEL 9
REMARK VINA RESULT:      -4.3      1.801      2.748
REMARK  2 active torsions:
REMARK  status: ('A' for Active; 'I' for Inactive)
REMARK    1  A    between atoms: C1_1  and  C2_2 
REMARK    2  A    between atoms: C1_1  and  C3_3 
ROOT
HETATM    1  C1  UNL     1     -33.683   7.003   4.768  1.00 20.00     0.386 C 
HETATM    2  F4  UNL     1     -32.371   7.333   4.591  1.00 20.00    -0.191 F 
HETATM    3  F5  UNL     1     -34.398   8.045   4.256  1.00 20.00    -0.191 F 
ENDROOT
BRANCH   1   4
HETATM    4  C2  UNL     1     -33.942   6.954   6.268  1.00 20.00     0.390 C 
HETATM    5  F6  UNL     1     -34.356   8.186   6.672  1.00 20.00    -0.181 F 
HETATM    6  F7  UNL     1     -32.792   6.706   6.943  1.00 20.00    -0.181 F 
HETATM    7 CL9  UNL     1     -35.170   5.767   6.736  1.00 20.00    -0.042 Cl
ENDBRANCH   1   4
BRANCH   1   8
HETATM    8  C3  UNL     1     -33.991   5.751   3.943  1.00 20.00     0.328 C 
HETATM    9  F8  UNL     1     -35.275   5.799   3.501  1.00 20.00    -0.200 F 
HETATM   10 CL10 UNL     1     -33.769   4.250   4.878  1.00 20.00    -0.059 Cl
HETATM   11 CL11 UNL     1     -32.926   5.687   2.507  1.00 20.00    -0.059 Cl
ENDBRANCH   1   8
TORSDOF 2
ENDMDL
