MODEL 1
REMARK VINA RESULT:      -6.0      0.000      0.000
REMARK  0 active torsions:
REMARK  status: ('A' for Active; 'I' for Inactive)
ROOT
HETATM    1  C1  UNL     1     -34.487   5.256   6.331  1.00 20.00    -0.021 C 
HETATM    2  C2  UNL     1     -33.866   4.430   4.050  1.00 20.00    -0.021 C 
HETATM    3  C3  UNL     1     -34.068   6.486   6.658  1.00 20.00    -0.023 C 
HETATM    4  C4  UNL     1     -33.150   5.264   3.285  1.00 20.00    -0.023 C 
HETATM    5  C5  UNL     1     -34.898   5.126   4.891  1.00 20.00     0.035 C 
HETATM    6  C6  UNL     1     -34.135   7.391   5.486  1.00 20.00     0.033 A 
HETATM    7  C7  UNL     1     -33.589   6.665   3.482  1.00 20.00     0.033 A 
HETATM    8  C8  UNL     1     -34.839   6.579   4.382  1.00 20.00     0.015 A 
HETATM    9  C9  UNL     1     -32.863   7.465   4.598  1.00 20.00     0.098 A 
HETATM   10 CL10 UNL     1     -32.249   9.109   4.169  1.00 20.00    -0.124 Cl
ENDROOT
TORSDOF 0
ENDMDL
MODEL 2
REMARK VINA RESULT:      -5.4      1.787      3.087
REMARK  0 active torsions:
REMARK  status: ('A' for Active; 'I' for Inactive)
ROOT
HETATM    1  C1  UNL     1     -32.558   8.544   5.328  1.00 20.00    -0.021 C 
HETATM    2  C2  UNL     1     -34.109   6.948   6.475  1.00 20.00    -0.021 C 
HETATM    3  C3  UNL     1     -32.013   8.128   4.176  1.00 20.00    -0.023 C 
HETATM    4  C4  UNL     1     -34.308   5.768   5.873  1.00 20.00    -0.023 C 
HETATM    5  C5  UNL     1     -33.980   8.096   5.514  1.00 20.00     0.035 C 
HETATM    6  C6  UNL     1     -32.989   7.333   3.392  1.00 20.00     0.033 A 
HETATM    7  C7  UNL     1     -34.351   5.930   4.401  1.00 20.00     0.033 A 
HETATM    8  C8  UNL     1     -34.322   7.453   4.156  1.00 20.00     0.015 A 
HETATM    9  C9  UNL     1     -32.997   5.803   3.652  1.00 20.00     0.098 A 
HETATM   10 CL10 UNL     1     -32.952   4.719   2.206  1.00 20.00    -0.124 Cl
ENDROOT
TORSDOF 0
ENDMDL
MODEL 3
REMARK VINA RESULT:      -4.6      2.019      3.617
REMARK  0 active torsions:
REMARK  status: ('A' for Active; 'I' for Inactive)
ROOT
HETATM    1  C1  UNL     1     -32.258   6.909   2.732  1.00 20.00    -0.021 C 
HETATM    2  C2  UNL     1     -32.053   8.752   4.414  1.00 20.00    -0.021 C 
HETATM    3  C3  UNL     1     -32.902   5.802   3.130  1.00 20.00    -0.023 C 
HETATM    4  C4  UNL     1     -32.598   8.530   5.617  1.00 20.00    -0.023 C 
HETATM    5  C5  UNL     1     -32.852   8.176   3.279  1.00 20.00     0.035 C 
HETATM    6  C6  UNL     1     -34.043   6.148   4.010  1.00 20.00     0.033 A 
HETATM    7  C7  UNL     1     -33.863   7.768   5.488  1.00 20.00     0.033 A 
HETATM    8  C8  UNL     1     -34.138   7.686   3.972  1.00 20.00     0.015 A 
HETATM    9  C9  UNL     1     -33.744   6.221   5.531  1.00 20.00     0.098 A 
HETATM   10 CL10 UNL     1     -34.867   5.337   6.637  1.00 20.00    -0.124 Cl
ENDROOT
TORSDOF 0
ENDMDL
MODEL 4
REMARK VINA RESULT:      -3.7     12.835     13.742
REMARK  0 active torsions:
REMARK  status: ('A' for Active; 'I' for Inactive)
ROOT
HETATM    1  C1  UNL     1     -34.729  19.063   0.542  1.00 20.00    -0.021 C 
HETATM    2  C2  UNL     1     -32.254  18.807   0.826  1.00 20.00    -0.021 C 
HETATM    3  C3  UNL     1     -35.172  19.263  -0.707  1.00 20.00    -0.023 C 
HETATM    4  C4  UNL     1     -31.511  18.884  -0.287  1.00 20.00    -0.023 C 
HETATM    5  C5  UNL     1     -33.569  18.110   0.621  1.00 20.00     0.035 C 
HETATM    6  C6  UNL     1     -34.381  18.467  -1.677  1.00 20.00     0.033 A 
HETATM    7  C7  UNL     1     -32.207  18.243  -1.427  1.00 20.00     0.033 A 
HETATM    8  C8  UNL     1     -33.459  17.577  -0.821  1.00 20.00     0.015 A 
HETATM    9  C9  UNL     1     -33.128  19.160  -2.277  1.00 20.00     0.098 A 
HETATM   10 CL10 UNL     1     -32.929  19.094  -4.072  1.00 20.00    -0.124 Cl
ENDROOT
TORSDOF 0
ENDMDL
MODEL 5
REMARK VINA RESULT:      -3.6     12.718     13.923
REMARK  0 active torsions:
REMARK  status: ('A' for Active; 'I' for Inactive)
ROOT
HETATM    1  C1  UNL     1     -34.404  18.438  -1.333  1.00 20.00    -0.021 C 
HETATM    2  C2  UNL     1     -35.663  18.790  -3.468  1.00 20.00    -0.021 C 
HETATM    3  C3  UNL     1     -33.644  17.337  -1.259  1.00 20.00    -0.023 C 
HETATM    4  C4  UNL     1     -35.506  17.858  -4.418  1.00 20.00    -0.023 C 
HETATM    5  C5  UNL     1     -34.407  19.074  -2.695  1.00 20.00     0.035 C 
HETATM    6  C6  UNL     1     -33.003  17.054  -2.566  1.00 20.00     0.033 A 
HETATM    7  C7  UNL     1     -34.110  17.363  -4.442  1.00 20.00     0.033 A 
HETATM    8  C8  UNL     1     -33.339  18.266  -3.457  1.00 20.00     0.015 A 
HETATM    9  C9  UNL     1     -33.795  16.140  -3.539  1.00 20.00     0.098 A 
HETATM   10 CL10 UNL     1     -32.899  14.765  -4.294  1.00 20.00    -0.124 Cl
ENDROOT
TORSDOF 0
ENDMDL
MODEL 6
REMARK VINA RESULT:      -3.6     12.681     13.859
REMARK  0 active torsions:
REMARK  status: ('A' for Active; 'I' for Inactive)
ROOT
HETATM    1  C1  UNL     1     -35.648  18.340  -3.898  1.00 20.00    -0.021 C 
HETATM    2  C2  UNL     1     -33.985  16.479  -4.104  1.00 20.00    -0.021 C 
HETATM    3  C3  UNL     1     -35.756  18.917  -2.693  1.00 20.00    -0.023 C 
HETATM    4  C4  UNL     1     -33.298  16.164  -2.998  1.00 20.00    -0.023 C 
HETATM    5  C5  UNL     1     -34.239  17.952  -4.251  1.00 20.00     0.035 C 
HETATM    6  C6  UNL     1     -34.430  19.017  -2.039  1.00 20.00     0.033 A 
HETATM    7  C7  UNL     1     -32.970  17.382  -2.219  1.00 20.00     0.033 A 
HETATM    8  C8  UNL     1     -33.412  18.565  -3.105  1.00 20.00     0.015 A 
HETATM    9  C9  UNL     1     -34.007  17.817  -1.150  1.00 20.00     0.098 A 
HETATM   10 CL10 UNL     1     -33.381  18.194   0.503  1.00 20.00    -0.124 Cl
ENDROOT
TORSDOF 0
ENDMDL
MODEL 7
REMARK VINA RESULT:      -3.6     12.560     13.815
REMARK  0 active torsions:
REMARK  status: ('A' for Active; 'I' for Inactive)
ROOT
HETATM    1  C1  UNL     1     -34.794  13.841  -4.175  1.00 20.00    -0.021 C 
HETATM    2  C2  UNL     1     -33.472  15.882  -3.582  1.00 20.00    -0.021 C 
HETATM    3  C3  UNL     1     -35.888  14.032  -4.926  1.00 20.00    -0.023 C 
HETATM    4  C4  UNL     1     -33.931  17.051  -4.050  1.00 20.00    -0.023 C 
HETATM    5  C5  UNL     1     -33.650  14.742  -4.544  1.00 20.00     0.035 C 
HETATM    6  C6  UNL     1     -35.653  15.094  -5.933  1.00 20.00     0.033 A 
HETATM    7  C7  UNL     1     -34.491  16.888  -5.412  1.00 20.00     0.033 A 
HETATM    8  C8  UNL     1     -34.155  15.440  -5.822  1.00 20.00     0.015 A 
HETATM    9  C9  UNL     1     -36.002  16.543  -5.499  1.00 20.00     0.098 A 
HETATM   10 CL10 UNL     1     -37.008  17.525  -6.635  1.00 20.00    -0.124 Cl
ENDROOT
TORSDOF 0
ENDMDL
MODEL 8
REMARK VINA RESULT:      -3.6     12.894     14.130
REMARK  0 active torsions:
REMARK  status: ('A' for Active; 'I' for Inactive)
ROOT
HETATM    1  C1  UNL     1     -33.608  15.524  -3.668  1.00 20.00    -0.021 C 
HETATM    2  C2  UNL     1     -33.558  17.052  -1.685  1.00 20.00    -0.021 C 
HETATM    3  C3  UNL     1     -34.456  15.849  -4.654  1.00 20.00    -0.023 C 
HETATM    4  C4  UNL     1     -34.380  18.110  -1.721  1.00 20.00    -0.023 C 
HETATM    5  C5  UNL     1     -32.958  16.714  -3.020  1.00 20.00     0.035 C 
HETATM    6  C6  UNL     1     -34.509  17.319  -4.836  1.00 20.00     0.033 A 
HETATM    7  C7  UNL     1     -34.464  18.662  -3.094  1.00 20.00     0.033 A 
HETATM    8  C8  UNL     1     -33.412  17.886  -3.912  1.00 20.00     0.015 A 
HETATM    9  C9  UNL     1     -35.578  18.078  -4.005  1.00 20.00     0.098 A 
HETATM   10 CL10 UNL     1     -36.625  19.258  -4.887  1.00 20.00    -0.124 Cl
ENDROOT
TORSDOF 0
ENDMDL
MODEL 9
REMARK VINA RESULT:      -3.5     10.229     11.496
REMARK  0 active torsions:
REMARK  status: ('A' for Active; 'I' for Inactive)
ROOT
HETATM    1  C1  UNL     1     -42.580  15.383   5.370  1.00 20.00    -0.021 C 
HETATM    2  C2  UNL     1     -41.371  16.177   7.415  1.00 20.00    -0.021 C 
HETATM    3  C3  UNL     1     -42.110  14.271   4.789  1.00 20.00    -0.023 C 
HETATM    4  C4  UNL     1     -40.322  15.444   7.814  1.00 20.00    -0.023 C 
HETATM    5  C5  UNL     1     -42.504  15.353   6.871  1.00 20.00     0.035 C 
HETATM    6  C6  UNL     1     -41.644  13.303   5.811  1.00 20.00     0.033 A 
HETATM    7  C7  UNL     1     -40.582  14.000   7.607  1.00 20.00     0.033 A 
HETATM    8  C8  UNL     1     -42.057  13.909   7.167  1.00 20.00     0.015 A 
HETATM    9  C9  UNL     1     -40.155  13.412   6.236  1.00 20.00     0.098 A 
HETATM   10 CL10 UNL     1     -39.189  11.884   6.257  1.00 20.00    -0.124 Cl
ENDROOT
TORSDOF 0
ENDMDL
