MODEL 1
REMARK VINA RESULT:      -3.8      0.000      0.000
REMARK  0 active torsions:
REMARK  status: ('A' for Active; 'I' for Inactive)
ROOT
HETATM    1  C1  UNL     1     -34.797  17.856  -5.896  1.00 20.00     0.132 C 
HETATM    2  C2  UNL     1     -33.972  19.049  -5.503  1.00 20.00     0.079 C 
HETATM    3  C3  UNL     1     -33.224  18.531  -4.286  1.00 20.00     0.017 C 
HETATM    4  C4  UNL     1     -33.416  16.388  -2.916  1.00 20.00     0.011 C 
HETATM    5  C5  UNL     1     -33.049  15.440  -4.051  1.00 20.00     0.010 C 
HETATM    6  C6  UNL     1     -34.934  16.840  -4.776  1.00 20.00     0.071 C 
HETATM    7  C7  UNL     1     -34.176  17.523  -3.609  1.00 20.00    -0.033 C 
HETATM    8  C8  UNL     1     -34.275  15.450  -4.988  1.00 20.00    -0.037 C 
HETATM    9  C9  UNL     1     -35.120  18.235  -2.636  1.00 20.00     0.016 C 
HETATM   10  C10 UNL     1     -33.841  15.147  -6.428  1.00 20.00     0.015 C 
HETATM   11  C11 UNL     1     -35.268  14.354  -4.549  1.00 20.00     0.015 C 
HETATM   12  O12 UNL     1     -35.343  17.748  -6.988  1.00 20.00    -0.298 OA
ENDROOT
TORSDOF 0
ENDMDL
MODEL 2
REMARK VINA RESULT:      -3.7      1.824      3.054
REMARK  0 active torsions:
REMARK  status: ('A' for Active; 'I' for Inactive)
ROOT
HETATM    1  C1  UNL     1     -33.623  15.762  -4.277  1.00 20.00     0.132 C 
HETATM    2  C2  UNL     1     -33.549  16.732  -3.131  1.00 20.00     0.079 C 
HETATM    3  C3  UNL     1     -34.710  17.665  -3.429  1.00 20.00     0.017 C 
HETATM    4  C4  UNL     1     -36.267  17.909  -5.435  1.00 20.00     0.011 C 
HETATM    5  C5  UNL     1     -36.881  16.519  -5.331  1.00 20.00     0.010 C 
HETATM    6  C6  UNL     1     -34.437  16.292  -5.444  1.00 20.00     0.071 C 
HETATM    7  C7  UNL     1     -34.822  17.715  -4.967  1.00 20.00    -0.033 C 
HETATM    8  C8  UNL     1     -35.763  15.557  -5.783  1.00 20.00    -0.037 C 
HETATM    9  C9  UNL     1     -33.902  18.794  -5.544  1.00 20.00     0.016 C 
HETATM   10  C10 UNL     1     -35.940  14.189  -5.111  1.00 20.00     0.015 C 
HETATM   11  C11 UNL     1     -35.845  15.352  -7.310  1.00 20.00     0.015 C 
HETATM   12  O12 UNL     1     -33.041  14.684  -4.283  1.00 20.00    -0.298 OA
ENDROOT
TORSDOF 0
ENDMDL
MODEL 3
REMARK VINA RESULT:      -3.7      1.031      3.403
REMARK  0 active torsions:
REMARK  status: ('A' for Active; 'I' for Inactive)
ROOT
HETATM    1  C1  UNL     1     -36.191  17.013  -5.380  1.00 20.00     0.132 C 
HETATM    2  C2  UNL     1     -36.712  15.613  -5.542  1.00 20.00     0.079 C 
HETATM    3  C3  UNL     1     -35.573  14.783  -4.971  1.00 20.00     0.017 C 
HETATM    4  C4  UNL     1     -33.210  15.373  -4.213  1.00 20.00     0.011 C 
HETATM    5  C5  UNL     1     -33.632  16.310  -3.088  1.00 20.00     0.010 C 
HETATM    6  C6  UNL     1     -34.688  17.063  -5.175  1.00 20.00     0.071 C 
HETATM    7  C7  UNL     1     -34.284  15.571  -5.286  1.00 20.00    -0.033 C 
HETATM    8  C8  UNL     1     -34.170  17.568  -3.801  1.00 20.00    -0.037 C 
HETATM    9  C9  UNL     1     -33.754  15.210  -6.676  1.00 20.00     0.016 C 
HETATM   10  C10 UNL     1     -35.220  18.263  -2.924  1.00 20.00     0.015 C 
HETATM   11  C11 UNL     1     -33.013  18.561  -4.037  1.00 20.00     0.015 C 
HETATM   12  O12 UNL     1     -36.904  18.007  -5.461  1.00 20.00    -0.298 OA
ENDROOT
TORSDOF 0
ENDMDL
MODEL 4
REMARK VINA RESULT:      -3.6      1.606      3.679
REMARK  0 active torsions:
REMARK  status: ('A' for Active; 'I' for Inactive)
ROOT
HETATM    1  C1  UNL     1     -34.255  16.778  -3.945  1.00 20.00     0.132 C 
HETATM    2  C2  UNL     1     -33.403  15.550  -3.788  1.00 20.00     0.079 C 
HETATM    3  C3  UNL     1     -33.550  14.885  -5.147  1.00 20.00     0.017 C 
HETATM    4  C4  UNL     1     -35.045  15.366  -7.158  1.00 20.00     0.011 C 
HETATM    5  C5  UNL     1     -34.486  16.754  -7.444  1.00 20.00     0.010 C 
HETATM    6  C6  UNL     1     -35.230  16.674  -5.104  1.00 20.00     0.071 C 
HETATM    7  C7  UNL     1     -34.971  15.241  -5.634  1.00 20.00    -0.033 C 
HETATM    8  C8  UNL     1     -35.023  17.641  -6.301  1.00 20.00    -0.037 C 
HETATM    9  C9  UNL     1     -35.994  14.229  -5.109  1.00 20.00     0.016 C 
HETATM   10  C10 UNL     1     -34.059  18.805  -6.040  1.00 20.00     0.015 C 
HETATM   11  C11 UNL     1     -36.388  18.233  -6.707  1.00 20.00     0.015 C 
HETATM   12  O12 UNL     1     -34.199  17.735  -3.182  1.00 20.00    -0.298 OA
ENDROOT
TORSDOF 0
ENDMDL
MODEL 5
REMARK VINA RESULT:      -3.6     12.244     13.879
REMARK  0 active torsions:
REMARK  status: ('A' for Active; 'I' for Inactive)
ROOT
HETATM    1  C1  UNL     1     -33.803   7.874   5.582  1.00 20.00     0.132 C 
HETATM    2  C2  UNL     1     -34.215   6.818   6.568  1.00 20.00     0.079 C 
HETATM    3  C3  UNL     1     -34.139   5.553   5.729  1.00 20.00     0.017 C 
HETATM    4  C4  UNL     1     -33.771   5.146   3.237  1.00 20.00     0.011 C 
HETATM    5  C5  UNL     1     -32.376   5.755   3.181  1.00 20.00     0.010 C 
HETATM    6  C6  UNL     1     -33.916   7.411   4.141  1.00 20.00     0.071 C 
HETATM    7  C7  UNL     1     -34.500   5.983   4.292  1.00 20.00    -0.033 C 
HETATM    8  C8  UNL     1     -32.600   7.274   3.329  1.00 20.00    -0.037 C 
HETATM    9  C9  UNL     1     -36.016   5.947   4.079  1.00 20.00     0.016 C 
HETATM   10  C10 UNL     1     -31.368   7.929   3.968  1.00 20.00     0.015 C 
HETATM   11  C11 UNL     1     -32.805   7.903   1.935  1.00 20.00     0.015 C 
HETATM   12  O12 UNL     1     -33.465   9.005   5.913  1.00 20.00    -0.298 OA
ENDROOT
TORSDOF 0
ENDMDL
MODEL 6
REMARK VINA RESULT:      -3.6     24.686     26.269
REMARK  0 active torsions:
REMARK  status: ('A' for Active; 'I' for Inactive)
ROOT
HETATM    1  C1  UNL     1     -24.694  -1.832  11.650  1.00 20.00     0.132 C 
HETATM    2  C2  UNL     1     -23.977  -2.712  10.665  1.00 20.00     0.079 C 
HETATM    3  C3  UNL     1     -25.127  -3.271   9.843  1.00 20.00     0.017 C 
HETATM    4  C4  UNL     1     -27.661  -3.153  10.104  1.00 20.00     0.011 C 
HETATM    5  C5  UNL     1     -27.765  -1.639   9.969  1.00 20.00     0.010 C 
HETATM    6  C6  UNL     1     -26.171  -2.160  11.765  1.00 20.00     0.071 C 
HETATM    7  C7  UNL     1     -26.322  -3.373  10.813  1.00 20.00    -0.033 C 
HETATM    8  C8  UNL     1     -27.182  -1.082  11.285  1.00 20.00    -0.037 C 
HETATM    9  C9  UNL     1     -26.303  -4.709  11.561  1.00 20.00     0.016 C 
HETATM   10  C10 UNL     1     -26.586   0.311  11.050  1.00 20.00     0.015 C 
HETATM   11  C11 UNL     1     -28.307  -0.950  12.332  1.00 20.00     0.015 C 
HETATM   12  O12 UNL     1     -24.127  -0.979  12.324  1.00 20.00    -0.298 OA
ENDROOT
TORSDOF 0
ENDMDL
MODEL 7
REMARK VINA RESULT:      -3.5     25.164     26.351
REMARK  0 active torsions:
REMARK  status: ('A' for Active; 'I' for Inactive)
ROOT
HETATM    1  C1  UNL     1     -27.045  -0.942  11.456  1.00 20.00     0.132 C 
HETATM    2  C2  UNL     1     -28.250  -1.239  12.302  1.00 20.00     0.079 C 
HETATM    3  C3  UNL     1     -28.252  -2.759  12.329  1.00 20.00     0.017 C 
HETATM    4  C4  UNL     1     -26.890  -4.516  11.079  1.00 20.00     0.011 C 
HETATM    5  C5  UNL     1     -25.537  -4.103  11.646  1.00 20.00     0.010 C 
HETATM    6  C6  UNL     1     -26.598  -2.134  10.628  1.00 20.00     0.071 C 
HETATM    7  C7  UNL     1     -27.667  -3.202  10.972  1.00 20.00    -0.033 C 
HETATM    8  C8  UNL     1     -25.216  -2.757  10.962  1.00 20.00    -0.037 C 
HETATM    9  C9  UNL     1     -28.766  -3.292   9.910  1.00 20.00     0.016 C 
HETATM   10  C10 UNL     1     -24.318  -1.906  11.868  1.00 20.00     0.015 C 
HETATM   11  C11 UNL     1     -24.454  -3.018   9.645  1.00 20.00     0.015 C 
HETATM   12  O12 UNL     1     -26.517   0.163  11.404  1.00 20.00    -0.298 OA
ENDROOT
TORSDOF 0
ENDMDL
MODEL 8
REMARK VINA RESULT:      -3.5     13.802     15.181
REMARK  0 active torsions:
REMARK  status: ('A' for Active; 'I' for Inactive)
ROOT
HETATM    1  C1  UNL     1     -42.344  13.973   9.220  1.00 20.00     0.132 C 
HETATM    2  C2  UNL     1     -43.035  15.272   9.525  1.00 20.00     0.079 C 
HETATM    3  C3  UNL     1     -43.099  15.926   8.154  1.00 20.00     0.017 C 
HETATM    4  C4  UNL     1     -42.079  15.321   5.896  1.00 20.00     0.011 C 
HETATM    5  C5  UNL     1     -42.804  13.990   5.744  1.00 20.00     0.010 C 
HETATM    6  C6  UNL     1     -41.610  13.993   7.892  1.00 20.00     0.071 C 
HETATM    7  C7  UNL     1     -41.840  15.446   7.403  1.00 20.00    -0.033 C 
HETATM    8  C8  UNL     1     -42.134  13.054   6.772  1.00 20.00    -0.037 C 
HETATM    9  C9  UNL     1     -40.647  16.359   7.703  1.00 20.00     0.016 C 
HETATM   10  C10 UNL     1     -43.127  11.980   7.233  1.00 20.00     0.015 C 
HETATM   11  C11 UNL     1     -40.934  12.342   6.114  1.00 20.00     0.015 C 
HETATM   12  O12 UNL     1     -42.333  13.021   9.993  1.00 20.00    -0.298 OA
ENDROOT
TORSDOF 0
ENDMDL
MODEL 9
REMARK VINA RESULT:      -3.5      2.344      4.127
REMARK  0 active torsions:
REMARK  status: ('A' for Active; 'I' for Inactive)
ROOT
HETATM    1  C1  UNL     1     -35.842  14.433  -5.168  1.00 20.00     0.132 C 
HETATM    2  C2  UNL     1     -34.494  14.473  -4.506  1.00 20.00     0.079 C 
HETATM    3  C3  UNL     1     -33.934  15.794  -5.006  1.00 20.00     0.017 C 
HETATM    4  C4  UNL     1     -34.740  17.468  -6.753  1.00 20.00     0.011 C 
HETATM    5  C5  UNL     1     -36.043  17.822  -6.046  1.00 20.00     0.010 C 
HETATM    6  C6  UNL     1     -35.948  15.385  -6.346  1.00 20.00     0.071 C 
HETATM    7  C7  UNL     1     -34.524  15.990  -6.418  1.00 20.00    -0.033 C 
HETATM    8  C8  UNL     1     -36.937  16.576  -6.215  1.00 20.00    -0.037 C 
HETATM    9  C9  UNL     1     -33.650  15.304  -7.472  1.00 20.00     0.016 C 
HETATM   10  C10 UNL     1     -37.928  16.475  -5.049  1.00 20.00     0.015 C 
HETATM   11  C11 UNL     1     -37.749  16.697  -7.522  1.00 20.00     0.015 C 
HETATM   12  O12 UNL     1     -36.738  13.671  -4.822  1.00 20.00    -0.298 OA
ENDROOT
TORSDOF 0
ENDMDL
