MODEL 1
REMARK VINA RESULT:      -5.2      0.000      0.000
REMARK  0 active torsions:
REMARK  status: ('A' for Active; 'I' for Inactive)
ROOT
HETATM    1  C1  UNL     1     -33.822   7.236   5.832  1.00 20.00     0.014 C 
HETATM    2  C2  UNL     1     -33.192   5.870   3.796  1.00 20.00     0.014 C 
HETATM    3  C3  UNL     1     -33.186   8.374   5.081  1.00 20.00    -0.004 A 
HETATM    4  C4  UNL     1     -32.629   7.169   3.283  1.00 20.00    -0.004 A 
HETATM    5  C5  UNL     1     -33.291   8.469   3.594  1.00 20.00    -0.001 A 
HETATM    6  C6  UNL     1     -31.974   8.090   4.258  1.00 20.00    -0.001 A 
HETATM    7  C7  UNL     1     -34.252   6.075   4.904  1.00 20.00    -0.046 C 
HETATM    8  C8  UNL     1     -35.631   6.373   4.277  1.00 20.00     0.015 C 
HETATM    9  C9  UNL     1     -34.384   4.783   5.730  1.00 20.00     0.015 C 
ENDROOT
TORSDOF 0
ENDMDL
MODEL 2
REMARK VINA RESULT:      -5.1      0.920      3.307
REMARK  0 active torsions:
REMARK  status: ('A' for Active; 'I' for Inactive)
ROOT
HETATM    1  C1  UNL     1     -33.181   6.519   3.769  1.00 20.00     0.014 C 
HETATM    2  C2  UNL     1     -33.660   7.104   6.185  1.00 20.00     0.014 C 
HETATM    3  C3  UNL     1     -34.164   5.403   4.000  1.00 20.00    -0.004 A 
HETATM    4  C4  UNL     1     -34.586   5.918   6.133  1.00 20.00    -0.004 A 
HETATM    5  C5  UNL     1     -35.346   5.591   4.892  1.00 20.00    -0.001 A 
HETATM    6  C6  UNL     1     -34.170   4.730   5.332  1.00 20.00    -0.001 A 
HETATM    7  C7  UNL     1     -33.343   7.677   4.783  1.00 20.00    -0.046 C 
HETATM    8  C8  UNL     1     -34.468   8.632   4.329  1.00 20.00     0.015 C 
HETATM    9  C9  UNL     1     -32.037   8.489   4.845  1.00 20.00     0.015 C 
ENDROOT
TORSDOF 0
ENDMDL
MODEL 3
REMARK VINA RESULT:      -4.3     15.113     16.518
REMARK  0 active torsions:
REMARK  status: ('A' for Active; 'I' for Inactive)
ROOT
HETATM    1  C1  UNL     1     -24.540  18.697   9.884  1.00 20.00     0.014 C 
HETATM    2  C2  UNL     1     -22.722  18.527  11.637  1.00 20.00     0.014 C 
HETATM    3  C3  UNL     1     -23.403  18.574   8.907  1.00 20.00    -0.004 A 
HETATM    4  C4  UNL     1     -21.797  18.425  10.453  1.00 20.00    -0.004 A 
HETATM    5  C5  UNL     1     -22.218  17.718   9.209  1.00 20.00    -0.001 A 
HETATM    6  C6  UNL     1     -22.108  19.236   9.241  1.00 20.00    -0.001 A 
HETATM    7  C7  UNL     1     -24.182  18.154  11.288  1.00 20.00    -0.046 C 
HETATM    8  C8  UNL     1     -24.369  16.622  11.332  1.00 20.00     0.015 C 
HETATM    9  C9  UNL     1     -25.131  18.770  12.332  1.00 20.00     0.015 C 
ENDROOT
TORSDOF 0
ENDMDL
MODEL 4
REMARK VINA RESULT:      -4.3      0.817      2.097
REMARK  0 active torsions:
REMARK  status: ('A' for Active; 'I' for Inactive)
ROOT
HETATM    1  C1  UNL     1     -33.307   6.175   3.596  1.00 20.00     0.014 C 
HETATM    2  C2  UNL     1     -34.486   7.958   4.951  1.00 20.00     0.014 C 
HETATM    3  C3  UNL     1     -32.246   7.226   3.412  1.00 20.00    -0.004 A 
HETATM    4  C4  UNL     1     -33.287   8.802   4.607  1.00 20.00    -0.004 A 
HETATM    5  C5  UNL     1     -31.928   8.197   4.501  1.00 20.00    -0.001 A 
HETATM    6  C6  UNL     1     -32.678   8.646   3.254  1.00 20.00    -0.001 A 
HETATM    7  C7  UNL     1     -34.205   6.442   4.827  1.00 20.00    -0.046 C 
HETATM    8  C8  UNL     1     -33.525   5.917   6.110  1.00 20.00     0.015 C 
HETATM    9  C9  UNL     1     -35.536   5.687   4.663  1.00 20.00     0.015 C 
ENDROOT
TORSDOF 0
ENDMDL
MODEL 5
REMARK VINA RESULT:      -4.0      8.456      9.770
REMARK  0 active torsions:
REMARK  status: ('A' for Active; 'I' for Inactive)
ROOT
HETATM    1  C1  UNL     1     -41.194   5.521  -0.491  1.00 20.00     0.014 C 
HETATM    2  C2  UNL     1     -43.347   6.775  -0.042  1.00 20.00     0.014 C 
HETATM    3  C3  UNL     1     -40.532   6.795  -0.042  1.00 20.00    -0.004 A 
HETATM    4  C4  UNL     1     -42.432   7.903   0.354  1.00 20.00    -0.004 A 
HETATM    5  C5  UNL     1     -41.132   7.635   1.036  1.00 20.00    -0.001 A 
HETATM    6  C6  UNL     1     -41.168   8.092  -0.415  1.00 20.00    -0.001 A 
HETATM    7  C7  UNL     1     -42.652   5.394   0.015  1.00 20.00    -0.046 C 
HETATM    8  C8  UNL     1     -42.671   4.844   1.457  1.00 20.00     0.015 C 
HETATM    9  C9  UNL     1     -43.417   4.399  -0.875  1.00 20.00     0.015 C 
ENDROOT
TORSDOF 0
ENDMDL
MODEL 6
REMARK VINA RESULT:      -4.0      1.051      3.317
REMARK  0 active torsions:
REMARK  status: ('A' for Active; 'I' for Inactive)
ROOT
HETATM    1  C1  UNL     1     -33.273   6.852   6.211  1.00 20.00     0.014 C 
HETATM    2  C2  UNL     1     -34.964   7.131   4.348  1.00 20.00     0.014 C 
HETATM    3  C3  UNL     1     -33.785   5.438   6.263  1.00 20.00    -0.004 A 
HETATM    4  C4  UNL     1     -35.279   5.684   4.619  1.00 20.00    -0.004 A 
HETATM    5  C5  UNL     1     -34.207   4.726   5.020  1.00 20.00    -0.001 A 
HETATM    6  C6  UNL     1     -35.241   5.204   6.031  1.00 20.00    -0.001 A 
HETATM    7  C7  UNL     1     -33.562   7.542   4.857  1.00 20.00    -0.046 C 
HETATM    8  C8  UNL     1     -32.483   7.160   3.821  1.00 20.00     0.015 C 
HETATM    9  C9  UNL     1     -33.512   9.070   5.041  1.00 20.00     0.015 C 
ENDROOT
TORSDOF 0
ENDMDL
MODEL 7
REMARK VINA RESULT:      -3.9     15.247     16.667
REMARK  0 active torsions:
REMARK  status: ('A' for Active; 'I' for Inactive)
ROOT
HETATM    1  C1  UNL     1     -23.451  16.925   9.707  1.00 20.00     0.014 C 
HETATM    2  C2  UNL     1     -21.807  18.494  10.821  1.00 20.00     0.014 C 
HETATM    3  C3  UNL     1     -24.263  17.126  10.958  1.00 20.00    -0.004 A 
HETATM    4  C4  UNL     1     -22.811  18.511  11.942  1.00 20.00    -0.004 A 
HETATM    5  C5  UNL     1     -24.275  18.442  11.664  1.00 20.00    -0.001 A 
HETATM    6  C6  UNL     1     -23.541  17.249  12.258  1.00 20.00    -0.001 A 
HETATM    7  C7  UNL     1     -22.425  18.059   9.471  1.00 20.00    -0.046 C 
HETATM    8  C8  UNL     1     -23.106  19.262   8.783  1.00 20.00     0.015 C 
HETATM    9  C9  UNL     1     -21.311  17.556   8.537  1.00 20.00     0.015 C 
ENDROOT
TORSDOF 0
ENDMDL
MODEL 8
REMARK VINA RESULT:      -3.6      8.308     10.165
REMARK  0 active torsions:
REMARK  status: ('A' for Active; 'I' for Inactive)
ROOT
HETATM    1  C1  UNL     1     -43.183   7.104   1.469  1.00 20.00     0.014 C 
HETATM    2  C2  UNL     1     -42.192   6.229  -0.690  1.00 20.00     0.014 C 
HETATM    3  C3  UNL     1     -43.130   5.664   1.903  1.00 20.00    -0.004 A 
HETATM    4  C4  UNL     1     -42.256   4.891  -0.003  1.00 20.00    -0.004 A 
HETATM    5  C5  UNL     1     -42.018   4.769   1.464  1.00 20.00    -0.001 A 
HETATM    6  C6  UNL     1     -43.417   4.608   0.889  1.00 20.00    -0.001 A 
HETATM    7  C7  UNL     1     -42.211   7.414   0.306  1.00 20.00    -0.046 C 
HETATM    8  C8  UNL     1     -40.791   7.677   0.851  1.00 20.00     0.015 C 
HETATM    9  C9  UNL     1     -42.675   8.687  -0.423  1.00 20.00     0.015 C 
ENDROOT
TORSDOF 0
ENDMDL
MODEL 9
REMARK VINA RESULT:      -3.6      8.518      9.618
REMARK  0 active torsions:
REMARK  status: ('A' for Active; 'I' for Inactive)
ROOT
HETATM    1  C1  UNL     1     -40.992  13.361   4.826  1.00 20.00     0.014 C 
HETATM    2  C2  UNL     1     -40.109  13.409   7.198  1.00 20.00     0.014 C 
HETATM    3  C3  UNL     1     -40.036  12.213   4.651  1.00 20.00    -0.004 A 
HETATM    4  C4  UNL     1     -39.255  12.255   6.744  1.00 20.00    -0.004 A 
HETATM    5  C5  UNL     1     -39.771  11.255   5.765  1.00 20.00    -0.001 A 
HETATM    6  C6  UNL     1     -38.720  12.275   5.352  1.00 20.00    -0.001 A 
HETATM    7  C7  UNL     1     -41.359  13.613   6.308  1.00 20.00    -0.046 C 
HETATM    8  C8  UNL     1     -42.491  12.660   6.749  1.00 20.00     0.015 C 
HETATM    9  C9  UNL     1     -41.872  15.055   6.470  1.00 20.00     0.015 C 
ENDROOT
TORSDOF 0
ENDMDL
