MODEL 1
REMARK VINA RESULT:      -4.4      0.000      0.000
REMARK  0 active torsions:
REMARK  status: ('A' for Active; 'I' for Inactive)
ROOT
HETATM    1  C1  UNL     1     -35.310   6.269   3.832  1.00 20.00    -0.019 A 
HETATM    2  C2  UNL     1     -34.972   7.533   4.138  1.00 20.00    -0.019 A 
HETATM    3  C3  UNL     1     -32.743   6.017   2.074  1.00 20.00    -0.023 C 
HETATM    4  C4  UNL     1     -32.407   7.284   2.365  1.00 20.00    -0.086 C 
HETATM    5  C5  UNL     1     -33.175   5.021   3.109  1.00 20.00     0.042 C 
HETATM    6  C6  UNL     1     -32.435   7.802   3.780  1.00 20.00     0.048 C 
HETATM    7  C7  UNL     1     -34.760   5.338   6.663  1.00 20.00     0.001 C 
HETATM    8  C8  UNL     1     -34.375   6.777   7.012  1.00 20.00     0.001 C 
HETATM    9  C9  UNL     1     -34.004   4.742   5.477  1.00 20.00     0.015 C 
HETATM   10  C10 UNL     1     -33.298   7.387   6.117  1.00 20.00     0.015 C 
HETATM   11  C11 UNL     1     -33.957   5.683   4.258  1.00 20.00    -0.009 A 
HETATM   12  C12 UNL     1     -33.562   7.163   4.616  1.00 20.00    -0.008 A 
HETATM   13  C13 UNL     1     -31.947   8.244   1.309  1.00 20.00     0.043 C 
ENDROOT
TORSDOF 0
ENDMDL
MODEL 2
REMARK VINA RESULT:      -4.1     12.205     13.758
REMARK  0 active torsions:
REMARK  status: ('A' for Active; 'I' for Inactive)
ROOT
HETATM    1  C1  UNL     1     -33.908  19.159  -4.114  1.00 20.00    -0.019 A 
HETATM    2  C2  UNL     1     -32.922  18.278  -3.872  1.00 20.00    -0.019 A 
HETATM    3  C3  UNL     1     -35.523  16.932  -5.588  1.00 20.00    -0.023 C 
HETATM    4  C4  UNL     1     -34.536  16.050  -5.360  1.00 20.00    -0.086 C 
HETATM    5  C5  UNL     1     -36.079  17.837  -4.530  1.00 20.00     0.042 C 
HETATM    6  C6  UNL     1     -33.910  15.902  -3.998  1.00 20.00     0.048 C 
HETATM    7  C7  UNL     1     -34.665  19.263  -1.182  1.00 20.00     0.001 C 
HETATM    8  C8  UNL     1     -33.543  18.260  -0.904  1.00 20.00     0.001 C 
HETATM    9  C9  UNL     1     -35.673  18.820  -2.240  1.00 20.00     0.015 C 
HETATM   10  C10 UNL     1     -33.610  16.978  -1.732  1.00 20.00     0.015 C 
HETATM   11  C11 UNL     1     -35.005  18.269  -3.515  1.00 20.00    -0.009 A 
HETATM   12  C12 UNL     1     -33.851  17.239  -3.231  1.00 20.00    -0.008 A 
HETATM   13  C13 UNL     1     -34.026  15.136  -6.434  1.00 20.00     0.043 C 
ENDROOT
TORSDOF 0
ENDMDL
MODEL 3
REMARK VINA RESULT:      -3.8     12.560     14.197
REMARK  0 active torsions:
REMARK  status: ('A' for Active; 'I' for Inactive)
ROOT
HETATM    1  C1  UNL     1     -34.042  18.243  -5.335  1.00 20.00    -0.019 A 
HETATM    2  C2  UNL     1     -34.427  19.226  -4.503  1.00 20.00    -0.019 A 
HETATM    3  C3  UNL     1     -32.919  16.637  -2.906  1.00 20.00    -0.023 C 
HETATM    4  C4  UNL     1     -33.289  17.621  -2.070  1.00 20.00    -0.086 C 
HETATM    5  C5  UNL     1     -33.818  16.073  -3.965  1.00 20.00     0.042 C 
HETATM    6  C6  UNL     1     -34.664  18.235  -2.136  1.00 20.00     0.048 C 
HETATM    7  C7  UNL     1     -36.916  17.461  -5.895  1.00 20.00     0.001 C 
HETATM    8  C8  UNL     1     -37.356  18.579  -4.947  1.00 20.00     0.001 C 
HETATM    9  C9  UNL     1     -35.931  16.462  -5.292  1.00 20.00     0.015 C 
HETATM   10  C10 UNL     1     -36.738  18.517  -3.552  1.00 20.00     0.015 C 
HETATM   11  C11 UNL     1     -34.763  17.139  -4.550  1.00 20.00    -0.009 A 
HETATM   12  C12 UNL     1     -35.213  18.289  -3.576  1.00 20.00    -0.008 A 
HETATM   13  C13 UNL     1     -32.376  18.138  -1.000  1.00 20.00     0.043 C 
ENDROOT
TORSDOF 0
ENDMDL
MODEL 4
REMARK VINA RESULT:      -3.8     10.361     11.882
REMARK  0 active torsions:
REMARK  status: ('A' for Active; 'I' for Inactive)
ROOT
HETATM    1  C1  UNL     1     -42.720  15.441   7.234  1.00 20.00    -0.019 A 
HETATM    2  C2  UNL     1     -41.422  15.739   7.049  1.00 20.00    -0.019 A 
HETATM    3  C3  UNL     1     -42.126  12.457   6.538  1.00 20.00    -0.023 C 
HETATM    4  C4  UNL     1     -40.831  12.750   6.338  1.00 20.00    -0.086 C 
HETATM    5  C5  UNL     1     -42.900  12.920   7.735  1.00 20.00     0.042 C 
HETATM    6  C6  UNL     1     -40.048  13.577   7.326  1.00 20.00     0.048 C 
HETATM    7  C7  UNL     1     -42.497  15.904  10.221  1.00 20.00     0.001 C 
HETATM    8  C8  UNL     1     -41.019  16.243  10.011  1.00 20.00     0.001 C 
HETATM    9  C9  UNL     1     -42.928  14.549   9.664  1.00 20.00     0.015 C 
HETATM   10  C10 UNL     1     -40.214  15.172   9.277  1.00 20.00     0.015 C 
HETATM   11  C11 UNL     1     -42.435  14.304   8.225  1.00 20.00    -0.009 A 
HETATM   12  C12 UNL     1     -40.917  14.653   8.008  1.00 20.00    -0.008 A 
HETATM   13  C13 UNL     1     -40.077  12.242   5.146  1.00 20.00     0.043 C 
ENDROOT
TORSDOF 0
ENDMDL
MODEL 5
REMARK VINA RESULT:      -3.7     12.250     14.599
REMARK  0 active torsions:
REMARK  status: ('A' for Active; 'I' for Inactive)
ROOT
HETATM    1  C1  UNL     1     -36.037  17.899  -5.239  1.00 20.00    -0.019 A 
HETATM    2  C2  UNL     1     -36.050  16.665  -4.706  1.00 20.00    -0.019 A 
HETATM    3  C3  UNL     1     -33.596  18.641  -3.441  1.00 20.00    -0.023 C 
HETATM    4  C4  UNL     1     -33.612  17.414  -2.894  1.00 20.00    -0.086 C 
HETATM    5  C5  UNL     1     -33.679  18.886  -4.918  1.00 20.00     0.042 C 
HETATM    6  C6  UNL     1     -33.710  16.174  -3.744  1.00 20.00     0.048 C 
HETATM    7  C7  UNL     1     -35.103  16.833  -7.918  1.00 20.00     0.001 C 
HETATM    8  C8  UNL     1     -35.117  15.428  -7.312  1.00 20.00     0.001 C 
HETATM    9  C9  UNL     1     -34.273  17.855  -7.145  1.00 20.00     0.015 C 
HETATM   10  C10 UNL     1     -34.301  15.275  -6.030  1.00 20.00     0.015 C 
HETATM   11  C11 UNL     1     -34.554  17.838  -5.630  1.00 20.00    -0.009 A 
HETATM   12  C12 UNL     1     -34.570  16.394  -5.005  1.00 20.00    -0.008 A 
HETATM   13  C13 UNL     1     -33.493  17.204  -1.414  1.00 20.00     0.043 C 
ENDROOT
TORSDOF 0
ENDMDL
MODEL 6
REMARK VINA RESULT:      -3.6     12.060     14.236
REMARK  0 active torsions:
REMARK  status: ('A' for Active; 'I' for Inactive)
ROOT
HETATM    1  C1  UNL     1     -34.312  17.545  -5.910  1.00 20.00    -0.019 A 
HETATM    2  C2  UNL     1     -34.709  16.428  -6.543  1.00 20.00    -0.019 A 
HETATM    3  C3  UNL     1     -37.280  18.178  -5.182  1.00 20.00    -0.023 C 
HETATM    4  C4  UNL     1     -37.685  17.070  -5.824  1.00 20.00    -0.086 C 
HETATM    5  C5  UNL     1     -36.137  18.196  -4.212  1.00 20.00     0.042 C 
HETATM    6  C6  UNL     1     -37.009  15.741  -5.607  1.00 20.00     0.048 C 
HETATM    7  C7  UNL     1     -32.992  15.939  -3.706  1.00 20.00     0.001 C 
HETATM    8  C8  UNL     1     -33.443  14.666  -4.425  1.00 20.00     0.001 C 
HETATM    9  C9  UNL     1     -34.110  16.931  -3.395  1.00 20.00     0.015 C 
HETATM   10  C10 UNL     1     -34.941  14.594  -4.719  1.00 20.00     0.015 C 
HETATM   11  C11 UNL     1     -35.033  17.196  -4.601  1.00 20.00    -0.009 A 
HETATM   12  C12 UNL     1     -35.497  15.889  -5.342  1.00 20.00    -0.008 A 
HETATM   13  C13 UNL     1     -38.855  17.080  -6.763  1.00 20.00     0.043 C 
ENDROOT
TORSDOF 0
ENDMDL
MODEL 7
REMARK VINA RESULT:      -3.5      9.761     11.500
REMARK  0 active torsions:
REMARK  status: ('A' for Active; 'I' for Inactive)
ROOT
HETATM    1  C1  UNL     1     -42.600  13.436   7.613  1.00 20.00    -0.019 A 
HETATM    2  C2  UNL     1     -42.984  13.236   6.341  1.00 20.00    -0.019 A 
HETATM    3  C3  UNL     1     -39.683  12.630   6.852  1.00 20.00    -0.023 C 
HETATM    4  C4  UNL     1     -40.062  12.415   5.582  1.00 20.00    -0.086 C 
HETATM    5  C5  UNL     1     -40.058  13.857   7.628  1.00 20.00     0.042 C 
HETATM    6  C6  UNL     1     -40.903  13.415   4.831  1.00 20.00     0.048 C 
HETATM    7  C7  UNL     1     -42.981  16.432   7.356  1.00 20.00     0.001 C 
HETATM    8  C8  UNL     1     -43.417  16.205   5.907  1.00 20.00     0.001 C 
HETATM    9  C9  UNL     1     -41.620  15.839   7.715  1.00 20.00     0.015 C 
HETATM   10  C10 UNL     1     -42.423  15.421   5.053  1.00 20.00     0.015 C 
HETATM   11  C11 UNL     1     -41.452  14.383   7.238  1.00 20.00    -0.009 A 
HETATM   12  C12 UNL     1     -41.901  14.149   5.749  1.00 20.00    -0.008 A 
HETATM   13  C13 UNL     1     -39.640  11.192   4.824  1.00 20.00     0.043 C 
ENDROOT
TORSDOF 0
ENDMDL
MODEL 8
REMARK VINA RESULT:      -3.5     10.249     11.875
REMARK  0 active torsions:
REMARK  status: ('A' for Active; 'I' for Inactive)
ROOT
HETATM    1  C1  UNL     1     -40.814  15.728   7.254  1.00 20.00    -0.019 A 
HETATM    2  C2  UNL     1     -40.453  14.685   8.021  1.00 20.00    -0.019 A 
HETATM    3  C3  UNL     1     -41.194  13.800   4.829  1.00 20.00    -0.023 C 
HETATM    4  C4  UNL     1     -40.822  12.755   5.587  1.00 20.00    -0.086 C 
HETATM    5  C5  UNL     1     -42.193  14.826   5.273  1.00 20.00     0.042 C 
HETATM    6  C6  UNL     1     -41.398  12.535   6.961  1.00 20.00     0.048 C 
HETATM    7  C7  UNL     1     -43.417  16.064   8.767  1.00 20.00     0.001 C 
HETATM    8  C8  UNL     1     -43.008  14.877   9.642  1.00 20.00     0.001 C 
HETATM    9  C9  UNL     1     -43.410  15.786   7.266  1.00 20.00     0.015 C 
HETATM   10  C10 UNL     1     -42.657  13.605   8.873  1.00 20.00     0.015 C 
HETATM   11  C11 UNL     1     -42.125  15.080   6.790  1.00 20.00    -0.009 A 
HETATM   12  C12 UNL     1     -41.704  13.860   7.689  1.00 20.00    -0.008 A 
HETATM   13  C13 UNL     1     -39.846  11.728   5.098  1.00 20.00     0.043 C 
ENDROOT
TORSDOF 0
ENDMDL
MODEL 9
REMARK VINA RESULT:      -3.4     10.763     12.268
REMARK  0 active torsions:
REMARK  status: ('A' for Active; 'I' for Inactive)
ROOT
HETATM    1  C1  UNL     1     -42.503  13.671   8.372  1.00 20.00    -0.019 A 
HETATM    2  C2  UNL     1     -43.295  14.705   8.040  1.00 20.00    -0.019 A 
HETATM    3  C3  UNL     1     -41.396  13.594   5.455  1.00 20.00    -0.023 C 
HETATM    4  C4  UNL     1     -42.195  14.618   5.113  1.00 20.00    -0.086 C 
HETATM    5  C5  UNL     1     -40.551  13.586   6.693  1.00 20.00     0.042 C 
HETATM    6  C6  UNL     1     -42.294  15.857   5.965  1.00 20.00     0.048 C 
HETATM    7  C7  UNL     1     -40.772  15.436  10.123  1.00 20.00     0.001 C 
HETATM    8  C8  UNL     1     -41.673  16.615   9.747  1.00 20.00     0.001 C 
HETATM    9  C9  UNL     1     -40.178  14.679   8.938  1.00 20.00     0.015 C 
HETATM   10  C10 UNL     1     -41.834  16.842   8.245  1.00 20.00     0.015 C 
HETATM   11  C11 UNL     1     -41.221  14.339   7.856  1.00 20.00    -0.009 A 
HETATM   12  C12 UNL     1     -42.149  15.549   7.468  1.00 20.00    -0.008 A 
HETATM   13  C13 UNL     1     -43.001  14.607   3.849  1.00 20.00     0.043 C 
ENDROOT
TORSDOF 0
ENDMDL
