MODEL 1
REMARK VINA RESULT:      -5.2      0.000      0.000
REMARK  0 active torsions:
REMARK  status: ('A' for Active; 'I' for Inactive)
ROOT
HETATM    1  C1  UNL     1     -34.349   6.435   6.418  1.00 20.00    -0.025 C 
HETATM    2  C2  UNL     1     -34.303   5.119   6.164  1.00 20.00    -0.025 C 
HETATM    3  C3  UNL     1     -35.463   6.094   4.423  1.00 20.00     0.017 C 
HETATM    4  C4  UNL     1     -33.279   7.010   4.260  1.00 20.00     0.013 C 
HETATM    5  C5  UNL     1     -34.570   7.136   5.099  1.00 20.00     0.009 C 
HETATM    6  C6  UNL     1     -34.478   4.945   4.672  1.00 20.00     0.012 C 
HETATM    7  C7  UNL     1     -33.184   5.473   3.998  1.00 20.00    -0.010 C 
HETATM    8  C8  UNL     1     -33.108   5.142   2.513  1.00 20.00     0.010 C 
ENDROOT
TORSDOF 0
ENDMDL
MODEL 2
REMARK VINA RESULT:      -4.9      0.918      2.506
REMARK  0 active torsions:
REMARK  status: ('A' for Active; 'I' for Inactive)
ROOT
HETATM    1  C1  UNL     1     -34.078   4.346   4.781  1.00 20.00    -0.025 C 
HETATM    2  C2  UNL     1     -33.572   5.082   3.780  1.00 20.00    -0.025 C 
HETATM    3  C3  UNL     1     -35.492   6.150   4.487  1.00 20.00     0.017 C 
HETATM    4  C4  UNL     1     -34.037   6.253   6.361  1.00 20.00     0.013 C 
HETATM    5  C5  UNL     1     -34.951   5.260   5.608  1.00 20.00     0.009 C 
HETATM    6  C6  UNL     1     -34.096   6.491   3.950  1.00 20.00     0.012 C 
HETATM    7  C7  UNL     1     -33.400   7.085   5.203  1.00 20.00    -0.010 C 
HETATM    8  C8  UNL     1     -33.641   8.581   5.365  1.00 20.00     0.010 C 
ENDROOT
TORSDOF 0
ENDMDL
MODEL 3
REMARK VINA RESULT:      -3.8     16.182     17.237
REMARK  0 active torsions:
REMARK  status: ('A' for Active; 'I' for Inactive)
ROOT
HETATM    1  C1  UNL     1     -24.247  16.727  12.221  1.00 20.00    -0.025 C 
HETATM    2  C2  UNL     1     -24.318  16.414  10.919  1.00 20.00    -0.025 C 
HETATM    3  C3  UNL     1     -24.754  18.674  11.086  1.00 20.00     0.017 C 
HETATM    4  C4  UNL     1     -22.512  18.451  11.835  1.00 20.00     0.013 C 
HETATM    5  C5  UNL     1     -23.962  18.207  12.309  1.00 20.00     0.009 C 
HETATM    6  C6  UNL     1     -24.063  17.685  10.139  1.00 20.00     0.012 C 
HETATM    7  C7  UNL     1     -22.565  18.041  10.329  1.00 20.00    -0.010 C 
HETATM    8  C8  UNL     1     -22.098  19.161   9.407  1.00 20.00     0.010 C 
ENDROOT
TORSDOF 0
ENDMDL
MODEL 4
REMARK VINA RESULT:      -3.7      8.095      9.433
REMARK  0 active torsions:
REMARK  status: ('A' for Active; 'I' for Inactive)
ROOT
HETATM    1  C1  UNL     1     -41.033   7.865  -0.314  1.00 20.00    -0.025 C 
HETATM    2  C2  UNL     1     -40.897   7.643   1.002  1.00 20.00    -0.025 C 
HETATM    3  C3  UNL     1     -43.161   7.622   0.553  1.00 20.00     0.017 C 
HETATM    4  C4  UNL     1     -42.304   5.767  -0.658  1.00 20.00     0.013 C 
HETATM    5  C5  UNL     1     -42.377   7.309  -0.723  1.00 20.00     0.009 C 
HETATM    6  C6  UNL     1     -42.144   6.924   1.466  1.00 20.00     0.012 C 
HETATM    7  C7  UNL     1     -42.094   5.494   0.866  1.00 20.00    -0.010 C 
HETATM    8  C8  UNL     1     -43.160   4.569   1.441  1.00 20.00     0.010 C 
ENDROOT
TORSDOF 0
ENDMDL
MODEL 5
REMARK VINA RESULT:      -3.7      8.077      9.544
REMARK  0 active torsions:
REMARK  status: ('A' for Active; 'I' for Inactive)
ROOT
HETATM    1  C1  UNL     1     -40.704   5.757  -0.423  1.00 20.00    -0.025 C 
HETATM    2  C2  UNL     1     -41.931   5.628  -0.949  1.00 20.00    -0.025 C 
HETATM    3  C3  UNL     1     -42.205   6.452   1.190  1.00 20.00     0.017 C 
HETATM    4  C4  UNL     1     -41.027   8.167   0.045  1.00 20.00     0.013 C 
HETATM    5  C5  UNL     1     -40.798   6.780   0.685  1.00 20.00     0.009 C 
HETATM    6  C6  UNL     1     -42.840   6.578  -0.200  1.00 20.00     0.012 C 
HETATM    7  C7  UNL     1     -42.434   8.017  -0.616  1.00 20.00    -0.010 C 
HETATM    8  C8  UNL     1     -43.417   9.076  -0.133  1.00 20.00     0.010 C 
ENDROOT
TORSDOF 0
ENDMDL
MODEL 6
REMARK VINA RESULT:      -3.6     16.358     17.492
REMARK  0 active torsions:
REMARK  status: ('A' for Active; 'I' for Inactive)
ROOT
HETATM    1  C1  UNL     1     -22.423  19.073   9.652  1.00 20.00    -0.025 C 
HETATM    2  C2  UNL     1     -23.688  19.258   9.247  1.00 20.00    -0.025 C 
HETATM    3  C3  UNL     1     -23.561  17.106  10.071  1.00 20.00     0.017 C 
HETATM    4  C4  UNL     1     -23.120  18.484  11.954  1.00 20.00     0.013 C 
HETATM    5  C5  UNL     1     -22.439  17.958  10.670  1.00 20.00     0.009 C 
HETATM    6  C6  UNL     1     -24.550  18.276  10.009  1.00 20.00     0.012 C 
HETATM    7  C7  UNL     1     -24.585  18.754  11.485  1.00 20.00    -0.010 C 
HETATM    8  C8  UNL     1     -25.610  18.005  12.328  1.00 20.00     0.010 C 
ENDROOT
TORSDOF 0
ENDMDL
MODEL 7
REMARK VINA RESULT:      -3.6      8.118      9.313
REMARK  0 active torsions:
REMARK  status: ('A' for Active; 'I' for Inactive)
ROOT
HETATM    1  C1  UNL     1     -41.098   7.613   1.272  1.00 20.00    -0.025 C 
HETATM    2  C2  UNL     1     -42.375   7.258   1.477  1.00 20.00    -0.025 C 
HETATM    3  C3  UNL     1     -42.184   7.798  -0.759  1.00 20.00     0.017 C 
HETATM    4  C4  UNL     1     -40.781   5.902  -0.490  1.00 20.00     0.013 C 
HETATM    5  C5  UNL     1     -40.812   7.419  -0.198  1.00 20.00     0.009 C 
HETATM    6  C6  UNL     1     -42.935   6.812   0.144  1.00 20.00     0.012 C 
HETATM    7  C7  UNL     1     -42.253   5.463  -0.206  1.00 20.00    -0.010 C 
HETATM    8  C8  UNL     1     -42.890   4.767  -1.402  1.00 20.00     0.010 C 
ENDROOT
TORSDOF 0
ENDMDL
MODEL 8
REMARK VINA RESULT:      -3.5      1.353      3.064
REMARK  0 active torsions:
REMARK  status: ('A' for Active; 'I' for Inactive)
ROOT
HETATM    1  C1  UNL     1     -32.091   8.031   3.853  1.00 20.00    -0.025 C 
HETATM    2  C2  UNL     1     -32.251   8.449   5.118  1.00 20.00    -0.025 C 
HETATM    3  C3  UNL     1     -34.365   8.191   4.230  1.00 20.00     0.017 C 
HETATM    4  C4  UNL     1     -33.455   5.998   4.226  1.00 20.00     0.013 C 
HETATM    5  C5  UNL     1     -33.368   7.331   3.451  1.00 20.00     0.009 C 
HETATM    6  C6  UNL     1     -33.629   8.012   5.563  1.00 20.00     0.012 C 
HETATM    7  C7  UNL     1     -33.590   6.467   5.710  1.00 20.00    -0.010 C 
HETATM    8  C8  UNL     1     -34.833   5.902   6.386  1.00 20.00     0.010 C 
ENDROOT
TORSDOF 0
ENDMDL
MODEL 9
REMARK VINA RESULT:      -3.5     16.515     17.404
REMARK  0 active torsions:
REMARK  status: ('A' for Active; 'I' for Inactive)
ROOT
HETATM    1  C1  UNL     1     -22.342  18.003   8.107  1.00 20.00    -0.025 C 
HETATM    2  C2  UNL     1     -22.454  16.979   8.966  1.00 20.00    -0.025 C 
HETATM    3  C3  UNL     1     -22.114  18.878  10.233  1.00 20.00     0.017 C 
HETATM    4  C4  UNL     1     -24.202  19.250   9.164  1.00 20.00     0.013 C 
HETATM    5  C5  UNL     1     -22.686  19.262   8.867  1.00 20.00     0.009 C 
HETATM    6  C6  UNL     1     -22.889  17.556  10.295  1.00 20.00     0.012 C 
HETATM    7  C7  UNL     1     -24.357  18.028  10.126  1.00 20.00    -0.010 C 
HETATM    8  C8  UNL     1     -25.015  18.411  11.446  1.00 20.00     0.010 C 
ENDROOT
TORSDOF 0
ENDMDL
