MODEL 1
REMARK VINA RESULT:      -6.5      0.000      0.000
REMARK  0 active torsions:
REMARK  status: ('A' for Active; 'I' for Inactive)
ROOT
HETATM    1  C1  UNL     1     -33.986   4.742   4.059  1.00 20.00    -0.025 A 
HETATM    2  C2  UNL     1     -33.138   5.332   3.211  1.00 20.00    -0.025 A 
HETATM    3  C3  UNL     1     -34.614   5.791   6.292  1.00 20.00     0.009 C 
HETATM    4  C4  UNL     1     -32.027   7.539   3.773  1.00 20.00     0.009 C 
HETATM    5  C5  UNL     1     -33.473   6.790   6.456  1.00 20.00     0.005 C 
HETATM    6  C6  UNL     1     -32.561   8.535   4.797  1.00 20.00     0.005 C 
HETATM    7  C7  UNL     1     -34.858   5.720   4.784  1.00 20.00     0.013 A 
HETATM    8  C8  UNL     1     -33.264   6.821   3.225  1.00 20.00     0.013 A 
HETATM    9  C9  UNL     1     -33.779   7.853   5.400  1.00 20.00    -0.009 C 
HETATM   10  C10 UNL     1     -34.401   7.079   4.233  1.00 20.00     0.005 A 
ENDROOT
TORSDOF 0
ENDMDL
MODEL 2
REMARK VINA RESULT:      -6.1      0.369      3.053
REMARK  0 active torsions:
REMARK  status: ('A' for Active; 'I' for Inactive)
ROOT
HETATM    1  C1  UNL     1     -32.194   7.610   3.652  1.00 20.00    -0.025 A 
HETATM    2  C2  UNL     1     -32.478   8.061   4.878  1.00 20.00    -0.025 A 
HETATM    3  C3  UNL     1     -33.049   5.367   2.805  1.00 20.00     0.009 C 
HETATM    4  C4  UNL     1     -33.856   6.691   6.504  1.00 20.00     0.009 C 
HETATM    5  C5  UNL     1     -33.407   4.694   4.127  1.00 20.00     0.005 C 
HETATM    6  C6  UNL     1     -34.811   5.575   6.096  1.00 20.00     0.005 C 
HETATM    7  C7  UNL     1     -33.329   6.853   3.035  1.00 20.00     0.013 A 
HETATM    8  C8  UNL     1     -33.848   7.668   5.326  1.00 20.00     0.013 A 
HETATM    9  C9  UNL     1     -34.647   5.461   4.589  1.00 20.00    -0.009 C 
HETATM   10  C10 UNL     1     -34.418   6.900   4.117  1.00 20.00     0.005 A 
ENDROOT
TORSDOF 0
ENDMDL
MODEL 3
REMARK VINA RESULT:      -6.0      0.356      2.978
REMARK  0 active torsions:
REMARK  status: ('A' for Active; 'I' for Inactive)
ROOT
HETATM    1  C1  UNL     1     -34.031   7.015   6.484  1.00 20.00    -0.025 A 
HETATM    2  C2  UNL     1     -34.365   5.737   6.276  1.00 20.00    -0.025 A 
HETATM    3  C3  UNL     1     -32.697   8.358   4.783  1.00 20.00     0.009 C 
HETATM    4  C4  UNL     1     -33.649   4.508   4.180  1.00 20.00     0.009 C 
HETATM    5  C5  UNL     1     -32.101   7.228   3.949  1.00 20.00     0.005 C 
HETATM    6  C6  UNL     1     -33.252   5.191   2.875  1.00 20.00     0.005 C 
HETATM    7  C7  UNL     1     -34.062   7.835   5.232  1.00 20.00     0.013 A 
HETATM    8  C8  UNL     1     -34.657   5.453   4.839  1.00 20.00     0.013 A 
HETATM    9  C9  UNL     1     -33.308   6.678   3.186  1.00 20.00    -0.009 C 
HETATM   10  C10 UNL     1     -34.485   6.823   4.155  1.00 20.00     0.005 A 
ENDROOT
TORSDOF 0
ENDMDL
MODEL 4
REMARK VINA RESULT:      -4.1      0.795      2.651
REMARK  0 active torsions:
REMARK  status: ('A' for Active; 'I' for Inactive)
ROOT
HETATM    1  C1  UNL     1     -33.952   8.362   5.586  1.00 20.00    -0.025 A 
HETATM    2  C2  UNL     1     -33.209   8.679   4.521  1.00 20.00    -0.025 A 
HETATM    3  C3  UNL     1     -35.058   6.082   5.832  1.00 20.00     0.009 C 
HETATM    4  C4  UNL     1     -32.874   7.049   2.610  1.00 20.00     0.009 C 
HETATM    5  C5  UNL     1     -35.017   5.600   4.386  1.00 20.00     0.005 C 
HETATM    6  C6  UNL     1     -33.051   5.539   2.725  1.00 20.00     0.005 C 
HETATM    7  C7  UNL     1     -33.796   6.930   5.998  1.00 20.00     0.013 A 
HETATM    8  C8  UNL     1     -32.433   7.512   4.001  1.00 20.00     0.013 A 
HETATM    9  C9  UNL     1     -33.533   5.316   4.150  1.00 20.00    -0.009 C 
HETATM   10  C10 UNL     1     -32.794   6.373   4.976  1.00 20.00     0.005 A 
ENDROOT
TORSDOF 0
ENDMDL
MODEL 5
REMARK VINA RESULT:      -3.9      0.852      2.752
REMARK  0 active torsions:
REMARK  status: ('A' for Active; 'I' for Inactive)
ROOT
HETATM    1  C1  UNL     1     -32.593   6.920   2.507  1.00 20.00    -0.025 A 
HETATM    2  C2  UNL     1     -33.326   5.809   2.629  1.00 20.00    -0.025 A 
HETATM    3  C3  UNL     1     -32.712   8.811   4.208  1.00 20.00     0.009 C 
HETATM    4  C4  UNL     1     -34.952   5.501   4.547  1.00 20.00     0.009 C 
HETATM    5  C5  UNL     1     -34.036   8.482   4.890  1.00 20.00     0.005 C 
HETATM    6  C6  UNL     1     -34.875   6.254   5.871  1.00 20.00     0.005 C 
HETATM    7  C7  UNL     1     -32.122   7.453   3.825  1.00 20.00     0.013 A 
HETATM    8  C8  UNL     1     -33.506   5.400   4.055  1.00 20.00     0.013 A 
HETATM    9  C9  UNL     1     -33.715   7.222   5.696  1.00 20.00    -0.009 C 
HETATM   10  C10 UNL     1     -32.702   6.455   4.839  1.00 20.00     0.005 A 
ENDROOT
TORSDOF 0
ENDMDL
MODEL 6
REMARK VINA RESULT:      -3.7      0.913      2.584
REMARK  0 active torsions:
REMARK  status: ('A' for Active; 'I' for Inactive)
ROOT
HETATM    1  C1  UNL     1     -34.868   5.396   4.241  1.00 20.00    -0.025 A 
HETATM    2  C2  UNL     1     -35.156   6.412   5.061  1.00 20.00    -0.025 A 
HETATM    3  C3  UNL     1     -32.974   5.523   2.545  1.00 20.00     0.009 C 
HETATM    4  C4  UNL     1     -33.871   8.593   4.965  1.00 20.00     0.009 C 
HETATM    5  C5  UNL     1     -32.769   7.032   2.475  1.00 20.00     0.005 C 
HETATM    6  C6  UNL     1     -32.472   8.743   4.376  1.00 20.00     0.005 C 
HETATM    7  C7  UNL     1     -33.399   5.251   3.989  1.00 20.00     0.013 A 
HETATM    8  C8  UNL     1     -33.935   7.157   5.493  1.00 20.00     0.013 A 
HETATM    9  C9  UNL     1     -32.136   7.365   3.827  1.00 20.00    -0.009 C 
HETATM   10  C10 UNL     1     -32.782   6.390   4.815  1.00 20.00     0.005 A 
ENDROOT
TORSDOF 0
ENDMDL
MODEL 7
REMARK VINA RESULT:      -3.6     12.363     13.730
REMARK  0 active torsions:
REMARK  status: ('A' for Active; 'I' for Inactive)
ROOT
HETATM    1  C1  UNL     1     -34.067  16.192  -4.357  1.00 20.00    -0.025 A 
HETATM    2  C2  UNL     1     -33.434  15.925  -3.210  1.00 20.00    -0.025 A 
HETATM    3  C3  UNL     1     -35.583  18.219  -4.623  1.00 20.00     0.009 C 
HETATM    4  C4  UNL     1     -33.729  17.390  -1.164  1.00 20.00     0.009 C 
HETATM    5  C5  UNL     1     -35.853  18.554  -3.160  1.00 20.00     0.005 C 
HETATM    6  C6  UNL     1     -34.203  18.839  -1.205  1.00 20.00     0.005 C 
HETATM    7  C7  UNL     1     -34.160  17.659  -4.641  1.00 20.00     0.013 A 
HETATM    8  C8  UNL     1     -33.006  17.164  -2.495  1.00 20.00     0.013 A 
HETATM    9  C9  UNL     1     -34.512  19.103  -2.670  1.00 20.00    -0.009 C 
HETATM   10  C10 UNL     1     -33.456  18.300  -3.435  1.00 20.00     0.005 A 
ENDROOT
TORSDOF 0
ENDMDL
MODEL 8
REMARK VINA RESULT:      -3.6     12.291     13.435
REMARK  0 active torsions:
REMARK  status: ('A' for Active; 'I' for Inactive)
ROOT
HETATM    1  C1  UNL     1     -35.684  14.087  -4.987  1.00 20.00    -0.025 A 
HETATM    2  C2  UNL     1     -34.645  14.035  -4.148  1.00 20.00    -0.025 A 
HETATM    3  C3  UNL     1     -36.601  16.292  -5.869  1.00 20.00     0.009 C 
HETATM    4  C4  UNL     1     -33.516  16.143  -3.310  1.00 20.00     0.009 C 
HETATM    5  C5  UNL     1     -36.011  17.261  -4.850  1.00 20.00     0.005 C 
HETATM    6  C6  UNL     1     -33.588  17.495  -4.011  1.00 20.00     0.005 C 
HETATM    7  C7  UNL     1     -35.558  15.181  -6.002  1.00 20.00     0.013 A 
HETATM    8  C8  UNL     1     -33.636  15.102  -4.426  1.00 20.00     0.013 A 
HETATM    9  C9  UNL     1     -34.520  17.268  -5.191  1.00 20.00    -0.009 C 
HETATM   10  C10 UNL     1     -34.215  15.839  -5.650  1.00 20.00     0.005 A 
ENDROOT
TORSDOF 0
ENDMDL
MODEL 9
REMARK VINA RESULT:      -3.5     14.977     16.754
REMARK  0 active torsions:
REMARK  status: ('A' for Active; 'I' for Inactive)
ROOT
HETATM    1  C1  UNL     1     -23.922  16.822  11.740  1.00 20.00    -0.025 A 
HETATM    2  C2  UNL     1     -23.968  16.283  10.518  1.00 20.00    -0.025 A 
HETATM    3  C3  UNL     1     -22.301  18.694  12.331  1.00 20.00     0.009 C 
HETATM    4  C4  UNL     1     -22.398  17.039   8.679  1.00 20.00     0.009 C 
HETATM    5  C5  UNL     1     -21.293  18.552  11.196  1.00 20.00     0.005 C 
HETATM    6  C6  UNL     1     -21.684  18.386   8.657  1.00 20.00     0.005 C 
HETATM    7  C7  UNL     1     -23.642  18.293  11.716  1.00 20.00     0.013 A 
HETATM    8  C8  UNL     1     -23.702  17.286   9.443  1.00 20.00     0.013 A 
HETATM    9  C9  UNL     1     -22.066  19.046   9.972  1.00 20.00    -0.009 C 
HETATM   10  C10 UNL     1     -23.512  18.605  10.217  1.00 20.00     0.005 A 
ENDROOT
TORSDOF 0
ENDMDL
