MODEL 1
REMARK VINA RESULT:      -5.3      0.000      0.000
REMARK  2 active torsions:
REMARK  status: ('A' for Active; 'I' for Inactive)
REMARK    1  A    between atoms: C2_2  and  C3_3 
REMARK    2  A    between atoms: C2_2  and  C4_4 
ROOT
HETATM    1  C2  UNL     1     -33.491   6.591   5.169  1.00 20.00     0.244 C 
HETATM    2 CL9  UNL     1     -34.309   7.111   6.688  1.00 20.00    -0.111 Cl
ENDROOT
BRANCH   1   3
HETATM    3  C3  UNL     1     -33.138   7.817   4.299  1.00 20.00     0.200 C 
HETATM    4  C1  UNL     1     -32.247   7.491   3.103  1.00 20.00     0.072 C 
HETATM    5  F5  UNL     1     -34.292   8.364   3.820  1.00 20.00    -0.224 F 
HETATM    6 CL10 UNL     1     -32.301   9.076   5.266  1.00 20.00    -0.081 Cl
ENDBRANCH   1   3
BRANCH   1   7
HETATM    7  C4  UNL     1     -34.408   5.576   4.495  1.00 20.00     0.408 C 
HETATM    8  F6  UNL     1     -33.976   5.256   3.256  1.00 20.00    -0.169 F 
HETATM    9  F7  UNL     1     -34.477   4.432   5.214  1.00 20.00    -0.169 F 
HETATM   10  F8  UNL     1     -35.673   6.036   4.381  1.00 20.00    -0.169 F 
ENDBRANCH   1   7
TORSDOF 2
ENDMDL
MODEL 2
REMARK VINA RESULT:      -5.2      2.061      3.722
REMARK  2 active torsions:
REMARK  status: ('A' for Active; 'I' for Inactive)
REMARK    1  A    between atoms: C2_2  and  C3_3 
REMARK    2  A    between atoms: C2_2  and  C4_4 
ROOT
HETATM    1  C2  UNL     1     -33.156   6.775   4.733  1.00 20.00     0.244 C 
HETATM    2 CL9  UNL     1     -32.567   6.667   3.033  1.00 20.00    -0.111 Cl
ENDROOT
BRANCH   1   3
HETATM    3  C3  UNL     1     -34.332   5.802   4.961  1.00 20.00     0.200 C 
HETATM    4  C1  UNL     1     -34.608   5.498   6.431  1.00 20.00     0.072 C 
HETATM    5  F5  UNL     1     -35.464   6.349   4.431  1.00 20.00    -0.224 F 
HETATM    6 CL10 UNL     1     -34.046   4.236   4.133  1.00 20.00    -0.081 Cl
ENDBRANCH   1   3
BRANCH   1   7
HETATM    7  C4  UNL     1     -33.482   8.241   4.998  1.00 20.00     0.408 C 
HETATM    8  F6  UNL     1     -34.207   8.397   6.126  1.00 20.00    -0.169 F 
HETATM    9  F7  UNL     1     -32.352   8.974   5.132  1.00 20.00    -0.169 F 
HETATM   10  F8  UNL     1     -34.180   8.794   3.983  1.00 20.00    -0.169 F 
ENDBRANCH   1   7
TORSDOF 2
ENDMDL
MODEL 3
REMARK VINA RESULT:      -5.2      2.057      3.695
REMARK  2 active torsions:
REMARK  status: ('A' for Active; 'I' for Inactive)
REMARK    1  A    between atoms: C2_2  and  C3_3 
REMARK    2  A    between atoms: C2_2  and  C4_4 
ROOT
HETATM    1  C2  UNL     1     -33.145   6.783   4.723  1.00 20.00     0.244 C 
HETATM    2 CL9  UNL     1     -32.575   6.658   3.018  1.00 20.00    -0.111 Cl
ENDROOT
BRANCH   1   3
HETATM    3  C3  UNL     1     -34.320   5.813   4.973  1.00 20.00     0.200 C 
HETATM    4  C1  UNL     1     -34.587   5.532   6.449  1.00 20.00     0.072 C 
HETATM    5  F5  UNL     1     -35.454   6.350   4.441  1.00 20.00    -0.224 F 
HETATM    6 CL10 UNL     1     -34.037   4.234   4.168  1.00 20.00    -0.081 Cl
ENDBRANCH   1   3
BRANCH   1   7
HETATM    7  C4  UNL     1     -33.468   8.251   4.977  1.00 20.00     0.408 C 
HETATM    8  F6  UNL     1     -32.348   8.992   5.128  1.00 20.00    -0.169 F 
HETATM    9  F7  UNL     1     -34.173   8.778   3.949  1.00 20.00    -0.169 F 
HETATM   10  F8  UNL     1     -34.221   8.418   6.086  1.00 20.00    -0.169 F 
ENDBRANCH   1   7
TORSDOF 2
ENDMDL
MODEL 4
REMARK VINA RESULT:      -5.1      2.435      3.594
REMARK  2 active torsions:
REMARK  status: ('A' for Active; 'I' for Inactive)
REMARK    1  A    between atoms: C2_2  and  C3_3 
REMARK    2  A    between atoms: C2_2  and  C4_4 
ROOT
HETATM    1  C2  UNL     1     -33.047   6.388   4.397  1.00 20.00     0.244 C 
HETATM    2 CL9  UNL     1     -33.270   5.373   2.925  1.00 20.00    -0.111 Cl
ENDROOT
BRANCH   1   3
HETATM    3  C3  UNL     1     -34.311   6.341   5.282  1.00 20.00     0.200 C 
HETATM    4  C1  UNL     1     -34.305   5.212   6.310  1.00 20.00     0.072 C 
HETATM    5  F5  UNL     1     -34.417   7.519   5.960  1.00 20.00    -0.224 F 
HETATM    6 CL10 UNL     1     -35.791   6.152   4.286  1.00 20.00    -0.081 Cl
ENDBRANCH   1   3
BRANCH   1   7
HETATM    7  C4  UNL     1     -32.656   7.782   3.920  1.00 20.00     0.408 C 
HETATM    8  F6  UNL     1     -31.860   8.412   4.812  1.00 20.00    -0.169 F 
HETATM    9  F7  UNL     1     -31.988   7.724   2.744  1.00 20.00    -0.169 F 
HETATM   10  F8  UNL     1     -33.736   8.566   3.710  1.00 20.00    -0.169 F 
ENDBRANCH   1   7
TORSDOF 2
ENDMDL
MODEL 5
REMARK VINA RESULT:      -5.0      1.866      3.549
REMARK  2 active torsions:
REMARK  status: ('A' for Active; 'I' for Inactive)
REMARK    1  A    between atoms: C2_2  and  C3_3 
REMARK    2  A    between atoms: C2_2  and  C4_4 
ROOT
HETATM    1  C2  UNL     1     -33.065   6.237   4.285  1.00 20.00     0.244 C 
HETATM    2 CL9  UNL     1     -33.101   5.512   2.636  1.00 20.00    -0.111 Cl
ENDROOT
BRANCH   1   3
HETATM    3  C3  UNL     1     -34.307   5.803   5.093  1.00 20.00     0.200 C 
HETATM    4  C1  UNL     1     -35.625   5.982   4.344  1.00 20.00     0.072 C 
HETATM    5  F5  UNL     1     -34.186   4.483   5.412  1.00 20.00    -0.224 F 
HETATM    6 CL10 UNL     1     -34.433   6.723   6.629  1.00 20.00    -0.081 Cl
ENDBRANCH   1   3
BRANCH   1   7
HETATM    7  C4  UNL     1     -32.917   7.743   4.106  1.00 20.00     0.408 C 
HETATM    8  F6  UNL     1     -32.080   8.278   5.021  1.00 20.00    -0.169 F 
HETATM    9  F7  UNL     1     -32.426   8.040   2.880  1.00 20.00    -0.169 F 
HETATM   10  F8  UNL     1     -34.101   8.383   4.211  1.00 20.00    -0.169 F 
ENDBRANCH   1   7
TORSDOF 2
ENDMDL
MODEL 6
REMARK VINA RESULT:      -4.9      1.785      3.601
REMARK  2 active torsions:
REMARK  status: ('A' for Active; 'I' for Inactive)
REMARK    1  A    between atoms: C2_2  and  C3_3 
REMARK    2  A    between atoms: C2_2  and  C4_4 
ROOT
HETATM    1  C2  UNL     1     -33.156   6.514   4.588  1.00 20.00     0.244 C 
HETATM    2 CL9  UNL     1     -32.691   6.531   2.848  1.00 20.00    -0.111 Cl
ENDROOT
BRANCH   1   3
HETATM    3  C3  UNL     1     -34.333   5.542   4.823  1.00 20.00     0.200 C 
HETATM    4  C1  UNL     1     -35.661   6.029   4.249  1.00 20.00     0.072 C 
HETATM    5  F5  UNL     1     -34.040   4.347   4.236  1.00 20.00    -0.224 F 
HETATM    6 CL10 UNL     1     -34.583   5.241   6.574  1.00 20.00    -0.081 Cl
ENDBRANCH   1   3
BRANCH   1   7
HETATM    7  C4  UNL     1     -33.435   7.958   4.988  1.00 20.00     0.408 C 
HETATM    8  F6  UNL     1     -34.155   8.609   4.049  1.00 20.00    -0.169 F 
HETATM    9  F7  UNL     1     -34.129   8.015   6.149  1.00 20.00    -0.169 F 
HETATM   10  F8  UNL     1     -32.296   8.656   5.187  1.00 20.00    -0.169 F 
ENDBRANCH   1   7
TORSDOF 2
ENDMDL
MODEL 7
REMARK VINA RESULT:      -4.8      1.992      2.515
REMARK  2 active torsions:
REMARK  status: ('A' for Active; 'I' for Inactive)
REMARK    1  A    between atoms: C2_2  and  C3_3 
REMARK    2  A    between atoms: C2_2  and  C4_4 
ROOT
HETATM    1  C2  UNL     1     -34.109   6.541   4.348  1.00 20.00     0.244 C 
HETATM    2 CL9  UNL     1     -33.078   5.691   3.139  1.00 20.00    -0.111 Cl
ENDROOT
BRANCH   1   3
HETATM    3  C3  UNL     1     -33.270   7.552   5.158  1.00 20.00     0.200 C 
HETATM    4  C1  UNL     1     -34.042   8.800   5.578  1.00 20.00     0.072 C 
HETATM    5  F5  UNL     1     -32.820   6.941   6.291  1.00 20.00    -0.224 F 
HETATM    6 CL10 UNL     1     -31.836   8.095   4.227  1.00 20.00    -0.081 Cl
ENDBRANCH   1   3
BRANCH   1   7
HETATM    7  C4  UNL     1     -34.792   5.465   5.185  1.00 20.00     0.408 C 
HETATM    8  F6  UNL     1     -35.031   5.887   6.445  1.00 20.00    -0.169 F 
HETATM    9  F7  UNL     1     -35.978   5.107   4.641  1.00 20.00    -0.169 F 
HETATM   10  F8  UNL     1     -34.049   4.340   5.264  1.00 20.00    -0.169 F 
ENDBRANCH   1   7
TORSDOF 2
ENDMDL
MODEL 8
REMARK VINA RESULT:      -4.8      2.340      2.602
REMARK  2 active torsions:
REMARK  status: ('A' for Active; 'I' for Inactive)
REMARK    1  A    between atoms: C2_2  and  C3_3 
REMARK    2  A    between atoms: C2_2  and  C4_4 
ROOT
HETATM    1  C2  UNL     1     -34.274   6.395   4.808  1.00 20.00     0.244 C 
HETATM    2 CL9  UNL     1     -33.859   4.873   3.938  1.00 20.00    -0.111 Cl
ENDROOT
BRANCH   1   3
HETATM    3  C3  UNL     1     -33.232   7.493   4.501  1.00 20.00     0.200 C 
HETATM    4  C1  UNL     1     -33.843   8.867   4.233  1.00 20.00     0.072 C 
HETATM    5  F5  UNL     1     -32.392   7.613   5.568  1.00 20.00    -0.224 F 
HETATM    6 CL10 UNL     1     -32.237   7.060   3.072  1.00 20.00    -0.081 Cl
ENDBRANCH   1   3
BRANCH   1   7
HETATM    7  C4  UNL     1     -34.408   6.041   6.284  1.00 20.00     0.408 C 
HETATM    8  F6  UNL     1     -33.292   5.449   6.761  1.00 20.00    -0.169 F 
HETATM    9  F7  UNL     1     -34.636   7.148   7.030  1.00 20.00    -0.169 F 
HETATM   10  F8  UNL     1     -35.444   5.205   6.511  1.00 20.00    -0.169 F 
ENDBRANCH   1   7
TORSDOF 2
ENDMDL
MODEL 9
REMARK VINA RESULT:      -4.8      1.899      3.327
REMARK  2 active torsions:
REMARK  status: ('A' for Active; 'I' for Inactive)
REMARK    1  A    between atoms: C2_2  and  C3_3 
REMARK    2  A    between atoms: C2_2  and  C4_4 
ROOT
HETATM    1  C2  UNL     1     -34.023   7.360   4.850  1.00 20.00     0.244 C 
HETATM    2 CL9  UNL     1     -33.673   7.383   6.617  1.00 20.00    -0.111 Cl
ENDROOT
BRANCH   1   3
HETATM    3  C3  UNL     1     -34.450   5.945   4.402  1.00 20.00     0.200 C 
HETATM    4  C1  UNL     1     -34.341   4.890   5.500  1.00 20.00     0.072 C 
HETATM    5  F5  UNL     1     -35.750   5.987   3.994  1.00 20.00    -0.224 F 
HETATM    6 CL10 UNL     1     -33.462   5.381   3.015  1.00 20.00    -0.081 Cl
ENDBRANCH   1   3
BRANCH   1   7
HETATM    7  C4  UNL     1     -32.785   7.904   4.145  1.00 20.00     0.408 C 
HETATM    8  F6  UNL     1     -33.111   8.726   3.124  1.00 20.00    -0.169 F 
HETATM    9  F7  UNL     1     -32.006   8.603   5.002  1.00 20.00    -0.169 F 
HETATM   10  F8  UNL     1     -32.014   6.915   3.643  1.00 20.00    -0.169 F 
ENDBRANCH   1   7
TORSDOF 2
ENDMDL
