MODEL 1
REMARK VINA RESULT:      -3.9      0.000      0.000
REMARK  1 active torsions:
REMARK  status: ('A' for Active; 'I' for Inactive)
REMARK    1  A    between atoms: C4_4  and  C6_6 
ROOT
HETATM    1  C1  UNL     1     -31.828   8.168   3.754  1.00 20.00     0.279 C 
HETATM    2  C2  UNL     1     -33.494   7.336   5.312  1.00 20.00     0.284 C 
HETATM    3  C3  UNL     1     -32.292   7.332   2.568  1.00 20.00     0.104 C 
HETATM    4  C4  UNL     1     -34.179   6.384   4.324  1.00 20.00     0.075 C 
HETATM    5  N7  UNL     1     -32.920   8.517   4.663  1.00 20.00     0.085 N 
HETATM    6  S8  UNL     1     -32.982   5.743   3.105  1.00 20.00    -0.161 SA
HETATM    7  H21 UNL     1     -32.560   9.143   5.383  1.00 20.00     0.315 HD
ENDROOT
BRANCH   4   8
HETATM    8  C6  UNL     1     -34.816   5.206   5.057  1.00 20.00     0.012 C 
HETATM    9  C5  UNL     1     -34.602   5.292   6.534  1.00 20.00     0.006 C 
ENDBRANCH   4   8
TORSDOF 1
ENDMDL
MODEL 2
REMARK VINA RESULT:      -3.8     12.436     13.271
REMARK  1 active torsions:
REMARK  status: ('A' for Active; 'I' for Inactive)
REMARK    1  A    between atoms: C4_4  and  C6_6 
ROOT
HETATM    1  C1  UNL     1     -34.498  15.225  -6.440  1.00 20.00     0.279 C 
HETATM    2  C2  UNL     1     -33.455  14.899  -4.272  1.00 20.00     0.284 C 
HETATM    3  C3  UNL     1     -34.617  16.741  -6.329  1.00 20.00     0.104 C 
HETATM    4  C4  UNL     1     -33.439  16.379  -3.874  1.00 20.00     0.075 C 
HETATM    5  N7  UNL     1     -33.342  14.694  -5.718  1.00 20.00     0.085 N 
HETATM    6  S8  UNL     1     -34.857  17.264  -4.609  1.00 20.00    -0.161 SA
HETATM    7  H21 UNL     1     -33.272  13.694  -5.902  1.00 20.00     0.315 HD
ENDROOT
BRANCH   4   8
HETATM    8  C6  UNL     1     -33.495  16.535  -2.356  1.00 20.00     0.012 C 
HETATM    9  C5  UNL     1     -32.892  17.829  -1.911  1.00 20.00     0.006 C 
ENDBRANCH   4   8
TORSDOF 1
ENDMDL
MODEL 3
REMARK VINA RESULT:      -3.4      2.047      3.833
REMARK  1 active torsions:
REMARK  status: ('A' for Active; 'I' for Inactive)
REMARK    1  A    between atoms: C4_4  and  C6_6 
ROOT
HETATM    1  C1  UNL     1     -34.373   4.722   5.568  1.00 20.00     0.279 C 
HETATM    2  C2  UNL     1     -33.345   5.915   3.720  1.00 20.00     0.284 C 
HETATM    3  C3  UNL     1     -34.782   5.966   6.349  1.00 20.00     0.104 C 
HETATM    4  C4  UNL     1     -33.618   7.322   4.262  1.00 20.00     0.075 C 
HETATM    5  N7  UNL     1     -34.362   4.941   4.122  1.00 20.00     0.085 N 
HETATM    6  S8  UNL     1     -33.612   7.327   6.088  1.00 20.00    -0.161 SA
HETATM    7  H21 UNL     1     -34.165   4.053   3.659  1.00 20.00     0.315 HD
ENDROOT
BRANCH   4   8
HETATM    8  C6  UNL     1     -32.568   8.312   3.764  1.00 20.00     0.012 C 
HETATM    9  C5  UNL     1     -32.083   9.203   4.861  1.00 20.00     0.006 C 
ENDBRANCH   4   8
TORSDOF 1
ENDMDL
MODEL 4
REMARK VINA RESULT:      -3.4      1.990      3.807
REMARK  1 active torsions:
REMARK  status: ('A' for Active; 'I' for Inactive)
REMARK    1  A    between atoms: C4_4  and  C6_6 
ROOT
HETATM    1  C1  UNL     1     -34.634   5.546   6.481  1.00 20.00     0.279 C 
HETATM    2  C2  UNL     1     -33.985   5.040   4.197  1.00 20.00     0.284 C 
HETATM    3  C3  UNL     1     -34.371   7.044   6.390  1.00 20.00     0.104 C 
HETATM    4  C4  UNL     1     -33.633   6.479   3.804  1.00 20.00     0.075 C 
HETATM    5  N7  UNL     1     -35.046   4.965   5.203  1.00 20.00     0.085 N 
HETATM    6  S8  UNL     1     -33.011   7.411   5.246  1.00 20.00    -0.161 SA
HETATM    7  H21 UNL     1     -35.286   3.985   5.352  1.00 20.00     0.315 HD
ENDROOT
BRANCH   4   8
HETATM    8  C6  UNL     1     -32.571   6.501   2.708  1.00 20.00     0.012 C 
HETATM    9  C5  UNL     1     -32.235   7.896   2.291  1.00 20.00     0.006 C 
ENDBRANCH   4   8
TORSDOF 1
ENDMDL
MODEL 5
REMARK VINA RESULT:      -3.3      1.355      3.490
REMARK  1 active torsions:
REMARK  status: ('A' for Active; 'I' for Inactive)
REMARK    1  A    between atoms: C4_4  and  C6_6 
ROOT
HETATM    1  C1  UNL     1     -34.993   5.393   5.757  1.00 20.00     0.279 C 
HETATM    2  C2  UNL     1     -33.904   7.555   5.578  1.00 20.00     0.284 C 
HETATM    3  C3  UNL     1     -34.133   4.697   4.708  1.00 20.00     0.104 C 
HETATM    4  C4  UNL     1     -32.897   7.142   4.498  1.00 20.00     0.075 C 
HETATM    5  N7  UNL     1     -34.275   6.452   6.466  1.00 20.00     0.085 N 
HETATM    6  S8  UNL     1     -33.600   5.852   3.414  1.00 20.00    -0.161 SA
HETATM    7  H21 UNL     1     -34.876   6.815   7.206  1.00 20.00     0.315 HD
ENDROOT
BRANCH   4   8
HETATM    8  C6  UNL     1     -32.494   8.339   3.642  1.00 20.00     0.012 C 
HETATM    9  C5  UNL     1     -32.231   7.942   2.225  1.00 20.00     0.006 C 
ENDBRANCH   4   8
TORSDOF 1
ENDMDL
MODEL 6
REMARK VINA RESULT:      -3.3      1.636      1.946
REMARK  1 active torsions:
REMARK  status: ('A' for Active; 'I' for Inactive)
REMARK    1  A    between atoms: C4_4  and  C6_6 
ROOT
HETATM    1  C1  UNL     1     -32.218   7.958   2.679  1.00 20.00     0.279 C 
HETATM    2  C2  UNL     1     -33.447   5.909   3.108  1.00 20.00     0.284 C 
HETATM    3  C3  UNL     1     -32.190   8.430   4.128  1.00 20.00     0.104 C 
HETATM    4  C4  UNL     1     -33.583   6.113   4.621  1.00 20.00     0.075 C 
HETATM    5  N7  UNL     1     -32.226   6.500   2.558  1.00 20.00     0.085 N 
HETATM    6  S8  UNL     1     -33.668   7.891   5.030  1.00 20.00    -0.161 SA
HETATM    7  H21 UNL     1     -32.159   6.254   1.571  1.00 20.00     0.315 HD
ENDROOT
BRANCH   4   8
HETATM    8  C6  UNL     1     -34.837   5.424   5.154  1.00 20.00     0.012 C 
HETATM    9  C5  UNL     1     -34.831   5.342   6.646  1.00 20.00     0.006 C 
ENDBRANCH   4   8
TORSDOF 1
ENDMDL
MODEL 7
REMARK VINA RESULT:      -3.0     12.325     12.753
REMARK  1 active torsions:
REMARK  status: ('A' for Active; 'I' for Inactive)
REMARK    1  A    between atoms: C4_4  and  C6_6 
ROOT
HETATM    1  C1  UNL     1     -31.729  18.838   2.178  1.00 20.00     0.279 C 
HETATM    2  C2  UNL     1     -33.839  18.476   1.032  1.00 20.00     0.284 C 
HETATM    3  C3  UNL     1     -30.949  19.260   0.938  1.00 20.00     0.104 C 
HETATM    4  C4  UNL     1     -33.332  18.850  -0.365  1.00 20.00     0.075 C 
HETATM    5  N7  UNL     1     -33.146  19.195   2.103  1.00 20.00     0.085 N 
HETATM    6  S8  UNL     1     -31.566  18.426  -0.550  1.00 20.00    -0.161 SA
HETATM    7  H21 UNL     1     -33.589  18.964   2.992  1.00 20.00     0.315 HD
ENDROOT
BRANCH   4   8
HETATM    8  C6  UNL     1     -34.129  18.123  -1.446  1.00 20.00     0.012 C 
HETATM    9  C5  UNL     1     -33.368  16.968  -2.011  1.00 20.00     0.006 C 
ENDBRANCH   4   8
TORSDOF 1
ENDMDL
MODEL 8
REMARK VINA RESULT:      -3.0     12.531     13.585
REMARK  1 active torsions:
REMARK  status: ('A' for Active; 'I' for Inactive)
REMARK    1  A    between atoms: C4_4  and  C6_6 
ROOT
HETATM    1  C1  UNL     1     -33.802  17.715  -2.642  1.00 20.00     0.279 C 
HETATM    2  C2  UNL     1     -33.357  15.619  -3.784  1.00 20.00     0.284 C 
HETATM    3  C3  UNL     1     -34.918  18.168  -3.576  1.00 20.00     0.104 C 
HETATM    4  C4  UNL     1     -34.419  15.799  -4.875  1.00 20.00     0.075 C 
HETATM    5  N7  UNL     1     -33.722  16.259  -2.519  1.00 20.00     0.085 N 
HETATM    6  S8  UNL     1     -34.654  17.567  -5.267  1.00 20.00    -0.161 SA
HETATM    7  H21 UNL     1     -33.016  16.029  -1.820  1.00 20.00     0.315 HD
ENDROOT
BRANCH   4   8
HETATM    8  C6  UNL     1     -34.021  15.060  -6.150  1.00 20.00     0.012 C 
HETATM    9  C5  UNL     1     -34.302  15.875  -7.371  1.00 20.00     0.006 C 
ENDBRANCH   4   8
TORSDOF 1
ENDMDL
MODEL 9
REMARK VINA RESULT:      -2.9     12.252     13.665
REMARK  1 active torsions:
REMARK  status: ('A' for Active; 'I' for Inactive)
REMARK    1  A    between atoms: C4_4  and  C6_6 
ROOT
HETATM    1  C1  UNL     1     -33.530  14.703  -4.230  1.00 20.00     0.279 C 
HETATM    2  C2  UNL     1     -35.560  14.425  -5.532  1.00 20.00     0.284 C 
HETATM    3  C3  UNL     1     -33.724  16.190  -3.954  1.00 20.00     0.104 C 
HETATM    4  C4  UNL     1     -36.022  15.883  -5.428  1.00 20.00     0.075 C 
HETATM    5  N7  UNL     1     -34.796  13.983  -4.363  1.00 20.00     0.085 N 
HETATM    6  S8  UNL     1     -34.590  17.011  -5.320  1.00 20.00    -0.161 SA
HETATM    7  H21 UNL     1     -34.597  12.987  -4.461  1.00 20.00     0.315 HD
ENDROOT
BRANCH   4   8
HETATM    8  C6  UNL     1     -36.867  16.274  -6.637  1.00 20.00     0.012 C 
HETATM    9  C5  UNL     1     -36.259  15.794  -7.915  1.00 20.00     0.006 C 
ENDBRANCH   4   8
TORSDOF 1
ENDMDL
