MODEL 1
REMARK VINA RESULT:      -3.8      0.000      0.000
REMARK  1 active torsions:
REMARK  status: ('A' for Active; 'I' for Inactive)
REMARK    1  A    between atoms: C2_2  and  C3_3 
ROOT
HETATM    1  C1  UNL     1     -33.053   7.343   4.194  1.00 20.00     0.105 C 
HETATM    2  C2  UNL     1     -33.657   6.178   3.934  1.00 20.00     0.036 C 
HETATM    3 CL4  UNL     1     -33.560   8.475   5.376  1.00 20.00    -0.096 Cl
HETATM    4 CL5  UNL     1     -32.992   5.164   2.685  1.00 20.00    -0.087 Cl
ENDROOT
BRANCH   2   5
HETATM    5  C3  UNL     1     -34.900   5.648   4.576  1.00 20.00     0.166 C 
HETATM    6 CL6  UNL     1     -34.600   5.260   6.286  1.00 20.00    -0.125 Cl
ENDBRANCH   2   5
TORSDOF 1
ENDMDL
MODEL 2
REMARK VINA RESULT:      -3.7      0.597      2.559
REMARK  1 active torsions:
REMARK  status: ('A' for Active; 'I' for Inactive)
REMARK    1  A    between atoms: C2_2  and  C3_3 
ROOT
HETATM    1  C1  UNL     1     -32.824   6.618   3.488  1.00 20.00     0.105 C 
HETATM    2  C2  UNL     1     -33.712   6.917   4.443  1.00 20.00     0.036 C 
HETATM    3 CL4  UNL     1     -32.841   5.194   2.536  1.00 20.00    -0.096 Cl
HETATM    4 CL5  UNL     1     -33.521   8.415   5.308  1.00 20.00    -0.087 Cl
ENDROOT
BRANCH   2   5
HETATM    5  C3  UNL     1     -34.857   6.070   4.901  1.00 20.00     0.166 C 
HETATM    6 CL6  UNL     1     -34.461   5.265   6.436  1.00 20.00    -0.125 Cl
ENDBRANCH   2   5
TORSDOF 1
ENDMDL
MODEL 3
REMARK VINA RESULT:      -3.6      1.506      3.355
REMARK  1 active torsions:
REMARK  status: ('A' for Active; 'I' for Inactive)
REMARK    1  A    between atoms: C2_2  and  C3_3 
ROOT
HETATM    1  C1  UNL     1     -33.904   7.023   6.172  1.00 20.00     0.105 C 
HETATM    2  C2  UNL     1     -33.277   7.395   5.051  1.00 20.00     0.036 C 
HETATM    3 CL4  UNL     1     -34.745   5.546   6.389  1.00 20.00    -0.096 Cl
HETATM    4 CL5  UNL     1     -32.482   8.943   5.024  1.00 20.00    -0.087 Cl
ENDROOT
BRANCH   2   5
HETATM    5  C3  UNL     1     -33.213   6.635   3.763  1.00 20.00     0.166 C 
HETATM    6 CL6  UNL     1     -32.162   7.473   2.598  1.00 20.00    -0.125 Cl
ENDBRANCH   2   5
TORSDOF 1
ENDMDL
MODEL 4
REMARK VINA RESULT:      -3.5      1.679      2.481
REMARK  1 active torsions:
REMARK  status: ('A' for Active; 'I' for Inactive)
REMARK    1  A    between atoms: C2_2  and  C3_3 
ROOT
HETATM    1  C1  UNL     1     -32.839   7.657   4.547  1.00 20.00     0.105 C 
HETATM    2  C2  UNL     1     -33.867   6.944   5.022  1.00 20.00     0.036 C 
HETATM    3 CL4  UNL     1     -32.271   7.613   2.931  1.00 20.00    -0.096 Cl
HETATM    4 CL5  UNL     1     -34.289   7.123   6.701  1.00 20.00    -0.087 Cl
ENDROOT
BRANCH   2   5
HETATM    5  C3  UNL     1     -34.692   5.948   4.271  1.00 20.00     0.166 C 
HETATM    6 CL6  UNL     1     -34.014   4.314   4.453  1.00 20.00    -0.125 Cl
ENDBRANCH   2   5
TORSDOF 1
ENDMDL
MODEL 5
REMARK VINA RESULT:      -3.5      1.108      3.319
REMARK  1 active torsions:
REMARK  status: ('A' for Active; 'I' for Inactive)
REMARK    1  A    between atoms: C2_2  and  C3_3 
ROOT
HETATM    1  C1  UNL     1     -33.776   5.358   4.123  1.00 20.00     0.105 C 
HETATM    2  C2  UNL     1     -34.022   6.419   4.899  1.00 20.00     0.036 C 
HETATM    3 CL4  UNL     1     -33.082   5.419   2.558  1.00 20.00    -0.096 Cl
HETATM    4 CL5  UNL     1     -34.741   6.151   6.461  1.00 20.00    -0.087 Cl
ENDROOT
BRANCH   2   5
HETATM    5  C3  UNL     1     -33.788   7.856   4.556  1.00 20.00     0.166 C 
HETATM    6 CL6  UNL     1     -32.046   8.185   4.410  1.00 20.00    -0.125 Cl
ENDBRANCH   2   5
TORSDOF 1
ENDMDL
MODEL 6
REMARK VINA RESULT:      -3.5      1.456      2.397
REMARK  1 active torsions:
REMARK  status: ('A' for Active; 'I' for Inactive)
REMARK    1  A    between atoms: C2_2  and  C3_3 
ROOT
HETATM    1  C1  UNL     1     -33.447   7.570   5.449  1.00 20.00     0.105 C 
HETATM    2  C2  UNL     1     -33.257   6.984   4.262  1.00 20.00     0.036 C 
HETATM    3 CL4  UNL     1     -34.385   6.925   6.729  1.00 20.00    -0.096 Cl
HETATM    4 CL5  UNL     1     -32.273   7.804   3.084  1.00 20.00    -0.087 Cl
ENDROOT
BRANCH   2   5
HETATM    5  C3  UNL     1     -33.844   5.689   3.795  1.00 20.00     0.166 C 
HETATM    6 CL6  UNL     1     -32.850   4.987   2.498  1.00 20.00    -0.125 Cl
ENDBRANCH   2   5
TORSDOF 1
ENDMDL
MODEL 7
REMARK VINA RESULT:      -3.5      1.245      2.837
REMARK  1 active torsions:
REMARK  status: ('A' for Active; 'I' for Inactive)
REMARK    1  A    between atoms: C2_2  and  C3_3 
ROOT
HETATM    1  C1  UNL     1     -34.348   4.996   4.844  1.00 20.00     0.105 C 
HETATM    2  C2  UNL     1     -33.650   5.793   4.028  1.00 20.00     0.036 C 
HETATM    3 CL4  UNL     1     -34.991   5.458   6.363  1.00 20.00    -0.096 Cl
HETATM    4 CL5  UNL     1     -33.073   5.135   2.524  1.00 20.00    -0.087 Cl
ENDROOT
BRANCH   2   5
HETATM    5  C3  UNL     1     -33.256   7.214   4.282  1.00 20.00     0.166 C 
HETATM    6 CL6  UNL     1     -32.151   7.790   3.013  1.00 20.00    -0.125 Cl
ENDBRANCH   2   5
TORSDOF 1
ENDMDL
MODEL 8
REMARK VINA RESULT:      -3.4      1.252      2.449
REMARK  1 active torsions:
REMARK  status: ('A' for Active; 'I' for Inactive)
REMARK    1  A    between atoms: C2_2  and  C3_3 
ROOT
HETATM    1  C1  UNL     1     -33.442   7.810   5.184  1.00 20.00     0.105 C 
HETATM    2  C2  UNL     1     -33.551   6.804   4.308  1.00 20.00     0.036 C 
HETATM    3 CL4  UNL     1     -32.322   9.101   5.069  1.00 20.00    -0.096 Cl
HETATM    4 CL5  UNL     1     -34.752   5.579   4.603  1.00 20.00    -0.087 Cl
ENDROOT
BRANCH   2   5
HETATM    5  C3  UNL     1     -32.708   6.576   3.094  1.00 20.00     0.166 C 
HETATM    6 CL6  UNL     1     -32.885   4.902   2.520  1.00 20.00    -0.125 Cl
ENDBRANCH   2   5
TORSDOF 1
ENDMDL
MODEL 9
REMARK VINA RESULT:      -3.3      1.340      2.979
REMARK  1 active torsions:
REMARK  status: ('A' for Active; 'I' for Inactive)
REMARK    1  A    between atoms: C2_2  and  C3_3 
ROOT
HETATM    1  C1  UNL     1     -33.990   5.672   4.074  1.00 20.00     0.105 C 
HETATM    2  C2  UNL     1     -33.315   6.826   4.134  1.00 20.00     0.036 C 
HETATM    3 CL4  UNL     1     -35.052   5.086   5.283  1.00 20.00    -0.096 Cl
HETATM    4 CL5  UNL     1     -32.276   7.245   2.802  1.00 20.00    -0.087 Cl
ENDROOT
BRANCH   2   5
HETATM    5  C3  UNL     1     -33.313   7.807   5.263  1.00 20.00     0.166 C 
HETATM    6 CL6  UNL     1     -32.198   9.150   4.919  1.00 20.00    -0.125 Cl
ENDBRANCH   2   5
TORSDOF 1
ENDMDL
