MODEL 1
REMARK VINA RESULT:      -5.6      0.000      0.000
REMARK  0 active torsions:
REMARK  status: ('A' for Active; 'I' for Inactive)
ROOT
HETATM    1  C1  UNL     1     -32.837   8.646   5.356  1.00 20.00    -0.021 C 
HETATM    2  C2  UNL     1     -33.954   6.529   6.503  1.00 20.00    -0.021 C 
HETATM    3  C3  UNL     1     -32.302   8.227   4.182  1.00 20.00    -0.023 C 
HETATM    4  C4  UNL     1     -34.254   5.433   5.759  1.00 20.00    -0.023 C 
HETATM    5  C5  UNL     1     -34.079   7.848   5.755  1.00 20.00     0.035 C 
HETATM    6  C6  UNL     1     -32.843   6.892   3.970  1.00 20.00     0.033 C 
HETATM    7  C7  UNL     1     -34.638   5.798   4.344  1.00 20.00     0.033 C 
HETATM    8  C8  UNL     1     -34.380   7.294   4.387  1.00 20.00     0.015 C 
HETATM    9  C9  UNL     1     -33.602   5.908   3.107  1.00 20.00     0.098 C 
HETATM   10 CL10 UNL     1     -32.769   4.409   2.580  1.00 20.00    -0.124 Cl
ENDROOT
TORSDOF 0
ENDMDL
MODEL 2
REMARK VINA RESULT:      -5.4      1.895      3.225
REMARK  0 active torsions:
REMARK  status: ('A' for Active; 'I' for Inactive)
ROOT
HETATM    1  C1  UNL     1     -34.692   5.072   6.103  1.00 20.00    -0.021 C 
HETATM    2  C2  UNL     1     -33.414   4.943   3.780  1.00 20.00    -0.021 C 
HETATM    3  C3  UNL     1     -34.329   6.238   6.693  1.00 20.00    -0.023 C 
HETATM    4  C4  UNL     1     -32.904   6.071   3.223  1.00 20.00    -0.023 C 
HETATM    5  C5  UNL     1     -34.692   5.160   4.576  1.00 20.00     0.035 C 
HETATM    6  C6  UNL     1     -33.646   6.996   5.654  1.00 20.00     0.033 C 
HETATM    7  C7  UNL     1     -33.741   7.288   3.541  1.00 20.00     0.033 C 
HETATM    8  C8  UNL     1     -34.751   6.663   4.487  1.00 20.00     0.015 C 
HETATM    9  C9  UNL     1     -33.517   8.252   4.821  1.00 20.00     0.098 C 
HETATM   10 CL10 UNL     1     -31.985   9.184   4.906  1.00 20.00    -0.124 Cl
ENDROOT
TORSDOF 0
ENDMDL
MODEL 3
REMARK VINA RESULT:      -4.9      1.641      2.747
REMARK  0 active torsions:
REMARK  status: ('A' for Active; 'I' for Inactive)
ROOT
HETATM    1  C1  UNL     1     -32.156   7.151   2.541  1.00 20.00    -0.021 C 
HETATM    2  C2  UNL     1     -32.108   8.556   4.792  1.00 20.00    -0.021 C 
HETATM    3  C3  UNL     1     -32.795   5.986   2.813  1.00 20.00    -0.023 C 
HETATM    4  C4  UNL     1     -32.972   8.258   5.797  1.00 20.00    -0.023 C 
HETATM    5  C5  UNL     1     -32.663   8.313   3.397  1.00 20.00     0.035 C 
HETATM    6  C6  UNL     1     -33.404   6.179   4.121  1.00 20.00     0.033 C 
HETATM    7  C7  UNL     1     -34.292   7.742   5.274  1.00 20.00     0.033 C 
HETATM    8  C8  UNL     1     -33.974   7.683   3.791  1.00 20.00     0.015 C 
HETATM    9  C9  UNL     1     -34.631   6.182   5.006  1.00 20.00     0.098 C 
HETATM   10 CL10 UNL     1     -34.670   5.082   6.423  1.00 20.00    -0.124 Cl
ENDROOT
TORSDOF 0
ENDMDL
MODEL 4
REMARK VINA RESULT:      -4.3      1.360      2.729
REMARK  0 active torsions:
REMARK  status: ('A' for Active; 'I' for Inactive)
ROOT
HETATM    1  C1  UNL     1     -34.802   5.797   5.479  1.00 20.00    -0.021 C 
HETATM    2  C2  UNL     1     -34.292   8.392   5.712  1.00 20.00    -0.021 C 
HETATM    3  C3  UNL     1     -34.388   5.420   4.243  1.00 20.00    -0.023 C 
HETATM    4  C4  UNL     1     -33.394   8.984   4.883  1.00 20.00    -0.023 C 
HETATM    5  C5  UNL     1     -33.970   6.945   6.053  1.00 20.00     0.035 C 
HETATM    6  C6  UNL     1     -33.600   6.538   3.745  1.00 20.00     0.033 C 
HETATM    7  C7  UNL     1     -32.280   8.042   4.490  1.00 20.00     0.033 C 
HETATM    8  C8  UNL     1     -32.778   6.768   5.148  1.00 20.00     0.015 C 
HETATM    9  C9  UNL     1     -32.302   7.080   3.189  1.00 20.00     0.098 C 
HETATM   10 CL10 UNL     1     -32.320   7.862   1.574  1.00 20.00    -0.124 Cl
ENDROOT
TORSDOF 0
ENDMDL
MODEL 5
REMARK VINA RESULT:      -4.3     15.306     16.128
REMARK  0 active torsions:
REMARK  status: ('A' for Active; 'I' for Inactive)
ROOT
HETATM    1  C1  UNL     1     -25.292  17.135  12.177  1.00 20.00    -0.021 C 
HETATM    2  C2  UNL     1     -25.640  19.014  10.335  1.00 20.00    -0.021 C 
HETATM    3  C3  UNL     1     -24.296  16.326  11.737  1.00 20.00    -0.023 C 
HETATM    4  C4  UNL     1     -24.662  19.263   9.426  1.00 20.00    -0.023 C 
HETATM    5  C5  UNL     1     -25.131  18.579  11.701  1.00 20.00     0.035 C 
HETATM    6  C6  UNL     1     -23.696  17.033  10.615  1.00 20.00     0.033 C 
HETATM    7  C7  UNL     1     -23.284  19.036  10.003  1.00 20.00     0.033 C 
HETATM    8  C8  UNL     1     -23.664  18.492  11.368  1.00 20.00     0.015 C 
HETATM    9  C9  UNL     1     -22.480  17.633   9.945  1.00 20.00     0.098 C 
HETATM   10 CL10 UNL     1     -21.995  17.015   8.332  1.00 20.00    -0.124 Cl
ENDROOT
TORSDOF 0
ENDMDL
MODEL 6
REMARK VINA RESULT:      -4.2     15.220     16.095
REMARK  0 active torsions:
REMARK  status: ('A' for Active; 'I' for Inactive)
ROOT
HETATM    1  C1  UNL     1     -23.334  18.306   9.216  1.00 20.00    -0.021 C 
HETATM    2  C2  UNL     1     -24.014  16.397  10.930  1.00 20.00    -0.021 C 
HETATM    3  C3  UNL     1     -24.338  19.218   9.217  1.00 20.00    -0.023 C 
HETATM    4  C4  UNL     1     -24.963  16.637  11.872  1.00 20.00    -0.023 C 
HETATM    5  C5  UNL     1     -23.170  17.609  10.568  1.00 20.00     0.035 C 
HETATM    6  C6  UNL     1     -25.168  18.872  10.363  1.00 20.00     0.033 C 
HETATM    7  C7  UNL     1     -24.952  18.076  12.332  1.00 20.00     0.033 C 
HETATM    8  C8  UNL     1     -23.905  18.638  11.386  1.00 20.00     0.015 C 
HETATM    9  C9  UNL     1     -25.827  19.263  11.667  1.00 20.00     0.098 C 
HETATM   10 CL10 UNL     1     -27.614  19.152  11.791  1.00 20.00    -0.124 Cl
ENDROOT
TORSDOF 0
ENDMDL
MODEL 7
REMARK VINA RESULT:      -3.9     15.776     16.510
REMARK  0 active torsions:
REMARK  status: ('A' for Active; 'I' for Inactive)
ROOT
HETATM    1  C1  UNL     1     -25.742  19.213  10.722  1.00 20.00    -0.021 C 
HETATM    2  C2  UNL     1     -23.666  18.833  12.332  1.00 20.00    -0.021 C 
HETATM    3  C3  UNL     1     -25.259  19.263   9.455  1.00 20.00    -0.023 C 
HETATM    4  C4  UNL     1     -22.499  18.351  11.832  1.00 20.00    -0.023 C 
HETATM    5  C5  UNL     1     -24.911  18.308  11.633  1.00 20.00     0.035 C 
HETATM    6  C6  UNL     1     -23.883  18.796   9.551  1.00 20.00     0.033 C 
HETATM    7  C7  UNL     1     -22.726  17.401  10.679  1.00 20.00     0.033 C 
HETATM    8  C8  UNL     1     -24.232  17.529  10.536  1.00 20.00     0.015 C 
HETATM    9  C9  UNL     1     -22.793  17.839   9.123  1.00 20.00     0.098 C 
HETATM   10 CL10 UNL     1     -21.304  18.511   8.381  1.00 20.00    -0.124 Cl
ENDROOT
TORSDOF 0
ENDMDL
MODEL 8
REMARK VINA RESULT:      -3.9     12.444     13.491
REMARK  0 active torsions:
REMARK  status: ('A' for Active; 'I' for Inactive)
ROOT
HETATM    1  C1  UNL     1     -35.828  16.476  -6.735  1.00 20.00    -0.021 C 
HETATM    2  C2  UNL     1     -35.998  14.210  -5.363  1.00 20.00    -0.021 C 
HETATM    3  C3  UNL     1     -35.190  17.374  -5.944  1.00 20.00    -0.023 C 
HETATM    4  C4  UNL     1     -35.179  13.998  -4.300  1.00 20.00    -0.023 C 
HETATM    5  C5  UNL     1     -35.375  15.038  -6.477  1.00 20.00     0.035 C 
HETATM    6  C6  UNL     1     -34.645  16.594  -4.842  1.00 20.00     0.033 C 
HETATM    7  C7  UNL     1     -33.830  14.653  -4.485  1.00 20.00     0.033 C 
HETATM    8  C8  UNL     1     -34.077  15.382  -5.794  1.00 20.00     0.015 C 
HETATM    9  C9  UNL     1     -33.461  16.154  -4.009  1.00 20.00     0.098 C 
HETATM   10 CL10 UNL     1     -33.477  16.498  -2.247  1.00 20.00    -0.124 Cl
ENDROOT
TORSDOF 0
ENDMDL
MODEL 9
REMARK VINA RESULT:      -3.7     12.187     13.374
REMARK  0 active torsions:
REMARK  status: ('A' for Active; 'I' for Inactive)
ROOT
HETATM    1  C1  UNL     1     -33.845  18.678  -1.288  1.00 20.00    -0.021 C 
HETATM    2  C2  UNL     1     -35.510  18.719  -3.354  1.00 20.00    -0.021 C 
HETATM    3  C3  UNL     1     -33.324  17.427  -1.221  1.00 20.00    -0.023 C 
HETATM    4  C4  UNL     1     -35.417  17.769  -4.320  1.00 20.00    -0.023 C 
HETATM    5  C5  UNL     1     -34.181  19.100  -2.719  1.00 20.00     0.035 C 
HETATM    6  C6  UNL     1     -33.697  16.789  -2.476  1.00 20.00     0.033 C 
HETATM    7  C7  UNL     1     -33.992  17.309  -4.526  1.00 20.00     0.033 C 
HETATM    8  C8  UNL     1     -33.311  18.083  -3.411  1.00 20.00     0.015 C 
HETATM    9  C9  UNL     1     -33.302  16.070  -3.746  1.00 20.00     0.098 C 
HETATM   10 CL10 UNL     1     -33.961  14.427  -4.043  1.00 20.00    -0.124 Cl
ENDROOT
TORSDOF 0
ENDMDL
