MODEL 1
REMARK VINA RESULT:      -5.9      0.000      0.000
REMARK  0 active torsions:
REMARK  status: ('A' for Active; 'I' for Inactive)
ROOT
HETATM    1  C1  UNL     1     -34.982   5.416   5.325  1.00 20.00     0.003 C 
HETATM    2  C2  UNL     1     -34.506   5.284   4.084  1.00 20.00     0.050 C 
HETATM    3  C3  UNL     1     -34.418   6.124   6.444  1.00 20.00    -0.004 C 
HETATM    4  C4  UNL     1     -33.572   7.160   6.416  1.00 20.00    -0.021 C 
HETATM    5  C5  UNL     1     -33.285   5.894   3.508  1.00 20.00     0.154 C 
HETATM    6  C6  UNL     1     -33.795   8.362   4.150  1.00 20.00     0.022 A 
HETATM    7  C7  UNL     1     -32.955   7.848   5.286  1.00 20.00     0.020 A 
HETATM    8  C8  UNL     1     -32.814   7.236   3.925  1.00 20.00     0.068 A 
HETATM    9  O9  UNL     1     -32.687   5.302   2.613  1.00 20.00    -0.293 OA
ENDROOT
TORSDOF 0
ENDMDL
MODEL 2
REMARK VINA RESULT:      -5.4      1.824      3.514
REMARK  0 active torsions:
REMARK  status: ('A' for Active; 'I' for Inactive)
ROOT
HETATM    1  C1  UNL     1     -32.807   7.841   3.677  1.00 20.00     0.003 C 
HETATM    2  C2  UNL     1     -33.337   8.091   4.878  1.00 20.00     0.050 C 
HETATM    3  C3  UNL     1     -32.566   6.575   3.036  1.00 20.00    -0.004 C 
HETATM    4  C4  UNL     1     -33.198   5.415   3.249  1.00 20.00    -0.021 C 
HETATM    5  C5  UNL     1     -33.881   7.117   5.853  1.00 20.00     0.154 C 
HETATM    6  C6  UNL     1     -35.522   5.899   4.245  1.00 20.00     0.022 A 
HETATM    7  C7  UNL     1     -34.264   5.076   4.187  1.00 20.00     0.020 A 
HETATM    8  C8  UNL     1     -34.568   5.879   5.415  1.00 20.00     0.068 A 
HETATM    9  O9  UNL     1     -33.823   7.378   7.051  1.00 20.00    -0.293 OA
ENDROOT
TORSDOF 0
ENDMDL
MODEL 3
REMARK VINA RESULT:      -5.3      1.529      2.689
REMARK  0 active torsions:
REMARK  status: ('A' for Active; 'I' for Inactive)
ROOT
HETATM    1  C1  UNL     1     -32.656   6.088   3.108  1.00 20.00     0.003 C 
HETATM    2  C2  UNL     1     -33.746   5.484   3.592  1.00 20.00     0.050 C 
HETATM    3  C3  UNL     1     -32.249   7.462   3.233  1.00 20.00    -0.004 C 
HETATM    4  C4  UNL     1     -32.579   8.331   4.196  1.00 20.00    -0.021 C 
HETATM    5  C5  UNL     1     -34.804   6.068   4.449  1.00 20.00     0.154 C 
HETATM    6  C6  UNL     1     -33.257   7.023   6.307  1.00 20.00     0.022 A 
HETATM    7  C7  UNL     1     -33.450   8.172   5.356  1.00 20.00     0.020 A 
HETATM    8  C8  UNL     1     -34.502   7.110   5.458  1.00 20.00     0.068 A 
HETATM    9  O9  UNL     1     -35.948   5.626   4.369  1.00 20.00    -0.293 OA
ENDROOT
TORSDOF 0
ENDMDL
MODEL 4
REMARK VINA RESULT:      -5.2      1.731      3.316
REMARK  0 active torsions:
REMARK  status: ('A' for Active; 'I' for Inactive)
ROOT
HETATM    1  C1  UNL     1     -32.655   6.487   2.694  1.00 20.00     0.003 C 
HETATM    2  C2  UNL     1     -32.812   7.478   3.576  1.00 20.00     0.050 C 
HETATM    3  C3  UNL     1     -32.869   5.074   2.867  1.00 20.00    -0.004 C 
HETATM    4  C4  UNL     1     -33.679   4.470   3.744  1.00 20.00    -0.021 C 
HETATM    5  C5  UNL     1     -33.314   7.387   4.967  1.00 20.00     0.154 C 
HETATM    6  C6  UNL     1     -35.525   6.118   4.453  1.00 20.00     0.022 A 
HETATM    7  C7  UNL     1     -34.540   5.031   4.781  1.00 20.00     0.020 A 
HETATM    8  C8  UNL     1     -34.350   6.401   5.358  1.00 20.00     0.068 A 
HETATM    9  O9  UNL     1     -32.914   8.196   5.800  1.00 20.00    -0.293 OA
ENDROOT
TORSDOF 0
ENDMDL
MODEL 5
REMARK VINA RESULT:      -4.8      1.321      2.645
REMARK  0 active torsions:
REMARK  status: ('A' for Active; 'I' for Inactive)
ROOT
HETATM    1  C1  UNL     1     -33.710   6.887   6.299  1.00 20.00     0.003 C 
HETATM    2  C2  UNL     1     -32.981   7.661   5.490  1.00 20.00     0.050 C 
HETATM    3  C3  UNL     1     -34.746   5.946   5.964  1.00 20.00    -0.004 C 
HETATM    4  C4  UNL     1     -34.916   5.289   4.811  1.00 20.00    -0.021 C 
HETATM    5  C5  UNL     1     -33.006   7.708   4.009  1.00 20.00     0.154 C 
HETATM    6  C6  UNL     1     -32.660   5.168   3.577  1.00 20.00     0.022 A 
HETATM    7  C7  UNL     1     -34.153   5.346   3.567  1.00 20.00     0.020 A 
HETATM    8  C8  UNL     1     -33.267   6.497   3.196  1.00 20.00     0.068 A 
HETATM    9  O9  UNL     1     -32.735   8.763   3.442  1.00 20.00    -0.293 OA
ENDROOT
TORSDOF 0
ENDMDL
MODEL 6
REMARK VINA RESULT:      -4.5      0.886      2.504
REMARK  0 active torsions:
REMARK  status: ('A' for Active; 'I' for Inactive)
ROOT
HETATM    1  C1  UNL     1     -32.470   7.756   4.228  1.00 20.00     0.003 C 
HETATM    2  C2  UNL     1     -32.428   6.666   3.455  1.00 20.00     0.050 C 
HETATM    3  C3  UNL     1     -33.529   8.223   5.083  1.00 20.00    -0.004 C 
HETATM    4  C4  UNL     1     -34.494   7.499   5.662  1.00 20.00    -0.021 C 
HETATM    5  C5  UNL     1     -33.453   5.604   3.324  1.00 20.00     0.154 C 
HETATM    6  C6  UNL     1     -33.708   5.055   5.853  1.00 20.00     0.022 A 
HETATM    7  C7  UNL     1     -34.783   6.071   5.583  1.00 20.00     0.020 A 
HETATM    8  C8  UNL     1     -34.298   5.192   4.470  1.00 20.00     0.068 A 
HETATM    9  O9  UNL     1     -33.556   5.004   2.258  1.00 20.00    -0.293 OA
ENDROOT
TORSDOF 0
ENDMDL
MODEL 7
REMARK VINA RESULT:      -4.4      1.308      2.205
REMARK  0 active torsions:
REMARK  status: ('A' for Active; 'I' for Inactive)
ROOT
HETATM    1  C1  UNL     1     -34.419   7.494   5.208  1.00 20.00     0.003 C 
HETATM    2  C2  UNL     1     -34.722   6.259   4.797  1.00 20.00     0.050 C 
HETATM    3  C3  UNL     1     -33.173   8.206   5.104  1.00 20.00    -0.004 C 
HETATM    4  C4  UNL     1     -32.195   8.020   4.210  1.00 20.00    -0.021 C 
HETATM    5  C5  UNL     1     -33.858   5.308   4.060  1.00 20.00     0.154 C 
HETATM    6  C6  UNL     1     -33.179   6.895   2.114  1.00 20.00     0.022 A 
HETATM    7  C7  UNL     1     -32.076   7.052   3.124  1.00 20.00     0.020 A 
HETATM    8  C8  UNL     1     -32.856   5.773   3.071  1.00 20.00     0.068 A 
HETATM    9  O9  UNL     1     -34.024   4.102   4.221  1.00 20.00    -0.293 OA
ENDROOT
TORSDOF 0
ENDMDL
MODEL 8
REMARK VINA RESULT:      -4.2      1.658      2.749
REMARK  0 active torsions:
REMARK  status: ('A' for Active; 'I' for Inactive)
ROOT
HETATM    1  C1  UNL     1     -34.048   5.968   6.739  1.00 20.00     0.003 C 
HETATM    2  C2  UNL     1     -33.350   7.075   6.464  1.00 20.00     0.050 C 
HETATM    3  C3  UNL     1     -34.991   5.261   5.915  1.00 20.00    -0.004 C 
HETATM    4  C4  UNL     1     -35.060   5.244   4.579  1.00 20.00    -0.021 C 
HETATM    5  C5  UNL     1     -33.319   7.838   5.195  1.00 20.00     0.154 C 
HETATM    6  C6  UNL     1     -32.754   5.854   3.612  1.00 20.00     0.022 A 
HETATM    7  C7  UNL     1     -34.254   5.940   3.580  1.00 20.00     0.020 A 
HETATM    8  C8  UNL     1     -33.449   7.167   3.880  1.00 20.00     0.068 A 
HETATM    9  O9  UNL     1     -33.110   9.048   5.232  1.00 20.00    -0.293 OA
ENDROOT
TORSDOF 0
ENDMDL
MODEL 9
REMARK VINA RESULT:      -4.1      9.025     10.034
REMARK  0 active torsions:
REMARK  status: ('A' for Active; 'I' for Inactive)
ROOT
HETATM    1  C1  UNL     1     -40.644   6.653  -0.042  1.00 20.00     0.003 C 
HETATM    2  C2  UNL     1     -41.100   5.667  -0.820  1.00 20.00     0.050 C 
HETATM    3  C3  UNL     1     -41.371   7.513   0.853  1.00 20.00    -0.004 C 
HETATM    4  C4  UNL     1     -42.535   7.265   1.464  1.00 20.00    -0.021 C 
HETATM    5  C5  UNL     1     -42.486   5.152  -0.918  1.00 20.00     0.154 C 
HETATM    6  C6  UNL     1     -42.874   4.717   1.616  1.00 20.00     0.022 A 
HETATM    7  C7  UNL     1     -43.414   6.102   1.389  1.00 20.00     0.020 A 
HETATM    8  C8  UNL     1     -43.390   5.122   0.256  1.00 20.00     0.068 A 
HETATM    9  O9  UNL     1     -42.871   4.676  -1.982  1.00 20.00    -0.293 OA
ENDROOT
TORSDOF 0
ENDMDL
