MODEL 1
REMARK VINA RESULT:      -6.2      0.000      0.000
REMARK  0 active torsions:
REMARK  status: ('A' for Active; 'I' for Inactive)
ROOT
HETATM    1  C1  UNL     1     -34.821   5.788   6.451  1.00 20.00    -0.021 C 
HETATM    2  C2  UNL     1     -34.038   6.885   6.601  1.00 20.00    -0.021 C 
HETATM    3  C3  UNL     1     -33.885   4.366   4.416  1.00 20.00    -0.021 C 
HETATM    4  C4  UNL     1     -33.199   4.925   3.389  1.00 20.00    -0.021 C 
HETATM    5  C5  UNL     1     -32.646   8.019   4.519  1.00 20.00    -0.015 C 
HETATM    6  C6  UNL     1     -32.688   7.531   3.252  1.00 20.00    -0.079 C 
HETATM    7  C7  UNL     1     -34.907   5.310   5.006  1.00 20.00     0.036 C 
HETATM    8  C8  UNL     1     -33.252   6.981   5.364  1.00 20.00     0.036 C 
HETATM    9  C9  UNL     1     -33.640   6.343   3.103  1.00 20.00     0.042 C 
HETATM   10  C10 UNL     1     -34.380   6.576   4.391  1.00 20.00     0.020 C 
HETATM   11  C11 UNL     1     -32.010   8.105   2.061  1.00 20.00     0.044 C 
ENDROOT
TORSDOF 0
ENDMDL
MODEL 2
REMARK VINA RESULT:      -5.6      1.015      2.129
REMARK  0 active torsions:
REMARK  status: ('A' for Active; 'I' for Inactive)
ROOT
HETATM    1  C1  UNL     1     -33.954   8.085   6.166  1.00 20.00    -0.021 C 
HETATM    2  C2  UNL     1     -33.048   8.361   5.195  1.00 20.00    -0.021 C 
HETATM    3  C3  UNL     1     -34.162   5.450   6.389  1.00 20.00    -0.021 C 
HETATM    4  C4  UNL     1     -33.912   4.607   5.357  1.00 20.00    -0.021 C 
HETATM    5  C5  UNL     1     -32.540   6.654   3.102  1.00 20.00    -0.015 C 
HETATM    6  C6  UNL     1     -33.179   5.464   2.949  1.00 20.00    -0.079 C 
HETATM    7  C7  UNL     1     -34.707   6.781   5.926  1.00 20.00     0.036 C 
HETATM    8  C8  UNL     1     -32.857   7.102   4.465  1.00 20.00     0.036 C 
HETATM    9  C9  UNL     1     -34.248   5.221   4.016  1.00 20.00     0.042 C 
HETATM   10  C10 UNL     1     -34.333   6.650   4.476  1.00 20.00     0.020 C 
HETATM   11  C11 UNL     1     -33.003   4.505   1.828  1.00 20.00     0.044 C 
ENDROOT
TORSDOF 0
ENDMDL
MODEL 3
REMARK VINA RESULT:      -5.5      1.005      1.673
REMARK  0 active torsions:
REMARK  status: ('A' for Active; 'I' for Inactive)
ROOT
HETATM    1  C1  UNL     1     -35.063   4.863   5.296  1.00 20.00    -0.021 C 
HETATM    2  C2  UNL     1     -34.650   5.556   6.386  1.00 20.00    -0.021 C 
HETATM    3  C3  UNL     1     -33.338   5.296   3.328  1.00 20.00    -0.021 C 
HETATM    4  C4  UNL     1     -32.598   6.429   3.241  1.00 20.00    -0.021 C 
HETATM    5  C5  UNL     1     -33.149   7.852   6.212  1.00 20.00    -0.015 C 
HETATM    6  C6  UNL     1     -32.762   8.392   5.026  1.00 20.00    -0.079 C 
HETATM    7  C7  UNL     1     -34.679   5.534   3.982  1.00 20.00     0.036 C 
HETATM    8  C8  UNL     1     -33.646   6.507   5.892  1.00 20.00     0.036 C 
HETATM    9  C9  UNL     1     -33.311   7.630   3.818  1.00 20.00     0.042 C 
HETATM   10  C10 UNL     1     -34.368   6.879   4.578  1.00 20.00     0.020 C 
HETATM   11  C11 UNL     1     -31.994   9.650   4.837  1.00 20.00     0.044 C 
ENDROOT
TORSDOF 0
ENDMDL
MODEL 4
REMARK VINA RESULT:      -5.4      0.754      2.401
REMARK  0 active torsions:
REMARK  status: ('A' for Active; 'I' for Inactive)
ROOT
HETATM    1  C1  UNL     1     -34.614   5.643   6.367  1.00 20.00    -0.021 C 
HETATM    2  C2  UNL     1     -34.645   4.988   5.179  1.00 20.00    -0.021 C 
HETATM    3  C3  UNL     1     -34.273   8.229   5.885  1.00 20.00    -0.021 C 
HETATM    4  C4  UNL     1     -33.642   8.689   4.776  1.00 20.00    -0.021 C 
HETATM    5  C5  UNL     1     -33.368   5.919   2.931  1.00 20.00    -0.015 C 
HETATM    6  C6  UNL     1     -32.648   7.071   2.915  1.00 20.00    -0.079 C 
HETATM    7  C7  UNL     1     -33.738   6.890   6.338  1.00 20.00     0.036 C 
HETATM    8  C8  UNL     1     -34.124   5.940   4.190  1.00 20.00     0.036 C 
HETATM    9  C9  UNL     1     -32.569   7.742   4.288  1.00 20.00     0.042 C 
HETATM   10  C10 UNL     1     -33.006   6.537   5.073  1.00 20.00     0.020 C 
HETATM   11  C11 UNL     1     -31.889   7.623   1.764  1.00 20.00     0.044 C 
ENDROOT
TORSDOF 0
ENDMDL
MODEL 5
REMARK VINA RESULT:      -4.8      0.993      3.972
REMARK  0 active torsions:
REMARK  status: ('A' for Active; 'I' for Inactive)
ROOT
HETATM    1  C1  UNL     1     -32.164   8.044   2.188  1.00 20.00    -0.021 C 
HETATM    2  C2  UNL     1     -32.404   6.710   2.115  1.00 20.00    -0.021 C 
HETATM    3  C3  UNL     1     -32.103   8.741   4.747  1.00 20.00    -0.021 C 
HETATM    4  C4  UNL     1     -32.782   8.062   5.706  1.00 20.00    -0.021 C 
HETATM    5  C5  UNL     1     -33.778   5.334   4.057  1.00 20.00    -0.015 C 
HETATM    6  C6  UNL     1     -34.278   5.931   5.170  1.00 20.00    -0.079 C 
HETATM    7  C7  UNL     1     -32.803   8.698   3.408  1.00 20.00     0.036 C 
HETATM    8  C8  UNL     1     -32.873   6.320   3.450  1.00 20.00     0.036 C 
HETATM    9  C9  UNL     1     -34.059   7.445   5.182  1.00 20.00     0.042 C 
HETATM   10  C10 UNL     1     -33.744   7.567   3.718  1.00 20.00     0.020 C 
HETATM   11  C11 UNL     1     -35.071   5.277   6.243  1.00 20.00     0.044 C 
ENDROOT
TORSDOF 0
ENDMDL
MODEL 6
REMARK VINA RESULT:      -4.6      1.129      3.037
REMARK  0 active torsions:
REMARK  status: ('A' for Active; 'I' for Inactive)
ROOT
HETATM    1  C1  UNL     1     -33.369   8.741   5.742  1.00 20.00    -0.021 C 
HETATM    2  C2  UNL     1     -34.135   7.624   5.814  1.00 20.00    -0.021 C 
HETATM    3  C3  UNL     1     -32.723   9.148   3.201  1.00 20.00    -0.021 C 
HETATM    4  C4  UNL     1     -32.638   8.140   2.298  1.00 20.00    -0.021 C 
HETATM    5  C5  UNL     1     -33.965   5.580   3.984  1.00 20.00    -0.015 C 
HETATM    6  C6  UNL     1     -33.103   5.600   2.934  1.00 20.00    -0.079 C 
HETATM    7  C7  UNL     1     -32.361   8.700   4.598  1.00 20.00     0.036 C 
HETATM    8  C8  UNL     1     -33.968   6.947   4.521  1.00 20.00     0.036 C 
HETATM    9  C9  UNL     1     -32.202   6.836   2.927  1.00 20.00     0.042 C 
HETATM   10  C10 UNL     1     -32.457   7.219   4.358  1.00 20.00     0.020 C 
HETATM   11  C11 UNL     1     -32.911   4.524   1.928  1.00 20.00     0.044 C 
ENDROOT
TORSDOF 0
ENDMDL
MODEL 7
REMARK VINA RESULT:      -4.5      1.014      2.660
REMARK  0 active torsions:
REMARK  status: ('A' for Active; 'I' for Inactive)
ROOT
HETATM    1  C1  UNL     1     -33.781   4.228   3.282  1.00 20.00    -0.021 C 
HETATM    2  C2  UNL     1     -32.919   4.983   2.556  1.00 20.00    -0.021 C 
HETATM    3  C3  UNL     1     -35.369   5.855   4.649  1.00 20.00    -0.021 C 
HETATM    4  C4  UNL     1     -34.989   7.102   5.024  1.00 20.00    -0.021 C 
HETATM    5  C5  UNL     1     -32.149   7.510   3.314  1.00 20.00    -0.015 C 
HETATM    6  C6  UNL     1     -32.595   8.107   4.450  1.00 20.00    -0.079 C 
HETATM    7  C7  UNL     1     -34.204   4.894   4.587  1.00 20.00     0.036 C 
HETATM    8  C8  UNL     1     -33.010   6.336   3.118  1.00 20.00     0.036 C 
HETATM    9  C9  UNL     1     -33.502   7.200   5.283  1.00 20.00     0.042 C 
HETATM   10  C10 UNL     1     -33.105   5.920   4.602  1.00 20.00     0.020 C 
HETATM   11  C11 UNL     1     -32.197   9.445   4.959  1.00 20.00     0.044 C 
ENDROOT
TORSDOF 0
ENDMDL
MODEL 8
REMARK VINA RESULT:      -4.0     12.405     13.796
REMARK  0 active torsions:
REMARK  status: ('A' for Active; 'I' for Inactive)
ROOT
HETATM    1  C1  UNL     1     -33.392  18.668  -1.681  1.00 20.00    -0.021 C 
HETATM    2  C2  UNL     1     -32.941  17.389  -1.649  1.00 20.00    -0.021 C 
HETATM    3  C3  UNL     1     -35.529  18.759  -3.250  1.00 20.00    -0.021 C 
HETATM    4  C4  UNL     1     -35.727  17.884  -4.267  1.00 20.00    -0.021 C 
HETATM    5  C5  UNL     1     -33.342  15.613  -3.708  1.00 20.00    -0.015 C 
HETATM    6  C6  UNL     1     -34.004  15.944  -4.848  1.00 20.00    -0.079 C 
HETATM    7  C7  UNL     1     -34.063  19.029  -3.002  1.00 20.00     0.036 C 
HETATM    8  C8  UNL     1     -33.610  16.705  -2.763  1.00 20.00     0.036 C 
HETATM    9  C9  UNL     1     -34.430  17.413  -4.885  1.00 20.00     0.042 C 
HETATM   10  C10 UNL     1     -33.517  17.864  -3.779  1.00 20.00     0.020 C 
HETATM   11  C11 UNL     1     -34.225  15.067  -6.027  1.00 20.00     0.044 C 
ENDROOT
TORSDOF 0
ENDMDL
MODEL 9
REMARK VINA RESULT:      -3.9     12.444     13.480
REMARK  0 active torsions:
REMARK  status: ('A' for Active; 'I' for Inactive)
ROOT
HETATM    1  C1  UNL     1     -33.893  18.485  -2.614  1.00 20.00    -0.021 C 
HETATM    2  C2  UNL     1     -32.557  18.724  -2.616  1.00 20.00    -0.021 C 
HETATM    3  C3  UNL     1     -34.873  19.246  -0.270  1.00 20.00    -0.021 C 
HETATM    4  C4  UNL     1     -34.128  19.263   0.863  1.00 20.00    -0.021 C 
HETATM    5  C5  UNL     1     -31.046  18.759  -0.321  1.00 20.00    -0.015 C 
HETATM    6  C6  UNL     1     -31.572  18.534   0.912  1.00 20.00    -0.079 C 
HETATM    7  C7  UNL     1     -34.438  18.161  -1.227  1.00 20.00     0.036 C 
HETATM    8  C8  UNL     1     -32.196  18.958  -1.212  1.00 20.00     0.036 C 
HETATM    9  C9  UNL     1     -33.062  18.191   0.870  1.00 20.00     0.042 C 
HETATM   10  C10 UNL     1     -33.104  17.871  -0.598  1.00 20.00     0.020 C 
HETATM   11  C11 UNL     1     -30.825  18.486   2.195  1.00 20.00     0.044 C 
ENDROOT
TORSDOF 0
ENDMDL
