MODEL 1
REMARK VINA RESULT:      -4.4      0.000      0.000
REMARK  0 active torsions:
REMARK  status: ('A' for Active; 'I' for Inactive)
ROOT
HETATM    1  C1  UNL     1     -34.479   6.412   6.736  1.00 20.00     0.004 C 
HETATM    2  C2  UNL     1     -33.710   7.730   6.689  1.00 20.00     0.005 C 
HETATM    3  C3  UNL     1     -34.010   5.453   5.640  1.00 20.00     0.042 C 
HETATM    4  C4  UNL     1     -32.436   7.904   4.449  1.00 20.00     0.013 A 
HETATM    5  C5  UNL     1     -33.611   8.303   5.307  1.00 20.00    -0.007 A 
HETATM    6  C6  UNL     1     -33.822   7.446   4.079  1.00 20.00     0.029 A 
HETATM    7  C7  UNL     1     -34.268   6.019   4.236  1.00 20.00     0.117 C 
HETATM    8 CL8  UNL     1     -33.427   5.018   3.013  1.00 20.00    -0.101 Cl
HETATM    9 CL9  UNL     1     -36.032   5.958   3.875  1.00 20.00    -0.101 Cl
ENDROOT
TORSDOF 0
ENDMDL
MODEL 2
REMARK VINA RESULT:      -4.3      0.941      1.294
REMARK  0 active torsions:
REMARK  status: ('A' for Active; 'I' for Inactive)
ROOT
HETATM    1  C1  UNL     1     -33.935   7.836   6.137  1.00 20.00     0.004 C 
HETATM    2  C2  UNL     1     -32.964   8.591   5.233  1.00 20.00     0.005 C 
HETATM    3  C3  UNL     1     -33.837   6.325   5.923  1.00 20.00     0.042 C 
HETATM    4  C4  UNL     1     -32.079   6.998   3.402  1.00 20.00     0.013 A 
HETATM    5  C5  UNL     1     -33.002   8.121   3.808  1.00 20.00    -0.007 A 
HETATM    6  C6  UNL     1     -33.567   6.768   3.438  1.00 20.00     0.029 A 
HETATM    7  C7  UNL     1     -34.226   5.923   4.493  1.00 20.00     0.117 C 
HETATM    8 CL8  UNL     1     -33.796   4.209   4.205  1.00 20.00    -0.101 Cl
HETATM    9 CL9  UNL     1     -36.008   6.084   4.283  1.00 20.00    -0.101 Cl
ENDROOT
TORSDOF 0
ENDMDL
MODEL 3
REMARK VINA RESULT:      -4.2      2.396      3.417
REMARK  0 active torsions:
REMARK  status: ('A' for Active; 'I' for Inactive)
ROOT
HETATM    1  C1  UNL     1     -32.901   5.978   2.830  1.00 20.00     0.004 C 
HETATM    2  C2  UNL     1     -33.889   5.374   3.825  1.00 20.00     0.005 C 
HETATM    3  C3  UNL     1     -32.018   7.038   3.492  1.00 20.00     0.042 C 
HETATM    4  C4  UNL     1     -33.974   6.841   5.949  1.00 20.00     0.013 A 
HETATM    5  C5  UNL     1     -34.600   6.408   4.647  1.00 20.00    -0.007 A 
HETATM    6  C6  UNL     1     -34.054   7.810   4.799  1.00 20.00     0.029 A 
HETATM    7  C7  UNL     1     -32.842   8.226   4.011  1.00 20.00     0.117 C 
HETATM    8 CL8  UNL     1     -31.818   9.270   5.043  1.00 20.00    -0.101 Cl
HETATM    9 CL9  UNL     1     -33.413   9.218   2.620  1.00 20.00    -0.101 Cl
ENDROOT
TORSDOF 0
ENDMDL
MODEL 4
REMARK VINA RESULT:      -3.7      1.248      2.658
REMARK  0 active torsions:
REMARK  status: ('A' for Active; 'I' for Inactive)
ROOT
HETATM    1  C1  UNL     1     -32.274   6.549   2.984  1.00 20.00     0.004 C 
HETATM    2  C2  UNL     1     -32.015   7.831   3.771  1.00 20.00     0.005 C 
HETATM    3  C3  UNL     1     -33.762   6.195   2.965  1.00 20.00     0.042 C 
HETATM    4  C4  UNL     1     -34.113   8.428   5.155  1.00 20.00     0.013 A 
HETATM    5  C5  UNL     1     -32.718   7.858   5.097  1.00 20.00    -0.007 A 
HETATM    6  C6  UNL     1     -33.897   6.956   5.384  1.00 20.00     0.029 A 
HETATM    7  C7  UNL     1     -34.301   5.916   4.376  1.00 20.00     0.117 C 
HETATM    8 CL8  UNL     1     -36.088   5.821   4.336  1.00 20.00    -0.101 Cl
HETATM    9 CL9  UNL     1     -33.680   4.327   4.956  1.00 20.00    -0.101 Cl
ENDROOT
TORSDOF 0
ENDMDL
MODEL 5
REMARK VINA RESULT:      -3.7      2.186      3.164
REMARK  0 active torsions:
REMARK  status: ('A' for Active; 'I' for Inactive)
ROOT
HETATM    1  C1  UNL     1     -34.121   5.249   3.860  1.00 20.00     0.004 C 
HETATM    2  C2  UNL     1     -33.140   5.599   2.744  1.00 20.00     0.005 C 
HETATM    3  C3  UNL     1     -34.737   6.506   4.477  1.00 20.00     0.042 C 
HETATM    4  C4  UNL     1     -32.577   8.118   2.852  1.00 20.00     0.013 A 
HETATM    5  C5  UNL     1     -32.181   6.688   3.125  1.00 20.00    -0.007 A 
HETATM    6  C6  UNL     1     -32.469   7.629   4.273  1.00 20.00     0.029 A 
HETATM    7  C7  UNL     1     -33.676   7.398   5.139  1.00 20.00     0.117 C 
HETATM    8 CL8  UNL     1     -34.393   8.984   5.558  1.00 20.00    -0.101 Cl
HETATM    9 CL9  UNL     1     -33.110   6.630   6.667  1.00 20.00    -0.101 Cl
ENDROOT
TORSDOF 0
ENDMDL
MODEL 6
REMARK VINA RESULT:      -3.4     12.850     13.853
REMARK  0 active torsions:
REMARK  status: ('A' for Active; 'I' for Inactive)
ROOT
HETATM    1  C1  UNL     1     -33.944  17.626  -3.844  1.00 20.00     0.004 C 
HETATM    2  C2  UNL     1     -33.292  16.390  -3.230  1.00 20.00     0.005 C 
HETATM    3  C3  UNL     1     -35.259  17.275  -4.542  1.00 20.00     0.042 C 
HETATM    4  C4  UNL     1     -34.419  14.265  -4.172  1.00 20.00     0.013 A 
HETATM    5  C5  UNL     1     -33.251  15.220  -4.168  1.00 20.00    -0.007 A 
HETATM    6  C6  UNL     1     -34.164  15.140  -5.371  1.00 20.00     0.029 A 
HETATM    7  C7  UNL     1     -35.043  16.309  -5.717  1.00 20.00     0.117 C 
HETATM    8 CL8  UNL     1     -36.622  15.690  -6.291  1.00 20.00    -0.101 Cl
HETATM    9 CL9  UNL     1     -34.267  17.187  -7.085  1.00 20.00    -0.101 Cl
ENDROOT
TORSDOF 0
ENDMDL
MODEL 7
REMARK VINA RESULT:      -3.4     15.827     16.708
REMARK  0 active torsions:
REMARK  status: ('A' for Active; 'I' for Inactive)
ROOT
HETATM    1  C1  UNL     1     -24.274  16.768  11.120  1.00 20.00     0.004 C 
HETATM    2  C2  UNL     1     -23.385  17.309  12.237  1.00 20.00     0.005 C 
HETATM    3  C3  UNL     1     -23.535  16.744   9.781  1.00 20.00     0.042 C 
HETATM    4  C4  UNL     1     -21.308  18.449  11.207  1.00 20.00     0.013 A 
HETATM    5  C5  UNL     1     -22.665  18.569  11.857  1.00 20.00    -0.007 A 
HETATM    6  C6  UNL     1     -22.477  18.965  10.409  1.00 20.00     0.029 A 
HETATM    7  C7  UNL     1     -23.132  18.154   9.325  1.00 20.00     0.117 C 
HETATM    8 CL8  UNL     1     -22.010  18.045   7.934  1.00 20.00    -0.101 Cl
HETATM    9 CL9  UNL     1     -24.594  19.056   8.782  1.00 20.00    -0.101 Cl
ENDROOT
TORSDOF 0
ENDMDL
MODEL 8
REMARK VINA RESULT:      -3.3      8.684      9.647
REMARK  0 active torsions:
REMARK  status: ('A' for Active; 'I' for Inactive)
ROOT
HETATM    1  C1  UNL     1     -43.405   7.958  -0.043  1.00 20.00     0.004 C 
HETATM    2  C2  UNL     1     -42.003   8.527  -0.241  1.00 20.00     0.005 C 
HETATM    3  C3  UNL     1     -43.402   6.802   0.959  1.00 20.00     0.042 C 
HETATM    4  C4  UNL     1     -40.264   6.893   0.748  1.00 20.00     0.013 A 
HETATM    5  C5  UNL     1     -40.964   7.467  -0.459  1.00 20.00    -0.007 A 
HETATM    6  C6  UNL     1     -41.205   6.030  -0.051  1.00 20.00     0.029 A 
HETATM    7  C7  UNL     1     -42.556   5.620   0.465  1.00 20.00     0.117 C 
HETATM    8 CL8  UNL     1     -42.328   4.440   1.792  1.00 20.00    -0.101 Cl
HETATM    9 CL9  UNL     1     -43.417   4.779  -0.875  1.00 20.00    -0.101 Cl
ENDROOT
TORSDOF 0
ENDMDL
MODEL 9
REMARK VINA RESULT:      -3.3     12.619     13.627
REMARK  0 active torsions:
REMARK  status: ('A' for Active; 'I' for Inactive)
ROOT
HETATM    1  C1  UNL     1     -34.929  17.902  -5.314  1.00 20.00     0.004 C 
HETATM    2  C2  UNL     1     -34.083  18.327  -4.116  1.00 20.00     0.005 C 
HETATM    3  C3  UNL     1     -35.552  16.522  -5.095  1.00 20.00     0.042 C 
HETATM    4  C4  UNL     1     -33.655  16.283  -2.596  1.00 20.00     0.013 A 
HETATM    5  C5  UNL     1     -33.154  17.249  -3.641  1.00 20.00    -0.007 A 
HETATM    6  C6  UNL     1     -33.382  15.797  -3.995  1.00 20.00     0.029 A 
HETATM    7  C7  UNL     1     -34.484  15.428  -4.949  1.00 20.00     0.117 C 
HETATM    8 CL8  UNL     1     -35.245  13.908  -4.386  1.00 20.00    -0.101 Cl
HETATM    9 CL9  UNL     1     -33.729  15.103  -6.552  1.00 20.00    -0.101 Cl
ENDROOT
TORSDOF 0
ENDMDL
