MODEL 1
REMARK VINA RESULT:      -7.2      0.000      0.000
REMARK  0 active torsions:
REMARK  status: ('A' for Active; 'I' for Inactive)
ROOT
HETATM    1  C1  UNL     1     -32.194   7.814   3.389  1.00 20.00     0.004 C 
HETATM    2  C2  UNL     1     -32.585   8.475   4.520  1.00 20.00    -0.017 C 
HETATM    3  C3  UNL     1     -34.143   7.179   6.467  1.00 20.00    -0.021 C 
HETATM    4  C4  UNL     1     -34.596   5.902   6.252  1.00 20.00    -0.024 C 
HETATM    5  C5  UNL     1     -33.113   5.351   2.794  1.00 20.00    -0.019 C 
HETATM    6  C6  UNL     1     -32.827   6.528   3.352  1.00 20.00    -0.056 C 
HETATM    7  C7  UNL     1     -33.924   4.490   3.819  1.00 20.00     0.036 C 
HETATM    8  C8  UNL     1     -33.784   7.810   5.146  1.00 20.00     0.039 C 
HETATM    9  C9  UNL     1     -34.523   5.556   4.771  1.00 20.00     0.020 C 
HETATM   10  C10 UNL     1     -33.347   6.462   4.692  1.00 20.00     0.037 C 
ENDROOT
TORSDOF 0
ENDMDL
MODEL 2
REMARK VINA RESULT:      -7.1      0.682      2.618
REMARK  0 active torsions:
REMARK  status: ('A' for Active; 'I' for Inactive)
ROOT
HETATM    1  C1  UNL     1     -34.701   5.007   5.096  1.00 20.00     0.004 C 
HETATM    2  C2  UNL     1     -34.779   5.962   6.071  1.00 20.00    -0.017 C 
HETATM    3  C3  UNL     1     -33.580   8.478   5.711  1.00 20.00    -0.021 C 
HETATM    4  C4  UNL     1     -32.831   8.733   4.589  1.00 20.00    -0.024 C 
HETATM    5  C5  UNL     1     -33.167   5.339   2.904  1.00 20.00    -0.019 C 
HETATM    6  C6  UNL     1     -33.830   5.469   4.054  1.00 20.00    -0.056 C 
HETATM    7  C7  UNL     1     -32.507   6.712   2.544  1.00 20.00     0.036 C 
HETATM    8  C8  UNL     1     -33.686   6.988   5.911  1.00 20.00     0.039 C 
HETATM    9  C9  UNL     1     -32.423   7.428   3.917  1.00 20.00     0.020 C 
HETATM   10  C10 UNL     1     -33.694   6.851   4.430  1.00 20.00     0.037 C 
ENDROOT
TORSDOF 0
ENDMDL
MODEL 3
REMARK VINA RESULT:      -7.0      0.417      3.320
REMARK  0 active torsions:
REMARK  status: ('A' for Active; 'I' for Inactive)
ROOT
HETATM    1  C1  UNL     1     -34.401   6.775   6.561  1.00 20.00     0.004 C 
HETATM    2  C2  UNL     1     -34.802   5.562   6.072  1.00 20.00    -0.017 C 
HETATM    3  C3  UNL     1     -33.813   4.611   3.620  1.00 20.00    -0.021 C 
HETATM    4  C4  UNL     1     -32.990   5.398   2.854  1.00 20.00    -0.024 C 
HETATM    5  C5  UNL     1     -32.888   8.463   5.104  1.00 20.00    -0.019 C 
HETATM    6  C6  UNL     1     -33.598   7.438   5.575  1.00 20.00    -0.056 C 
HETATM    7  C7  UNL     1     -32.211   8.033   3.759  1.00 20.00     0.036 C 
HETATM    8  C8  UNL     1     -34.579   5.480   4.584  1.00 20.00     0.039 C 
HETATM    9  C9  UNL     1     -33.100   6.855   3.284  1.00 20.00     0.020 C 
HETATM   10  C10 UNL     1     -33.377   6.353   4.656  1.00 20.00     0.037 C 
ENDROOT
TORSDOF 0
ENDMDL
MODEL 4
REMARK VINA RESULT:      -6.9      0.670      2.610
REMARK  0 active torsions:
REMARK  status: ('A' for Active; 'I' for Inactive)
ROOT
HETATM    1  C1  UNL     1     -32.398   6.566   2.575  1.00 20.00     0.004 C 
HETATM    2  C2  UNL     1     -33.061   5.381   2.737  1.00 20.00    -0.017 C 
HETATM    3  C3  UNL     1     -34.807   5.002   4.906  1.00 20.00    -0.021 C 
HETATM    4  C4  UNL     1     -34.937   5.973   5.867  1.00 20.00    -0.024 C 
HETATM    5  C5  UNL     1     -32.475   8.502   4.450  1.00 20.00    -0.019 C 
HETATM    6  C6  UNL     1     -32.638   7.399   3.718  1.00 20.00    -0.056 C 
HETATM    7  C7  UNL     1     -33.460   8.452   5.665  1.00 20.00     0.036 C 
HETATM    8  C8  UNL     1     -33.510   5.204   4.165  1.00 20.00     0.039 C 
HETATM    9  C9  UNL     1     -33.760   6.937   5.807  1.00 20.00     0.020 C 
HETATM   10  C10 UNL     1     -33.706   6.667   4.347  1.00 20.00     0.037 C 
ENDROOT
TORSDOF 0
ENDMDL
MODEL 5
REMARK VINA RESULT:      -6.7      0.375      3.039
REMARK  0 active torsions:
REMARK  status: ('A' for Active; 'I' for Inactive)
ROOT
HETATM    1  C1  UNL     1     -33.778   4.802   3.511  1.00 20.00     0.004 C 
HETATM    2  C2  UNL     1     -32.946   5.559   2.733  1.00 20.00    -0.017 C 
HETATM    3  C3  UNL     1     -31.988   8.036   3.652  1.00 20.00    -0.021 C 
HETATM    4  C4  UNL     1     -32.421   8.543   4.851  1.00 20.00    -0.024 C 
HETATM    5  C5  UNL     1     -34.794   5.735   5.827  1.00 20.00    -0.019 C 
HETATM    6  C6  UNL     1     -34.139   5.550   4.680  1.00 20.00    -0.056 C 
HETATM    7  C7  UNL     1     -34.289   7.061   6.489  1.00 20.00     0.036 C 
HETATM    8  C8  UNL     1     -32.971   7.004   3.163  1.00 20.00     0.039 C 
HETATM    9  C9  UNL     1     -33.704   7.848   5.288  1.00 20.00     0.020 C 
HETATM   10  C10 UNL     1     -33.201   6.637   4.586  1.00 20.00     0.037 C 
ENDROOT
TORSDOF 0
ENDMDL
MODEL 6
REMARK VINA RESULT:      -6.6      0.579      2.629
REMARK  0 active torsions:
REMARK  status: ('A' for Active; 'I' for Inactive)
ROOT
HETATM    1  C1  UNL     1     -33.004   8.601   4.965  1.00 20.00     0.004 C 
HETATM    2  C2  UNL     1     -32.509   8.264   3.736  1.00 20.00    -0.017 C 
HETATM    3  C3  UNL     1     -33.097   5.766   2.591  1.00 20.00    -0.021 C 
HETATM    4  C4  UNL     1     -33.812   4.832   3.299  1.00 20.00    -0.024 C 
HETATM    5  C5  UNL     1     -34.318   6.819   6.502  1.00 20.00    -0.019 C 
HETATM    6  C6  UNL     1     -33.664   7.462   5.534  1.00 20.00    -0.056 C 
HETATM    7  C7  UNL     1     -34.775   5.423   5.962  1.00 20.00     0.036 C 
HETATM    8  C8  UNL     1     -32.503   6.768   3.547  1.00 20.00     0.039 C 
HETATM    9  C9  UNL     1     -33.799   5.170   4.784  1.00 20.00     0.020 C 
HETATM   10  C10 UNL     1     -33.722   6.600   4.384  1.00 20.00     0.037 C 
ENDROOT
TORSDOF 0
ENDMDL
