MODEL 1
REMARK VINA RESULT:      -4.2      0.000      0.000
REMARK  0 active torsions:
REMARK  status: ('A' for Active; 'I' for Inactive)
ROOT
HETATM    1  C1  UNL     1     -35.452   6.209   3.838  1.00 20.00    -0.020 A 
HETATM    2  C2  UNL     1     -35.232   7.397   4.429  1.00 20.00    -0.020 A 
HETATM    3  C3  UNL     1     -34.420   5.394   6.622  1.00 20.00     0.002 C 
HETATM    4  C4  UNL     1     -34.088   4.604   5.361  1.00 20.00     0.014 C 
HETATM    5  C5  UNL     1     -33.699   6.721   6.415  1.00 20.00     0.014 C 
HETATM    6  C6  UNL     1     -34.087   5.640   4.222  1.00 20.00    -0.016 A 
HETATM    7  C7  UNL     1     -33.832   7.025   4.912  1.00 20.00    -0.016 A 
HETATM    8  C8  UNL     1     -33.230   5.209   3.040  1.00 20.00     0.020 C 
HETATM    9  C9  UNL     1     -32.728   7.939   4.399  1.00 20.00     0.020 C 
ENDROOT
TORSDOF 0
ENDMDL
MODEL 2
REMARK VINA RESULT:      -4.2      0.875      2.806
REMARK  0 active torsions:
REMARK  status: ('A' for Active; 'I' for Inactive)
ROOT
HETATM    1  C1  UNL     1     -35.177   7.135   4.050  1.00 20.00    -0.020 A 
HETATM    2  C2  UNL     1     -35.666   5.958   4.481  1.00 20.00    -0.020 A 
HETATM    3  C3  UNL     1     -33.199   5.104   2.849  1.00 20.00     0.002 C 
HETATM    4  C4  UNL     1     -32.762   6.475   3.350  1.00 20.00     0.014 C 
HETATM    5  C5  UNL     1     -33.635   4.379   4.117  1.00 20.00     0.014 C 
HETATM    6  C6  UNL     1     -33.745   6.824   4.483  1.00 20.00    -0.016 A 
HETATM    7  C7  UNL     1     -34.316   5.453   4.984  1.00 20.00    -0.016 A 
HETATM    8  C8  UNL     1     -33.161   7.816   5.479  1.00 20.00     0.020 C 
HETATM    9  C9  UNL     1     -34.286   5.113   6.468  1.00 20.00     0.020 C 
ENDROOT
TORSDOF 0
ENDMDL
MODEL 3
REMARK VINA RESULT:      -4.1      0.964      1.229
REMARK  0 active torsions:
REMARK  status: ('A' for Active; 'I' for Inactive)
ROOT
HETATM    1  C1  UNL     1     -35.684   5.785   4.357  1.00 20.00    -0.020 A 
HETATM    2  C2  UNL     1     -35.216   6.962   3.905  1.00 20.00    -0.020 A 
HETATM    3  C3  UNL     1     -34.229   6.920   6.821  1.00 20.00     0.002 C 
HETATM    4  C4  UNL     1     -34.245   5.431   6.492  1.00 20.00     0.014 C 
HETATM    5  C5  UNL     1     -33.413   7.530   5.687  1.00 20.00     0.014 C 
HETATM    6  C6  UNL     1     -34.347   5.357   4.957  1.00 20.00    -0.016 A 
HETATM    7  C7  UNL     1     -33.802   6.730   4.431  1.00 20.00    -0.016 A 
HETATM    8  C8  UNL     1     -33.794   4.053   4.397  1.00 20.00     0.020 C 
HETATM    9  C9  UNL     1     -32.721   6.759   3.360  1.00 20.00     0.020 C 
ENDROOT
TORSDOF 0
ENDMDL
MODEL 4
REMARK VINA RESULT:      -3.9      0.840      2.381
REMARK  0 active torsions:
REMARK  status: ('A' for Active; 'I' for Inactive)
ROOT
HETATM    1  C1  UNL     1     -35.612   6.133   4.820  1.00 20.00    -0.020 A 
HETATM    2  C2  UNL     1     -35.167   6.356   3.570  1.00 20.00    -0.020 A 
HETATM    3  C3  UNL     1     -33.461   8.293   5.248  1.00 20.00     0.002 C 
HETATM    4  C4  UNL     1     -33.705   7.170   6.250  1.00 20.00     0.014 C 
HETATM    5  C5  UNL     1     -32.914   7.570   4.022  1.00 20.00     0.014 C 
HETATM    6  C6  UNL     1     -34.211   5.982   5.410  1.00 20.00    -0.016 A 
HETATM    7  C7  UNL     1     -33.693   6.244   3.954  1.00 20.00    -0.016 A 
HETATM    8  C8  UNL     1     -33.951   4.640   6.081  1.00 20.00     0.020 C 
HETATM    9  C9  UNL     1     -32.932   5.156   3.209  1.00 20.00     0.020 C 
ENDROOT
TORSDOF 0
ENDMDL
MODEL 5
REMARK VINA RESULT:      -3.8     15.558     17.135
REMARK  0 active torsions:
REMARK  status: ('A' for Active; 'I' for Inactive)
ROOT
HETATM    1  C1  UNL     1     -24.925  17.035  11.014  1.00 20.00    -0.020 A 
HETATM    2  C2  UNL     1     -23.597  16.842  11.107  1.00 20.00    -0.020 A 
HETATM    3  C3  UNL     1     -23.823  18.856   8.789  1.00 20.00     0.002 C 
HETATM    4  C4  UNL     1     -25.041  19.230   9.626  1.00 20.00     0.014 C 
HETATM    5  C5  UNL     1     -22.675  18.885   9.791  1.00 20.00     0.014 C 
HETATM    6  C6  UNL     1     -24.814  18.558  10.993  1.00 20.00    -0.016 A 
HETATM    7  C7  UNL     1     -23.266  18.333  11.101  1.00 20.00    -0.016 A 
HETATM    8  C8  UNL     1     -25.562  19.259  12.120  1.00 20.00     0.020 C 
HETATM    9  C9  UNL     1     -22.511  18.814  12.332  1.00 20.00     0.020 C 
ENDROOT
TORSDOF 0
ENDMDL
MODEL 6
REMARK VINA RESULT:      -3.8      0.951      2.554
REMARK  0 active torsions:
REMARK  status: ('A' for Active; 'I' for Inactive)
ROOT
HETATM    1  C1  UNL     1     -32.908   6.398   3.836  1.00 20.00    -0.020 A 
HETATM    2  C2  UNL     1     -33.793   5.417   3.585  1.00 20.00    -0.020 A 
HETATM    3  C3  UNL     1     -33.708   5.476   6.662  1.00 20.00     0.002 C 
HETATM    4  C4  UNL     1     -33.408   6.933   6.330  1.00 20.00     0.014 C 
HETATM    5  C5  UNL     1     -34.984   5.184   5.883  1.00 20.00     0.014 C 
HETATM    6  C6  UNL     1     -33.806   7.101   4.852  1.00 20.00    -0.016 A 
HETATM    7  C7  UNL     1     -34.838   5.957   4.560  1.00 20.00    -0.016 A 
HETATM    8  C8  UNL     1     -34.148   8.542   4.498  1.00 20.00     0.020 C 
HETATM    9  C9  UNL     1     -36.180   6.286   3.922  1.00 20.00     0.020 C 
ENDROOT
TORSDOF 0
ENDMDL
MODEL 7
REMARK VINA RESULT:      -3.6      8.054      9.625
REMARK  0 active torsions:
REMARK  status: ('A' for Active; 'I' for Inactive)
ROOT
HETATM    1  C1  UNL     1     -40.987   7.261   0.929  1.00 20.00    -0.020 A 
HETATM    2  C2  UNL     1     -40.720   6.012   0.506  1.00 20.00    -0.020 A 
HETATM    3  C3  UNL     1     -43.163   5.597   2.334  1.00 20.00     0.002 C 
HETATM    4  C4  UNL     1     -43.417   7.008   1.816  1.00 20.00     0.014 C 
HETATM    5  C5  UNL     1     -42.941   4.783   1.064  1.00 20.00     0.014 C 
HETATM    6  C6  UNL     1     -42.478   7.171   0.607  1.00 20.00    -0.016 A 
HETATM    7  C7  UNL     1     -42.167   5.715   0.115  1.00 20.00    -0.016 A 
HETATM    8  C8  UNL     1     -42.973   8.219  -0.380  1.00 20.00     0.020 C 
HETATM    9  C9  UNL     1     -42.358   5.350  -1.350  1.00 20.00     0.020 C 
ENDROOT
TORSDOF 0
ENDMDL
MODEL 8
REMARK VINA RESULT:      -3.5      7.902      9.715
REMARK  0 active torsions:
REMARK  status: ('A' for Active; 'I' for Inactive)
ROOT
HETATM    1  C1  UNL     1     -42.127   8.109  -0.379  1.00 20.00    -0.020 A 
HETATM    2  C2  UNL     1     -43.391   7.788  -0.049  1.00 20.00    -0.020 A 
HETATM    3  C3  UNL     1     -42.287   5.132  -1.148  1.00 20.00     0.002 C 
HETATM    4  C4  UNL     1     -41.023   5.764  -0.576  1.00 20.00     0.014 C 
HETATM    5  C5  UNL     1     -43.276   5.192   0.010  1.00 20.00     0.014 C 
HETATM    6  C6  UNL     1     -41.517   6.903   0.334  1.00 20.00    -0.016 A 
HETATM    7  C7  UNL     1     -42.990   6.529   0.718  1.00 20.00    -0.016 A 
HETATM    8  C8  UNL     1     -40.513   7.258   1.423  1.00 20.00     0.020 C 
HETATM    9  C9  UNL     1     -43.417   6.521   2.178  1.00 20.00     0.020 C 
ENDROOT
TORSDOF 0
ENDMDL
MODEL 9
REMARK VINA RESULT:      -3.5     12.527     13.993
REMARK  0 active torsions:
REMARK  status: ('A' for Active; 'I' for Inactive)
ROOT
HETATM    1  C1  UNL     1     -34.455  16.514  -6.521  1.00 20.00    -0.020 A 
HETATM    2  C2  UNL     1     -34.287  15.180  -6.543  1.00 20.00    -0.020 A 
HETATM    3  C3  UNL     1     -33.103  15.962  -3.810  1.00 20.00     0.002 C 
HETATM    4  C4  UNL     1     -34.167  17.039  -3.991  1.00 20.00     0.014 C 
HETATM    5  C5  UNL     1     -33.866  14.661  -4.031  1.00 20.00     0.014 C 
HETATM    6  C6  UNL     1     -35.074  16.524  -5.124  1.00 20.00    -0.016 A 
HETATM    7  C7  UNL     1     -34.877  14.969  -5.150  1.00 20.00    -0.016 A 
HETATM    8  C8  UNL     1     -36.477  17.114  -5.063  1.00 20.00     0.020 C 
HETATM    9  C9  UNL     1     -36.088  14.048  -5.115  1.00 20.00     0.020 C 
ENDROOT
TORSDOF 0
ENDMDL
