MODEL 1
REMARK VINA RESULT:      -5.4      0.000      0.000
REMARK  3 active torsions:
REMARK  status: ('A' for Active; 'I' for Inactive)
REMARK    1  A    between atoms: C1_1  and  C3_3 
REMARK    2  A    between atoms: C1_1  and  C4_4 
REMARK    3  A    between atoms: C2_2  and  C3_3 
ROOT
HETATM    1  C1  UNL     1     -33.719   6.316   4.308  1.00 20.00     0.197 C 
ENDROOT
BRANCH   1   2
HETATM    2  C3  UNL     1     -33.337   7.586   5.060  1.00 20.00     0.264 C 
HETATM    3  F5  UNL     1     -32.939   7.261   6.317  1.00 20.00    -0.205 F 
HETATM    4  F6  UNL     1     -34.429   8.382   5.182  1.00 20.00    -0.205 F 
BRANCH   2   5
HETATM    5  C2  UNL     1     -32.227   8.351   4.360  1.00 20.00     0.193 C 
HETATM    6 CL10 UNL     1     -32.075   7.826   2.663  1.00 20.00    -0.124 Cl
ENDBRANCH   2   5
ENDBRANCH   1   2
BRANCH   1   7
HETATM    7  C4  UNL     1     -34.926   5.627   4.911  1.00 20.00     0.393 C 
HETATM    8  F7  UNL     1     -36.073   6.037   4.327  1.00 20.00    -0.171 F 
HETATM    9  F8  UNL     1     -34.838   4.288   4.742  1.00 20.00    -0.171 F 
HETATM   10  F9  UNL     1     -35.022   5.865   6.236  1.00 20.00    -0.171 F 
ENDBRANCH   1   7
TORSDOF 3
ENDMDL
MODEL 2
REMARK VINA RESULT:      -5.4      1.509      1.750
REMARK  3 active torsions:
REMARK  status: ('A' for Active; 'I' for Inactive)
REMARK    1  A    between atoms: C1_1  and  C3_3 
REMARK    2  A    between atoms: C1_1  and  C4_4 
REMARK    3  A    between atoms: C2_2  and  C3_3 
ROOT
HETATM    1  C1  UNL     1     -34.194   6.248   4.829  1.00 20.00     0.197 C 
ENDROOT
BRANCH   1   2
HETATM    2  C3  UNL     1     -33.308   7.443   4.497  1.00 20.00     0.264 C 
HETATM    3  F5  UNL     1     -32.505   7.717   5.557  1.00 20.00    -0.205 F 
HETATM    4  F6  UNL     1     -34.086   8.537   4.294  1.00 20.00    -0.205 F 
BRANCH   2   5
HETATM    5  C2  UNL     1     -32.454   7.194   3.266  1.00 20.00     0.193 C 
HETATM    6 CL10 UNL     1     -32.773   5.574   2.596  1.00 20.00    -0.124 Cl
ENDBRANCH   2   5
ENDBRANCH   1   2
BRANCH   1   7
HETATM    7  C4  UNL     1     -34.382   6.064   6.322  1.00 20.00     0.393 C 
HETATM    8  F7  UNL     1     -35.420   5.244   6.592  1.00 20.00    -0.171 F 
HETATM    9  F8  UNL     1     -33.275   5.516   6.872  1.00 20.00    -0.171 F 
HETATM   10  F9  UNL     1     -34.606   7.241   6.942  1.00 20.00    -0.171 F 
ENDBRANCH   1   7
TORSDOF 3
ENDMDL
MODEL 3
REMARK VINA RESULT:      -5.4      0.030      1.195
REMARK  3 active torsions:
REMARK  status: ('A' for Active; 'I' for Inactive)
REMARK    1  A    between atoms: C1_1  and  C3_3 
REMARK    2  A    between atoms: C1_1  and  C4_4 
REMARK    3  A    between atoms: C2_2  and  C3_3 
ROOT
HETATM    1  C1  UNL     1     -33.735   6.343   4.307  1.00 20.00     0.197 C 
ENDROOT
BRANCH   1   2
HETATM    2  C3  UNL     1     -33.343   7.594   5.085  1.00 20.00     0.264 C 
HETATM    3  F5  UNL     1     -32.936   7.239   6.331  1.00 20.00    -0.205 F 
HETATM    4  F6  UNL     1     -34.431   8.391   5.234  1.00 20.00    -0.205 F 
BRANCH   2   5
HETATM    5  C2  UNL     1     -32.237   8.372   4.393  1.00 20.00     0.193 C 
HETATM    6 CL10 UNL     1     -32.066   7.849   2.698  1.00 20.00    -0.124 Cl
ENDBRANCH   2   5
ENDBRANCH   1   2
BRANCH   1   7
HETATM    7  C4  UNL     1     -34.924   5.629   4.919  1.00 20.00     0.393 C 
HETATM    8  F7  UNL     1     -35.023   5.879   6.243  1.00 20.00    -0.171 F 
HETATM    9  F8  UNL     1     -36.072   6.043   4.339  1.00 20.00    -0.171 F 
HETATM   10  F9  UNL     1     -34.840   4.293   4.750  1.00 20.00    -0.171 F 
ENDBRANCH   1   7
TORSDOF 3
ENDMDL
MODEL 4
REMARK VINA RESULT:      -5.2      1.391      3.346
REMARK  3 active torsions:
REMARK  status: ('A' for Active; 'I' for Inactive)
REMARK    1  A    between atoms: C1_1  and  C3_3 
REMARK    2  A    between atoms: C1_1  and  C4_4 
REMARK    3  A    between atoms: C2_2  and  C3_3 
ROOT
HETATM    1  C1  UNL     1     -34.070   7.198   4.352  1.00 20.00     0.197 C 
ENDROOT
BRANCH   1   2
HETATM    2  C3  UNL     1     -34.837   5.954   4.785  1.00 20.00     0.264 C 
HETATM    3  F5  UNL     1     -36.085   5.986   4.252  1.00 20.00    -0.205 F 
HETATM    4  F6  UNL     1     -34.979   5.960   6.135  1.00 20.00    -0.205 F 
BRANCH   2   5
HETATM    5  C2  UNL     1     -34.136   4.676   4.356  1.00 20.00     0.193 C 
HETATM    6 CL10 UNL     1     -33.106   4.970   2.932  1.00 20.00    -0.124 Cl
ENDBRANCH   2   5
ENDBRANCH   1   2
BRANCH   1   7
HETATM    7  C4  UNL     1     -33.372   7.881   5.511  1.00 20.00     0.393 C 
HETATM    8  F7  UNL     1     -33.009   6.994   6.462  1.00 20.00    -0.171 F 
HETATM    9  F8  UNL     1     -32.251   8.505   5.085  1.00 20.00    -0.171 F 
HETATM   10  F9  UNL     1     -34.163   8.811   6.087  1.00 20.00    -0.171 F 
ENDBRANCH   1   7
TORSDOF 3
ENDMDL
MODEL 5
REMARK VINA RESULT:      -5.2      2.399      3.689
REMARK  3 active torsions:
REMARK  status: ('A' for Active; 'I' for Inactive)
REMARK    1  A    between atoms: C1_1  and  C3_3 
REMARK    2  A    between atoms: C1_1  and  C4_4 
REMARK    3  A    between atoms: C2_2  and  C3_3 
ROOT
HETATM    1  C1  UNL     1     -33.693   7.384   4.468  1.00 20.00     0.197 C 
ENDROOT
BRANCH   1   2
HETATM    2  C3  UNL     1     -33.886   7.063   5.946  1.00 20.00     0.264 C 
HETATM    3  F5  UNL     1     -34.527   8.096   6.550  1.00 20.00    -0.205 F 
HETATM    4  F6  UNL     1     -32.672   6.945   6.543  1.00 20.00    -0.205 F 
BRANCH   2   5
HETATM    5  C2  UNL     1     -34.678   5.784   6.153  1.00 20.00     0.193 C 
HETATM    6 CL10 UNL     1     -34.489   4.694   4.755  1.00 20.00    -0.124 Cl
ENDBRANCH   2   5
ENDBRANCH   1   2
BRANCH   1   7
HETATM    7  C4  UNL     1     -32.578   8.384   4.234  1.00 20.00     0.393 C 
HETATM    8  F7  UNL     1     -31.377   7.774   4.149  1.00 20.00    -0.171 F 
HETATM    9  F8  UNL     1     -32.780   9.051   3.076  1.00 20.00    -0.171 F 
HETATM   10  F9  UNL     1     -32.516   9.297   5.225  1.00 20.00    -0.171 F 
ENDBRANCH   1   7
TORSDOF 3
ENDMDL
MODEL 6
REMARK VINA RESULT:      -4.9      1.008      1.567
REMARK  3 active torsions:
REMARK  status: ('A' for Active; 'I' for Inactive)
REMARK    1  A    between atoms: C1_1  and  C3_3 
REMARK    2  A    between atoms: C1_1  and  C4_4 
REMARK    3  A    between atoms: C2_2  and  C3_3 
ROOT
HETATM    1  C1  UNL     1     -33.754   6.826   5.883  1.00 20.00     0.197 C 
ENDROOT
BRANCH   1   2
HETATM    2  C3  UNL     1     -33.249   7.662   4.712  1.00 20.00     0.264 C 
HETATM    3  F5  UNL     1     -32.274   8.501   5.147  1.00 20.00    -0.205 F 
HETATM    4  F6  UNL     1     -34.260   8.436   4.244  1.00 20.00    -0.205 F 
BRANCH   2   5
HETATM    5  C2  UNL     1     -32.709   6.798   3.586  1.00 20.00     0.193 C 
HETATM    6 CL10 UNL     1     -32.220   7.806   2.199  1.00 20.00    -0.124 Cl
ENDBRANCH   2   5
ENDBRANCH   1   2
BRANCH   1   7
HETATM    7  C4  UNL     1     -34.692   5.720   5.442  1.00 20.00     0.393 C 
HETATM    8  F7  UNL     1     -34.024   4.716   4.836  1.00 20.00    -0.171 F 
HETATM    9  F8  UNL     1     -35.337   5.197   6.508  1.00 20.00    -0.171 F 
HETATM   10  F9  UNL     1     -35.628   6.178   4.583  1.00 20.00    -0.171 F 
ENDBRANCH   1   7
TORSDOF 3
ENDMDL
MODEL 7
REMARK VINA RESULT:      -4.9      2.584      3.666
REMARK  3 active torsions:
REMARK  status: ('A' for Active; 'I' for Inactive)
REMARK    1  A    between atoms: C1_1  and  C3_3 
REMARK    2  A    between atoms: C1_1  and  C4_4 
REMARK    3  A    between atoms: C2_2  and  C3_3 
ROOT
HETATM    1  C1  UNL     1     -33.279   6.842   4.019  1.00 20.00     0.197 C 
ENDROOT
BRANCH   1   2
HETATM    2  C3  UNL     1     -33.594   7.498   5.359  1.00 20.00     0.264 C 
HETATM    3  F5  UNL     1     -34.419   8.557   5.157  1.00 20.00    -0.205 F 
HETATM    4  F6  UNL     1     -32.449   7.984   5.902  1.00 20.00    -0.205 F 
BRANCH   2   5
HETATM    5  C2  UNL     1     -34.243   6.528   6.330  1.00 20.00     0.193 C 
HETATM    6 CL10 UNL     1     -34.688   5.013   5.503  1.00 20.00    -0.124 Cl
ENDBRANCH   2   5
ENDBRANCH   1   2
BRANCH   1   7
HETATM    7  C4  UNL     1     -32.323   7.667   3.181  1.00 20.00     0.393 C 
HETATM    8  F7  UNL     1     -32.723   8.954   3.097  1.00 20.00    -0.171 F 
HETATM    9  F8  UNL     1     -31.087   7.658   3.728  1.00 20.00    -0.171 F 
HETATM   10  F9  UNL     1     -32.217   7.179   1.927  1.00 20.00    -0.171 F 
ENDBRANCH   1   7
TORSDOF 3
ENDMDL
MODEL 8
REMARK VINA RESULT:      -4.9      2.537      3.599
REMARK  3 active torsions:
REMARK  status: ('A' for Active; 'I' for Inactive)
REMARK    1  A    between atoms: C1_1  and  C3_3 
REMARK    2  A    between atoms: C1_1  and  C4_4 
REMARK    3  A    between atoms: C2_2  and  C3_3 
ROOT
HETATM    1  C1  UNL     1     -33.548   6.361   4.075  1.00 20.00     0.197 C 
ENDROOT
BRANCH   1   2
HETATM    2  C3  UNL     1     -34.568   5.406   4.684  1.00 20.00     0.264 C 
HETATM    3  F5  UNL     1     -34.249   4.131   4.343  1.00 20.00    -0.205 F 
HETATM    4  F6  UNL     1     -35.793   5.664   4.162  1.00 20.00    -0.205 F 
BRANCH   2   5
HETATM    5  C2  UNL     1     -34.627   5.525   6.197  1.00 20.00     0.193 C 
HETATM    6 CL10 UNL     1     -34.205   7.178   6.715  1.00 20.00    -0.124 Cl
ENDBRANCH   2   5
ENDBRANCH   1   2
BRANCH   1   7
HETATM    7  C4  UNL     1     -32.965   5.836   2.778  1.00 20.00     0.393 C 
HETATM    8  F7  UNL     1     -33.933   5.409   1.938  1.00 20.00    -0.171 F 
HETATM    9  F8  UNL     1     -32.274   6.809   2.144  1.00 20.00    -0.171 F 
HETATM   10  F9  UNL     1     -32.117   4.809   2.996  1.00 20.00    -0.171 F 
ENDBRANCH   1   7
TORSDOF 3
ENDMDL
MODEL 9
REMARK VINA RESULT:      -4.7      1.529      1.776
REMARK  3 active torsions:
REMARK  status: ('A' for Active; 'I' for Inactive)
REMARK    1  A    between atoms: C1_1  and  C3_3 
REMARK    2  A    between atoms: C1_1  and  C4_4 
REMARK    3  A    between atoms: C2_2  and  C3_3 
ROOT
HETATM    1  C1  UNL     1     -33.670   6.710   5.671  1.00 20.00     0.197 C 
ENDROOT
BRANCH   1   2
HETATM    2  C3  UNL     1     -33.387   7.271   4.282  1.00 20.00     0.264 C 
HETATM    3  F5  UNL     1     -34.372   8.140   3.939  1.00 20.00    -0.205 F 
HETATM    4  F6  UNL     1     -33.413   6.261   3.375  1.00 20.00    -0.205 F 
BRANCH   2   5
HETATM    5  C2  UNL     1     -32.043   7.976   4.216  1.00 20.00     0.193 C 
HETATM    6 CL10 UNL     1     -32.081   9.491   5.155  1.00 20.00    -0.124 Cl
ENDBRANCH   2   5
ENDBRANCH   1   2
BRANCH   1   7
HETATM    7  C4  UNL     1     -34.710   5.607   5.649  1.00 20.00     0.393 C 
HETATM    8  F7  UNL     1     -35.719   5.895   4.799  1.00 20.00    -0.171 F 
HETATM    9  F8  UNL     1     -34.154   4.444   5.243  1.00 20.00    -0.171 F 
HETATM   10  F9  UNL     1     -35.239   5.401   6.873  1.00 20.00    -0.171 F 
ENDBRANCH   1   7
TORSDOF 3
ENDMDL
