MODEL 1
REMARK VINA RESULT:      -4.1      0.000      0.000
REMARK  0 active torsions:
REMARK  status: ('A' for Active; 'I' for Inactive)
ROOT
HETATM    1  C1  UNL     1     -31.961   8.016   2.293  1.00 20.00     0.006 C 
HETATM    2  C2  UNL     1     -32.934   6.832   2.297  1.00 20.00     0.011 C 
HETATM    3  C3  UNL     1     -32.592   8.916   4.695  1.00 20.00     0.010 C 
HETATM    4  C4  UNL     1     -34.015   8.373   4.759  1.00 20.00     0.069 C 
HETATM    5  C5  UNL     1     -34.499   5.624   6.550  1.00 20.00     0.197 C 
HETATM    6  C6  UNL     1     -35.091   5.073   5.281  1.00 20.00     0.197 C 
HETATM    7  C7  UNL     1     -31.827   7.917   3.825  1.00 20.00    -0.005 C 
HETATM    8  C8  UNL     1     -32.665   6.616   3.804  1.00 20.00     0.052 C 
HETATM    9  C9  UNL     1     -33.812   6.861   4.782  1.00 20.00     0.168 C 
HETATM   10  O10 UNL     1     -33.414   6.428   6.091  1.00 20.00    -0.353 OA
HETATM   11  O11 UNL     1     -34.993   6.168   4.373  1.00 20.00    -0.353 OA
ENDROOT
TORSDOF 0
ENDMDL
MODEL 2
REMARK VINA RESULT:      -4.0      1.645      3.614
REMARK  0 active torsions:
REMARK  status: ('A' for Active; 'I' for Inactive)
ROOT
HETATM    1  C1  UNL     1     -34.747   4.814   5.799  1.00 20.00     0.006 C 
HETATM    2  C2  UNL     1     -33.953   4.787   4.488  1.00 20.00     0.011 C 
HETATM    3  C3  UNL     1     -34.147   7.303   6.448  1.00 20.00     0.010 C 
HETATM    4  C4  UNL     1     -32.823   7.406   5.701  1.00 20.00     0.069 C 
HETATM    5  C5  UNL     1     -32.846   9.023   2.805  1.00 20.00     0.197 C 
HETATM    6  C6  UNL     1     -32.259   7.753   2.253  1.00 20.00     0.197 C 
HETATM    7  C7  UNL     1     -34.989   6.326   5.625  1.00 20.00    -0.005 C 
HETATM    8  C8  UNL     1     -34.345   6.260   4.221  1.00 20.00     0.052 C 
HETATM    9  C9  UNL     1     -33.238   7.312   4.236  1.00 20.00     0.168 C 
HETATM   10  O10 UNL     1     -33.776   8.565   3.785  1.00 20.00    -0.353 OA
HETATM   11  O11 UNL     1     -32.145   6.919   3.404  1.00 20.00    -0.353 OA
ENDROOT
TORSDOF 0
ENDMDL
MODEL 3
REMARK VINA RESULT:      -3.9      9.422     10.726
REMARK  0 active torsions:
REMARK  status: ('A' for Active; 'I' for Inactive)
ROOT
HETATM    1  C1  UNL     1     -40.032  11.870   5.247  1.00 20.00     0.006 C 
HETATM    2  C2  UNL     1     -39.304  12.253   6.540  1.00 20.00     0.011 C 
HETATM    3  C3  UNL     1     -42.269  13.169   5.779  1.00 20.00     0.010 C 
HETATM    4  C4  UNL     1     -42.174  13.146   7.299  1.00 20.00     0.069 C 
HETATM    5  C5  UNL     1     -41.156  15.929   8.790  1.00 20.00     0.197 C 
HETATM    6  C6  UNL     1     -40.106  15.046   9.406  1.00 20.00     0.197 C 
HETATM    7  C7  UNL     1     -40.819  13.194   5.293  1.00 20.00    -0.005 C 
HETATM    8  C8  UNL     1     -39.958  13.654   6.492  1.00 20.00     0.052 C 
HETATM    9  C9  UNL     1     -40.957  14.020   7.588  1.00 20.00     0.168 C 
HETATM   10  O10 UNL     1     -41.297  15.409   7.468  1.00 20.00    -0.353 OA
HETATM   11  O11 UNL     1     -40.417  13.756   8.884  1.00 20.00    -0.353 OA
ENDROOT
TORSDOF 0
ENDMDL
MODEL 4
REMARK VINA RESULT:      -3.8      1.453      3.930
REMARK  0 active torsions:
REMARK  status: ('A' for Active; 'I' for Inactive)
ROOT
HETATM    1  C1  UNL     1     -34.932   5.522   6.963  1.00 20.00     0.006 C 
HETATM    2  C2  UNL     1     -34.365   6.938   6.815  1.00 20.00     0.011 C 
HETATM    3  C3  UNL     1     -34.831   4.902   4.397  1.00 20.00     0.010 C 
HETATM    4  C4  UNL     1     -34.929   6.314   3.832  1.00 20.00     0.069 C 
HETATM    5  C5  UNL     1     -32.114   7.714   2.773  1.00 20.00     0.197 C 
HETATM    6  C6  UNL     1     -32.473   8.820   3.727  1.00 20.00     0.197 C 
HETATM    7  C7  UNL     1     -34.115   5.063   5.739  1.00 20.00    -0.005 C 
HETATM    8  C8  UNL     1     -33.411   6.440   5.703  1.00 20.00     0.052 C 
HETATM    9  C9  UNL     1     -33.626   6.964   4.285  1.00 20.00     0.168 C 
HETATM   10  O10 UNL     1     -32.535   6.534   3.456  1.00 20.00    -0.353 OA
HETATM   11  O11 UNL     1     -33.718   8.390   4.273  1.00 20.00    -0.353 OA
ENDROOT
TORSDOF 0
ENDMDL
MODEL 5
REMARK VINA RESULT:      -3.8     12.017     13.498
REMARK  0 active torsions:
REMARK  status: ('A' for Active; 'I' for Inactive)
ROOT
HETATM    1  C1  UNL     1     -33.435  16.587  -2.707  1.00 20.00     0.006 C 
HETATM    2  C2  UNL     1     -34.547  17.326  -3.460  1.00 20.00     0.011 C 
HETATM    3  C3  UNL     1     -33.544  14.368  -4.135  1.00 20.00     0.010 C 
HETATM    4  C4  UNL     1     -34.999  14.471  -4.579  1.00 20.00     0.069 C 
HETATM    5  C5  UNL     1     -35.559  15.529  -7.673  1.00 20.00     0.197 C 
HETATM    6  C6  UNL     1     -36.416  16.572  -7.008  1.00 20.00     0.197 C 
HETATM    7  C7  UNL     1     -33.072  15.816  -3.991  1.00 20.00    -0.005 C 
HETATM    8  C8  UNL     1     -34.071  16.689  -4.786  1.00 20.00     0.052 C 
HETATM    9  C9  UNL     1     -35.003  15.700  -5.484  1.00 20.00     0.168 C 
HETATM   10  O10 UNL     1     -34.462  15.376  -6.774  1.00 20.00    -0.353 OA
HETATM   11  O11 UNL     1     -36.317  16.244  -5.624  1.00 20.00    -0.353 OA
ENDROOT
TORSDOF 0
ENDMDL
MODEL 6
REMARK VINA RESULT:      -3.6      9.966     11.357
REMARK  0 active torsions:
REMARK  status: ('A' for Active; 'I' for Inactive)
ROOT
HETATM    1  C1  UNL     1     -41.018  16.925   8.843  1.00 20.00     0.006 C 
HETATM    2  C2  UNL     1     -41.113  16.646   7.339  1.00 20.00     0.011 C 
HETATM    3  C3  UNL     1     -41.235  14.409   9.617  1.00 20.00     0.010 C 
HETATM    4  C4  UNL     1     -42.010  13.882   8.415  1.00 20.00     0.069 C 
HETATM    5  C5  UNL     1     -40.294  12.186   6.139  1.00 20.00     0.197 C 
HETATM    6  C6  UNL     1     -40.851  13.197   5.173  1.00 20.00     0.197 C 
HETATM    7  C7  UNL     1     -40.371  15.543   9.062  1.00 20.00    -0.005 C 
HETATM    8  C8  UNL     1     -40.305  15.341   7.530  1.00 20.00     0.052 C 
HETATM    9  C9  UNL     1     -41.012  14.013   7.269  1.00 20.00     0.168 C 
HETATM   10  O10 UNL     1     -40.048  12.950   7.318  1.00 20.00    -0.353 OA
HETATM   11  O11 UNL     1     -41.669  14.022   6.000  1.00 20.00    -0.353 OA
ENDROOT
TORSDOF 0
ENDMDL
MODEL 7
REMARK VINA RESULT:      -3.6     11.701     13.062
REMARK  0 active torsions:
REMARK  status: ('A' for Active; 'I' for Inactive)
ROOT
HETATM    1  C1  UNL     1     -35.016  15.562  -6.363  1.00 20.00     0.006 C 
HETATM    2  C2  UNL     1     -34.661  17.003  -5.978  1.00 20.00     0.011 C 
HETATM    3  C3  UNL     1     -33.743  14.407  -4.356  1.00 20.00     0.010 C 
HETATM    4  C4  UNL     1     -32.702  15.492  -4.111  1.00 20.00     0.069 C 
HETATM    5  C5  UNL     1     -33.222  17.529  -1.545  1.00 20.00     0.197 C 
HETATM    6  C6  UNL     1     -33.102  18.622  -2.572  1.00 20.00     0.197 C 
HETATM    7  C7  UNL     1     -34.974  15.152  -4.877  1.00 20.00    -0.005 C 
HETATM    8  C8  UNL     1     -34.794  16.636  -4.482  1.00 20.00     0.052 C 
HETATM    9  C9  UNL     1     -33.534  16.672  -3.618  1.00 20.00     0.168 C 
HETATM   10  O10 UNL     1     -33.903  16.487  -2.243  1.00 20.00    -0.353 OA
HETATM   11  O11 UNL     1     -32.837  17.909  -3.778  1.00 20.00    -0.353 OA
ENDROOT
TORSDOF 0
ENDMDL
MODEL 8
REMARK VINA RESULT:      -3.5     11.874     13.027
REMARK  0 active torsions:
REMARK  status: ('A' for Active; 'I' for Inactive)
ROOT
HETATM    1  C1  UNL     1     -24.509  -1.701  11.592  1.00 20.00     0.006 C 
HETATM    2  C2  UNL     1     -25.211  -2.823  10.819  1.00 20.00     0.011 C 
HETATM    3  C3  UNL     1     -26.645  -0.173  11.884  1.00 20.00     0.010 C 
HETATM    4  C4  UNL     1     -27.419  -0.654  10.663  1.00 20.00     0.069 C 
HETATM    5  C5  UNL     1     -29.886  -2.807  11.194  1.00 20.00     0.197 C 
HETATM    6  C6  UNL     1     -29.155  -3.671  10.203  1.00 20.00     0.197 C 
HETATM    7  C7  UNL     1     -25.824  -1.384  12.332  1.00 20.00    -0.005 C 
HETATM    8  C8  UNL     1     -26.478  -2.627  11.684  1.00 20.00     0.052 C 
HETATM    9  C9  UNL     1     -27.741  -2.107  11.001  1.00 20.00     0.168 C 
HETATM   10  O10 UNL     1     -28.837  -2.176  11.926  1.00 20.00    -0.353 OA
HETATM   11  O11 UNL     1     -28.040  -2.865   9.828  1.00 20.00    -0.353 OA
ENDROOT
TORSDOF 0
ENDMDL
MODEL 9
REMARK VINA RESULT:      -3.5     11.616     13.149
REMARK  0 active torsions:
REMARK  status: ('A' for Active; 'I' for Inactive)
ROOT
HETATM    1  C1  UNL     1     -34.593  14.763  -5.187  1.00 20.00     0.006 C 
HETATM    2  C2  UNL     1     -33.956  14.759  -3.793  1.00 20.00     0.011 C 
HETATM    3  C3  UNL     1     -35.080  17.358  -5.272  1.00 20.00     0.010 C 
HETATM    4  C4  UNL     1     -35.179  17.606  -3.772  1.00 20.00     0.069 C 
HETATM    5  C5  UNL     1     -32.543  18.972  -2.293  1.00 20.00     0.197 C 
HETATM    6  C6  UNL     1     -32.604  17.768  -1.392  1.00 20.00     0.197 C 
HETATM    7  C7  UNL     1     -34.089  16.202  -5.416  1.00 20.00    -0.005 C 
HETATM    8  C8  UNL     1     -33.299  16.127  -4.088  1.00 20.00     0.052 C 
HETATM    9  C9  UNL     1     -33.761  17.336  -3.277  1.00 20.00     0.168 C 
HETATM   10  O10 UNL     1     -32.906  18.452  -3.571  1.00 20.00    -0.353 OA
HETATM   11  O11 UNL     1     -33.738  17.054  -1.877  1.00 20.00    -0.353 OA
ENDROOT
TORSDOF 0
ENDMDL
