MODEL 1
REMARK VINA RESULT:      -4.8      0.000      0.000
REMARK  0 active torsions:
REMARK  status: ('A' for Active; 'I' for Inactive)
ROOT
HETATM    1  C1  UNL     1     -34.157   7.349   6.618  1.00 20.00     0.006 C 
HETATM    2  C2  UNL     1     -34.184   5.889   6.165  1.00 20.00     0.009 C 
HETATM    3  C3  UNL     1     -33.351   8.204   5.673  1.00 20.00    -0.005 A 
HETATM    4  C4  UNL     1     -32.490   7.593   4.610  1.00 20.00    -0.000 A 
HETATM    5  C5  UNL     1     -33.795   8.311   4.253  1.00 20.00    -0.000 A 
HETATM    6  C6  UNL     1     -33.597   6.866   3.909  1.00 20.00     0.003 A 
HETATM    7  C7  UNL     1     -34.377   5.764   4.633  1.00 20.00    -0.043 C 
HETATM    8  C8  UNL     1     -33.852   4.389   4.178  1.00 20.00     0.015 C 
HETATM    9  C9  UNL     1     -35.871   5.851   4.274  1.00 20.00     0.015 C 
ENDROOT
TORSDOF 0
ENDMDL
MODEL 2
REMARK VINA RESULT:      -4.5      0.967      3.088
REMARK  0 active torsions:
REMARK  status: ('A' for Active; 'I' for Inactive)
ROOT
HETATM    1  C1  UNL     1     -34.304   5.233   4.068  1.00 20.00     0.006 C 
HETATM    2  C2  UNL     1     -33.289   6.347   3.809  1.00 20.00     0.009 C 
HETATM    3  C3  UNL     1     -34.484   4.984   5.544  1.00 20.00    -0.005 A 
HETATM    4  C4  UNL     1     -33.558   5.587   6.555  1.00 20.00    -0.000 A 
HETATM    5  C5  UNL     1     -34.994   6.095   6.397  1.00 20.00    -0.000 A 
HETATM    6  C6  UNL     1     -33.829   7.014   6.186  1.00 20.00     0.003 A 
HETATM    7  C7  UNL     1     -33.472   7.532   4.790  1.00 20.00    -0.043 C 
HETATM    8  C8  UNL     1     -32.150   8.320   4.866  1.00 20.00     0.015 C 
HETATM    9  C9  UNL     1     -34.569   8.483   4.280  1.00 20.00     0.015 C 
ENDROOT
TORSDOF 0
ENDMDL
MODEL 3
REMARK VINA RESULT:      -4.4      1.001      2.338
REMARK  0 active torsions:
REMARK  status: ('A' for Active; 'I' for Inactive)
ROOT
HETATM    1  C1  UNL     1     -32.298   6.460   3.172  1.00 20.00     0.006 C 
HETATM    2  C2  UNL     1     -33.673   5.793   3.221  1.00 20.00     0.009 C 
HETATM    3  C3  UNL     1     -32.332   7.835   3.790  1.00 20.00    -0.005 A 
HETATM    4  C4  UNL     1     -33.626   8.504   4.134  1.00 20.00    -0.000 A 
HETATM    5  C5  UNL     1     -32.704   7.961   5.228  1.00 20.00    -0.000 A 
HETATM    6  C6  UNL     1     -34.104   7.448   5.083  1.00 20.00     0.003 A 
HETATM    7  C7  UNL     1     -34.379   6.027   4.581  1.00 20.00    -0.043 C 
HETATM    8  C8  UNL     1     -35.896   5.843   4.390  1.00 20.00     0.015 C 
HETATM    9  C9  UNL     1     -33.897   4.996   5.618  1.00 20.00     0.015 C 
ENDROOT
TORSDOF 0
ENDMDL
MODEL 4
REMARK VINA RESULT:      -4.2     15.229     16.676
REMARK  0 active torsions:
REMARK  status: ('A' for Active; 'I' for Inactive)
ROOT
HETATM    1  C1  UNL     1     -24.580  18.983   8.701  1.00 20.00     0.006 C 
HETATM    2  C2  UNL     1     -24.662  19.035  10.227  1.00 20.00     0.009 C 
HETATM    3  C3  UNL     1     -23.151  18.897   8.230  1.00 20.00    -0.005 A 
HETATM    4  C4  UNL     1     -22.005  19.118   9.169  1.00 20.00    -0.000 A 
HETATM    5  C5  UNL     1     -22.334  17.719   8.640  1.00 20.00    -0.000 A 
HETATM    6  C6  UNL     1     -22.356  18.007  10.111  1.00 20.00     0.003 A 
HETATM    7  C7  UNL     1     -23.674  18.044  10.891  1.00 20.00    -0.043 C 
HETATM    8  C8  UNL     1     -23.396  18.513  12.332  1.00 20.00     0.015 C 
HETATM    9  C9  UNL     1     -24.292  16.635  10.956  1.00 20.00     0.015 C 
ENDROOT
TORSDOF 0
ENDMDL
MODEL 5
REMARK VINA RESULT:      -4.2      0.759      3.017
REMARK  0 active torsions:
REMARK  status: ('A' for Active; 'I' for Inactive)
ROOT
HETATM    1  C1  UNL     1     -33.746   5.838   6.605  1.00 20.00     0.006 C 
HETATM    2  C2  UNL     1     -33.767   7.324   6.247  1.00 20.00     0.009 C 
HETATM    3  C3  UNL     1     -34.572   5.028   5.639  1.00 20.00    -0.005 A 
HETATM    4  C4  UNL     1     -35.486   5.686   4.651  1.00 20.00    -0.000 A 
HETATM    5  C5  UNL     1     -34.183   5.021   4.199  1.00 20.00    -0.000 A 
HETATM    6  C6  UNL     1     -34.423   6.480   3.956  1.00 20.00     0.003 A 
HETATM    7  C7  UNL     1     -33.636   7.550   4.720  1.00 20.00    -0.043 C 
HETATM    8  C8  UNL     1     -34.206   8.939   4.374  1.00 20.00     0.015 C 
HETATM    9  C9  UNL     1     -32.156   7.520   4.299  1.00 20.00     0.015 C 
ENDROOT
TORSDOF 0
ENDMDL
MODEL 6
REMARK VINA RESULT:      -4.2      7.932      9.541
REMARK  0 active torsions:
REMARK  status: ('A' for Active; 'I' for Inactive)
ROOT
HETATM    1  C1  UNL     1     -42.567   8.280  -0.418  1.00 20.00     0.006 C 
HETATM    2  C2  UNL     1     -43.417   7.465   0.557  1.00 20.00     0.009 C 
HETATM    3  C3  UNL     1     -41.096   8.026  -0.210  1.00 20.00    -0.005 A 
HETATM    4  C4  UNL     1     -40.595   7.278   0.988  1.00 20.00    -0.000 A 
HETATM    5  C5  UNL     1     -40.577   6.641  -0.404  1.00 20.00    -0.000 A 
HETATM    6  C6  UNL     1     -41.353   6.015   0.714  1.00 20.00     0.003 A 
HETATM    7  C7  UNL     1     -42.885   6.019   0.715  1.00 20.00    -0.043 C 
HETATM    8  C8  UNL     1     -43.391   5.449   2.054  1.00 20.00     0.015 C 
HETATM    9  C9  UNL     1     -43.417   5.125  -0.419  1.00 20.00     0.015 C 
ENDROOT
TORSDOF 0
ENDMDL
MODEL 7
REMARK VINA RESULT:      -3.7     15.079     16.774
REMARK  0 active torsions:
REMARK  status: ('A' for Active; 'I' for Inactive)
ROOT
HETATM    1  C1  UNL     1     -24.278  16.463  10.837  1.00 20.00     0.006 C 
HETATM    2  C2  UNL     1     -23.364  16.955   9.715  1.00 20.00     0.009 C 
HETATM    3  C3  UNL     1     -23.916  17.093  12.158  1.00 20.00    -0.005 A 
HETATM    4  C4  UNL     1     -22.648  17.872  12.329  1.00 20.00    -0.000 A 
HETATM    5  C5  UNL     1     -24.008  18.575  12.290  1.00 20.00    -0.000 A 
HETATM    6  C6  UNL     1     -22.949  18.897  11.279  1.00 20.00     0.003 A 
HETATM    7  C7  UNL     1     -23.101  18.478   9.813  1.00 20.00    -0.043 C 
HETATM    8  C8  UNL     1     -21.799  18.806   9.056  1.00 20.00     0.015 C 
HETATM    9  C9  UNL     1     -24.249  19.263   9.154  1.00 20.00     0.015 C 
ENDROOT
TORSDOF 0
ENDMDL
MODEL 8
REMARK VINA RESULT:      -3.6      8.201      9.701
REMARK  0 active torsions:
REMARK  status: ('A' for Active; 'I' for Inactive)
ROOT
HETATM    1  C1  UNL     1     -40.421   6.742   0.185  1.00 20.00     0.006 C 
HETATM    2  C2  UNL     1     -41.139   5.540  -0.430  1.00 20.00     0.009 C 
HETATM    3  C3  UNL     1     -41.332   7.940   0.274  1.00 20.00    -0.005 A 
HETATM    4  C4  UNL     1     -42.659   7.964  -0.419  1.00 20.00    -0.000 A 
HETATM    5  C5  UNL     1     -42.566   7.838   1.104  1.00 20.00    -0.000 A 
HETATM    6  C6  UNL     1     -43.227   6.770   0.286  1.00 20.00     0.003 A 
HETATM    7  C7  UNL     1     -42.582   5.392   0.113  1.00 20.00    -0.043 C 
HETATM    8  C8  UNL     1     -43.408   4.570  -0.896  1.00 20.00     0.015 C 
HETATM    9  C9  UNL     1     -42.575   4.638   1.454  1.00 20.00     0.015 C 
ENDROOT
TORSDOF 0
ENDMDL
MODEL 9
REMARK VINA RESULT:      -3.6      8.665     10.166
REMARK  0 active torsions:
REMARK  status: ('A' for Active; 'I' for Inactive)
ROOT
HETATM    1  C1  UNL     1     -43.362   5.033  -0.630  1.00 20.00     0.006 C 
HETATM    2  C2  UNL     1     -42.386   6.167  -0.945  1.00 20.00     0.009 C 
HETATM    3  C3  UNL     1     -43.186   4.531   0.781  1.00 20.00    -0.005 A 
HETATM    4  C4  UNL     1     -42.011   4.942   1.613  1.00 20.00    -0.000 A 
HETATM    5  C5  UNL     1     -43.414   5.480   1.908  1.00 20.00    -0.000 A 
HETATM    6  C6  UNL     1     -42.291   6.413   1.568  1.00 20.00     0.003 A 
HETATM    7  C7  UNL     1     -42.262   7.164   0.233  1.00 20.00    -0.043 C 
HETATM    8  C8  UNL     1     -40.923   7.917   0.106  1.00 20.00     0.015 C 
HETATM    9  C9  UNL     1     -43.401   8.198   0.181  1.00 20.00     0.015 C 
ENDROOT
TORSDOF 0
ENDMDL
