MODEL 1
REMARK VINA RESULT:      -4.0      0.000      0.000
REMARK  1 active torsions:
REMARK  status: ('A' for Active; 'I' for Inactive)
REMARK    1  A    between atoms: C1_1  and  C3_3 
ROOT
HETATM    1  C1  UNL     1     -33.869   6.718   4.375  1.00 20.00     0.043 C 
HETATM    2  C2  UNL     1     -33.518   7.805   5.073  1.00 20.00     0.183 C 
HETATM    3  F4  UNL     1     -34.189   8.130   6.199  1.00 20.00    -0.193 F 
HETATM    4 CL5  UNL     1     -32.217   8.812   4.561  1.00 20.00    -0.052 Cl
ENDROOT
BRANCH   1   5
HETATM    5  C3  UNL     1     -34.980   5.798   4.766  1.00 20.00     0.145 C 
HETATM    6 CL6  UNL     1     -34.607   5.028   6.323  1.00 20.00    -0.126 Cl
ENDBRANCH   1   5
TORSDOF 1
ENDMDL
MODEL 2
REMARK VINA RESULT:      -3.9      1.707      1.753
REMARK  1 active torsions:
REMARK  status: ('A' for Active; 'I' for Inactive)
REMARK    1  A    between atoms: C1_1  and  C3_3 
ROOT
HETATM    1  C1  UNL     1     -33.792   7.213   5.942  1.00 20.00     0.043 C 
HETATM    2  C2  UNL     1     -33.043   7.609   4.907  1.00 20.00     0.183 C 
HETATM    3  F4  UNL     1     -32.885   6.798   3.838  1.00 20.00    -0.193 F 
HETATM    4 CL5  UNL     1     -32.262   9.146   4.905  1.00 20.00    -0.052 Cl
ENDROOT
BRANCH   1   5
HETATM    5  C3  UNL     1     -34.503   5.900   6.004  1.00 20.00     0.145 C 
HETATM    6 CL6  UNL     1     -35.555   5.714   4.585  1.00 20.00    -0.126 Cl
ENDBRANCH   1   5
TORSDOF 1
ENDMDL
MODEL 3
REMARK VINA RESULT:      -3.9      1.598      3.367
REMARK  1 active torsions:
REMARK  status: ('A' for Active; 'I' for Inactive)
REMARK    1  A    between atoms: C1_1  and  C3_3 
ROOT
HETATM    1  C1  UNL     1     -33.428   7.415   5.465  1.00 20.00     0.043 C 
HETATM    2  C2  UNL     1     -34.307   6.417   5.316  1.00 20.00     0.183 C 
HETATM    3  F4  UNL     1     -34.897   6.211   4.119  1.00 20.00    -0.193 F 
HETATM    4 CL5  UNL     1     -34.709   5.378   6.631  1.00 20.00    -0.052 Cl
ENDROOT
BRANCH   1   5
HETATM    5  C3  UNL     1     -33.027   8.346   4.366  1.00 20.00     0.145 C 
HETATM    6 CL6  UNL     1     -32.147   7.452   3.108  1.00 20.00    -0.126 Cl
ENDBRANCH   1   5
TORSDOF 1
ENDMDL
MODEL 4
REMARK VINA RESULT:      -3.8      1.121      3.364
REMARK  1 active torsions:
REMARK  status: ('A' for Active; 'I' for Inactive)
REMARK    1  A    between atoms: C1_1  and  C3_3 
ROOT
HETATM    1  C1  UNL     1     -33.440   7.106   4.977  1.00 20.00     0.043 C 
HETATM    2  C2  UNL     1     -34.164   6.677   6.018  1.00 20.00     0.183 C 
HETATM    3  F4  UNL     1     -34.430   7.514   7.044  1.00 20.00    -0.193 F 
HETATM    4 CL5  UNL     1     -34.770   5.065   6.081  1.00 20.00    -0.052 Cl
ENDROOT
BRANCH   1   5
HETATM    5  C3  UNL     1     -32.893   8.491   4.854  1.00 20.00     0.145 C 
HETATM    6 CL6  UNL     1     -32.542   8.854   3.151  1.00 20.00    -0.126 Cl
ENDBRANCH   1   5
TORSDOF 1
ENDMDL
MODEL 5
REMARK VINA RESULT:      -3.7      2.512      2.636
REMARK  1 active torsions:
REMARK  status: ('A' for Active; 'I' for Inactive)
REMARK    1  A    between atoms: C1_1  and  C3_3 
ROOT
HETATM    1  C1  UNL     1     -33.802   6.224   4.061  1.00 20.00     0.043 C 
HETATM    2  C2  UNL     1     -32.945   6.081   3.043  1.00 20.00     0.183 C 
HETATM    3  F4  UNL     1     -32.710   4.855   2.527  1.00 20.00    -0.193 F 
HETATM    4 CL5  UNL     1     -32.124   7.438   2.369  1.00 20.00    -0.052 Cl
ENDROOT
BRANCH   1   5
HETATM    5  C3  UNL     1     -34.553   5.093   4.685  1.00 20.00     0.145 C 
HETATM    6 CL6  UNL     1     -34.708   5.362   6.434  1.00 20.00    -0.126 Cl
ENDBRANCH   1   5
TORSDOF 1
ENDMDL
MODEL 6
REMARK VINA RESULT:      -3.6      1.223      3.347
REMARK  1 active torsions:
REMARK  status: ('A' for Active; 'I' for Inactive)
REMARK    1  A    between atoms: C1_1  and  C3_3 
ROOT
HETATM    1  C1  UNL     1     -33.831   7.108   4.830  1.00 20.00     0.043 C 
HETATM    2  C2  UNL     1     -34.351   6.081   5.514  1.00 20.00     0.183 C 
HETATM    3  F4  UNL     1     -34.727   6.248   6.800  1.00 20.00    -0.193 F 
HETATM    4 CL5  UNL     1     -34.552   4.533   4.783  1.00 20.00    -0.052 Cl
ENDROOT
BRANCH   1   5
HETATM    5  C3  UNL     1     -33.638   8.476   5.399  1.00 20.00     0.145 C 
HETATM    6 CL6  UNL     1     -32.108   9.164   4.813  1.00 20.00    -0.126 Cl
ENDBRANCH   1   5
TORSDOF 1
ENDMDL
MODEL 7
REMARK VINA RESULT:      -3.6      1.465      3.255
REMARK  1 active torsions:
REMARK  status: ('A' for Active; 'I' for Inactive)
REMARK    1  A    between atoms: C1_1  and  C3_3 
ROOT
HETATM    1  C1  UNL     1     -33.223   7.055   4.448  1.00 20.00     0.043 C 
HETATM    2  C2  UNL     1     -33.934   7.163   5.577  1.00 20.00     0.183 C 
HETATM    3  F4  UNL     1     -34.101   8.372   6.156  1.00 20.00    -0.193 F 
HETATM    4 CL5  UNL     1     -34.647   5.781   6.319  1.00 20.00    -0.052 Cl
ENDROOT
BRANCH   1   5
HETATM    5  C3  UNL     1     -32.587   8.212   3.748  1.00 20.00     0.145 C 
HETATM    6 CL6  UNL     1     -32.161   7.753   2.086  1.00 20.00    -0.126 Cl
ENDBRANCH   1   5
TORSDOF 1
ENDMDL
MODEL 8
REMARK VINA RESULT:      -3.6      1.852      3.693
REMARK  1 active torsions:
REMARK  status: ('A' for Active; 'I' for Inactive)
REMARK    1  A    between atoms: C1_1  and  C3_3 
ROOT
HETATM    1  C1  UNL     1     -33.397   7.631   5.051  1.00 20.00     0.043 C 
HETATM    2  C2  UNL     1     -33.836   6.468   4.553  1.00 20.00     0.183 C 
HETATM    3  F4  UNL     1     -33.241   5.933   3.465  1.00 20.00    -0.193 F 
HETATM    4 CL5  UNL     1     -35.158   5.630   5.274  1.00 20.00    -0.052 Cl
ENDROOT
BRANCH   1   5
HETATM    5  C3  UNL     1     -32.252   8.404   4.482  1.00 20.00     0.145 C 
HETATM    6 CL6  UNL     1     -32.649   8.952   2.840  1.00 20.00    -0.126 Cl
ENDBRANCH   1   5
TORSDOF 1
ENDMDL
MODEL 9
REMARK VINA RESULT:      -3.5      2.411      2.793
REMARK  1 active torsions:
REMARK  status: ('A' for Active; 'I' for Inactive)
REMARK    1  A    between atoms: C1_1  and  C3_3 
ROOT
HETATM    1  C1  UNL     1     -33.066   7.127   4.197  1.00 20.00     0.043 C 
HETATM    2  C2  UNL     1     -33.652   6.036   3.689  1.00 20.00     0.183 C 
HETATM    3  F4  UNL     1     -34.894   5.690   4.090  1.00 20.00    -0.193 F 
HETATM    4 CL5  UNL     1     -32.850   5.051   2.525  1.00 20.00    -0.052 Cl
ENDROOT
BRANCH   1   5
HETATM    5  C3  UNL     1     -33.707   8.028   5.201  1.00 20.00     0.145 C 
HETATM    6 CL6  UNL     1     -34.196   7.092   6.630  1.00 20.00    -0.126 Cl
ENDBRANCH   1   5
TORSDOF 1
ENDMDL
