MODEL 1
REMARK VINA RESULT:      -2.9      0.000      0.000
REMARK  0 active torsions:
REMARK  status: ('A' for Active; 'I' for Inactive)
ROOT
HETATM    1  C1  UNL     1     -35.101  15.319  -5.065  1.00 20.00     0.123 C 
HETATM    2  C2  UNL     1     -33.645  16.568  -2.259  1.00 20.00     0.123 C 
HETATM    3  C3  UNL     1     -36.189  18.259  -3.751  1.00 20.00     0.123 C 
HETATM    4  C4  UNL     1     -34.907  16.784  -5.461  1.00 20.00     0.296 C 
HETATM    5  C5  UNL     1     -33.218  16.507  -3.728  1.00 20.00     0.296 C 
HETATM    6  C6  UNL     1     -34.673  18.461  -3.709  1.00 20.00     0.296 C 
HETATM    7  N7  UNL     1     -33.986  17.461  -4.538  1.00 20.00     0.133 N 
HETATM    8  S8  UNL     1     -33.495  14.846  -4.396  1.00 20.00    -0.130 SA
HETATM    9  S9  UNL     1     -34.062  18.303  -2.011  1.00 20.00    -0.130 SA
HETATM   10  S10 UNL     1     -36.492  17.662  -5.424  1.00 20.00    -0.130 SA
ENDROOT
TORSDOF 0
ENDMDL
MODEL 2
REMARK VINA RESULT:      -2.9      0.112      3.206
REMARK  0 active torsions:
REMARK  status: ('A' for Active; 'I' for Inactive)
ROOT
HETATM    1  C1  UNL     1     -36.239  18.203  -3.839  1.00 20.00     0.123 C 
HETATM    2  C2  UNL     1     -34.995  15.273  -5.031  1.00 20.00     0.123 C 
HETATM    3  C3  UNL     1     -33.656  16.679  -2.240  1.00 20.00     0.123 C 
HETATM    4  C4  UNL     1     -34.734  18.475  -3.775  1.00 20.00     0.296 C 
HETATM    5  C5  UNL     1     -34.856  16.732  -5.473  1.00 20.00     0.296 C 
HETATM    6  C6  UNL     1     -33.196  16.587  -3.696  1.00 20.00     0.296 C 
HETATM    7  N7  UNL     1     -33.987  17.479  -4.555  1.00 20.00     0.133 N 
HETATM    8  S8  UNL     1     -36.478  17.540  -5.498  1.00 20.00    -0.130 SA
HETATM    9  S9  UNL     1     -33.387  14.894  -4.312  1.00 20.00    -0.130 SA
HETATM   10  S10 UNL     1     -34.153  18.402  -2.060  1.00 20.00    -0.130 SA
ENDROOT
TORSDOF 0
ENDMDL
MODEL 3
REMARK VINA RESULT:      -2.9      0.173      3.247
REMARK  0 active torsions:
REMARK  status: ('A' for Active; 'I' for Inactive)
ROOT
HETATM    1  C1  UNL     1     -33.601  16.649  -2.194  1.00 20.00     0.123 C 
HETATM    2  C2  UNL     1     -36.131  18.393  -3.644  1.00 20.00     0.123 C 
HETATM    3  C3  UNL     1     -35.048  15.489  -5.042  1.00 20.00     0.123 C 
HETATM    4  C4  UNL     1     -33.168  16.630  -3.661  1.00 20.00     0.296 C 
HETATM    5  C5  UNL     1     -34.614  18.589  -3.592  1.00 20.00     0.296 C 
HETATM    6  C6  UNL     1     -34.848  16.965  -5.393  1.00 20.00     0.296 C 
HETATM    7  N7  UNL     1     -33.928  17.611  -4.446  1.00 20.00     0.133 N 
HETATM    8  S8  UNL     1     -34.010  18.379  -1.897  1.00 20.00    -0.130 SA
HETATM    9  S9  UNL     1     -36.430  17.847  -5.336  1.00 20.00    -0.130 SA
HETATM   10  S10 UNL     1     -33.449  14.990  -4.380  1.00 20.00    -0.130 SA
ENDROOT
TORSDOF 0
ENDMDL
MODEL 4
REMARK VINA RESULT:      -2.9      1.590      3.861
REMARK  0 active torsions:
REMARK  status: ('A' for Active; 'I' for Inactive)
ROOT
HETATM    1  C1  UNL     1     -35.328  18.179  -3.431  1.00 20.00     0.123 C 
HETATM    2  C2  UNL     1     -36.783  16.136  -5.724  1.00 20.00     0.123 C 
HETATM    3  C3  UNL     1     -34.041  15.087  -4.009  1.00 20.00     0.123 C 
HETATM    4  C4  UNL     1     -34.102  17.676  -4.197  1.00 20.00     0.296 C 
HETATM    5  C5  UNL     1     -35.877  17.365  -5.835  1.00 20.00     0.296 C 
HETATM    6  C6  UNL     1     -34.261  15.586  -5.439  1.00 20.00     0.296 C 
HETATM    7  N7  UNL     1     -34.497  17.037  -5.459  1.00 20.00     0.133 N 
HETATM    8  S8  UNL     1     -36.464  18.681  -4.737  1.00 20.00    -0.130 SA
HETATM    9  S9  UNL     1     -35.699  14.770  -6.178  1.00 20.00    -0.130 SA
HETATM   10  S10 UNL     1     -33.195  16.460  -3.206  1.00 20.00    -0.130 SA
ENDROOT
TORSDOF 0
ENDMDL
MODEL 5
REMARK VINA RESULT:      -2.9      1.588      2.414
REMARK  0 active torsions:
REMARK  status: ('A' for Active; 'I' for Inactive)
ROOT
HETATM    1  C1  UNL     1     -33.991  15.144  -3.968  1.00 20.00     0.123 C 
HETATM    2  C2  UNL     1     -35.336  18.217  -3.422  1.00 20.00     0.123 C 
HETATM    3  C3  UNL     1     -36.792  16.093  -5.641  1.00 20.00     0.123 C 
HETATM    4  C4  UNL     1     -34.253  15.609  -5.402  1.00 20.00     0.296 C 
HETATM    5  C5  UNL     1     -34.115  17.727  -4.206  1.00 20.00     0.296 C 
HETATM    6  C6  UNL     1     -35.921  17.341  -5.796  1.00 20.00     0.296 C 
HETATM    7  N7  UNL     1     -34.523  17.053  -5.445  1.00 20.00     0.133 N 
HETATM    8  S8  UNL     1     -33.159  16.553  -3.212  1.00 20.00    -0.130 SA
HETATM    9  S9  UNL     1     -36.515  18.664  -4.709  1.00 20.00    -0.130 SA
HETATM   10  S10 UNL     1     -35.687  14.744  -6.093  1.00 20.00    -0.130 SA
ENDROOT
TORSDOF 0
ENDMDL
MODEL 6
REMARK VINA RESULT:      -2.8      1.782      3.088
REMARK  0 active torsions:
REMARK  status: ('A' for Active; 'I' for Inactive)
ROOT
HETATM    1  C1  UNL     1     -34.027  15.354  -6.898  1.00 20.00     0.123 C 
HETATM    2  C2  UNL     1     -34.134  18.673  -6.178  1.00 20.00     0.123 C 
HETATM    3  C3  UNL     1     -33.347  16.430  -3.747  1.00 20.00     0.123 C 
HETATM    4  C4  UNL     1     -34.820  15.345  -5.590  1.00 20.00     0.296 C 
HETATM    5  C5  UNL     1     -35.213  17.609  -6.397  1.00 20.00     0.296 C 
HETATM    6  C6  UNL     1     -34.607  17.235  -4.067  1.00 20.00     0.296 C 
HETATM    7  N7  UNL     1     -35.290  16.695  -5.251  1.00 20.00     0.133 N 
HETATM    8  S8  UNL     1     -34.840  16.631  -7.876  1.00 20.00    -0.130 SA
HETATM    9  S9  UNL     1     -34.184  18.965  -4.400  1.00 20.00    -0.130 SA
HETATM   10  S10 UNL     1     -33.783  14.749  -4.228  1.00 20.00    -0.130 SA
ENDROOT
TORSDOF 0
ENDMDL
MODEL 7
REMARK VINA RESULT:      -2.8      1.755      3.207
REMARK  0 active torsions:
REMARK  status: ('A' for Active; 'I' for Inactive)
ROOT
HETATM    1  C1  UNL     1     -34.073  18.693  -6.116  1.00 20.00     0.123 C 
HETATM    2  C2  UNL     1     -33.316  16.361  -3.762  1.00 20.00     0.123 C 
HETATM    3  C3  UNL     1     -34.109  15.391  -6.923  1.00 20.00     0.123 C 
HETATM    4  C4  UNL     1     -35.195  17.676  -6.337  1.00 20.00     0.296 C 
HETATM    5  C5  UNL     1     -34.554  17.219  -4.032  1.00 20.00     0.296 C 
HETATM    6  C6  UNL     1     -34.870  15.378  -5.596  1.00 20.00     0.296 C 
HETATM    7  N7  UNL     1     -35.282  16.735  -5.212  1.00 20.00     0.133 N 
HETATM    8  S8  UNL     1     -34.075  18.940  -4.330  1.00 20.00    -0.130 SA
HETATM    9  S9  UNL     1     -33.825  14.710  -4.275  1.00 20.00    -0.130 SA
HETATM   10  S10 UNL     1     -34.893  16.723  -7.849  1.00 20.00    -0.130 SA
ENDROOT
TORSDOF 0
ENDMDL
MODEL 8
REMARK VINA RESULT:      -2.8      1.807      3.277
REMARK  0 active torsions:
REMARK  status: ('A' for Active; 'I' for Inactive)
ROOT
HETATM    1  C1  UNL     1     -33.348  16.513  -3.808  1.00 20.00     0.123 C 
HETATM    2  C2  UNL     1     -34.058  15.338  -6.917  1.00 20.00     0.123 C 
HETATM    3  C3  UNL     1     -34.220  18.674  -6.282  1.00 20.00     0.123 C 
HETATM    4  C4  UNL     1     -34.630  17.284  -4.127  1.00 20.00     0.296 C 
HETATM    5  C5  UNL     1     -34.830  15.349  -5.595  1.00 20.00     0.296 C 
HETATM    6  C6  UNL     1     -35.279  17.584  -6.457  1.00 20.00     0.296 C 
HETATM    7  N7  UNL     1     -35.320  16.698  -5.285  1.00 20.00     0.133 N 
HETATM    8  S8  UNL     1     -33.759  14.811  -4.236  1.00 20.00    -0.130 SA
HETATM    9  S9  UNL     1     -34.909  16.573  -7.915  1.00 20.00    -0.130 SA
HETATM   10  S10 UNL     1     -34.248  19.012  -4.512  1.00 20.00    -0.130 SA
ENDROOT
TORSDOF 0
ENDMDL
MODEL 9
REMARK VINA RESULT:      -2.8      1.355      3.077
REMARK  0 active torsions:
REMARK  status: ('A' for Active; 'I' for Inactive)
ROOT
HETATM    1  C1  UNL     1     -33.095  15.992  -3.660  1.00 20.00     0.123 C 
HETATM    2  C2  UNL     1     -34.536  16.433  -6.706  1.00 20.00     0.123 C 
HETATM    3  C3  UNL     1     -33.450  19.123  -4.932  1.00 20.00     0.123 C 
HETATM    4  C4  UNL     1     -34.058  17.144  -3.365  1.00 20.00     0.296 C 
HETATM    5  C5  UNL     1     -35.092  16.114  -5.316  1.00 20.00     0.296 C 
HETATM    6  C6  UNL     1     -34.835  18.535  -5.209  1.00 20.00     0.296 C 
HETATM    7  N7  UNL     1     -35.042  17.296  -4.446  1.00 20.00     0.133 N 
HETATM    8  S8  UNL     1     -34.121  14.797  -4.537  1.00 20.00    -0.130 SA
HETATM    9  S9  UNL     1     -35.017  18.150  -6.970  1.00 20.00    -0.130 SA
HETATM   10  S10 UNL     1     -33.146  18.702  -3.207  1.00 20.00    -0.130 SA
ENDROOT
TORSDOF 0
ENDMDL
