MODEL 1
REMARK VINA RESULT:      -4.1      0.000      0.000
REMARK  0 active torsions:
REMARK  status: ('A' for Active; 'I' for Inactive)
ROOT
HETATM    1  C1  UNL     1     -32.069   7.253   3.207  1.00 20.00     0.135 C 
HETATM    2  C2  UNL     1     -32.967   6.114   2.794  1.00 20.00     0.080 C 
HETATM    3  C3  UNL     1     -33.421   5.279   3.985  1.00 20.00     0.016 C 
HETATM    4  C4  UNL     1     -32.320   9.155   4.929  1.00 20.00     0.023 A 
HETATM    5  C5  UNL     1     -33.751   7.152   5.713  1.00 20.00     0.014 C 
HETATM    6  C6  UNL     1     -33.623   8.405   4.895  1.00 20.00     0.003 A 
HETATM    7  C7  UNL     1     -32.770   8.496   3.641  1.00 20.00     0.021 A 
HETATM    8  C8  UNL     1     -34.404   5.951   4.983  1.00 20.00    -0.047 C 
HETATM    9  C9  UNL     1     -33.232   9.429   2.546  1.00 20.00     0.024 C 
HETATM   10  C10 UNL     1     -35.720   6.354   4.293  1.00 20.00     0.015 C 
HETATM   11  C11 UNL     1     -34.750   4.892   6.059  1.00 20.00     0.015 C 
HETATM   12  O12 UNL     1     -30.845   7.190   3.184  1.00 20.00    -0.297 OA
ENDROOT
TORSDOF 0
ENDMDL
MODEL 2
REMARK VINA RESULT:      -4.0     11.737     13.019
REMARK  0 active torsions:
REMARK  status: ('A' for Active; 'I' for Inactive)
ROOT
HETATM    1  C1  UNL     1     -33.552  16.765  -2.900  1.00 20.00     0.135 C 
HETATM    2  C2  UNL     1     -32.966  15.701  -3.794  1.00 20.00     0.080 C 
HETATM    3  C3  UNL     1     -34.041  14.824  -4.424  1.00 20.00     0.016 C 
HETATM    4  C4  UNL     1     -35.351  18.575  -3.268  1.00 20.00     0.023 A 
HETATM    5  C5  UNL     1     -35.834  16.608  -4.872  1.00 20.00     0.014 C 
HETATM    6  C6  UNL     1     -35.118  17.898  -4.591  1.00 20.00     0.003 A 
HETATM    7  C7  UNL     1     -33.980  18.016  -3.591  1.00 20.00     0.021 A 
HETATM    8  C8  UNL     1     -34.959  15.488  -5.488  1.00 20.00    -0.047 C 
HETATM    9  C9  UNL     1     -32.900  19.034  -3.876  1.00 20.00     0.024 C 
HETATM   10  C10 UNL     1     -34.147  15.998  -6.692  1.00 20.00     0.015 C 
HETATM   11  C11 UNL     1     -35.917  14.388  -6.007  1.00 20.00     0.015 C 
HETATM   12  O12 UNL     1     -33.667  16.640  -1.687  1.00 20.00    -0.297 OA
ENDROOT
TORSDOF 0
ENDMDL
MODEL 3
REMARK VINA RESULT:      -3.8     11.620     13.392
REMARK  0 active torsions:
REMARK  status: ('A' for Active; 'I' for Inactive)
ROOT
HETATM    1  C1  UNL     1     -35.798  15.916  -5.377  1.00 20.00     0.135 C 
HETATM    2  C2  UNL     1     -35.922  17.418  -5.443  1.00 20.00     0.080 C 
HETATM    3  C3  UNL     1     -35.783  18.066  -4.071  1.00 20.00     0.016 C 
HETATM    4  C4  UNL     1     -34.011  14.340  -4.392  1.00 20.00     0.023 A 
HETATM    5  C5  UNL     1     -33.954  16.562  -3.076  1.00 20.00     0.014 C 
HETATM    6  C6  UNL     1     -33.497  15.747  -4.251  1.00 20.00     0.003 A 
HETATM    7  C7  UNL     1     -34.404  15.387  -5.416  1.00 20.00     0.021 A 
HETATM    8  C8  UNL     1     -34.381  18.015  -3.405  1.00 20.00    -0.047 C 
HETATM    9  C9  UNL     1     -33.770  15.250  -6.780  1.00 20.00     0.024 C 
HETATM   10  C10 UNL     1     -33.324  18.736  -4.262  1.00 20.00     0.015 C 
HETATM   11  C11 UNL     1     -34.489  18.779  -2.062  1.00 20.00     0.015 C 
HETATM   12  O12 UNL     1     -36.761  15.162  -5.311  1.00 20.00    -0.297 OA
ENDROOT
TORSDOF 0
ENDMDL
MODEL 4
REMARK VINA RESULT:      -3.7     11.989     13.522
REMARK  0 active torsions:
REMARK  status: ('A' for Active; 'I' for Inactive)
ROOT
HETATM    1  C1  UNL     1     -35.748  18.082  -4.098  1.00 20.00     0.135 C 
HETATM    2  C2  UNL     1     -35.512  19.262  -3.190  1.00 20.00     0.080 C 
HETATM    3  C3  UNL     1     -35.109  18.834  -1.784  1.00 20.00     0.016 C 
HETATM    4  C4  UNL     1     -34.318  16.029  -4.721  1.00 20.00     0.023 A 
HETATM    5  C5  UNL     1     -33.620  16.823  -2.364  1.00 20.00     0.014 C 
HETATM    6  C6  UNL     1     -33.471  16.920  -3.855  1.00 20.00     0.003 A 
HETATM    7  C7  UNL     1     -34.530  17.529  -4.759  1.00 20.00     0.021 A 
HETATM    8  C8  UNL     1     -33.710  18.179  -1.620  1.00 20.00    -0.047 C 
HETATM    9  C9  UNL     1     -34.062  18.232  -6.011  1.00 20.00     0.024 C 
HETATM   10  C10 UNL     1     -32.585  19.138  -2.049  1.00 20.00     0.015 C 
HETATM   11  C11 UNL     1     -33.521  17.889  -0.110  1.00 20.00     0.015 C 
HETATM   12  O12 UNL     1     -36.855  17.600  -4.305  1.00 20.00    -0.297 OA
ENDROOT
TORSDOF 0
ENDMDL
MODEL 5
REMARK VINA RESULT:      -3.7     11.322     13.204
REMARK  0 active torsions:
REMARK  status: ('A' for Active; 'I' for Inactive)
ROOT
HETATM    1  C1  UNL     1     -33.806  14.724  -4.303  1.00 20.00     0.135 C 
HETATM    2  C2  UNL     1     -33.853  15.587  -3.066  1.00 20.00     0.080 C 
HETATM    3  C3  UNL     1     -33.252  16.966  -3.305  1.00 20.00     0.016 C 
HETATM    4  C4  UNL     1     -34.618  15.077  -6.725  1.00 20.00     0.023 A 
HETATM    5  C5  UNL     1     -34.098  17.389  -5.694  1.00 20.00     0.014 C 
HETATM    6  C6  UNL     1     -35.069  16.266  -5.922  1.00 20.00     0.003 A 
HETATM    7  C7  UNL     1     -34.941  14.907  -5.254  1.00 20.00     0.021 A 
HETATM    8  C8  UNL     1     -34.037  17.925  -4.241  1.00 20.00    -0.047 C 
HETATM    9  C9  UNL     1     -36.215  14.160  -4.938  1.00 20.00     0.024 C 
HETATM   10  C10 UNL     1     -35.442  18.226  -3.689  1.00 20.00     0.015 C 
HETATM   11  C11 UNL     1     -33.257  19.262  -4.277  1.00 20.00     0.015 C 
HETATM   12  O12 UNL     1     -32.916  13.913  -4.527  1.00 20.00    -0.297 OA
ENDROOT
TORSDOF 0
ENDMDL
MODEL 6
REMARK VINA RESULT:      -3.6     11.672     13.493
REMARK  0 active torsions:
REMARK  status: ('A' for Active; 'I' for Inactive)
ROOT
HETATM    1  C1  UNL     1     -34.141  15.582  -4.955  1.00 20.00     0.135 C 
HETATM    2  C2  UNL     1     -34.036  15.562  -3.451  1.00 20.00     0.080 C 
HETATM    3  C3  UNL     1     -33.120  16.659  -2.923  1.00 20.00     0.016 C 
HETATM    4  C4  UNL     1     -34.744  17.428  -6.651  1.00 20.00     0.023 A 
HETATM    5  C5  UNL     1     -33.742  18.548  -4.550  1.00 20.00     0.014 C 
HETATM    6  C6  UNL     1     -34.939  18.002  -5.274  1.00 20.00     0.003 A 
HETATM    7  C7  UNL     1     -35.160  16.518  -5.513  1.00 20.00     0.021 A 
HETATM    8  C8  UNL     1     -33.619  18.123  -3.065  1.00 20.00    -0.047 C 
HETATM    9  C9  UNL     1     -36.586  16.020  -5.551  1.00 20.00     0.024 C 
HETATM   10  C10 UNL     1     -34.936  18.345  -2.300  1.00 20.00     0.015 C 
HETATM   11  C11 UNL     1     -32.546  19.031  -2.414  1.00 20.00     0.015 C 
HETATM   12  O12 UNL     1     -33.457  14.879  -5.689  1.00 20.00    -0.297 OA
ENDROOT
TORSDOF 0
ENDMDL
MODEL 7
REMARK VINA RESULT:      -3.6     10.581     11.724
REMARK  0 active torsions:
REMARK  status: ('A' for Active; 'I' for Inactive)
ROOT
HETATM    1  C1  UNL     1     -42.706  12.972   7.064  1.00 20.00     0.135 C 
HETATM    2  C2  UNL     1     -43.337  14.029   7.934  1.00 20.00     0.080 C 
HETATM    3  C3  UNL     1     -42.556  14.253   9.223  1.00 20.00     0.016 C 
HETATM    4  C4  UNL     1     -40.326  12.659   6.122  1.00 20.00     0.023 A 
HETATM    5  C5  UNL     1     -40.164  14.019   8.314  1.00 20.00     0.014 C 
HETATM    6  C6  UNL     1     -40.360  13.989   6.825  1.00 20.00     0.003 A 
HETATM    7  C7  UNL     1     -41.618  13.451   6.163  1.00 20.00     0.021 A 
HETATM    8  C8  UNL     1     -41.157  14.918   9.093  1.00 20.00    -0.047 C 
HETATM    9  C9  UNL     1     -42.048  14.083   4.859  1.00 20.00     0.024 C 
HETATM   10  C10 UNL     1     -41.257  16.323   8.472  1.00 20.00     0.015 C 
HETATM   11  C11 UNL     1     -40.599  15.082  10.528  1.00 20.00     0.015 C 
HETATM   12  O12 UNL     1     -43.054  11.797   7.068  1.00 20.00    -0.297 OA
ENDROOT
TORSDOF 0
ENDMDL
MODEL 8
REMARK VINA RESULT:      -3.6     10.994     11.978
REMARK  0 active torsions:
REMARK  status: ('A' for Active; 'I' for Inactive)
ROOT
HETATM    1  C1  UNL     1     -42.338  16.281   6.115  1.00 20.00     0.135 C 
HETATM    2  C2  UNL     1     -42.950  15.124   5.367  1.00 20.00     0.080 C 
HETATM    3  C3  UNL     1     -41.903  14.113   4.915  1.00 20.00     0.016 C 
HETATM    4  C4  UNL     1     -40.768  16.423   8.156  1.00 20.00     0.023 A 
HETATM    5  C5  UNL     1     -40.349  14.172   6.959  1.00 20.00     0.014 C 
HETATM    6  C6  UNL     1     -41.125  14.975   7.963  1.00 20.00     0.003 A 
HETATM    7  C7  UNL     1     -42.118  16.057   7.573  1.00 20.00     0.021 A 
HETATM    8  C8  UNL     1     -41.203  13.280   6.024  1.00 20.00    -0.047 C 
HETATM    9  C9  UNL     1     -43.310  16.272   8.477  1.00 20.00     0.024 C 
HETATM   10  C10 UNL     1     -42.215  12.433   6.815  1.00 20.00     0.015 C 
HETATM   11  C11 UNL     1     -40.236  12.302   5.311  1.00 20.00     0.015 C 
HETATM   12  O12 UNL     1     -42.044  17.347   5.586  1.00 20.00    -0.297 OA
ENDROOT
TORSDOF 0
ENDMDL
MODEL 9
REMARK VINA RESULT:      -3.5     10.901     12.199
REMARK  0 active torsions:
REMARK  status: ('A' for Active; 'I' for Inactive)
ROOT
HETATM    1  C1  UNL     1     -40.658  13.634   6.892  1.00 20.00     0.135 C 
HETATM    2  C2  UNL     1     -40.409  14.196   8.269  1.00 20.00     0.080 C 
HETATM    3  C3  UNL     1     -40.246  15.711   8.251  1.00 20.00     0.016 C 
HETATM    4  C4  UNL     1     -42.385  14.178   5.057  1.00 20.00     0.023 A 
HETATM    5  C5  UNL     1     -42.006  16.304   6.476  1.00 20.00     0.014 C 
HETATM    6  C6  UNL     1     -42.734  15.008   6.262  1.00 20.00     0.003 A 
HETATM    7  C7  UNL     1     -42.081  13.648   6.443  1.00 20.00     0.021 A 
HETATM    8  C8  UNL     1     -41.510  16.552   7.923  1.00 20.00    -0.047 C 
HETATM    9  C9  UNL     1     -42.953  12.511   6.923  1.00 20.00     0.024 C 
HETATM   10  C10 UNL     1     -42.628  16.314   8.954  1.00 20.00     0.015 C 
HETATM   11  C11 UNL     1     -41.099  18.042   8.019  1.00 20.00     0.015 C 
HETATM   12  O12 UNL     1     -39.773  13.179   6.178  1.00 20.00    -0.297 OA
ENDROOT
TORSDOF 0
ENDMDL
