MODEL 1
REMARK VINA RESULT:      -5.7      0.000      0.000
REMARK  1 active torsions:
REMARK  status: ('A' for Active; 'I' for Inactive)
REMARK    1  A    between atoms: C5_5  and  O10_10 
ROOT
HETATM    1  C1  UNL     1     -32.830   8.165   4.031  1.00 20.00     0.001 C 
HETATM    2  C2  UNL     1     -33.757   7.902   4.964  1.00 20.00    -0.018 C 
HETATM    3  C3  UNL     1     -33.359   5.994   2.859  1.00 20.00     0.046 C 
HETATM    4  C4  UNL     1     -35.442   6.056   4.399  1.00 20.00     0.024 A 
HETATM    5  C5  UNL     1     -32.312   7.085   3.127  1.00 20.00     0.141 C 
HETATM    6  C6  UNL     1     -34.293   6.549   5.242  1.00 20.00    -0.018 A 
HETATM    7  C7  UNL     1     -34.053   5.514   4.126  1.00 20.00    -0.030 A 
HETATM    8  C8  UNL     1     -34.248   6.133   6.689  1.00 20.00     0.020 C 
HETATM    9  C9  UNL     1     -33.769   4.076   4.475  1.00 20.00     0.016 C 
ENDROOT
BRANCH   5  10
HETATM   10  O10 UNL     1     -31.943   7.677   1.885  1.00 20.00    -0.392 OA
HETATM   11  H24 UNL     1     -32.348   8.557   1.868  1.00 20.00     0.210 HD
ENDBRANCH   5  10
TORSDOF 1
ENDMDL
MODEL 2
REMARK VINA RESULT:      -4.3      1.387      2.478
REMARK  1 active torsions:
REMARK  status: ('A' for Active; 'I' for Inactive)
REMARK    1  A    between atoms: C5_5  and  O10_10 
ROOT
HETATM    1  C1  UNL     1     -32.261   6.740   2.558  1.00 20.00     0.001 C 
HETATM    2  C2  UNL     1     -32.435   7.934   3.143  1.00 20.00    -0.018 C 
HETATM    3  C3  UNL     1     -34.068   5.740   4.007  1.00 20.00     0.046 C 
HETATM    4  C4  UNL     1     -34.591   8.230   4.496  1.00 20.00     0.024 A 
HETATM    5  C5  UNL     1     -32.798   5.486   3.182  1.00 20.00     0.141 C 
HETATM    6  C6  UNL     1     -33.087   8.126   4.459  1.00 20.00    -0.018 A 
HETATM    7  C7  UNL     1     -33.939   6.936   4.940  1.00 20.00    -0.030 A 
HETATM    8  C8  UNL     1     -32.296   8.945   5.446  1.00 20.00     0.020 C 
HETATM    9  C9  UNL     1     -33.987   6.581   6.403  1.00 20.00     0.016 C 
ENDROOT
BRANCH   5  10
HETATM   10  O10 UNL     1     -33.109   4.563   2.142  1.00 20.00    -0.392 OA
HETATM   11  H24 UNL     1     -33.035   5.052   1.308  1.00 20.00     0.210 HD
ENDBRANCH   5  10
TORSDOF 1
ENDMDL
MODEL 3
REMARK VINA RESULT:      -4.3     15.737     16.665
REMARK  1 active torsions:
REMARK  status: ('A' for Active; 'I' for Inactive)
REMARK    1  A    between atoms: C5_5  and  O10_10 
ROOT
HETATM    1  C1  UNL     1     -24.412  19.151   8.742  1.00 20.00     0.001 C 
HETATM    2  C2  UNL     1     -25.230  18.897   9.774  1.00 20.00    -0.018 C 
HETATM    3  C3  UNL     1     -22.587  17.781   9.819  1.00 20.00     0.046 C 
HETATM    4  C4  UNL     1     -24.538  16.975  11.321  1.00 20.00     0.024 A 
HETATM    5  C5  UNL     1     -22.933  18.921   8.849  1.00 20.00     0.141 C 
HETATM    6  C6  UNL     1     -24.766  18.450  11.108  1.00 20.00    -0.018 A 
HETATM    7  C7  UNL     1     -23.336  17.880  11.141  1.00 20.00    -0.030 A 
HETATM    8  C8  UNL     1     -25.290  19.260  12.266  1.00 20.00     0.020 C 
HETATM    9  C9  UNL     1     -22.448  18.129  12.332  1.00 20.00     0.016 C 
ENDROOT
BRANCH   5  10
HETATM   10  O10 UNL     1     -22.435  18.585   7.557  1.00 20.00    -0.392 OA
HETATM   11  H24 UNL     1     -22.355  19.418   7.068  1.00 20.00     0.210 HD
ENDBRANCH   5  10
TORSDOF 1
ENDMDL
MODEL 4
REMARK VINA RESULT:      -4.2     12.205     13.350
REMARK  1 active torsions:
REMARK  status: ('A' for Active; 'I' for Inactive)
REMARK    1  A    between atoms: C5_5  and  O10_10 
ROOT
HETATM    1  C1  UNL     1     -33.751  14.718  -4.571  1.00 20.00     0.001 C 
HETATM    2  C2  UNL     1     -33.089  15.535  -3.739  1.00 20.00    -0.018 C 
HETATM    3  C3  UNL     1     -35.132  16.654  -5.413  1.00 20.00     0.046 C 
HETATM    4  C4  UNL     1     -33.315  18.046  -4.199  1.00 20.00     0.024 A 
HETATM    5  C5  UNL     1     -35.048  15.136  -5.199  1.00 20.00     0.141 C 
HETATM    6  C6  UNL     1     -33.589  16.861  -3.307  1.00 20.00    -0.018 A 
HETATM    7  C7  UNL     1     -34.708  17.450  -4.186  1.00 20.00    -0.030 A 
HETATM    8  C8  UNL     1     -33.594  17.083  -1.817  1.00 20.00     0.020 C 
HETATM    9  C9  UNL     1     -35.819  18.253  -3.561  1.00 20.00     0.016 C 
ENDROOT
BRANCH   5  10
HETATM   10  O10 UNL     1     -35.164  14.491  -6.464  1.00 20.00    -0.392 OA
HETATM   11  H24 UNL     1     -35.944  13.919  -6.412  1.00 20.00     0.210 HD
ENDBRANCH   5  10
TORSDOF 1
ENDMDL
MODEL 5
REMARK VINA RESULT:      -4.2     12.321     13.325
REMARK  1 active torsions:
REMARK  status: ('A' for Active; 'I' for Inactive)
REMARK    1  A    between atoms: C5_5  and  O10_10 
ROOT
HETATM    1  C1  UNL     1     -31.425  18.770   0.495  1.00 20.00     0.001 C 
HETATM    2  C2  UNL     1     -31.474  18.441  -0.804  1.00 20.00    -0.018 C 
HETATM    3  C3  UNL     1     -33.898  18.330   0.726  1.00 20.00     0.046 C 
HETATM    4  C4  UNL     1     -33.572  17.187  -1.576  1.00 20.00     0.024 A 
HETATM    5  C5  UNL     1     -32.674  19.086   1.263  1.00 20.00     0.141 C 
HETATM    6  C6  UNL     1     -32.718  18.430  -1.609  1.00 20.00    -0.018 A 
HETATM    7  C7  UNL     1     -34.022  18.402  -0.789  1.00 20.00    -0.030 A 
HETATM    8  C8  UNL     1     -32.646  19.205  -2.899  1.00 20.00     0.020 C 
HETATM    9  C9  UNL     1     -35.236  19.152  -1.271  1.00 20.00     0.016 C 
ENDROOT
BRANCH   5  10
HETATM   10  O10 UNL     1     -32.472  18.716   2.624  1.00 20.00    -0.392 OA
HETATM   11  H24 UNL     1     -33.204  18.126   2.861  1.00 20.00     0.210 HD
ENDBRANCH   5  10
TORSDOF 1
ENDMDL
MODEL 6
REMARK VINA RESULT:      -4.2     12.109     13.494
REMARK  1 active torsions:
REMARK  status: ('A' for Active; 'I' for Inactive)
REMARK    1  A    between atoms: C5_5  and  O10_10 
ROOT
HETATM    1  C1  UNL     1     -33.224  15.827  -3.587  1.00 20.00     0.001 C 
HETATM    2  C2  UNL     1     -33.646  17.091  -3.736  1.00 20.00    -0.018 C 
HETATM    3  C3  UNL     1     -34.562  15.118  -5.605  1.00 20.00     0.046 C 
HETATM    4  C4  UNL     1     -34.703  17.675  -5.996  1.00 20.00     0.024 A 
HETATM    5  C5  UNL     1     -33.921  14.691  -4.277  1.00 20.00     0.141 C 
HETATM    6  C6  UNL     1     -34.850  17.478  -4.508  1.00 20.00    -0.018 A 
HETATM    7  C7  UNL     1     -35.362  16.408  -5.490  1.00 20.00    -0.030 A 
HETATM    8  C8  UNL     1     -35.821  18.362  -3.769  1.00 20.00     0.020 C 
HETATM    9  C9  UNL     1     -36.841  16.235  -5.719  1.00 20.00     0.016 C 
ENDROOT
BRANCH   5  10
HETATM   10  O10 UNL     1     -32.964  13.670  -4.542  1.00 20.00    -0.392 OA
HETATM   11  H24 UNL     1     -33.282  12.871  -4.094  1.00 20.00     0.210 HD
ENDBRANCH   5  10
TORSDOF 1
ENDMDL
MODEL 7
REMARK VINA RESULT:      -3.9      2.271      3.876
REMARK  1 active torsions:
REMARK  status: ('A' for Active; 'I' for Inactive)
REMARK    1  A    between atoms: C5_5  and  O10_10 
ROOT
HETATM    1  C1  UNL     1     -34.346   4.997   4.693  1.00 20.00     0.001 C 
HETATM    2  C2  UNL     1     -33.961   5.693   3.613  1.00 20.00    -0.018 C 
HETATM    3  C3  UNL     1     -34.266   7.091   6.098  1.00 20.00     0.046 C 
HETATM    4  C4  UNL     1     -34.146   8.243   3.781  1.00 20.00     0.024 A 
HETATM    5  C5  UNL     1     -34.181   5.558   6.075  1.00 20.00     0.141 C 
HETATM    6  C6  UNL     1     -33.285   7.010   3.672  1.00 20.00    -0.018 A 
HETATM    7  C7  UNL     1     -33.421   7.749   5.016  1.00 20.00    -0.030 A 
HETATM    8  C8  UNL     1     -32.010   7.105   2.876  1.00 20.00     0.020 C 
HETATM    9  C9  UNL     1     -32.277   8.573   5.547  1.00 20.00     0.016 C 
ENDROOT
BRANCH   5  10
HETATM   10  O10 UNL     1     -35.216   5.033   6.901  1.00 20.00    -0.392 OA
HETATM   11  H24 UNL     1     -34.858   4.994   7.801  1.00 20.00     0.210 HD
ENDBRANCH   5  10
TORSDOF 1
ENDMDL
MODEL 8
REMARK VINA RESULT:      -3.8     12.406     13.940
REMARK  1 active torsions:
REMARK  status: ('A' for Active; 'I' for Inactive)
REMARK    1  A    between atoms: C5_5  and  O10_10 
ROOT
HETATM    1  C1  UNL     1     -33.613  14.997  -3.986  1.00 20.00     0.001 C 
HETATM    2  C2  UNL     1     -34.101  14.710  -5.202  1.00 20.00    -0.018 C 
HETATM    3  C3  UNL     1     -34.605  17.313  -4.107  1.00 20.00     0.046 C 
HETATM    4  C4  UNL     1     -35.910  16.289  -6.098  1.00 20.00     0.024 A 
HETATM    5  C5  UNL     1     -33.516  16.415  -3.505  1.00 20.00     0.141 C 
HETATM    6  C6  UNL     1     -34.511  15.732  -6.193  1.00 20.00    -0.018 A 
HETATM    7  C7  UNL     1     -34.752  17.139  -5.612  1.00 20.00    -0.030 A 
HETATM    8  C8  UNL     1     -33.907  15.567  -7.563  1.00 20.00     0.020 C 
HETATM    9  C9  UNL     1     -34.383  18.361  -6.411  1.00 20.00     0.016 C 
ENDROOT
BRANCH   5  10
HETATM   10  O10 UNL     1     -33.656  16.419  -2.087  1.00 20.00    -0.392 OA
HETATM   11  H24 UNL     1     -33.327  17.277  -1.779  1.00 20.00     0.210 HD
ENDBRANCH   5  10
TORSDOF 1
ENDMDL
MODEL 9
REMARK VINA RESULT:      -3.8      1.793      3.402
REMARK  1 active torsions:
REMARK  status: ('A' for Active; 'I' for Inactive)
REMARK    1  A    between atoms: C5_5  and  O10_10 
ROOT
HETATM    1  C1  UNL     1     -34.171   6.598   5.270  1.00 20.00     0.001 C 
HETATM    2  C2  UNL     1     -33.426   7.713   5.251  1.00 20.00    -0.018 C 
HETATM    3  C3  UNL     1     -32.919   5.700   3.272  1.00 20.00     0.046 C 
HETATM    4  C4  UNL     1     -31.279   7.618   3.856  1.00 20.00     0.024 A 
HETATM    5  C5  UNL     1     -34.222   5.680   4.083  1.00 20.00     0.141 C 
HETATM    6  C6  UNL     1     -32.661   8.180   4.071  1.00 20.00    -0.018 A 
HETATM    7  C7  UNL     1     -32.415   7.108   2.992  1.00 20.00    -0.030 A 
HETATM    8  C8  UNL     1     -32.912   9.613   3.679  1.00 20.00     0.020 C 
HETATM    9  C9  UNL     1     -32.425   7.486   1.534  1.00 20.00     0.016 C 
ENDROOT
BRANCH   5  10
HETATM   10  O10 UNL     1     -34.447   4.353   4.550  1.00 20.00    -0.392 OA
HETATM   11  H24 UNL     1     -35.105   4.418   5.259  1.00 20.00     0.210 HD
ENDBRANCH   5  10
TORSDOF 1
ENDMDL
