MODEL 1
REMARK VINA RESULT:      -4.7      0.000      0.000
REMARK  0 active torsions:
REMARK  status: ('A' for Active; 'I' for Inactive)
ROOT
HETATM    1  C1  UNL     1     -34.171   5.981   5.911  1.00 20.00    -0.080 C 
HETATM    2  C2  UNL     1     -34.796   5.259   6.850  1.00 20.00     0.015 C 
HETATM    3  C3  UNL     1     -33.139   7.033   6.222  1.00 20.00     0.043 C 
HETATM    4  C4  UNL     1     -33.006   5.208   2.581  1.00 20.00     0.002 C 
HETATM    5  C5  UNL     1     -32.437   6.504   3.127  1.00 20.00     0.006 C 
HETATM    6  C6  UNL     1     -33.805   4.674   3.761  1.00 20.00     0.014 C 
HETATM    7  C7  UNL     1     -33.631   7.138   3.856  1.00 20.00     0.006 C 
HETATM    8  C8  UNL     1     -34.439   5.924   4.417  1.00 20.00    -0.017 C 
HETATM    9  C9  UNL     1     -33.287   8.040   5.070  1.00 20.00    -0.040 C 
HETATM   10  C10 UNL     1     -35.928   6.018   4.054  1.00 20.00     0.020 C 
HETATM   11  C11 UNL     1     -34.440   9.025   5.363  1.00 20.00     0.015 C 
HETATM   12  C12 UNL     1     -32.010   8.871   4.883  1.00 20.00     0.015 C 
ENDROOT
TORSDOF 0
ENDMDL
MODEL 2
REMARK VINA RESULT:      -3.7     12.618     13.978
REMARK  0 active torsions:
REMARK  status: ('A' for Active; 'I' for Inactive)
ROOT
HETATM    1  C1  UNL     1     -35.682  18.045  -4.176  1.00 20.00    -0.080 C 
HETATM    2  C2  UNL     1     -36.777  18.690  -4.597  1.00 20.00     0.015 C 
HETATM    3  C3  UNL     1     -35.114  18.191  -2.788  1.00 20.00     0.043 C 
HETATM    4  C4  UNL     1     -34.361  14.750  -4.837  1.00 20.00     0.002 C 
HETATM    5  C5  UNL     1     -33.708  15.428  -3.648  1.00 20.00     0.006 C 
HETATM    6  C6  UNL     1     -35.440  15.746  -5.234  1.00 20.00     0.014 C 
HETATM    7  C7  UNL     1     -33.560  16.886  -4.105  1.00 20.00     0.006 C 
HETATM    8  C8  UNL     1     -34.801  17.139  -5.019  1.00 20.00    -0.017 C 
HETATM    9  C9  UNL     1     -33.607  17.959  -2.986  1.00 20.00    -0.040 C 
HETATM   10  C10 UNL     1     -34.397  17.753  -6.367  1.00 20.00     0.020 C 
HETATM   11  C11 UNL     1     -32.920  19.263  -3.451  1.00 20.00     0.015 C 
HETATM   12  C12 UNL     1     -32.930  17.523  -1.679  1.00 20.00     0.015 C 
ENDROOT
TORSDOF 0
ENDMDL
MODEL 3
REMARK VINA RESULT:      -3.5      9.437     11.601
REMARK  0 active torsions:
REMARK  status: ('A' for Active; 'I' for Inactive)
ROOT
HETATM    1  C1  UNL     1     -40.895  13.339   6.349  1.00 20.00    -0.080 C 
HETATM    2  C2  UNL     1     -40.439  12.143   5.957  1.00 20.00     0.015 C 
HETATM    3  C3  UNL     1     -40.100  14.291   7.205  1.00 20.00     0.043 C 
HETATM    4  C4  UNL     1     -42.969  15.827   4.751  1.00 20.00     0.002 C 
HETATM    5  C5  UNL     1     -42.249  16.349   5.980  1.00 20.00     0.006 C 
HETATM    6  C6  UNL     1     -42.418  14.414   4.621  1.00 20.00     0.014 C 
HETATM    7  C7  UNL     1     -42.338  15.178   6.970  1.00 20.00     0.006 C 
HETATM    8  C8  UNL     1     -42.279  13.901   6.074  1.00 20.00    -0.017 C 
HETATM    9  C9  UNL     1     -41.176  15.059   7.990  1.00 20.00    -0.040 C 
HETATM   10  C10 UNL     1     -43.416  12.924   6.404  1.00 20.00     0.020 C 
HETATM   11  C11 UNL     1     -41.618  14.247   9.228  1.00 20.00     0.015 C 
HETATM   12  C12 UNL     1     -40.648  16.411   8.491  1.00 20.00     0.015 C 
ENDROOT
TORSDOF 0
ENDMDL
MODEL 4
REMARK VINA RESULT:      -3.4     13.443     14.504
REMARK  0 active torsions:
REMARK  status: ('A' for Active; 'I' for Inactive)
ROOT
HETATM    1  C1  UNL     1     -34.241  16.400  -4.399  1.00 20.00    -0.080 C 
HETATM    2  C2  UNL     1     -33.648  15.871  -3.321  1.00 20.00     0.015 C 
HETATM    3  C3  UNL     1     -34.510  17.873  -4.561  1.00 20.00     0.043 C 
HETATM    4  C4  UNL     1     -34.113  15.598  -7.918  1.00 20.00     0.002 C 
HETATM    5  C5  UNL     1     -34.728  16.955  -7.637  1.00 20.00     0.006 C 
HETATM    6  C6  UNL     1     -33.681  15.137  -6.533  1.00 20.00     0.014 C 
HETATM    7  C7  UNL     1     -35.585  16.706  -6.387  1.00 20.00     0.006 C 
HETATM    8  C8  UNL     1     -34.798  15.625  -5.580  1.00 20.00    -0.017 C 
HETATM    9  C9  UNL     1     -35.773  17.918  -5.437  1.00 20.00    -0.040 C 
HETATM   10  C10 UNL     1     -35.702  14.451  -5.176  1.00 20.00     0.020 C 
HETATM   11  C11 UNL     1     -37.036  17.739  -4.567  1.00 20.00     0.015 C 
HETATM   12  C12 UNL     1     -35.903  19.263  -6.166  1.00 20.00     0.015 C 
ENDROOT
TORSDOF 0
ENDMDL
MODEL 5
REMARK VINA RESULT:      -3.3      9.742     11.990
REMARK  0 active torsions:
REMARK  status: ('A' for Active; 'I' for Inactive)
ROOT
HETATM    1  C1  UNL     1     -42.361  14.494   5.783  1.00 20.00    -0.080 C 
HETATM    2  C2  UNL     1     -42.339  14.481   4.444  1.00 20.00     0.015 C 
HETATM    3  C3  UNL     1     -42.664  15.725   6.597  1.00 20.00     0.043 C 
HETATM    4  C4  UNL     1     -43.417  12.078   8.251  1.00 20.00     0.002 C 
HETATM    5  C5  UNL     1     -43.225  13.470   8.822  1.00 20.00     0.006 C 
HETATM    6  C6  UNL     1     -43.171  12.293   6.765  1.00 20.00     0.014 C 
HETATM    7  C7  UNL     1     -41.961  13.975   8.112  1.00 20.00     0.006 C 
HETATM    8  C8  UNL     1     -42.021  13.326   6.693  1.00 20.00    -0.017 C 
HETATM    9  C9  UNL     1     -41.868  15.508   7.895  1.00 20.00    -0.040 C 
HETATM   10  C10 UNL     1     -40.702  12.628   6.332  1.00 20.00     0.020 C 
HETATM   11  C11 UNL     1     -40.399  15.944   7.702  1.00 20.00     0.015 C 
HETATM   12  C12 UNL     1     -42.446  16.335   9.052  1.00 20.00     0.015 C 
ENDROOT
TORSDOF 0
ENDMDL
MODEL 6
REMARK VINA RESULT:      -3.3     12.985     14.489
REMARK  0 active torsions:
REMARK  status: ('A' for Active; 'I' for Inactive)
ROOT
HETATM    1  C1  UNL     1     -34.007  16.495  -3.961  1.00 20.00    -0.080 C 
HETATM    2  C2  UNL     1     -33.018  16.597  -3.064  1.00 20.00     0.015 C 
HETATM    3  C3  UNL     1     -34.485  15.182  -4.525  1.00 20.00     0.043 C 
HETATM    4  C4  UNL     1     -37.086  18.318  -4.449  1.00 20.00     0.002 C 
HETATM    5  C5  UNL     1     -37.032  17.018  -5.227  1.00 20.00     0.006 C 
HETATM    6  C6  UNL     1     -35.790  18.281  -3.652  1.00 20.00     0.014 C 
HETATM    7  C7  UNL     1     -35.584  16.966  -5.734  1.00 20.00     0.006 C 
HETATM    8  C8  UNL     1     -34.748  17.653  -4.608  1.00 20.00    -0.017 C 
HETATM    9  C9  UNL     1     -34.982  15.550  -5.932  1.00 20.00    -0.040 C 
HETATM   10  C10 UNL     1     -33.821  18.739  -5.172  1.00 20.00     0.020 C 
HETATM   11  C11 UNL     1     -33.798  15.593  -6.924  1.00 20.00     0.015 C 
HETATM   12  C12 UNL     1     -35.987  14.517  -6.460  1.00 20.00     0.015 C 
ENDROOT
TORSDOF 0
ENDMDL
MODEL 7
REMARK VINA RESULT:      -3.3     13.143     14.341
REMARK  0 active torsions:
REMARK  status: ('A' for Active; 'I' for Inactive)
ROOT
HETATM    1  C1  UNL     1     -36.109  16.492  -5.654  1.00 20.00    -0.080 C 
HETATM    2  C2  UNL     1     -37.178  16.025  -6.311  1.00 20.00     0.015 C 
HETATM    3  C3  UNL     1     -36.133  17.737  -4.806  1.00 20.00     0.043 C 
HETATM    4  C4  UNL     1     -33.362  14.872  -3.960  1.00 20.00     0.002 C 
HETATM    5  C5  UNL     1     -33.481  16.347  -3.629  1.00 20.00     0.006 C 
HETATM    6  C6  UNL     1     -34.577  14.632  -4.844  1.00 20.00     0.014 C 
HETATM    7  C7  UNL     1     -33.840  16.987  -4.978  1.00 20.00     0.006 C 
HETATM    8  C8  UNL     1     -34.707  15.911  -5.705  1.00 20.00    -0.017 C 
HETATM    9  C9  UNL     1     -34.697  18.278  -4.912  1.00 20.00    -0.040 C 
HETATM   10  C10 UNL     1     -34.202  15.646  -7.131  1.00 20.00     0.020 C 
HETATM   11  C11 UNL     1     -34.533  19.109  -6.204  1.00 20.00     0.015 C 
HETATM   12  C12 UNL     1     -34.353  19.193  -3.729  1.00 20.00     0.015 C 
ENDROOT
TORSDOF 0
ENDMDL
MODEL 8
REMARK VINA RESULT:      -3.3      9.675     12.082
REMARK  0 active torsions:
REMARK  status: ('A' for Active; 'I' for Inactive)
ROOT
HETATM    1  C1  UNL     1     -42.655  13.596   8.178  1.00 20.00    -0.080 C 
HETATM    2  C2  UNL     1     -43.170  12.872   9.180  1.00 20.00     0.015 C 
HETATM    3  C3  UNL     1     -42.944  13.325   6.724  1.00 20.00     0.043 C 
HETATM    4  C4  UNL     1     -41.895  17.109   7.818  1.00 20.00     0.002 C 
HETATM    5  C5  UNL     1     -41.896  16.360   6.499  1.00 20.00     0.006 C 
HETATM    6  C6  UNL     1     -42.338  16.039   8.806  1.00 20.00     0.014 C 
HETATM    7  C7  UNL     1     -41.225  15.023   6.848  1.00 20.00     0.006 C 
HETATM    8  C8  UNL     1     -41.661  14.736   8.319  1.00 20.00    -0.017 C 
HETATM    9  C9  UNL     1     -41.669  13.798   6.006  1.00 20.00    -0.040 C 
HETATM   10  C10 UNL     1     -40.458  14.397   9.211  1.00 20.00     0.020 C 
HETATM   11  C11 UNL     1     -40.592  12.691   6.043  1.00 20.00     0.015 C 
HETATM   12  C12 UNL     1     -41.943  14.124   4.532  1.00 20.00     0.015 C 
ENDROOT
TORSDOF 0
ENDMDL
MODEL 9
REMARK VINA RESULT:      -3.2     13.441     14.828
REMARK  0 active torsions:
REMARK  status: ('A' for Active; 'I' for Inactive)
ROOT
HETATM    1  C1  UNL     1     -34.248  18.032  -5.887  1.00 20.00    -0.080 C 
HETATM    2  C2  UNL     1     -33.722  19.263  -5.900  1.00 20.00     0.015 C 
HETATM    3  C3  UNL     1     -34.576  17.255  -7.135  1.00 20.00     0.043 C 
HETATM    4  C4  UNL     1     -33.789  15.182  -3.717  1.00 20.00     0.002 C 
HETATM    5  C5  UNL     1     -34.492  14.836  -5.015  1.00 20.00     0.006 C 
HETATM    6  C6  UNL     1     -33.451  16.654  -3.904  1.00 20.00     0.014 C 
HETATM    7  C7  UNL     1     -35.436  16.027  -5.237  1.00 20.00     0.006 C 
HETATM    8  C8  UNL     1     -34.666  17.253  -4.651  1.00 20.00    -0.017 C 
HETATM    9  C9  UNL     1     -35.762  16.372  -6.713  1.00 20.00    -0.040 C 
HETATM   10  C10 UNL     1     -35.541  18.061  -3.681  1.00 20.00     0.020 C 
HETATM   11  C11 UNL     1     -37.083  17.167  -6.810  1.00 20.00     0.015 C 
HETATM   12  C12 UNL     1     -35.898  15.143  -7.623  1.00 20.00     0.015 C 
ENDROOT
TORSDOF 0
ENDMDL
