MODEL 1
REMARK VINA RESULT:      -4.3      0.000      0.000
REMARK  1 active torsions:
REMARK  status: ('A' for Active; 'I' for Inactive)
REMARK    1  A    between atoms: C1_1  and  C2_2 
ROOT
HETATM    1  C1  UNL     1     -33.818   7.410   5.153  1.00 20.00     0.432 C 
HETATM    2  F3  UNL     1     -32.471   7.512   5.083  1.00 20.00    -0.167 F 
HETATM    3  F4  UNL     1     -34.170   7.654   6.438  1.00 20.00    -0.167 F 
HETATM    4  F5  UNL     1     -34.339   8.404   4.400  1.00 20.00    -0.167 F 
ENDROOT
BRANCH   1   5
HETATM    5  C2  UNL     1     -34.303   6.046   4.699  1.00 20.00     0.267 C 
HETATM    6 CL6  UNL     1     -34.199   4.871   6.032  1.00 20.00    -0.079 Cl
HETATM    7 CL7  UNL     1     -35.981   6.143   4.112  1.00 20.00    -0.079 Cl
HETATM    8 BR8  UNL     1     -33.174   5.413   3.233  1.00 20.00    -0.040 Br
ENDBRANCH   1   5
TORSDOF 1
ENDMDL
MODEL 2
REMARK VINA RESULT:      -4.2      1.841      2.159
REMARK  1 active torsions:
REMARK  status: ('A' for Active; 'I' for Inactive)
REMARK    1  A    between atoms: C1_1  and  C2_2 
ROOT
HETATM    1  C1  UNL     1     -34.429   5.893   6.344  1.00 20.00     0.432 C 
HETATM    2  F3  UNL     1     -33.333   5.295   6.864  1.00 20.00    -0.167 F 
HETATM    3  F4  UNL     1     -35.507   5.206   6.790  1.00 20.00    -0.167 F 
HETATM    4  F5  UNL     1     -34.500   7.136   6.872  1.00 20.00    -0.167 F 
ENDROOT
BRANCH   1   5
HETATM    5  C2  UNL     1     -34.386   5.927   4.828  1.00 20.00     0.267 C 
HETATM    6 CL6  UNL     1     -33.765   4.387   4.186  1.00 20.00    -0.079 Cl
HETATM    7 CL7  UNL     1     -36.007   6.245   4.164  1.00 20.00    -0.079 Cl
HETATM    8 BR8  UNL     1     -33.191   7.361   4.246  1.00 20.00    -0.040 Br
ENDBRANCH   1   5
TORSDOF 1
ENDMDL
MODEL 3
REMARK VINA RESULT:      -4.2      1.637      2.241
REMARK  1 active torsions:
REMARK  status: ('A' for Active; 'I' for Inactive)
REMARK    1  A    between atoms: C1_1  and  C2_2 
ROOT
HETATM    1  C1  UNL     1     -33.475   7.291   4.642  1.00 20.00     0.432 C 
HETATM    2  F3  UNL     1     -32.935   7.506   5.863  1.00 20.00    -0.167 F 
HETATM    3  F4  UNL     1     -34.240   8.369   4.348  1.00 20.00    -0.167 F 
HETATM    4  F5  UNL     1     -32.460   7.266   3.750  1.00 20.00    -0.167 F 
ENDROOT
BRANCH   1   5
HETATM    5  C2  UNL     1     -34.289   6.012   4.605  1.00 20.00     0.267 C 
HETATM    6 CL6  UNL     1     -35.948   6.342   4.050  1.00 20.00    -0.079 Cl
HETATM    7 CL7  UNL     1     -33.524   4.815   3.531  1.00 20.00    -0.079 Cl
HETATM    8 BR8  UNL     1     -34.383   5.251   6.404  1.00 20.00    -0.040 Br
ENDBRANCH   1   5
TORSDOF 1
ENDMDL
MODEL 4
REMARK VINA RESULT:      -4.1      1.894      2.496
REMARK  1 active torsions:
REMARK  status: ('A' for Active; 'I' for Inactive)
REMARK    1  A    between atoms: C1_1  and  C2_2 
ROOT
HETATM    1  C1  UNL     1     -34.210   5.742   6.044  1.00 20.00     0.432 C 
HETATM    2  F3  UNL     1     -33.276   6.406   6.762  1.00 20.00    -0.167 F 
HETATM    3  F4  UNL     1     -33.833   4.442   6.003  1.00 20.00    -0.167 F 
HETATM    4  F5  UNL     1     -35.370   5.800   6.737  1.00 20.00    -0.167 F 
ENDROOT
BRANCH   1   5
HETATM    5  C2  UNL     1     -34.360   6.316   4.648  1.00 20.00     0.267 C 
HETATM    6 CL6  UNL     1     -36.052   6.212   4.106  1.00 20.00    -0.079 Cl
HETATM    7 CL7  UNL     1     -33.820   8.012   4.609  1.00 20.00    -0.079 Cl
HETATM    8 BR8  UNL     1     -33.252   5.290   3.404  1.00 20.00    -0.040 Br
ENDBRANCH   1   5
TORSDOF 1
ENDMDL
MODEL 5
REMARK VINA RESULT:      -4.1      1.879      2.644
REMARK  1 active torsions:
REMARK  status: ('A' for Active; 'I' for Inactive)
REMARK    1  A    between atoms: C1_1  and  C2_2 
ROOT
HETATM    1  C1  UNL     1     -34.208   5.767   6.062  1.00 20.00     0.432 C 
HETATM    2  F3  UNL     1     -35.368   5.824   6.757  1.00 20.00    -0.167 F 
HETATM    3  F4  UNL     1     -33.284   6.457   6.773  1.00 20.00    -0.167 F 
HETATM    4  F5  UNL     1     -33.813   4.475   6.040  1.00 20.00    -0.167 F 
ENDROOT
BRANCH   1   5
HETATM    5  C2  UNL     1     -34.362   6.334   4.664  1.00 20.00     0.267 C 
HETATM    6 CL6  UNL     1     -36.055   6.217   4.124  1.00 20.00    -0.079 Cl
HETATM    7 CL7  UNL     1     -33.832   8.033   4.616  1.00 20.00    -0.079 Cl
HETATM    8 BR8  UNL     1     -33.250   5.308   3.424  1.00 20.00    -0.040 Br
ENDBRANCH   1   5
TORSDOF 1
ENDMDL
MODEL 6
REMARK VINA RESULT:      -3.6      8.459      9.291
REMARK  1 active torsions:
REMARK  status: ('A' for Active; 'I' for Inactive)
REMARK    1  A    between atoms: C1_1  and  C2_2 
ROOT
HETATM    1  C1  UNL     1     -40.957   6.488   0.026  1.00 20.00     0.432 C 
HETATM    2  F3  UNL     1     -40.225   6.878   1.094  1.00 20.00    -0.167 F 
HETATM    3  F4  UNL     1     -41.145   7.582  -0.750  1.00 20.00    -0.167 F 
HETATM    4  F5  UNL     1     -40.205   5.618  -0.685  1.00 20.00    -0.167 F 
ENDROOT
BRANCH   1   5
HETATM    5  C2  UNL     1     -42.280   5.876   0.445  1.00 20.00     0.267 C 
HETATM    6 CL6  UNL     1     -43.137   5.212  -0.967  1.00 20.00    -0.079 Cl
HETATM    7 CL7  UNL     1     -42.021   4.591   1.649  1.00 20.00    -0.079 Cl
HETATM    8 BR8  UNL     1     -43.406   7.257   1.252  1.00 20.00    -0.040 Br
ENDBRANCH   1   5
TORSDOF 1
ENDMDL
MODEL 7
REMARK VINA RESULT:      -3.5     15.917     16.410
REMARK  1 active torsions:
REMARK  status: ('A' for Active; 'I' for Inactive)
REMARK    1  A    between atoms: C1_1  and  C2_2 
ROOT
HETATM    1  C1  UNL     1     -24.261  16.785  11.418  1.00 20.00     0.432 C 
HETATM    2  F3  UNL     1     -23.532  16.105  12.332  1.00 20.00    -0.167 F 
HETATM    3  F4  UNL     1     -23.988  16.242  10.207  1.00 20.00    -0.167 F 
HETATM    4  F5  UNL     1     -25.565  16.543  11.680  1.00 20.00    -0.167 F 
ENDROOT
BRANCH   1   5
HETATM    5  C2  UNL     1     -23.948  18.269  11.439  1.00 20.00     0.267 C 
HETATM    6 CL6  UNL     1     -25.273  19.176  12.207  1.00 20.00    -0.079 Cl
HETATM    7 CL7  UNL     1     -22.426  18.573  12.313  1.00 20.00    -0.079 Cl
HETATM    8 BR8  UNL     1     -23.743  18.914   9.604  1.00 20.00    -0.040 Br
ENDBRANCH   1   5
TORSDOF 1
ENDMDL
MODEL 8
REMARK VINA RESULT:      -3.5      8.911      9.396
REMARK  1 active torsions:
REMARK  status: ('A' for Active; 'I' for Inactive)
REMARK    1  A    between atoms: C1_1  and  C2_2 
ROOT
HETATM    1  C1  UNL     1     -40.872   6.478  -0.086  1.00 20.00     0.432 C 
HETATM    2  F3  UNL     1     -40.328   6.679   1.136  1.00 20.00    -0.167 F 
HETATM    3  F4  UNL     1     -40.631   7.593  -0.817  1.00 20.00    -0.167 F 
HETATM    4  F5  UNL     1     -40.195   5.464  -0.669  1.00 20.00    -0.167 F 
ENDROOT
BRANCH   1   5
HETATM    5  C2  UNL     1     -42.358   6.187   0.001  1.00 20.00     0.267 C 
HETATM    6 CL6  UNL     1     -43.299   7.693  -0.125  1.00 20.00    -0.079 Cl
HETATM    7 CL7  UNL     1     -42.850   5.061  -1.288  1.00 20.00    -0.079 Cl
HETATM    8 BR8  UNL     1     -42.755   5.357   1.727  1.00 20.00    -0.040 Br
ENDBRANCH   1   5
TORSDOF 1
ENDMDL
MODEL 9
REMARK VINA RESULT:      -3.5      1.621      2.377
REMARK  1 active torsions:
REMARK  status: ('A' for Active; 'I' for Inactive)
REMARK    1  A    between atoms: C1_1  and  C2_2 
ROOT
HETATM    1  C1  UNL     1     -33.413   7.281   4.773  1.00 20.00     0.432 C 
HETATM    2  F3  UNL     1     -34.206   8.335   4.474  1.00 20.00    -0.167 F 
HETATM    3  F4  UNL     1     -32.330   7.355   3.963  1.00 20.00    -0.167 F 
HETATM    4  F5  UNL     1     -32.976   7.449   6.041  1.00 20.00    -0.167 F 
ENDROOT
BRANCH   1   5
HETATM    5  C2  UNL     1     -34.141   5.962   4.598  1.00 20.00     0.267 C 
HETATM    6 CL6  UNL     1     -33.349   4.970   3.350  1.00 20.00    -0.079 Cl
HETATM    7 CL7  UNL     1     -34.190   5.066   6.136  1.00 20.00    -0.079 Cl
HETATM    8 BR8  UNL     1     -35.981   6.308   4.030  1.00 20.00    -0.040 Br
ENDBRANCH   1   5
TORSDOF 1
ENDMDL
