MODEL 1
REMARK VINA RESULT:      -6.9      0.000      0.000
REMARK  0 active torsions:
REMARK  status: ('A' for Active; 'I' for Inactive)
ROOT
HETATM    1  C1  UNL     1     -32.638   8.622   4.515  1.00 20.00    -0.021 C 
HETATM    2  C2  UNL     1     -33.666   7.246   6.489  1.00 20.00    -0.021 C 
HETATM    3  C3  UNL     1     -32.164   7.773   3.576  1.00 20.00    -0.025 C 
HETATM    4  C4  UNL     1     -34.163   5.997   6.344  1.00 20.00    -0.025 C 
HETATM    5  C5  UNL     1     -33.276   5.270   3.007  1.00 20.00     0.009 C 
HETATM    6  C6  UNL     1     -34.218   4.609   4.069  1.00 20.00     0.009 C 
HETATM    7  C7  UNL     1     -33.848   8.075   5.247  1.00 20.00     0.035 C 
HETATM    8  C8  UNL     1     -32.811   6.462   3.799  1.00 20.00     0.013 C 
HETATM    9  C9  UNL     1     -34.757   5.756   4.973  1.00 20.00     0.013 C 
HETATM   10  C10 UNL     1     -34.187   6.968   4.277  1.00 20.00     0.012 C 
ENDROOT
TORSDOF 0
ENDMDL
MODEL 2
REMARK VINA RESULT:      -6.6      0.616      3.137
REMARK  0 active torsions:
REMARK  status: ('A' for Active; 'I' for Inactive)
ROOT
HETATM    1  C1  UNL     1     -34.934   5.802   6.206  1.00 20.00    -0.021 C 
HETATM    2  C2  UNL     1     -33.894   4.575   4.142  1.00 20.00    -0.021 C 
HETATM    3  C3  UNL     1     -34.123   6.816   6.580  1.00 20.00    -0.025 C 
HETATM    4  C4  UNL     1     -33.056   5.173   3.267  1.00 20.00    -0.025 C 
HETATM    5  C5  UNL     1     -32.538   8.301   4.817  1.00 20.00     0.009 C 
HETATM    6  C6  UNL     1     -32.227   7.703   3.403  1.00 20.00     0.009 C 
HETATM    7  C7  UNL     1     -34.898   5.539   4.713  1.00 20.00     0.035 C 
HETATM    8  C8  UNL     1     -33.240   7.121   5.433  1.00 20.00     0.013 C 
HETATM    9  C9  UNL     1     -33.335   6.652   3.102  1.00 20.00     0.013 C 
HETATM   10  C10 UNL     1     -34.241   6.832   4.296  1.00 20.00     0.012 C 
ENDROOT
TORSDOF 0
ENDMDL
MODEL 3
REMARK VINA RESULT:      -6.1      0.752      3.479
REMARK  0 active torsions:
REMARK  status: ('A' for Active; 'I' for Inactive)
ROOT
HETATM    1  C1  UNL     1     -34.811   5.128   5.404  1.00 20.00    -0.021 C 
HETATM    2  C2  UNL     1     -33.220   5.409   3.346  1.00 20.00    -0.021 C 
HETATM    3  C3  UNL     1     -34.383   5.920   6.413  1.00 20.00    -0.025 C 
HETATM    4  C4  UNL     1     -32.497   6.527   3.113  1.00 20.00    -0.025 C 
HETATM    5  C5  UNL     1     -33.108   8.384   6.052  1.00 20.00     0.009 C 
HETATM    6  C6  UNL     1     -32.471   8.701   4.657  1.00 20.00     0.009 C 
HETATM    7  C7  UNL     1     -34.523   5.711   4.035  1.00 20.00     0.035 C 
HETATM    8  C8  UNL     1     -33.500   6.949   5.822  1.00 20.00     0.013 C 
HETATM    9  C9  UNL     1     -33.177   7.782   3.616  1.00 20.00     0.013 C 
HETATM   10  C10 UNL     1     -34.231   7.125   4.475  1.00 20.00     0.012 C 
ENDROOT
TORSDOF 0
ENDMDL
MODEL 4
REMARK VINA RESULT:      -5.9      0.891      1.756
REMARK  0 active torsions:
REMARK  status: ('A' for Active; 'I' for Inactive)
ROOT
HETATM    1  C1  UNL     1     -32.493   7.235   2.769  1.00 20.00    -0.021 C 
HETATM    2  C2  UNL     1     -32.542   8.158   5.216  1.00 20.00    -0.021 C 
HETATM    3  C3  UNL     1     -32.746   5.907   2.785  1.00 20.00    -0.025 C 
HETATM    4  C4  UNL     1     -33.250   7.582   6.214  1.00 20.00    -0.025 C 
HETATM    5  C5  UNL     1     -34.408   4.640   4.645  1.00 20.00     0.009 C 
HETATM    6  C6  UNL     1     -34.743   5.385   5.981  1.00 20.00     0.009 C 
HETATM    7  C7  UNL     1     -33.206   7.984   3.877  1.00 20.00     0.035 C 
HETATM    8  C8  UNL     1     -33.393   5.597   4.078  1.00 20.00     0.013 C 
HETATM    9  C9  UNL     1     -34.511   6.904   5.723  1.00 20.00     0.013 C 
HETATM   10  C10 UNL     1     -34.194   6.905   4.247  1.00 20.00     0.012 C 
ENDROOT
TORSDOF 0
ENDMDL
MODEL 5
REMARK VINA RESULT:      -5.8      0.809      2.664
REMARK  0 active torsions:
REMARK  status: ('A' for Active; 'I' for Inactive)
ROOT
HETATM    1  C1  UNL     1     -34.776   5.924   6.133  1.00 20.00    -0.021 C 
HETATM    2  C2  UNL     1     -34.154   8.380   5.478  1.00 20.00    -0.021 C 
HETATM    3  C3  UNL     1     -34.774   5.150   5.025  1.00 20.00    -0.025 C 
HETATM    4  C4  UNL     1     -33.411   8.694   4.394  1.00 20.00    -0.025 C 
HETATM    5  C5  UNL     1     -33.091   5.548   2.826  1.00 20.00     0.009 C 
HETATM    6  C6  UNL     1     -32.408   6.946   2.648  1.00 20.00     0.009 C 
HETATM    7  C7  UNL     1     -33.765   7.051   6.066  1.00 20.00     0.035 C 
HETATM    8  C8  UNL     1     -33.990   5.861   3.992  1.00 20.00     0.013 C 
HETATM    9  C9  UNL     1     -32.395   7.626   4.049  1.00 20.00     0.013 C 
HETATM   10  C10 UNL     1     -32.945   6.520   4.916  1.00 20.00     0.012 C 
ENDROOT
TORSDOF 0
ENDMDL
MODEL 6
REMARK VINA RESULT:      -4.9      0.861      2.762
REMARK  0 active torsions:
REMARK  status: ('A' for Active; 'I' for Inactive)
ROOT
HETATM    1  C1  UNL     1     -32.949   5.380   2.707  1.00 20.00    -0.021 C 
HETATM    2  C2  UNL     1     -35.067   5.431   4.243  1.00 20.00    -0.021 C 
HETATM    3  C3  UNL     1     -32.436   6.627   2.609  1.00 20.00    -0.025 C 
HETATM    4  C4  UNL     1     -35.264   6.357   5.207  1.00 20.00    -0.025 C 
HETATM    5  C5  UNL     1     -32.551   8.544   4.642  1.00 20.00     0.009 C 
HETATM    6  C6  UNL     1     -33.600   8.358   5.790  1.00 20.00     0.009 C 
HETATM    7  C7  UNL     1     -33.609   5.118   4.047  1.00 20.00     0.035 C 
HETATM    8  C8  UNL     1     -32.970   7.414   3.741  1.00 20.00     0.013 C 
HETATM    9  C9  UNL     1     -33.971   6.845   5.825  1.00 20.00     0.013 C 
HETATM   10  C10 UNL     1     -33.018   6.288   4.795  1.00 20.00     0.012 C 
ENDROOT
TORSDOF 0
ENDMDL
MODEL 7
REMARK VINA RESULT:      -4.8      0.909      2.708
REMARK  0 active torsions:
REMARK  status: ('A' for Active; 'I' for Inactive)
ROOT
HETATM    1  C1  UNL     1     -33.543   8.440   5.724  1.00 20.00    -0.021 C 
HETATM    2  C2  UNL     1     -32.747   9.024   3.300  1.00 20.00    -0.021 C 
HETATM    3  C3  UNL     1     -34.284   7.310   5.692  1.00 20.00    -0.025 C 
HETATM    4  C4  UNL     1     -32.591   8.100   2.327  1.00 20.00    -0.025 C 
HETATM    5  C5  UNL     1     -33.883   5.210   3.889  1.00 20.00     0.009 C 
HETATM    6  C6  UNL     1     -33.059   5.487   2.585  1.00 20.00     0.009 C 
HETATM    7  C7  UNL     1     -32.457   8.462   4.666  1.00 20.00     0.035 C 
HETATM    8  C8  UNL     1     -33.973   6.612   4.426  1.00 20.00     0.013 C 
HETATM    9  C9  UNL     1     -32.182   6.744   2.863  1.00 20.00     0.013 C 
HETATM   10  C10 UNL     1     -32.481   6.992   4.321  1.00 20.00     0.012 C 
ENDROOT
TORSDOF 0
ENDMDL
MODEL 8
REMARK VINA RESULT:      -4.5      0.829      2.550
REMARK  0 active torsions:
REMARK  status: ('A' for Active; 'I' for Inactive)
ROOT
HETATM    1  C1  UNL     1     -32.533   8.779   4.467  1.00 20.00    -0.021 C 
HETATM    2  C2  UNL     1     -32.563   7.146   2.423  1.00 20.00    -0.021 C 
HETATM    3  C3  UNL     1     -33.621   8.554   5.237  1.00 20.00    -0.025 C 
HETATM    4  C4  UNL     1     -33.184   5.946   2.440  1.00 20.00    -0.025 C 
HETATM    5  C5  UNL     1     -34.837   6.055   5.557  1.00 20.00     0.009 C 
HETATM    6  C6  UNL     1     -34.540   4.936   4.502  1.00 20.00     0.009 C 
HETATM    7  C7  UNL     1     -32.030   7.527   3.778  1.00 20.00     0.035 C 
HETATM    8  C8  UNL     1     -34.133   7.209   4.895  1.00 20.00     0.013 C 
HETATM    9  C9  UNL     1     -33.193   5.308   3.813  1.00 20.00     0.013 C 
HETATM   10  C10 UNL     1     -32.781   6.520   4.614  1.00 20.00     0.012 C 
ENDROOT
TORSDOF 0
ENDMDL
MODEL 9
REMARK VINA RESULT:      -4.5     15.735     16.541
REMARK  0 active torsions:
REMARK  status: ('A' for Active; 'I' for Inactive)
ROOT
HETATM    1  C1  UNL     1     -25.363  18.498  12.332  1.00 20.00    -0.021 C 
HETATM    2  C2  UNL     1     -22.758  18.358  12.136  1.00 20.00    -0.021 C 
HETATM    3  C3  UNL     1     -25.857  19.173  11.270  1.00 20.00    -0.025 C 
HETATM    4  C4  UNL     1     -22.097  18.408  10.958  1.00 20.00    -0.025 C 
HETATM    5  C5  UNL     1     -24.721  19.140   8.714  1.00 20.00     0.009 C 
HETATM    6  C6  UNL     1     -23.232  18.680   8.560  1.00 20.00     0.009 C 
HETATM    7  C7  UNL     1     -24.110  17.713  12.000  1.00 20.00     0.035 C 
HETATM    8  C8  UNL     1     -24.820  19.156  10.215  1.00 20.00     0.013 C 
HETATM    9  C9  UNL     1     -22.893  17.818   9.813  1.00 20.00     0.013 C 
HETATM   10  C10 UNL     1     -24.237  17.755  10.497  1.00 20.00     0.012 C 
ENDROOT
TORSDOF 0
ENDMDL
