MODEL 1
REMARK VINA RESULT:      -4.5      0.000      0.000
REMARK  0 active torsions:
REMARK  status: ('A' for Active; 'I' for Inactive)
ROOT
HETATM    1  C1  UNL     1     -35.661  17.998  -4.909  1.00 20.00    -0.023 C 
HETATM    2  C2  UNL     1     -34.740  17.615  -4.011  1.00 20.00    -0.080 C 
HETATM    3  C3  UNL     1     -35.956  15.007  -6.318  1.00 20.00     0.127 C 
HETATM    4  C4  UNL     1     -35.783  17.541  -6.330  1.00 20.00     0.035 C 
HETATM    5  C5  UNL     1     -34.773  18.137  -2.592  1.00 20.00     0.034 C 
HETATM    6  C6  UNL     1     -36.694  16.325  -6.458  1.00 20.00     0.082 C 
HETATM    7  C7  UNL     1     -35.196  14.730  -5.036  1.00 20.00     0.079 C 
HETATM    8  C8  UNL     1     -33.569  17.485  -1.927  1.00 20.00     0.005 C 
HETATM    9  C9  UNL     1     -33.812  15.375  -5.067  1.00 20.00     0.016 C 
HETATM   10  C10 UNL     1     -33.386  16.186  -2.697  1.00 20.00     0.009 C 
HETATM   11  C11 UNL     1     -33.628  16.598  -4.157  1.00 20.00     0.014 C 
HETATM   12  O12 UNL     1     -35.984  14.171  -7.224  1.00 20.00    -0.298 OA
ENDROOT
TORSDOF 0
ENDMDL
MODEL 2
REMARK VINA RESULT:      -4.3     11.884     13.478
REMARK  0 active torsions:
REMARK  status: ('A' for Active; 'I' for Inactive)
ROOT
HETATM    1  C1  UNL     1     -32.993   5.550   2.713  1.00 20.00    -0.023 C 
HETATM    2  C2  UNL     1     -32.628   6.838   2.626  1.00 20.00    -0.080 C 
HETATM    3  C3  UNL     1     -34.665   5.911   5.558  1.00 20.00     0.127 C 
HETATM    4  C4  UNL     1     -33.095   4.720   3.956  1.00 20.00     0.035 C 
HETATM    5  C5  UNL     1     -32.614   7.555   1.295  1.00 20.00     0.034 C 
HETATM    6  C6  UNL     1     -34.492   4.779   4.564  1.00 20.00     0.082 C 
HETATM    7  C7  UNL     1     -34.439   7.334   5.087  1.00 20.00     0.079 C 
HETATM    8  C8  UNL     1     -32.131   8.958   1.632  1.00 20.00     0.005 C 
HETATM    9  C9  UNL     1     -32.954   7.691   5.109  1.00 20.00     0.016 C 
HETATM   10  C10 UNL     1     -32.578   9.162   3.072  1.00 20.00     0.009 C 
HETATM   11  C11 UNL     1     -32.278   7.809   3.734  1.00 20.00     0.014 C 
HETATM   12  O12 UNL     1     -34.997   5.681   6.723  1.00 20.00    -0.298 OA
ENDROOT
TORSDOF 0
ENDMDL
MODEL 3
REMARK VINA RESULT:      -4.2      1.227      1.438
REMARK  0 active torsions:
REMARK  status: ('A' for Active; 'I' for Inactive)
ROOT
HETATM    1  C1  UNL     1     -34.911  18.624  -4.512  1.00 20.00    -0.023 C 
HETATM    2  C2  UNL     1     -34.395  18.290  -3.319  1.00 20.00    -0.080 C 
HETATM    3  C3  UNL     1     -34.491  15.621  -5.864  1.00 20.00     0.127 C 
HETATM    4  C4  UNL     1     -34.449  18.161  -5.860  1.00 20.00     0.035 C 
HETATM    5  C5  UNL     1     -35.001  18.809  -2.036  1.00 20.00     0.034 C 
HETATM    6  C6  UNL     1     -35.179  16.899  -6.306  1.00 20.00     0.082 C 
HETATM    7  C7  UNL     1     -34.278  15.384  -4.382  1.00 20.00     0.079 C 
HETATM    8  C8  UNL     1     -34.121  18.221  -0.942  1.00 20.00     0.005 C 
HETATM    9  C9  UNL     1     -33.022  16.100  -3.886  1.00 20.00     0.016 C 
HETATM   10  C10 UNL     1     -33.591  16.933  -1.554  1.00 20.00     0.009 C 
HETATM   11  C11 UNL     1     -33.266  17.332  -3.001  1.00 20.00     0.014 C 
HETATM   12  O12 UNL     1     -34.125  14.785  -6.692  1.00 20.00    -0.298 OA
ENDROOT
TORSDOF 0
ENDMDL
MODEL 4
REMARK VINA RESULT:      -4.1      2.397      4.666
REMARK  0 active torsions:
REMARK  status: ('A' for Active; 'I' for Inactive)
ROOT
HETATM    1  C1  UNL     1     -33.735  15.353  -3.879  1.00 20.00    -0.023 C 
HETATM    2  C2  UNL     1     -34.473  15.674  -4.953  1.00 20.00    -0.080 C 
HETATM    3  C3  UNL     1     -34.259  18.222  -2.294  1.00 20.00     0.127 C 
HETATM    4  C4  UNL     1     -32.848  16.264  -3.085  1.00 20.00     0.035 C 
HETATM    5  C5  UNL     1     -35.355  14.647  -5.625  1.00 20.00     0.034 C 
HETATM    6  C6  UNL     1     -33.595  16.910  -1.923  1.00 20.00     0.082 C 
HETATM    7  C7  UNL     1     -35.289  18.229  -3.406  1.00 20.00     0.079 C 
HETATM    8  C8  UNL     1     -35.989  15.402  -6.785  1.00 20.00     0.005 C 
HETATM    9  C9  UNL     1     -34.618  18.310  -4.776  1.00 20.00     0.016 C 
HETATM   10  C10 UNL     1     -36.020  16.846  -6.307  1.00 20.00     0.009 C 
HETATM   11  C11 UNL     1     -34.662  17.023  -5.614  1.00 20.00     0.014 C 
HETATM   12  O12 UNL     1     -33.977  19.261  -1.693  1.00 20.00    -0.298 OA
ENDROOT
TORSDOF 0
ENDMDL
MODEL 5
REMARK VINA RESULT:      -4.0      1.209      2.626
REMARK  0 active torsions:
REMARK  status: ('A' for Active; 'I' for Inactive)
ROOT
HETATM    1  C1  UNL     1     -33.333  15.770  -3.413  1.00 20.00    -0.023 C 
HETATM    2  C2  UNL     1     -33.774  17.016  -3.179  1.00 20.00    -0.080 C 
HETATM    3  C3  UNL     1     -34.541  15.608  -6.501  1.00 20.00     0.127 C 
HETATM    4  C4  UNL     1     -34.031  14.694  -4.187  1.00 20.00     0.035 C 
HETATM    5  C5  UNL     1     -32.930  18.008  -2.412  1.00 20.00     0.034 C 
HETATM    6  C6  UNL     1     -33.646  14.716  -5.662  1.00 20.00     0.082 C 
HETATM    7  C7  UNL     1     -34.635  17.080  -6.152  1.00 20.00     0.079 C 
HETATM    8  C8  UNL     1     -33.790  19.263  -2.354  1.00 20.00     0.005 C 
HETATM    9  C9  UNL     1     -35.642  17.315  -5.028  1.00 20.00     0.016 C 
HETATM   10  C10 UNL     1     -34.651  19.172  -3.605  1.00 20.00     0.009 C 
HETATM   11  C11 UNL     1     -35.041  17.688  -3.664  1.00 20.00     0.014 C 
HETATM   12  O12 UNL     1     -35.169  15.148  -7.457  1.00 20.00    -0.298 OA
ENDROOT
TORSDOF 0
ENDMDL
MODEL 6
REMARK VINA RESULT:      -3.9     12.094     13.304
REMARK  0 active torsions:
REMARK  status: ('A' for Active; 'I' for Inactive)
ROOT
HETATM    1  C1  UNL     1     -41.896  14.185   4.770  1.00 20.00    -0.023 C 
HETATM    2  C2  UNL     1     -41.012  13.301   5.258  1.00 20.00    -0.080 C 
HETATM    3  C3  UNL     1     -41.627  16.302   7.313  1.00 20.00     0.127 C 
HETATM    4  C4  UNL     1     -42.894  14.990   5.546  1.00 20.00     0.035 C 
HETATM    5  C5  UNL     1     -40.035  12.594   4.347  1.00 20.00     0.034 C 
HETATM    6  C6  UNL     1     -42.327  16.341   5.968  1.00 20.00     0.082 C 
HETATM    7  C7  UNL     1     -40.447  15.367   7.493  1.00 20.00     0.079 C 
HETATM    8  C8  UNL     1     -39.246  11.685   5.279  1.00 20.00     0.005 C 
HETATM    9  C9  UNL     1     -40.914  13.950   7.821  1.00 20.00     0.016 C 
HETATM   10  C10 UNL     1     -39.295  12.405   6.618  1.00 20.00     0.009 C 
HETATM   11  C11 UNL     1     -40.740  12.917   6.697  1.00 20.00     0.014 C 
HETATM   12  O12 UNL     1     -42.000  17.027   8.238  1.00 20.00    -0.298 OA
ENDROOT
TORSDOF 0
ENDMDL
MODEL 7
REMARK VINA RESULT:      -3.8      2.349      4.078
REMARK  0 active torsions:
REMARK  status: ('A' for Active; 'I' for Inactive)
ROOT
HETATM    1  C1  UNL     1     -35.287  18.186  -5.257  1.00 20.00    -0.023 C 
HETATM    2  C2  UNL     1     -34.931  17.105  -5.968  1.00 20.00    -0.080 C 
HETATM    3  C3  UNL     1     -33.742  17.231  -2.478  1.00 20.00     0.127 C 
HETATM    4  C4  UNL     1     -35.661  18.233  -3.807  1.00 20.00     0.035 C 
HETATM    5  C5  UNL     1     -34.537  17.226  -7.423  1.00 20.00     0.034 C 
HETATM    6  C6  UNL     1     -34.451  18.497  -2.918  1.00 20.00     0.082 C 
HETATM    7  C7  UNL     1     -33.187  16.301  -3.540  1.00 20.00     0.079 C 
HETATM    8  C8  UNL     1     -34.233  15.796  -7.847  1.00 20.00     0.005 C 
HETATM    9  C9  UNL     1     -34.274  15.373  -4.080  1.00 20.00     0.016 C 
HETATM   10  C10 UNL     1     -33.783  15.122  -6.560  1.00 20.00     0.009 C 
HETATM   11  C11 UNL     1     -34.755  15.674  -5.508  1.00 20.00     0.014 C 
HETATM   12  O12 UNL     1     -33.607  16.968  -1.282  1.00 20.00    -0.298 OA
ENDROOT
TORSDOF 0
ENDMDL
MODEL 8
REMARK VINA RESULT:      -3.7      1.745      3.709
REMARK  0 active torsions:
REMARK  status: ('A' for Active; 'I' for Inactive)
ROOT
HETATM    1  C1  UNL     1     -33.783  18.138  -4.469  1.00 20.00    -0.023 C 
HETATM    2  C2  UNL     1     -34.419  18.251  -5.646  1.00 20.00    -0.080 C 
HETATM    3  C3  UNL     1     -33.959  14.826  -4.355  1.00 20.00     0.127 C 
HETATM    4  C4  UNL     1     -34.079  17.164  -3.370  1.00 20.00     0.035 C 
HETATM    5  C5  UNL     1     -33.974  19.263  -6.677  1.00 20.00     0.034 C 
HETATM    6  C6  UNL     1     -33.266  15.882  -3.516  1.00 20.00     0.082 C 
HETATM    7  C7  UNL     1     -34.329  15.159  -5.787  1.00 20.00     0.079 C 
HETATM    8  C8  UNL     1     -34.951  19.077  -7.829  1.00 20.00     0.005 C 
HETATM    9  C9  UNL     1     -35.653  15.919  -5.851  1.00 20.00     0.016 C 
HETATM   10  C10 UNL     1     -35.371  17.619  -7.718  1.00 20.00     0.009 C 
HETATM   11  C11 UNL     1     -35.546  17.410  -6.207  1.00 20.00     0.014 C 
HETATM   12  O12 UNL     1     -34.206  13.713  -3.887  1.00 20.00    -0.298 OA
ENDROOT
TORSDOF 0
ENDMDL
MODEL 9
REMARK VINA RESULT:      -3.7      1.862      2.949
REMARK  0 active torsions:
REMARK  status: ('A' for Active; 'I' for Inactive)
ROOT
HETATM    1  C1  UNL     1     -35.835  16.809  -5.414  1.00 20.00    -0.023 C 
HETATM    2  C2  UNL     1     -35.848  17.736  -4.444  1.00 20.00    -0.080 C 
HETATM    3  C3  UNL     1     -33.186  15.191  -4.239  1.00 20.00     0.127 C 
HETATM    4  C4  UNL     1     -34.632  16.199  -6.067  1.00 20.00     0.035 C 
HETATM    5  C5  UNL     1     -37.151  18.226  -3.853  1.00 20.00     0.034 C 
HETATM    6  C6  UNL     1     -34.182  14.930  -5.351  1.00 20.00     0.082 C 
HETATM    7  C7  UNL     1     -33.592  16.100  -3.095  1.00 20.00     0.079 C 
HETATM    8  C8  UNL     1     -36.727  19.262  -2.822  1.00 20.00     0.005 C 
HETATM    9  C9  UNL     1     -33.396  17.569  -3.465  1.00 20.00     0.016 C 
HETATM   10  C10 UNL     1     -35.341  18.805  -2.394  1.00 20.00     0.009 C 
HETATM   11  C11 UNL     1     -34.684  18.370  -3.712  1.00 20.00     0.014 C 
HETATM   12  O12 UNL     1     -32.071  14.664  -4.256  1.00 20.00    -0.298 OA
ENDROOT
TORSDOF 0
ENDMDL
