MODEL 1
REMARK VINA RESULT:      -4.0      0.000      0.000
REMARK  1 active torsions:
REMARK  status: ('A' for Active; 'I' for Inactive)
REMARK    1  A    between atoms: C4_4  and  C5_5 
ROOT
HETATM    1  C1  UNL     1     -33.662   7.124   4.835  1.00 20.00     0.069 C 
HETATM    2  C2  UNL     1     -34.626   5.437   6.329  1.00 20.00     0.032 C 
HETATM    3  C3  UNL     1     -35.848   6.138   4.265  1.00 20.00     0.032 C 
HETATM    4  C5  UNL     1     -34.456   5.873   4.863  1.00 20.00     0.054 C 
HETATM    5  N6  UNL     1     -33.039   8.103   4.813  1.00 20.00    -0.196 NA
ENDROOT
BRANCH   4   6
HETATM    6  C4  UNL     1     -33.716   4.749   4.106  1.00 20.00     0.138 C 
HETATM    7 CL7  UNL     1     -32.902   5.299   2.615  1.00 20.00    -0.129 Cl
ENDBRANCH   4   6
TORSDOF 1
ENDMDL
MODEL 2
REMARK VINA RESULT:      -3.7      1.895      2.629
REMARK  1 active torsions:
REMARK  status: ('A' for Active; 'I' for Inactive)
REMARK    1  A    between atoms: C4_4  and  C5_5 
ROOT
HETATM    1  C1  UNL     1     -33.535   5.494   3.595  1.00 20.00     0.069 C 
HETATM    2  C2  UNL     1     -35.793   6.193   4.247  1.00 20.00     0.032 C 
HETATM    3  C3  UNL     1     -34.329   4.983   5.872  1.00 20.00     0.032 C 
HETATM    4  C5  UNL     1     -34.341   6.010   4.727  1.00 20.00     0.054 C 
HETATM    5  N6  UNL     1     -32.904   5.092   2.708  1.00 20.00    -0.196 NA
ENDROOT
BRANCH   4   6
HETATM    6  C4  UNL     1     -33.806   7.383   5.187  1.00 20.00     0.138 C 
HETATM    7 CL7  UNL     1     -32.414   7.970   4.235  1.00 20.00    -0.129 Cl
ENDBRANCH   4   6
TORSDOF 1
ENDMDL
MODEL 3
REMARK VINA RESULT:      -3.3      1.983      2.577
REMARK  1 active torsions:
REMARK  status: ('A' for Active; 'I' for Inactive)
REMARK    1  A    between atoms: C4_4  and  C5_5 
ROOT
HETATM    1  C1  UNL     1     -33.403   6.707   4.165  1.00 20.00     0.069 C 
HETATM    2  C2  UNL     1     -35.763   6.045   4.170  1.00 20.00     0.032 C 
HETATM    3  C3  UNL     1     -33.967   4.309   4.248  1.00 20.00     0.032 C 
HETATM    4  C5  UNL     1     -34.361   5.720   4.716  1.00 20.00     0.054 C 
HETATM    5  N6  UNL     1     -32.653   7.481   3.735  1.00 20.00    -0.196 NA
ENDROOT
BRANCH   4   6
HETATM    6  C4  UNL     1     -34.407   5.816   6.256  1.00 20.00     0.138 C 
HETATM    7 CL7  UNL     1     -34.187   7.474   6.881  1.00 20.00    -0.129 Cl
ENDBRANCH   4   6
TORSDOF 1
ENDMDL
MODEL 4
REMARK VINA RESULT:      -3.2     13.042     13.953
REMARK  1 active torsions:
REMARK  status: ('A' for Active; 'I' for Inactive)
REMARK    1  A    between atoms: C4_4  and  C5_5 
ROOT
HETATM    1  C1  UNL     1     -31.756  18.519  -0.923  1.00 20.00     0.069 C 
HETATM    2  C2  UNL     1     -32.872  19.217  -2.990  1.00 20.00     0.032 C 
HETATM    3  C3  UNL     1     -33.310  16.954  -2.024  1.00 20.00     0.032 C 
HETATM    4  C5  UNL     1     -33.027  18.425  -1.679  1.00 20.00     0.054 C 
HETATM    5  N6  UNL     1     -30.761  18.592  -0.330  1.00 20.00    -0.196 NA
ENDROOT
BRANCH   4   6
HETATM    6  C4  UNL     1     -34.182  19.052  -0.868  1.00 20.00     0.138 C 
HETATM    7 CL7  UNL     1     -34.237  18.523   0.836  1.00 20.00    -0.129 Cl
ENDBRANCH   4   6
TORSDOF 1
ENDMDL
MODEL 5
REMARK VINA RESULT:      -3.2      8.948      9.963
REMARK  1 active torsions:
REMARK  status: ('A' for Active; 'I' for Inactive)
REMARK    1  A    between atoms: C4_4  and  C5_5 
ROOT
HETATM    1  C1  UNL     1     -42.712   5.910  -0.619  1.00 20.00     0.069 C 
HETATM    2  C2  UNL     1     -40.778   6.784   0.606  1.00 20.00     0.032 C 
HETATM    3  C3  UNL     1     -42.370   8.349  -0.516  1.00 20.00     0.032 C 
HETATM    4  C5  UNL     1     -42.257   7.020   0.250  1.00 20.00     0.054 C 
HETATM    5  N6  UNL     1     -43.069   5.040  -1.299  1.00 20.00    -0.196 NA
ENDROOT
BRANCH   4   6
HETATM    6  C4  UNL     1     -43.073   7.047   1.560  1.00 20.00     0.138 C 
HETATM    7 CL7  UNL     1     -43.329   5.435   2.283  1.00 20.00    -0.129 Cl
ENDBRANCH   4   6
TORSDOF 1
ENDMDL
MODEL 6
REMARK VINA RESULT:      -3.1     13.170     13.784
REMARK  1 active torsions:
REMARK  status: ('A' for Active; 'I' for Inactive)
REMARK    1  A    between atoms: C4_4  and  C5_5 
ROOT
HETATM    1  C1  UNL     1     -34.092  15.176  -6.661  1.00 20.00     0.069 C 
HETATM    2  C2  UNL     1     -35.159  16.690  -5.056  1.00 20.00     0.032 C 
HETATM    3  C3  UNL     1     -35.948  14.329  -5.277  1.00 20.00     0.032 C 
HETATM    4  C5  UNL     1     -34.710  15.241  -5.316  1.00 20.00     0.054 C 
HETATM    5  N6  UNL     1     -33.608  15.126  -7.715  1.00 20.00    -0.196 NA
ENDROOT
BRANCH   4   6
HETATM    6  C4  UNL     1     -33.681  14.850  -4.233  1.00 20.00     0.138 C 
HETATM    7 CL7  UNL     1     -33.425  16.110  -2.994  1.00 20.00    -0.129 Cl
ENDBRANCH   4   6
TORSDOF 1
ENDMDL
MODEL 7
REMARK VINA RESULT:      -3.1     13.262     13.854
REMARK  1 active torsions:
REMARK  status: ('A' for Active; 'I' for Inactive)
REMARK    1  A    between atoms: C4_4  and  C5_5 
ROOT
HETATM    1  C1  UNL     1     -31.826  18.387  -0.833  1.00 20.00     0.069 C 
HETATM    2  C2  UNL     1     -33.250  16.811  -2.058  1.00 20.00     0.032 C 
HETATM    3  C3  UNL     1     -34.109  17.955  -0.009  1.00 20.00     0.032 C 
HETATM    4  C5  UNL     1     -33.223  18.124  -1.254  1.00 20.00     0.054 C 
HETATM    5  N6  UNL     1     -30.733  18.593  -0.504  1.00 20.00    -0.196 NA
ENDROOT
BRANCH   4   6
HETATM    6  C4  UNL     1     -33.732  19.261  -2.166  1.00 20.00     0.138 C 
HETATM    7 CL7  UNL     1     -32.999  19.263  -3.794  1.00 20.00    -0.129 Cl
ENDBRANCH   4   6
TORSDOF 1
ENDMDL
MODEL 8
REMARK VINA RESULT:      -3.1     12.784     13.651
REMARK  1 active torsions:
REMARK  status: ('A' for Active; 'I' for Inactive)
REMARK    1  A    between atoms: C4_4  and  C5_5 
ROOT
HETATM    1  C1  UNL     1     -31.780  18.498  -0.838  1.00 20.00     0.069 C 
HETATM    2  C2  UNL     1     -34.086  19.186  -0.371  1.00 20.00     0.032 C 
HETATM    3  C3  UNL     1     -33.203  19.243  -2.708  1.00 20.00     0.032 C 
HETATM    4  C5  UNL     1     -33.161  18.476  -1.376  1.00 20.00     0.054 C 
HETATM    5  N6  UNL     1     -30.699  18.515  -0.417  1.00 20.00    -0.196 NA
ENDROOT
BRANCH   4   6
HETATM    6  C4  UNL     1     -33.650  17.021  -1.540  1.00 20.00     0.138 C 
HETATM    7 CL7  UNL     1     -33.292  16.316  -3.141  1.00 20.00    -0.129 Cl
ENDBRANCH   4   6
TORSDOF 1
ENDMDL
MODEL 9
REMARK VINA RESULT:      -3.1      9.263      9.943
REMARK  1 active torsions:
REMARK  status: ('A' for Active; 'I' for Inactive)
REMARK    1  A    between atoms: C4_4  and  C5_5 
ROOT
HETATM    1  C1  UNL     1     -41.451  13.637   4.865  1.00 20.00     0.069 C 
HETATM    2  C2  UNL     1     -40.447  14.061   7.061  1.00 20.00     0.032 C 
HETATM    3  C3  UNL     1     -42.359  12.467   6.836  1.00 20.00     0.032 C 
HETATM    4  C5  UNL     1     -41.088  12.996   6.151  1.00 20.00     0.054 C 
HETATM    5  N6  UNL     1     -41.735  14.138   3.858  1.00 20.00    -0.196 NA
ENDROOT
BRANCH   4   6
HETATM    6  C4  UNL     1     -40.056  11.872   5.919  1.00 20.00     0.138 C 
HETATM    7 CL7  UNL     1     -39.307  11.904   4.299  1.00 20.00    -0.129 Cl
ENDBRANCH   4   6
TORSDOF 1
ENDMDL
