MODEL 1
REMARK VINA RESULT:      -5.1      0.000      0.000
REMARK  2 active torsions:
REMARK  status: ('A' for Active; 'I' for Inactive)
REMARK    1  A    between atoms: C7_7  and  C9_9 
REMARK    2  A    between atoms: C8_8  and  C10_10 
ROOT
HETATM    1  C1  UNL     1     -34.886   5.028   5.278  1.00 20.00    -0.030 C 
HETATM    2  C2  UNL     1     -34.855   6.013   4.350  1.00 20.00    -0.025 C 
HETATM    3  C5  UNL     1     -34.090   5.401   6.532  1.00 20.00     0.032 C 
HETATM    4  C9  UNL     1     -33.863   7.021   4.809  1.00 20.00     0.020 C 
HETATM    5  C10 UNL     1     -34.174   6.890   6.325  1.00 20.00     0.005 C 
ENDROOT
BRANCH   4   6
HETATM    6  C7  UNL     1     -33.622   8.548   4.706  1.00 20.00     0.016 C 
HETATM    7  C3  UNL     1     -33.543   8.759   3.194  1.00 20.00    -0.025 C 
HETATM    8  C4  UNL     1     -32.428   8.142   2.759  1.00 20.00    -0.025 C 
HETATM    9  C8  UNL     1     -31.686   7.627   3.969  1.00 20.00     0.013 C 
HETATM   10  C6  UNL     1     -32.121   8.756   4.954  1.00 20.00     0.018 C 
ENDBRANCH   4   6
TORSDOF 2
ENDMDL
MODEL 2
REMARK VINA RESULT:      -4.9      1.031      3.873
REMARK  2 active torsions:
REMARK  status: ('A' for Active; 'I' for Inactive)
REMARK    1  A    between atoms: C7_7  and  C9_9 
REMARK    2  A    between atoms: C8_8  and  C10_10 
ROOT
HETATM    1  C1  UNL     1     -32.370   8.848   4.623  1.00 20.00    -0.030 C 
HETATM    2  C2  UNL     1     -33.540   8.225   4.897  1.00 20.00    -0.025 C 
HETATM    3  C5  UNL     1     -31.449   7.977   3.764  1.00 20.00     0.032 C 
HETATM    4  C9  UNL     1     -33.409   6.817   4.438  1.00 20.00     0.020 C 
HETATM    5  C10 UNL     1     -32.546   7.125   3.184  1.00 20.00     0.005 C 
ENDROOT
BRANCH   4   6
HETATM    6  C7  UNL     1     -34.310   5.685   3.883  1.00 20.00     0.016 C 
HETATM    7  C3  UNL     1     -35.540   5.783   4.784  1.00 20.00    -0.025 C 
HETATM    8  C4  UNL     1     -35.159   5.427   6.026  1.00 20.00    -0.025 C 
HETATM    9  C8  UNL     1     -33.723   4.967   5.952  1.00 20.00     0.013 C 
HETATM   10  C6  UNL     1     -33.784   4.384   4.507  1.00 20.00     0.018 C 
ENDBRANCH   4   6
TORSDOF 2
ENDMDL
MODEL 3
REMARK VINA RESULT:      -4.2      0.912      3.769
REMARK  2 active torsions:
REMARK  status: ('A' for Active; 'I' for Inactive)
REMARK    1  A    between atoms: C7_7  and  C9_9 
REMARK    2  A    between atoms: C8_8  and  C10_10 
ROOT
HETATM    1  C1  UNL     1     -32.225   7.975   2.626  1.00 20.00    -0.030 C 
HETATM    2  C2  UNL     1     -32.423   6.762   3.194  1.00 20.00    -0.025 C 
HETATM    3  C5  UNL     1     -32.697   9.114   3.534  1.00 20.00     0.032 C 
HETATM    4  C9  UNL     1     -33.238   6.977   4.418  1.00 20.00     0.020 C 
HETATM    5  C10 UNL     1     -32.596   8.333   4.818  1.00 20.00     0.005 C 
ENDROOT
BRANCH   4   6
HETATM    6  C7  UNL     1     -33.428   6.338   5.817  1.00 20.00     0.016 C 
HETATM    7  C3  UNL     1     -33.553   4.853   5.478  1.00 20.00    -0.025 C 
HETATM    8  C4  UNL     1     -34.703   4.690   4.797  1.00 20.00    -0.025 C 
HETATM    9  C8  UNL     1     -35.421   6.018   4.783  1.00 20.00     0.013 C 
HETATM   10  C6  UNL     1     -34.912   6.525   6.168  1.00 20.00     0.018 C 
ENDBRANCH   4   6
TORSDOF 2
ENDMDL
MODEL 4
REMARK VINA RESULT:      -3.7      0.764      2.111
REMARK  2 active torsions:
REMARK  status: ('A' for Active; 'I' for Inactive)
REMARK    1  A    between atoms: C7_7  and  C9_9 
REMARK    2  A    between atoms: C8_8  and  C10_10 
ROOT
HETATM    1  C1  UNL     1     -34.801   5.780   6.199  1.00 20.00    -0.030 C 
HETATM    2  C2  UNL     1     -33.695   6.550   6.082  1.00 20.00    -0.025 C 
HETATM    3  C5  UNL     1     -35.366   5.382   4.832  1.00 20.00     0.032 C 
HETATM    4  C9  UNL     1     -33.557   6.912   4.647  1.00 20.00     0.020 C 
HETATM    5  C10 UNL     1     -34.074   5.561   4.079  1.00 20.00     0.005 C 
ENDROOT
BRANCH   4   6
HETATM    6  C7  UNL     1     -32.434   7.228   3.628  1.00 20.00     0.016 C 
HETATM    7  C3  UNL     1     -31.537   8.176   4.425  1.00 20.00    -0.025 C 
HETATM    8  C4  UNL     1     -32.232   9.312   4.630  1.00 20.00    -0.025 C 
HETATM    9  C8  UNL     1     -33.534   9.196   3.875  1.00 20.00     0.013 C 
HETATM   10  C6  UNL     1     -32.998   8.317   2.703  1.00 20.00     0.018 C 
ENDBRANCH   4   6
TORSDOF 2
ENDMDL
MODEL 5
REMARK VINA RESULT:      -3.5      9.273     10.445
REMARK  2 active torsions:
REMARK  status: ('A' for Active; 'I' for Inactive)
REMARK    1  A    between atoms: C7_7  and  C9_9 
REMARK    2  A    between atoms: C8_8  and  C10_10 
ROOT
HETATM    1  C1  UNL     1     -38.945  11.960   5.991  1.00 20.00    -0.030 C 
HETATM    2  C2  UNL     1     -39.630  12.728   6.870  1.00 20.00    -0.025 C 
HETATM    3  C5  UNL     1     -39.702  11.791   4.670  1.00 20.00     0.032 C 
HETATM    4  C9  UNL     1     -40.985  12.948   6.300  1.00 20.00     0.020 C 
HETATM    5  C10 UNL     1     -40.536  13.036   4.816  1.00 20.00     0.005 C 
ENDROOT
BRANCH   4   6
HETATM    6  C7  UNL     1     -42.094  14.030   6.319  1.00 20.00     0.016 C 
HETATM    7  C3  UNL     1     -42.308  14.245   7.817  1.00 20.00    -0.025 C 
HETATM    8  C4  UNL     1     -42.838  13.111   8.315  1.00 20.00    -0.025 C 
HETATM    9  C8  UNL     1     -43.106  12.181   7.156  1.00 20.00     0.013 C 
HETATM   10  C6  UNL     1     -43.417  13.281   6.096  1.00 20.00     0.018 C 
ENDBRANCH   4   6
TORSDOF 2
ENDMDL
MODEL 6
REMARK VINA RESULT:      -3.5      8.816      9.862
REMARK  2 active torsions:
REMARK  status: ('A' for Active; 'I' for Inactive)
REMARK    1  A    between atoms: C7_7  and  C9_9 
REMARK    2  A    between atoms: C8_8  and  C10_10 
ROOT
HETATM    1  C1  UNL     1     -39.308  12.181   4.391  1.00 20.00    -0.030 C 
HETATM    2  C2  UNL     1     -40.506  12.708   4.738  1.00 20.00    -0.025 C 
HETATM    3  C5  UNL     1     -38.376  12.040   5.597  1.00 20.00     0.032 C 
HETATM    4  C9  UNL     1     -40.395  13.165   6.148  1.00 20.00     0.020 C 
HETATM    5  C10 UNL     1     -39.471  12.013   6.630  1.00 20.00     0.005 C 
ENDROOT
BRANCH   4   6
HETATM    6  C7  UNL     1     -41.302  13.331   7.393  1.00 20.00     0.016 C 
HETATM    7  C3  UNL     1     -42.335  14.347   6.903  1.00 20.00    -0.025 C 
HETATM    8  C4  UNL     1     -41.692  15.514   6.710  1.00 20.00    -0.025 C 
HETATM    9  C8  UNL     1     -40.269  15.339   7.183  1.00 20.00     0.013 C 
HETATM   10  C6  UNL     1     -40.571  14.314   8.320  1.00 20.00     0.018 C 
ENDBRANCH   4   6
TORSDOF 2
ENDMDL
MODEL 7
REMARK VINA RESULT:      -3.5     12.023     13.504
REMARK  2 active torsions:
REMARK  status: ('A' for Active; 'I' for Inactive)
REMARK    1  A    between atoms: C7_7  and  C9_9 
REMARK    2  A    between atoms: C8_8  and  C10_10 
ROOT
HETATM    1  C1  UNL     1     -33.498  18.128  -3.231  1.00 20.00    -0.030 C 
HETATM    2  C2  UNL     1     -33.718  17.815  -4.529  1.00 20.00    -0.025 C 
HETATM    3  C5  UNL     1     -33.614  16.901  -2.321  1.00 20.00     0.032 C 
HETATM    4  C9  UNL     1     -34.213  16.414  -4.568  1.00 20.00     0.020 C 
HETATM    5  C10 UNL     1     -33.335  15.889  -3.400  1.00 20.00     0.005 C 
ENDROOT
BRANCH   4   6
HETATM    6  C7  UNL     1     -34.172  15.191  -5.518  1.00 20.00     0.016 C 
HETATM    7  C3  UNL     1     -34.547  15.815  -6.862  1.00 20.00    -0.025 C 
HETATM    8  C4  UNL     1     -35.829  16.220  -6.775  1.00 20.00    -0.025 C 
HETATM    9  C8  UNL     1     -36.365  15.763  -5.440  1.00 20.00     0.013 C 
HETATM   10  C6  UNL     1     -35.511  14.463  -5.325  1.00 20.00     0.018 C 
ENDBRANCH   4   6
TORSDOF 2
ENDMDL
MODEL 8
REMARK VINA RESULT:      -3.2     12.036     13.813
REMARK  2 active torsions:
REMARK  status: ('A' for Active; 'I' for Inactive)
REMARK    1  A    between atoms: C7_7  and  C9_9 
REMARK    2  A    between atoms: C8_8  and  C10_10 
ROOT
HETATM    1  C1  UNL     1     -23.708  -3.014  10.635  1.00 20.00    -0.030 C 
HETATM    2  C2  UNL     1     -24.912  -2.910  10.025  1.00 20.00    -0.025 C 
HETATM    3  C5  UNL     1     -23.814  -2.801  12.148  1.00 20.00     0.032 C 
HETATM    4  C9  UNL     1     -25.876  -2.403  11.037  1.00 20.00     0.020 C 
HETATM    5  C10 UNL     1     -25.272  -3.166  12.248  1.00 20.00     0.005 C 
ENDROOT
BRANCH   4   6
HETATM    6  C7  UNL     1     -27.387  -2.517  11.365  1.00 20.00     0.016 C 
HETATM    7  C3  UNL     1     -28.030  -1.852  10.148  1.00 20.00    -0.025 C 
HETATM    8  C4  UNL     1     -27.703  -0.546  10.182  1.00 20.00    -0.025 C 
HETATM    9  C8  UNL     1     -26.958  -0.292  11.471  1.00 20.00     0.013 C 
HETATM   10  C6  UNL     1     -27.695  -1.363  12.332  1.00 20.00     0.018 C 
ENDBRANCH   4   6
TORSDOF 2
ENDMDL
MODEL 9
REMARK VINA RESULT:      -3.2     11.731     13.985
REMARK  2 active torsions:
REMARK  status: ('A' for Active; 'I' for Inactive)
REMARK    1  A    between atoms: C7_7  and  C9_9 
REMARK    2  A    between atoms: C8_8  and  C10_10 
ROOT
HETATM    1  C1  UNL     1     -33.410  15.888  -3.415  1.00 20.00    -0.030 C 
HETATM    2  C2  UNL     1     -33.892  16.954  -4.096  1.00 20.00    -0.025 C 
HETATM    3  C5  UNL     1     -33.763  14.566  -4.102  1.00 20.00     0.032 C 
HETATM    4  C9  UNL     1     -34.787  16.430  -5.160  1.00 20.00     0.020 C 
HETATM    5  C10 UNL     1     -33.954  15.157  -5.474  1.00 20.00     0.005 C 
ENDROOT
BRANCH   4   6
HETATM    6  C7  UNL     1     -35.249  16.817  -6.588  1.00 20.00     0.016 C 
HETATM    7  C3  UNL     1     -36.016  18.115  -6.336  1.00 20.00    -0.025 C 
HETATM    8  C4  UNL     1     -37.115  17.802  -5.624  1.00 20.00    -0.025 C 
HETATM    9  C8  UNL     1     -37.170  16.298  -5.501  1.00 20.00     0.013 C 
HETATM   10  C6  UNL     1     -36.499  15.970  -6.870  1.00 20.00     0.018 C 
ENDBRANCH   4   6
TORSDOF 2
ENDMDL
