MODEL 1
REMARK VINA RESULT:      -4.7      0.000      0.000
REMARK  0 active torsions:
REMARK  status: ('A' for Active; 'I' for Inactive)
ROOT
HETATM    1  C1  UNL     1     -32.916   8.502   4.700  1.00 20.00     0.131 C 
HETATM    2  C2  UNL     1     -33.913   8.451   5.843  1.00 20.00     0.079 C 
HETATM    3  C3  UNL     1     -34.121   7.018   6.347  1.00 20.00     0.016 C 
HETATM    4  C4  UNL     1     -33.296   5.241   2.933  1.00 20.00     0.006 C 
HETATM    5  C5  UNL     1     -32.290   5.917   1.990  1.00 20.00     0.005 C 
HETATM    6  C6  UNL     1     -33.179   7.521   3.575  1.00 20.00     0.064 C 
HETATM    7  C7  UNL     1     -33.273   6.118   4.180  1.00 20.00     0.005 C 
HETATM    8  C8  UNL     1     -32.078   7.348   2.526  1.00 20.00    -0.007 C 
HETATM    9  C9  UNL     1     -34.406   5.979   5.223  1.00 20.00    -0.043 C 
HETATM   10  C10 UNL     1     -32.135   8.397   1.423  1.00 20.00     0.011 C 
HETATM   11  C11 UNL     1     -34.374   4.567   5.839  1.00 20.00     0.015 C 
HETATM   12  C12 UNL     1     -35.813   6.206   4.639  1.00 20.00     0.015 C 
HETATM   13  O13 UNL     1     -32.026   9.347   4.655  1.00 20.00    -0.298 OA
ENDROOT
TORSDOF 0
ENDMDL
MODEL 2
REMARK VINA RESULT:      -4.3     11.800     13.909
REMARK  0 active torsions:
REMARK  status: ('A' for Active; 'I' for Inactive)
ROOT
HETATM    1  C1  UNL     1     -34.473  14.863  -4.689  1.00 20.00     0.131 C 
HETATM    2  C2  UNL     1     -35.552  14.369  -5.637  1.00 20.00     0.079 C 
HETATM    3  C3  UNL     1     -35.653  15.251  -6.885  1.00 20.00     0.016 C 
HETATM    4  C4  UNL     1     -34.367  18.557  -5.178  1.00 20.00     0.006 C 
HETATM    5  C5  UNL     1     -33.360  18.432  -4.026  1.00 20.00     0.005 C 
HETATM    6  C6  UNL     1     -34.539  16.339  -4.355  1.00 20.00     0.064 C 
HETATM    7  C7  UNL     1     -34.538  17.124  -5.670  1.00 20.00     0.005 C 
HETATM    8  C8  UNL     1     -33.342  16.943  -3.617  1.00 20.00    -0.007 C 
HETATM    9  C9  UNL     1     -35.734  16.777  -6.586  1.00 20.00    -0.043 C 
HETATM   10  C10 UNL     1     -33.414  16.753  -2.109  1.00 20.00     0.011 C 
HETATM   11  C11 UNL     1     -35.609  17.546  -7.917  1.00 20.00     0.015 C 
HETATM   12  C12 UNL     1     -37.103  17.122  -5.971  1.00 20.00     0.015 C 
HETATM   13  O13 UNL     1     -33.674  14.093  -4.162  1.00 20.00    -0.298 OA
ENDROOT
TORSDOF 0
ENDMDL
MODEL 3
REMARK VINA RESULT:      -4.1     11.922     13.591
REMARK  0 active torsions:
REMARK  status: ('A' for Active; 'I' for Inactive)
ROOT
HETATM    1  C1  UNL     1     -34.005  15.292  -4.295  1.00 20.00     0.131 C 
HETATM    2  C2  UNL     1     -32.918  15.888  -3.418  1.00 20.00     0.079 C 
HETATM    3  C3  UNL     1     -33.447  17.054  -2.578  1.00 20.00     0.016 C 
HETATM    4  C4  UNL     1     -36.281  18.137  -5.086  1.00 20.00     0.006 C 
HETATM    5  C5  UNL     1     -36.933  17.051  -5.953  1.00 20.00     0.005 C 
HETATM    6  C6  UNL     1     -34.786  16.296  -5.118  1.00 20.00     0.064 C 
HETATM    7  C7  UNL     1     -35.346  17.358  -4.168  1.00 20.00     0.005 C 
HETATM    8  C8  UNL     1     -36.049  15.792  -5.820  1.00 20.00    -0.007 C 
HETATM    9  C9  UNL     1     -34.247  18.116  -3.388  1.00 20.00    -0.043 C 
HETATM   10  C10 UNL     1     -35.763  15.138  -7.165  1.00 20.00     0.011 C 
HETATM   11  C11 UNL     1     -34.899  19.102  -2.398  1.00 20.00     0.015 C 
HETATM   12  C12 UNL     1     -33.293  18.920  -4.291  1.00 20.00     0.015 C 
HETATM   13  O13 UNL     1     -34.162  14.078  -4.395  1.00 20.00    -0.298 OA
ENDROOT
TORSDOF 0
ENDMDL
MODEL 4
REMARK VINA RESULT:      -3.9     11.441     13.732
REMARK  0 active torsions:
REMARK  status: ('A' for Active; 'I' for Inactive)
ROOT
HETATM    1  C1  UNL     1     -33.683  16.318  -3.343  1.00 20.00     0.131 C 
HETATM    2  C2  UNL     1     -33.596  14.871  -3.796  1.00 20.00     0.079 C 
HETATM    3  C3  UNL     1     -33.472  14.763  -5.319  1.00 20.00     0.016 C 
HETATM    4  C4  UNL     1     -35.373  18.110  -6.141  1.00 20.00     0.006 C 
HETATM    5  C5  UNL     1     -35.278  19.263  -5.131  1.00 20.00     0.005 C 
HETATM    6  C6  UNL     1     -34.712  17.157  -4.072  1.00 20.00     0.064 C 
HETATM    7  C7  UNL     1     -34.435  17.051  -5.574  1.00 20.00     0.005 C 
HETATM    8  C8  UNL     1     -34.672  18.669  -3.842  1.00 20.00    -0.007 C 
HETATM    9  C9  UNL     1     -34.519  15.602  -6.108  1.00 20.00    -0.043 C 
HETATM   10  C10 UNL     1     -35.425  19.103  -2.592  1.00 20.00     0.011 C 
HETATM   11  C11 UNL     1     -34.145  15.577  -7.603  1.00 20.00     0.015 C 
HETATM   12  C12 UNL     1     -35.917  14.972  -5.963  1.00 20.00     0.015 C 
HETATM   13  O13 UNL     1     -33.033  16.737  -2.389  1.00 20.00    -0.298 OA
ENDROOT
TORSDOF 0
ENDMDL
MODEL 5
REMARK VINA RESULT:      -3.8     11.857     14.035
REMARK  0 active torsions:
REMARK  status: ('A' for Active; 'I' for Inactive)
ROOT
HETATM    1  C1  UNL     1     -35.630  18.121  -4.202  1.00 20.00     0.131 C 
HETATM    2  C2  UNL     1     -36.255  18.763  -5.428  1.00 20.00     0.079 C 
HETATM    3  C3  UNL     1     -36.627  17.717  -6.484  1.00 20.00     0.016 C 
HETATM    4  C4  UNL     1     -33.866  15.097  -5.482  1.00 20.00     0.006 C 
HETATM    5  C5  UNL     1     -33.427  15.034  -4.012  1.00 20.00     0.005 C 
HETATM    6  C6  UNL     1     -34.498  17.156  -4.490  1.00 20.00     0.064 C 
HETATM    7  C7  UNL     1     -35.009  16.105  -5.479  1.00 20.00     0.005 C 
HETATM    8  C8  UNL     1     -34.003  16.293  -3.328  1.00 20.00    -0.007 C 
HETATM    9  C9  UNL     1     -35.487  16.711  -6.819  1.00 20.00    -0.043 C 
HETATM   10  C10 UNL     1     -32.976  17.001  -2.454  1.00 20.00     0.011 C 
HETATM   11  C11 UNL     1     -36.061  15.597  -7.717  1.00 20.00     0.015 C 
HETATM   12  C12 UNL     1     -34.370  17.421  -7.606  1.00 20.00     0.015 C 
HETATM   13  O13 UNL     1     -35.960  18.445  -3.064  1.00 20.00    -0.298 OA
ENDROOT
TORSDOF 0
ENDMDL
MODEL 6
REMARK VINA RESULT:      -3.8     11.576     14.353
REMARK  0 active torsions:
REMARK  status: ('A' for Active; 'I' for Inactive)
ROOT
HETATM    1  C1  UNL     1     -35.912  15.583  -6.918  1.00 20.00     0.131 C 
HETATM    2  C2  UNL     1     -36.431  16.859  -7.556  1.00 20.00     0.079 C 
HETATM    3  C3  UNL     1     -35.454  18.023  -7.363  1.00 20.00     0.016 C 
HETATM    4  C4  UNL     1     -33.881  16.711  -4.003  1.00 20.00     0.006 C 
HETATM    5  C5  UNL     1     -33.805  15.193  -3.784  1.00 20.00     0.005 C 
HETATM    6  C6  UNL     1     -35.451  15.725  -5.482  1.00 20.00     0.064 C 
HETATM    7  C7  UNL     1     -34.412  16.847  -5.425  1.00 20.00     0.005 C 
HETATM    8  C8  UNL     1     -34.688  14.547  -4.872  1.00 20.00    -0.007 C 
HETATM    9  C9  UNL     1     -34.964  18.212  -5.898  1.00 20.00    -0.043 C 
HETATM   10  C10 UNL     1     -35.604  13.467  -4.313  1.00 20.00     0.011 C 
HETATM   11  C11 UNL     1     -33.834  19.261  -5.888  1.00 20.00     0.015 C 
HETATM   12  C12 UNL     1     -36.112  18.750  -5.022  1.00 20.00     0.015 C 
HETATM   13  O13 UNL     1     -35.960  14.502  -7.501  1.00 20.00    -0.298 OA
ENDROOT
TORSDOF 0
ENDMDL
MODEL 7
REMARK VINA RESULT:      -3.8     12.486     13.987
REMARK  0 active torsions:
REMARK  status: ('A' for Active; 'I' for Inactive)
ROOT
HETATM    1  C1  UNL     1     -25.301  -1.094  11.809  1.00 20.00     0.131 C 
HETATM    2  C2  UNL     1     -26.557  -0.246  11.905  1.00 20.00     0.079 C 
HETATM    3  C3  UNL     1     -27.769  -1.080  12.332  1.00 20.00     0.016 C 
HETATM    4  C4  UNL     1     -26.494  -4.487  10.831  1.00 20.00     0.006 C 
HETATM    5  C5  UNL     1     -24.980  -4.735  10.782  1.00 20.00     0.005 C 
HETATM    6  C6  UNL     1     -25.447  -2.366  11.000  1.00 20.00     0.064 C 
HETATM    7  C7  UNL     1     -26.623  -3.162  11.572  1.00 20.00     0.005 C 
HETATM    8  C8  UNL     1     -24.303  -3.380  11.077  1.00 20.00    -0.007 C 
HETATM    9  C9  UNL     1     -27.963  -2.392  11.517  1.00 20.00    -0.043 C 
HETATM   10  C10 UNL     1     -23.168  -3.073  10.110  1.00 20.00     0.011 C 
HETATM   11  C11 UNL     1     -29.071  -3.229  12.187  1.00 20.00     0.015 C 
HETATM   12  C12 UNL     1     -28.425  -2.061  10.085  1.00 20.00     0.015 C 
HETATM   13  O13 UNL     1     -24.228  -0.716  12.273  1.00 20.00    -0.298 OA
ENDROOT
TORSDOF 0
ENDMDL
MODEL 8
REMARK VINA RESULT:      -3.7     10.543     12.302
REMARK  0 active torsions:
REMARK  status: ('A' for Active; 'I' for Inactive)
ROOT
HETATM    1  C1  UNL     1     -40.424  14.662   8.588  1.00 20.00     0.131 C 
HETATM    2  C2  UNL     1     -40.419  15.985   9.333  1.00 20.00     0.079 C 
HETATM    3  C3  UNL     1     -41.683  16.801   9.042  1.00 20.00     0.016 C 
HETATM    4  C4  UNL     1     -42.332  15.320   5.454  1.00 20.00     0.006 C 
HETATM    5  C5  UNL     1     -41.896  13.874   5.178  1.00 20.00     0.005 C 
HETATM    6  C6  UNL     1     -40.726  14.761   7.107  1.00 20.00     0.064 C 
HETATM    7  C7  UNL     1     -42.052  15.508   6.940  1.00 20.00     0.005 C 
HETATM    8  C8  UNL     1     -40.995  13.454   6.358  1.00 20.00    -0.007 C 
HETATM    9  C9  UNL     1     -42.023  16.938   7.530  1.00 20.00    -0.043 C 
HETATM   10  C10 UNL     1     -39.722  12.756   5.899  1.00 20.00     0.011 C 
HETATM   11  C11 UNL     1     -43.417  17.583   7.395  1.00 20.00     0.015 C 
HETATM   12  C12 UNL     1     -41.006  17.868   6.842  1.00 20.00     0.015 C 
HETATM   13  O13 UNL     1     -40.108  13.609   9.137  1.00 20.00    -0.298 OA
ENDROOT
TORSDOF 0
ENDMDL
MODEL 9
REMARK VINA RESULT:      -3.7      9.075     10.566
REMARK  0 active torsions:
REMARK  status: ('A' for Active; 'I' for Inactive)
ROOT
HETATM    1  C1  UNL     1     -41.672  13.832   4.530  1.00 20.00     0.131 C 
HETATM    2  C2  UNL     1     -42.956  14.381   5.127  1.00 20.00     0.079 C 
HETATM    3  C3  UNL     1     -42.718  14.988   6.513  1.00 20.00     0.016 C 
HETATM    4  C4  UNL     1     -39.640  12.722   7.452  1.00 20.00     0.006 C 
HETATM    5  C5  UNL     1     -38.726  12.237   6.318  1.00 20.00     0.005 C 
HETATM    6  C6  UNL     1     -40.883  12.914   5.441  1.00 20.00     0.064 C 
HETATM    7  C7  UNL     1     -40.622  13.656   6.754  1.00 20.00     0.005 C 
HETATM    8  C8  UNL     1     -39.468  12.536   4.997  1.00 20.00    -0.007 C 
HETATM    9  C9  UNL     1     -41.920  14.072   7.486  1.00 20.00    -0.043 C 
HETATM   10  C10 UNL     1     -39.439  11.357   4.034  1.00 20.00     0.011 C 
HETATM   11  C11 UNL     1     -41.567  14.883   8.748  1.00 20.00     0.015 C 
HETATM   12  C12 UNL     1     -42.791  12.879   7.922  1.00 20.00     0.015 C 
HETATM   13  O13 UNL     1     -41.360  14.044   3.361  1.00 20.00    -0.298 OA
ENDROOT
TORSDOF 0
ENDMDL
