MODEL 1
REMARK VINA RESULT:      -4.9      0.000      0.000
REMARK  0 active torsions:
REMARK  status: ('A' for Active; 'I' for Inactive)
ROOT
HETATM    1  C1  UNL     1     -34.457   5.332   6.586  1.00 20.00     0.004 C 
HETATM    2  C2  UNL     1     -34.371   6.856   6.711  1.00 20.00     0.005 C 
HETATM    3  C3  UNL     1     -34.039   4.757   5.221  1.00 20.00     0.042 C 
HETATM    4  C4  UNL     1     -33.701   8.356   4.698  1.00 20.00     0.013 A 
HETATM    5  C5  UNL     1     -33.315   7.444   5.828  1.00 20.00    -0.007 A 
HETATM    6  C6  UNL     1     -33.224   6.954   4.399  1.00 20.00     0.029 A 
HETATM    7  C7  UNL     1     -34.091   5.763   4.062  1.00 20.00     0.117 C 
HETATM    8 CL8  UNL     1     -35.781   6.209   3.687  1.00 20.00    -0.101 Cl
HETATM    9 CL9  UNL     1     -33.422   4.978   2.584  1.00 20.00    -0.101 Cl
ENDROOT
TORSDOF 0
ENDMDL
MODEL 2
REMARK VINA RESULT:      -4.4      1.508      2.836
REMARK  0 active torsions:
REMARK  status: ('A' for Active; 'I' for Inactive)
ROOT
HETATM    1  C1  UNL     1     -33.268   8.524   4.903  1.00 20.00     0.004 C 
HETATM    2  C2  UNL     1     -32.909   8.178   3.456  1.00 20.00     0.005 C 
HETATM    3  C3  UNL     1     -33.710   7.336   5.776  1.00 20.00     0.042 C 
HETATM    4  C4  UNL     1     -33.173   5.769   2.520  1.00 20.00     0.013 A 
HETATM    5  C5  UNL     1     -32.394   6.780   3.311  1.00 20.00    -0.007 A 
HETATM    6  C6  UNL     1     -33.132   5.670   4.027  1.00 20.00     0.029 A 
HETATM    7  C7  UNL     1     -34.210   6.116   4.987  1.00 20.00     0.117 C 
HETATM    8 CL8  UNL     1     -35.762   6.480   4.179  1.00 20.00    -0.101 Cl
HETATM    9 CL9  UNL     1     -34.531   4.771   6.143  1.00 20.00    -0.101 Cl
ENDROOT
TORSDOF 0
ENDMDL
MODEL 3
REMARK VINA RESULT:      -4.2      1.898      2.878
REMARK  0 active torsions:
REMARK  status: ('A' for Active; 'I' for Inactive)
ROOT
HETATM    1  C1  UNL     1     -33.651   5.362   3.432  1.00 20.00     0.004 C 
HETATM    2  C2  UNL     1     -34.561   5.004   4.610  1.00 20.00     0.005 C 
HETATM    3  C3  UNL     1     -32.781   6.616   3.626  1.00 20.00     0.042 C 
HETATM    4  C4  UNL     1     -34.714   6.507   6.725  1.00 20.00     0.013 A 
HETATM    5  C5  UNL     1     -34.001   5.454   5.923  1.00 20.00    -0.007 A 
HETATM    6  C6  UNL     1     -33.426   6.851   6.014  1.00 20.00     0.029 A 
HETATM    7  C7  UNL     1     -33.293   7.588   4.700  1.00 20.00     0.117 C 
HETATM    8 CL8  UNL     1     -34.815   8.365   4.176  1.00 20.00    -0.101 Cl
HETATM    9 CL9  UNL     1     -32.084   8.907   4.912  1.00 20.00    -0.101 Cl
ENDROOT
TORSDOF 0
ENDMDL
MODEL 4
REMARK VINA RESULT:      -3.7     16.264     17.242
REMARK  0 active torsions:
REMARK  status: ('A' for Active; 'I' for Inactive)
ROOT
HETATM    1  C1  UNL     1     -23.435  18.499   8.963  1.00 20.00     0.004 C 
HETATM    2  C2  UNL     1     -22.163  18.149   9.740  1.00 20.00     0.005 C 
HETATM    3  C3  UNL     1     -24.669  18.818   9.825  1.00 20.00     0.042 C 
HETATM    4  C4  UNL     1     -22.150  17.971  12.332  1.00 20.00     0.013 A 
HETATM    5  C5  UNL     1     -22.113  18.806  11.083  1.00 20.00    -0.007 A 
HETATM    6  C6  UNL     1     -23.362  18.781  11.938  1.00 20.00     0.029 A 
HETATM    7  C7  UNL     1     -24.608  18.263  11.256  1.00 20.00     0.117 C 
HETATM    8 CL8  UNL     1     -24.710  16.478  11.246  1.00 20.00    -0.101 Cl
HETATM    9 CL9  UNL     1     -26.042  18.859  12.171  1.00 20.00    -0.101 Cl
ENDROOT
TORSDOF 0
ENDMDL
MODEL 5
REMARK VINA RESULT:      -3.6      8.792      9.720
REMARK  0 active torsions:
REMARK  status: ('A' for Active; 'I' for Inactive)
ROOT
HETATM    1  C1  UNL     1     -43.037   8.386   0.092  1.00 20.00     0.004 C 
HETATM    2  C2  UNL     1     -41.740   8.153  -0.687  1.00 20.00     0.005 C 
HETATM    3  C3  UNL     1     -43.417   7.278   1.089  1.00 20.00     0.042 C 
HETATM    4  C4  UNL     1     -40.366   5.962  -0.428  1.00 20.00     0.013 A 
HETATM    5  C5  UNL     1     -40.755   7.323   0.076  1.00 20.00    -0.007 A 
HETATM    6  C6  UNL     1     -41.262   6.083   0.782  1.00 20.00     0.029 A 
HETATM    7  C7  UNL     1     -42.764   5.917   0.810  1.00 20.00     0.117 C 
HETATM    8 CL8  UNL     1     -43.417   5.198  -0.690  1.00 20.00    -0.101 Cl
HETATM    9 CL9  UNL     1     -43.182   4.788   2.151  1.00 20.00    -0.101 Cl
ENDROOT
TORSDOF 0
ENDMDL
MODEL 6
REMARK VINA RESULT:      -3.5      8.755      9.573
REMARK  0 active torsions:
REMARK  status: ('A' for Active; 'I' for Inactive)
ROOT
HETATM    1  C1  UNL     1     -40.102   6.521   0.063  1.00 20.00     0.004 C 
HETATM    2  C2  UNL     1     -40.827   7.619   0.846  1.00 20.00     0.005 C 
HETATM    3  C3  UNL     1     -41.014   5.517  -0.664  1.00 20.00     0.042 C 
HETATM    4  C4  UNL     1     -43.417   7.678   1.038  1.00 20.00     0.013 A 
HETATM    5  C5  UNL     1     -42.162   7.954   0.260  1.00 20.00    -0.007 A 
HETATM    6  C6  UNL     1     -43.069   6.814  -0.151  1.00 20.00     0.029 A 
HETATM    7  C7  UNL     1     -42.445   5.438  -0.111  1.00 20.00     0.117 C 
HETATM    8 CL8  UNL     1     -42.452   4.712   1.522  1.00 20.00    -0.101 Cl
HETATM    9 CL9  UNL     1     -43.415   4.347  -1.168  1.00 20.00    -0.101 Cl
ENDROOT
TORSDOF 0
ENDMDL
MODEL 7
REMARK VINA RESULT:      -3.5      9.437     10.194
REMARK  0 active torsions:
REMARK  status: ('A' for Active; 'I' for Inactive)
ROOT
HETATM    1  C1  UNL     1     -43.416   5.624   2.207  1.00 20.00     0.004 C 
HETATM    2  C2  UNL     1     -43.050   4.464   1.279  1.00 20.00     0.005 C 
HETATM    3  C3  UNL     1     -43.383   7.022   1.563  1.00 20.00     0.042 C 
HETATM    4  C4  UNL     1     -42.287   4.864  -1.173  1.00 20.00     0.013 A 
HETATM    5  C5  UNL     1     -43.384   4.748  -0.152  1.00 20.00    -0.007 A 
HETATM    6  C6  UNL     1     -43.018   6.104  -0.716  1.00 20.00     0.029 A 
HETATM    7  C7  UNL     1     -42.527   7.118   0.292  1.00 20.00     0.117 C 
HETATM    8 CL8  UNL     1     -40.792   6.934   0.682  1.00 20.00    -0.101 Cl
HETATM    9 CL9  UNL     1     -42.726   8.762  -0.418  1.00 20.00    -0.101 Cl
ENDROOT
TORSDOF 0
ENDMDL
MODEL 8
REMARK VINA RESULT:      -3.4     16.327     17.309
REMARK  0 active torsions:
REMARK  status: ('A' for Active; 'I' for Inactive)
ROOT
HETATM    1  C1  UNL     1     -24.837  19.263   8.749  1.00 20.00     0.004 C 
HETATM    2  C2  UNL     1     -23.705  18.902   7.785  1.00 20.00     0.005 C 
HETATM    3  C3  UNL     1     -24.483  19.182  10.245  1.00 20.00     0.042 C 
HETATM    4  C4  UNL     1     -21.395  18.072   8.639  1.00 20.00     0.013 A 
HETATM    5  C5  UNL     1     -22.352  19.195   8.354  1.00 20.00    -0.007 A 
HETATM    6  C6  UNL     1     -22.074  18.785   9.784  1.00 20.00     0.029 A 
HETATM    7  C7  UNL     1     -23.272  18.294  10.566  1.00 20.00     0.117 C 
HETATM    8 CL8  UNL     1     -23.650  16.574  10.260  1.00 20.00    -0.101 Cl
HETATM    9 CL9  UNL     1     -22.897  18.438  12.323  1.00 20.00    -0.101 Cl
ENDROOT
TORSDOF 0
ENDMDL
MODEL 9
REMARK VINA RESULT:      -3.3     13.106     14.266
REMARK  0 active torsions:
REMARK  status: ('A' for Active; 'I' for Inactive)
ROOT
HETATM    1  C1  UNL     1     -34.614  15.128  -5.640  1.00 20.00     0.004 C 
HETATM    2  C2  UNL     1     -34.237  14.806  -4.192  1.00 20.00     0.005 C 
HETATM    3  C3  UNL     1     -34.440  16.599  -6.056  1.00 20.00     0.042 C 
HETATM    4  C4  UNL     1     -33.493  16.659  -2.529  1.00 20.00     0.013 A 
HETATM    5  C5  UNL     1     -33.178  15.720  -3.659  1.00 20.00    -0.007 A 
HETATM    6  C6  UNL     1     -33.314  17.203  -3.926  1.00 20.00     0.029 A 
HETATM    7  C7  UNL     1     -34.413  17.594  -4.887  1.00 20.00     0.117 C 
HETATM    8 CL8  UNL     1     -36.019  17.698  -4.109  1.00 20.00    -0.101 Cl
HETATM    9 CL9  UNL     1     -34.043  19.236  -5.531  1.00 20.00    -0.101 Cl
ENDROOT
TORSDOF 0
ENDMDL
