MODEL 1
REMARK VINA RESULT:      -6.9      0.000      0.000
REMARK  0 active torsions:
REMARK  status: ('A' for Active; 'I' for Inactive)
ROOT
HETATM    1  C1  UNL     1     -33.970   7.296   6.488  1.00 20.00    -0.018 C 
HETATM    2  C2  UNL     1     -32.925   5.786   3.086  1.00 20.00    -0.018 C 
HETATM    3  C3  UNL     1     -34.680   6.273   5.943  1.00 20.00    -0.078 C 
HETATM    4  C4  UNL     1     -32.904   7.119   3.271  1.00 20.00    -0.078 C 
HETATM    5  C5  UNL     1     -34.577   4.827   6.305  1.00 20.00     0.035 C 
HETATM    6  C6  UNL     1     -31.821   8.169   3.382  1.00 20.00     0.035 C 
HETATM    7  C7  UNL     1     -33.761   4.275   5.097  1.00 20.00     0.013 C 
HETATM    8  C8  UNL     1     -32.179   8.829   4.792  1.00 20.00     0.013 C 
HETATM    9  C9  UNL     1     -33.069   7.736   5.379  1.00 20.00     0.017 C 
HETATM   10  C10 UNL     1     -34.094   5.137   3.849  1.00 20.00     0.017 C 
HETATM   11  C11 UNL     1     -34.828   6.336   4.450  1.00 20.00     0.030 C 
HETATM   12  C12 UNL     1     -33.985   7.527   4.175  1.00 20.00     0.030 C 
ENDROOT
TORSDOF 0
ENDMDL
MODEL 2
REMARK VINA RESULT:      -6.0      0.428      3.848
REMARK  0 active torsions:
REMARK  status: ('A' for Active; 'I' for Inactive)
ROOT
HETATM    1  C1  UNL     1     -32.865   6.097   2.863  1.00 20.00    -0.018 C 
HETATM    2  C2  UNL     1     -33.872   7.359   6.376  1.00 20.00    -0.018 C 
HETATM    3  C3  UNL     1     -32.964   7.430   3.113  1.00 20.00    -0.078 C 
HETATM    4  C4  UNL     1     -34.505   6.305   5.827  1.00 20.00    -0.078 C 
HETATM    5  C5  UNL     1     -31.835   8.365   3.403  1.00 20.00     0.035 C 
HETATM    6  C6  UNL     1     -34.557   4.820   6.109  1.00 20.00     0.035 C 
HETATM    7  C7  UNL     1     -31.986   8.547   4.943  1.00 20.00     0.013 C 
HETATM    8  C8  UNL     1     -34.127   4.225   4.690  1.00 20.00     0.013 C 
HETATM    9  C9  UNL     1     -33.485   5.462   4.067  1.00 20.00     0.017 C 
HETATM   10  C10 UNL     1     -33.488   8.396   5.306  1.00 20.00     0.017 C 
HETATM   11  C11 UNL     1     -34.091   7.817   4.025  1.00 20.00     0.030 C 
HETATM   12  C12 UNL     1     -34.595   6.464   4.372  1.00 20.00     0.030 C 
ENDROOT
TORSDOF 0
ENDMDL
MODEL 3
REMARK VINA RESULT:      -5.9      0.966      1.990
REMARK  0 active torsions:
REMARK  status: ('A' for Active; 'I' for Inactive)
ROOT
HETATM    1  C1  UNL     1     -33.251   8.108   4.989  1.00 20.00    -0.018 C 
HETATM    2  C2  UNL     1     -33.989   4.382   4.267  1.00 20.00    -0.018 C 
HETATM    3  C3  UNL     1     -34.269   7.472   5.627  1.00 20.00    -0.078 C 
HETATM    4  C4  UNL     1     -33.693   5.223   3.257  1.00 20.00    -0.078 C 
HETATM    5  C5  UNL     1     -34.238   6.913   7.012  1.00 20.00     0.035 C 
HETATM    6  C6  UNL     1     -32.522   5.397   2.315  1.00 20.00     0.035 C 
HETATM    7  C7  UNL     1     -34.105   5.389   6.716  1.00 20.00     0.013 C 
HETATM    8  C8  UNL     1     -32.144   6.926   2.578  1.00 20.00     0.013 C 
HETATM    9  C9  UNL     1     -32.852   7.150   3.912  1.00 20.00     0.017 C 
HETATM   10  C10 UNL     1     -34.805   5.093   5.362  1.00 20.00     0.017 C 
HETATM   11  C11 UNL     1     -35.026   6.491   4.781  1.00 20.00     0.030 C 
HETATM   12  C12 UNL     1     -34.212   6.564   3.541  1.00 20.00     0.030 C 
ENDROOT
TORSDOF 0
ENDMDL
MODEL 4
REMARK VINA RESULT:      -4.4     12.189     13.724
REMARK  0 active torsions:
REMARK  status: ('A' for Active; 'I' for Inactive)
ROOT
HETATM    1  C1  UNL     1     -36.085  18.017  -4.646  1.00 20.00    -0.018 C 
HETATM    2  C2  UNL     1     -33.757  15.010  -3.950  1.00 20.00    -0.018 C 
HETATM    3  C3  UNL     1     -35.811  17.117  -5.628  1.00 20.00    -0.078 C 
HETATM    4  C4  UNL     1     -33.447  16.231  -3.476  1.00 20.00    -0.078 C 
HETATM    5  C5  UNL     1     -36.686  15.987  -6.065  1.00 20.00     0.035 C 
HETATM    6  C6  UNL     1     -33.392  16.867  -2.105  1.00 20.00     0.035 C 
HETATM    7  C7  UNL     1     -35.958  14.776  -5.408  1.00 20.00     0.013 C 
HETATM    8  C8  UNL     1     -34.360  18.120  -2.311  1.00 20.00     0.013 C 
HETATM    9  C9  UNL     1     -35.105  17.678  -3.569  1.00 20.00     0.017 C 
HETATM   10  C10 UNL     1     -34.443  15.104  -5.325  1.00 20.00     0.017 C 
HETATM   11  C11 UNL     1     -34.402  16.602  -5.634  1.00 20.00     0.030 C 
HETATM   12  C12 UNL     1     -33.896  17.270  -4.408  1.00 20.00     0.030 C 
ENDROOT
TORSDOF 0
ENDMDL
MODEL 5
REMARK VINA RESULT:      -4.3      1.106      3.468
REMARK  0 active torsions:
REMARK  status: ('A' for Active; 'I' for Inactive)
ROOT
HETATM    1  C1  UNL     1     -33.728   8.661   5.041  1.00 20.00    -0.018 C 
HETATM    2  C2  UNL     1     -32.998   5.789   2.558  1.00 20.00    -0.018 C 
HETATM    3  C3  UNL     1     -32.684   8.749   4.175  1.00 20.00    -0.078 C 
HETATM    4  C4  UNL     1     -33.335   5.514   3.832  1.00 20.00    -0.078 C 
HETATM    5  C5  UNL     1     -32.661   9.502   2.885  1.00 20.00     0.035 C 
HETATM    6  C6  UNL     1     -34.540   4.907   4.515  1.00 20.00     0.035 C 
HETATM    7  C7  UNL     1     -32.797   8.337   1.858  1.00 20.00     0.013 C 
HETATM    8  C8  UNL     1     -34.916   6.060   5.553  1.00 20.00     0.013 C 
HETATM    9  C9  UNL     1     -34.161   7.233   4.933  1.00 20.00     0.017 C 
HETATM   10  C10 UNL     1     -32.146   7.068   2.471  1.00 20.00     0.017 C 
HETATM   11  C11 UNL     1     -31.953   7.460   3.937  1.00 20.00     0.030 C 
HETATM   12  C12 UNL     1     -32.812   6.546   4.733  1.00 20.00     0.030 C 
ENDROOT
TORSDOF 0
ENDMDL
MODEL 6
REMARK VINA RESULT:      -4.2     12.295     13.932
REMARK  0 active torsions:
REMARK  status: ('A' for Active; 'I' for Inactive)
ROOT
HETATM    1  C1  UNL     1     -33.523  15.213  -3.879  1.00 20.00    -0.018 C 
HETATM    2  C2  UNL     1     -36.061  18.099  -4.291  1.00 20.00    -0.018 C 
HETATM    3  C3  UNL     1     -33.190  16.479  -3.514  1.00 20.00    -0.078 C 
HETATM    4  C4  UNL     1     -35.924  17.174  -5.259  1.00 20.00    -0.078 C 
HETATM    5  C5  UNL     1     -33.200  17.036  -2.127  1.00 20.00     0.035 C 
HETATM    6  C6  UNL     1     -36.784  16.053  -5.801  1.00 20.00     0.035 C 
HETATM    7  C7  UNL     1     -34.499  17.896  -2.160  1.00 20.00     0.013 C 
HETATM    8  C8  UNL     1     -35.797  14.807  -5.640  1.00 20.00     0.013 C 
HETATM    9  C9  UNL     1     -34.800  15.385  -4.638  1.00 20.00     0.017 C 
HETATM   10  C10 UNL     1     -34.713  18.400  -3.613  1.00 20.00     0.017 C 
HETATM   11  C11 UNL     1     -33.722  17.554  -4.416  1.00 20.00     0.030 C 
HETATM   12  C12 UNL     1     -34.533  16.717  -5.336  1.00 20.00     0.030 C 
ENDROOT
TORSDOF 0
ENDMDL
MODEL 7
REMARK VINA RESULT:      -4.1      9.944     11.206
REMARK  0 active torsions:
REMARK  status: ('A' for Active; 'I' for Inactive)
ROOT
HETATM    1  C1  UNL     1     -42.009  14.085   4.380  1.00 20.00    -0.018 C 
HETATM    2  C2  UNL     1     -40.244  14.029   7.819  1.00 20.00    -0.018 C 
HETATM    3  C3  UNL     1     -42.588  14.674   5.460  1.00 20.00    -0.078 C 
HETATM    4  C4  UNL     1     -40.253  12.929   7.044  1.00 20.00    -0.078 C 
HETATM    5  C5  UNL     1     -42.580  16.132   5.787  1.00 20.00     0.035 C 
HETATM    6  C6  UNL     1     -39.214  12.163   6.256  1.00 20.00     0.035 C 
HETATM    7  C7  UNL     1     -41.520  16.175   6.928  1.00 20.00     0.013 C 
HETATM    8  C8  UNL     1     -39.872  12.164   4.801  1.00 20.00     0.013 C 
HETATM    9  C9  UNL     1     -40.879  13.299   4.965  1.00 20.00     0.017 C 
HETATM   10  C10 UNL     1     -41.559  14.818   7.682  1.00 20.00     0.017 C 
HETATM   11  C11 UNL     1     -42.399  13.938   6.754  1.00 20.00     0.030 C 
HETATM   12  C12 UNL     1     -41.505  12.850   6.284  1.00 20.00     0.030 C 
ENDROOT
TORSDOF 0
ENDMDL
MODEL 8
REMARK VINA RESULT:      -4.0      1.155      2.689
REMARK  0 active torsions:
REMARK  status: ('A' for Active; 'I' for Inactive)
ROOT
HETATM    1  C1  UNL     1     -32.934   5.408   2.604  1.00 20.00    -0.018 C 
HETATM    2  C2  UNL     1     -33.909   8.526   4.670  1.00 20.00    -0.018 C 
HETATM    3  C3  UNL     1     -33.264   5.287   3.917  1.00 20.00    -0.078 C 
HETATM    4  C4  UNL     1     -32.876   8.580   3.808  1.00 20.00    -0.078 C 
HETATM    5  C5  UNL     1     -34.584   4.851   4.465  1.00 20.00     0.035 C 
HETATM    6  C6  UNL     1     -32.617   9.270   2.487  1.00 20.00     0.035 C 
HETATM    7  C7  UNL     1     -35.178   6.215   4.931  1.00 20.00     0.013 C 
HETATM    8  C8  UNL     1     -32.225   8.025   1.565  1.00 20.00     0.013 C 
HETATM    9  C9  UNL     1     -32.787   6.883   2.407  1.00 20.00     0.017 C 
HETATM   10  C10 UNL     1     -34.004   7.144   5.340  1.00 20.00     0.017 C 
HETATM   11  C11 UNL     1     -32.780   6.406   4.793  1.00 20.00     0.030 C 
HETATM   12  C12 UNL     1     -32.189   7.286   3.753  1.00 20.00     0.030 C 
ENDROOT
TORSDOF 0
ENDMDL
MODEL 9
REMARK VINA RESULT:      -4.0     12.030     13.722
REMARK  0 active torsions:
REMARK  status: ('A' for Active; 'I' for Inactive)
ROOT
HETATM    1  C1  UNL     1     -36.142  17.149  -5.143  1.00 20.00    -0.018 C 
HETATM    2  C2  UNL     1     -33.454  16.580  -2.424  1.00 20.00    -0.018 C 
HETATM    3  C3  UNL     1     -35.052  16.380  -5.404  1.00 20.00    -0.078 C 
HETATM    4  C4  UNL     1     -33.991  17.802  -2.601  1.00 20.00    -0.078 C 
HETATM    5  C5  UNL     1     -34.993  14.887  -5.385  1.00 20.00     0.035 C 
HETATM    6  C6  UNL     1     -34.920  18.690  -1.803  1.00 20.00     0.035 C 
HETATM    7  C7  UNL     1     -34.258  14.635  -4.035  1.00 20.00     0.013 C 
HETATM    8  C8  UNL     1     -36.081  18.953  -2.867  1.00 20.00     0.013 C 
HETATM    9  C9  UNL     1     -35.809  17.812  -3.845  1.00 20.00     0.017 C 
HETATM   10  C10 UNL     1     -33.311  15.835  -3.764  1.00 20.00     0.017 C 
HETATM   11  C11 UNL     1     -33.774  16.871  -4.790  1.00 20.00     0.030 C 
HETATM   12  C12 UNL     1     -34.306  18.022  -4.016  1.00 20.00     0.030 C 
ENDROOT
TORSDOF 0
ENDMDL
