MODEL 1
REMARK VINA RESULT:      -4.7      0.000      0.000
REMARK  1 active torsions:
REMARK  status: ('A' for Active; 'I' for Inactive)
REMARK    1  A    between atoms: C8_8  and  O12_12 
ROOT
HETATM    1  C1  UNL     1     -33.134   6.322   3.144  1.00 20.00    -0.049 C 
HETATM    2  C2  UNL     1     -34.694   5.620   5.052  1.00 20.00     0.135 C 
HETATM    3  C3  UNL     1     -32.702   5.203   2.559  1.00 20.00     0.017 C 
HETATM    4  C4  UNL     1     -34.250   5.891   6.479  1.00 20.00     0.079 C 
HETATM    5  C5  UNL     1     -33.991   7.370   6.746  1.00 20.00     0.008 C 
HETATM    6  C6  UNL     1     -32.958   7.919   5.767  1.00 20.00     0.009 C 
HETATM    7  C7  UNL     1     -34.362   6.667   3.964  1.00 20.00     0.092 C 
HETATM    8  C8  UNL     1     -32.565   7.728   3.195  1.00 20.00     0.155 C 
HETATM    9  C9  UNL     1     -33.567   7.940   4.364  1.00 20.00     0.034 C 
HETATM   10  O11 UNL     1     -35.274   4.556   4.799  1.00 20.00    -0.297 OA
ENDROOT
BRANCH   8  11
HETATM   11  O12 UNL     1     -32.810   8.503   2.008  1.00 20.00    -0.386 OA
HETATM   12  C10 UNL     1     -31.792   8.293   1.048  1.00 20.00     0.202 C 
ENDBRANCH   8  11
TORSDOF 1
ENDMDL
MODEL 2
REMARK VINA RESULT:      -4.0     15.334     15.934
REMARK  1 active torsions:
REMARK  status: ('A' for Active; 'I' for Inactive)
REMARK    1  A    between atoms: C8_8  and  O12_12 
ROOT
HETATM    1  C1  UNL     1     -24.749  18.806   9.390  1.00 20.00    -0.049 C 
HETATM    2  C2  UNL     1     -25.843  18.463  11.681  1.00 20.00     0.135 C 
HETATM    3  C3  UNL     1     -25.696  19.262   8.567  1.00 20.00     0.017 C 
HETATM    4  C4  UNL     1     -25.981  17.044  12.206  1.00 20.00     0.079 C 
HETATM    5  C5  UNL     1     -24.641  16.328  12.331  1.00 20.00     0.008 C 
HETATM    6  C6  UNL     1     -23.910  16.318  10.992  1.00 20.00     0.009 C 
HETATM    7  C7  UNL     1     -24.566  18.839  10.895  1.00 20.00     0.092 C 
HETATM    8  C8  UNL     1     -23.439  18.085   9.132  1.00 20.00     0.155 C 
HETATM    9  C9  UNL     1     -23.488  17.748  10.648  1.00 20.00     0.034 C 
HETATM   10  O11 UNL     1     -26.770  19.261  11.868  1.00 20.00    -0.297 OA
ENDROOT
BRANCH   8  11
HETATM   11  O12 UNL     1     -22.366  18.949   8.713  1.00 20.00    -0.386 OA
HETATM   12  C10 UNL     1     -21.541  18.305   7.762  1.00 20.00     0.202 C 
ENDBRANCH   8  11
TORSDOF 1
ENDMDL
MODEL 3
REMARK VINA RESULT:      -4.0     11.965     13.428
REMARK  1 active torsions:
REMARK  status: ('A' for Active; 'I' for Inactive)
REMARK    1  A    between atoms: C8_8  and  O12_12 
ROOT
HETATM    1  C1  UNL     1     -33.525  18.125  -3.881  1.00 20.00    -0.049 C 
HETATM    2  C2  UNL     1     -34.975  16.692  -5.434  1.00 20.00     0.135 C 
HETATM    3  C3  UNL     1     -33.262  19.262  -4.530  1.00 20.00     0.017 C 
HETATM    4  C4  UNL     1     -34.383  15.407  -5.987  1.00 20.00     0.079 C 
HETATM    5  C5  UNL     1     -33.953  14.437  -4.891  1.00 20.00     0.008 C 
HETATM    6  C6  UNL     1     -32.960  15.103  -3.944  1.00 20.00     0.009 C 
HETATM    7  C7  UNL     1     -34.636  17.097  -3.981  1.00 20.00     0.092 C 
HETATM    8  C8  UNL     1     -32.815  17.415  -2.744  1.00 20.00     0.155 C 
HETATM    9  C9  UNL     1     -33.684  16.192  -3.152  1.00 20.00     0.034 C 
HETATM   10  O11 UNL     1     -35.679  17.391  -6.175  1.00 20.00    -0.297 OA
ENDROOT
BRANCH   8  11
HETATM   11  O12 UNL     1     -33.083  17.972  -1.445  1.00 20.00    -0.386 OA
HETATM   12  C10 UNL     1     -31.881  18.331  -0.791  1.00 20.00     0.202 C 
ENDBRANCH   8  11
TORSDOF 1
ENDMDL
MODEL 4
REMARK VINA RESULT:      -3.8     11.800     13.806
REMARK  1 active torsions:
REMARK  status: ('A' for Active; 'I' for Inactive)
REMARK    1  A    between atoms: C8_8  and  O12_12 
ROOT
HETATM    1  C1  UNL     1     -34.612  16.277  -6.391  1.00 20.00    -0.049 C 
HETATM    2  C2  UNL     1     -34.007  15.245  -4.125  1.00 20.00     0.135 C 
HETATM    3  C3  UNL     1     -34.044  15.519  -7.331  1.00 20.00     0.017 C 
HETATM    4  C4  UNL     1     -33.093  16.029  -3.199  1.00 20.00     0.079 C 
HETATM    5  C5  UNL     1     -33.655  17.399  -2.837  1.00 20.00     0.008 C 
HETATM    6  C6  UNL     1     -33.942  18.212  -4.095  1.00 20.00     0.009 C 
HETATM    7  C7  UNL     1     -35.051  16.019  -4.962  1.00 20.00     0.092 C 
HETATM    8  C8  UNL     1     -35.077  17.722  -6.393  1.00 20.00     0.155 C 
HETATM    9  C9  UNL     1     -35.108  17.567  -4.847  1.00 20.00     0.034 C 
HETATM   10  O11 UNL     1     -33.863  14.018  -4.207  1.00 20.00    -0.297 OA
ENDROOT
BRANCH   8  11
HETATM   11  O12 UNL     1     -36.350  17.927  -7.030  1.00 20.00    -0.386 OA
HETATM   12  C10 UNL     1     -36.300  19.028  -7.918  1.00 20.00     0.202 C 
ENDBRANCH   8  11
TORSDOF 1
ENDMDL
MODEL 5
REMARK VINA RESULT:      -3.8     11.792     13.788
REMARK  1 active torsions:
REMARK  status: ('A' for Active; 'I' for Inactive)
REMARK    1  A    between atoms: C8_8  and  O12_12 
ROOT
HETATM    1  C1  UNL     1     -34.185  15.694  -4.487  1.00 20.00    -0.049 C 
HETATM    2  C2  UNL     1     -35.458  15.741  -6.711  1.00 20.00     0.135 C 
HETATM    3  C3  UNL     1     -33.991  14.411  -4.174  1.00 20.00     0.017 C 
HETATM    4  C4  UNL     1     -36.885  16.263  -6.712  1.00 20.00     0.079 C 
HETATM    5  C5  UNL     1     -36.988  17.696  -6.202  1.00 20.00     0.008 C 
HETATM    6  C6  UNL     1     -36.392  17.813  -4.803  1.00 20.00     0.009 C 
HETATM    7  C7  UNL     1     -34.420  16.427  -5.794  1.00 20.00     0.092 C 
HETATM    8  C8  UNL     1     -34.219  16.954  -3.642  1.00 20.00     0.155 C 
HETATM    9  C9  UNL     1     -34.879  17.604  -4.890  1.00 20.00     0.034 C 
HETATM   10  O11 UNL     1     -35.181  14.761  -7.416  1.00 20.00    -0.297 OA
ENDROOT
BRANCH   8  11
HETATM   11  O12 UNL     1     -32.919  17.455  -3.284  1.00 20.00    -0.386 OA
HETATM   12  C10 UNL     1     -32.870  17.800  -1.913  1.00 20.00     0.202 C 
ENDBRANCH   8  11
TORSDOF 1
ENDMDL
MODEL 6
REMARK VINA RESULT:      -3.7     12.234     14.048
REMARK  1 active torsions:
REMARK  status: ('A' for Active; 'I' for Inactive)
REMARK    1  A    between atoms: C8_8  and  O12_12 
ROOT
HETATM    1  C1  UNL     1     -35.917  17.697  -4.918  1.00 20.00    -0.049 C 
HETATM    2  C2  UNL     1     -33.725  17.527  -3.603  1.00 20.00     0.135 C 
HETATM    3  C3  UNL     1     -36.753  18.441  -4.191  1.00 20.00     0.017 C 
HETATM    4  C4  UNL     1     -33.320  16.171  -3.052  1.00 20.00     0.079 C 
HETATM    5  C5  UNL     1     -33.176  15.112  -4.139  1.00 20.00     0.008 C 
HETATM    6  C6  UNL     1     -34.468  14.984  -4.939  1.00 20.00     0.009 C 
HETATM    7  C7  UNL     1     -34.406  17.589  -4.989  1.00 20.00     0.092 C 
HETATM    8  C8  UNL     1     -36.156  16.664  -6.004  1.00 20.00     0.155 C 
HETATM    9  C9  UNL     1     -34.676  16.263  -5.752  1.00 20.00     0.034 C 
HETATM   10  O11 UNL     1     -33.529  18.535  -2.911  1.00 20.00    -0.297 OA
ENDROOT
BRANCH   8  11
HETATM   11  O12 UNL     1     -36.445  17.227  -7.296  1.00 20.00    -0.386 OA
HETATM   12  C10 UNL     1     -37.681  16.750  -7.791  1.00 20.00     0.202 C 
ENDBRANCH   8  11
TORSDOF 1
ENDMDL
MODEL 7
REMARK VINA RESULT:      -3.7     12.386     13.623
REMARK  1 active torsions:
REMARK  status: ('A' for Active; 'I' for Inactive)
REMARK    1  A    between atoms: C8_8  and  O12_12 
ROOT
HETATM    1  C1  UNL     1     -26.865  -3.510  10.813  1.00 20.00    -0.049 C 
HETATM    2  C2  UNL     1     -28.490  -1.556  11.140  1.00 20.00     0.135 C 
HETATM    3  C3  UNL     1     -27.558  -4.633  11.006  1.00 20.00     0.017 C 
HETATM    4  C4  UNL     1     -28.280  -0.638  12.332  1.00 20.00     0.079 C 
HETATM    5  C5  UNL     1     -26.908   0.026  12.330  1.00 20.00     0.008 C 
HETATM    6  C6  UNL     1     -25.803  -1.024  12.281  1.00 20.00     0.009 C 
HETATM    7  C7  UNL     1     -27.248  -2.102  10.399  1.00 20.00     0.092 C 
HETATM    8  C8  UNL     1     -25.382  -3.201  10.905  1.00 20.00     0.155 C 
HETATM    9  C9  UNL     1     -25.836  -1.714  10.916  1.00 20.00     0.034 C 
HETATM   10  O11 UNL     1     -29.646  -1.867  10.823  1.00 20.00    -0.297 OA
ENDROOT
BRANCH   8  11
HETATM   11  O12 UNL     1     -24.623  -3.619   9.757  1.00 20.00    -0.386 OA
HETATM   12  C10 UNL     1     -23.434  -4.278  10.150  1.00 20.00     0.202 C 
ENDBRANCH   8  11
TORSDOF 1
ENDMDL
MODEL 8
REMARK VINA RESULT:      -3.7     12.323     13.818
REMARK  1 active torsions:
REMARK  status: ('A' for Active; 'I' for Inactive)
REMARK    1  A    between atoms: C8_8  and  O12_12 
ROOT
HETATM    1  C1  UNL     1     -33.534  17.181  -3.282  1.00 20.00    -0.049 C 
HETATM    2  C2  UNL     1     -35.370  17.635  -5.011  1.00 20.00     0.135 C 
HETATM    3  C3  UNL     1     -33.176  15.902  -3.417  1.00 20.00     0.017 C 
HETATM    4  C4  UNL     1     -36.773  17.929  -4.509  1.00 20.00     0.079 C 
HETATM    5  C5  UNL     1     -36.828  19.146  -3.592  1.00 20.00     0.008 C 
HETATM    6  C6  UNL     1     -35.879  18.971  -2.411  1.00 20.00     0.009 C 
HETATM    7  C7  UNL     1     -34.168  18.194  -4.216  1.00 20.00     0.092 C 
HETATM    8  C8  UNL     1     -33.418  18.153  -2.123  1.00 20.00     0.155 C 
HETATM    9  C9  UNL     1     -34.438  19.010  -2.923  1.00 20.00     0.034 C 
HETATM   10  O11 UNL     1     -35.233  16.928  -6.018  1.00 20.00    -0.297 OA
ENDROOT
BRANCH   8  11
HETATM   11  O12 UNL     1     -32.106  18.721  -1.962  1.00 20.00    -0.386 OA
HETATM   12  C10 UNL     1     -31.629  18.528  -0.645  1.00 20.00     0.202 C 
ENDBRANCH   8  11
TORSDOF 1
ENDMDL
MODEL 9
REMARK VINA RESULT:      -3.5     11.181     12.369
REMARK  1 active torsions:
REMARK  status: ('A' for Active; 'I' for Inactive)
REMARK    1  A    between atoms: C8_8  and  O12_12 
ROOT
HETATM    1  C1  UNL     1     -40.583  15.430   8.628  1.00 20.00    -0.049 C 
HETATM    2  C2  UNL     1     -40.612  13.435   7.020  1.00 20.00     0.135 C 
HETATM    3  C3  UNL     1     -40.140  14.980   9.803  1.00 20.00     0.017 C 
HETATM    4  C4  UNL     1     -41.957  12.928   6.528  1.00 20.00     0.079 C 
HETATM    5  C5  UNL     1     -42.758  13.998   5.794  1.00 20.00     0.008 C 
HETATM    6  C6  UNL     1     -42.956  15.223   6.682  1.00 20.00     0.009 C 
HETATM    7  C7  UNL     1     -40.416  14.958   7.196  1.00 20.00     0.092 C 
HETATM    8  C8  UNL     1     -41.425  16.636   8.251  1.00 20.00     0.155 C 
HETATM    9  C9  UNL     1     -41.605  15.909   6.890  1.00 20.00     0.034 C 
HETATM   10  O11 UNL     1     -39.730  12.612   7.299  1.00 20.00    -0.297 OA
ENDROOT
BRANCH   8  11
HETATM   11  O12 UNL     1     -40.692  17.874   8.212  1.00 20.00    -0.386 OA
HETATM   12  C10 UNL     1     -41.356  18.878   8.955  1.00 20.00     0.202 C 
ENDBRANCH   8  11
TORSDOF 1
ENDMDL
