MODEL 1
REMARK VINA RESULT:      -4.9      0.000      0.000
REMARK  1 active torsions:
REMARK  status: ('A' for Active; 'I' for Inactive)
REMARK    1  A    between atoms: C7_7  and  C8_8 
ROOT
HETATM    1  C1  UNL     1     -34.429   4.991   5.859  1.00 20.00    -0.026 C 
HETATM    2  C2  UNL     1     -34.230   6.163   6.481  1.00 20.00    -0.025 C 
HETATM    3  C3  UNL     1     -35.367   6.631   4.528  1.00 20.00     0.017 C 
HETATM    4  C4  UNL     1     -33.284   5.754   3.800  1.00 20.00     0.014 C 
HETATM    5  C5  UNL     1     -34.634   5.293   4.394  1.00 20.00     0.009 C 
HETATM    6  C6  UNL     1     -34.288   7.245   5.425  1.00 20.00     0.013 C 
HETATM    7  C7  UNL     1     -33.012   7.097   4.553  1.00 20.00     0.007 C 
ENDROOT
BRANCH   7   8
HETATM    8  C8  UNL     1     -32.805   8.265   3.597  1.00 20.00     0.119 C 
HETATM    9 CL9  UNL     1     -32.186   7.681   2.041  1.00 20.00    -0.130 Cl
ENDBRANCH   7   8
TORSDOF 1
ENDMDL
MODEL 2
REMARK VINA RESULT:      -4.4      1.449      1.542
REMARK  1 active torsions:
REMARK  status: ('A' for Active; 'I' for Inactive)
REMARK    1  A    between atoms: C7_7  and  C8_8 
ROOT
HETATM    1  C1  UNL     1     -34.660   5.642   6.554  1.00 20.00    -0.026 C 
HETATM    2  C2  UNL     1     -34.094   6.826   6.276  1.00 20.00    -0.025 C 
HETATM    3  C3  UNL     1     -35.461   6.307   4.491  1.00 20.00     0.017 C 
HETATM    4  C4  UNL     1     -33.801   4.609   4.474  1.00 20.00     0.014 C 
HETATM    5  C5  UNL     1     -35.076   5.028   5.239  1.00 20.00     0.009 C 
HETATM    6  C6  UNL     1     -34.120   6.993   4.772  1.00 20.00     0.013 C 
HETATM    7  C7  UNL     1     -33.103   5.977   4.185  1.00 20.00     0.007 C 
ENDROOT
BRANCH   7   8
HETATM    8  C8  UNL     1     -32.838   6.190   2.700  1.00 20.00     0.119 C 
HETATM    9 CL9  UNL     1     -32.882   4.640   1.841  1.00 20.00    -0.130 Cl
ENDBRANCH   7   8
TORSDOF 1
ENDMDL
MODEL 3
REMARK VINA RESULT:      -4.1      0.944      1.834
REMARK  1 active torsions:
REMARK  status: ('A' for Active; 'I' for Inactive)
REMARK    1  A    between atoms: C7_7  and  C8_8 
ROOT
HETATM    1  C1  UNL     1     -35.439   5.380   5.825  1.00 20.00    -0.026 C 
HETATM    2  C2  UNL     1     -35.501   5.777   4.545  1.00 20.00    -0.025 C 
HETATM    3  C3  UNL     1     -33.326   5.107   4.931  1.00 20.00     0.017 C 
HETATM    4  C4  UNL     1     -33.626   6.981   6.358  1.00 20.00     0.014 C 
HETATM    5  C5  UNL     1     -33.995   5.485   6.255  1.00 20.00     0.009 C 
HETATM    6  C6  UNL     1     -34.097   6.159   4.127  1.00 20.00     0.013 C 
HETATM    7  C7  UNL     1     -33.742   7.471   4.878  1.00 20.00     0.007 C 
ENDROOT
BRANCH   7   8
HETATM    8  C8  UNL     1     -32.454   8.113   4.378  1.00 20.00     0.119 C 
HETATM    9 CL9  UNL     1     -32.136   7.626   2.703  1.00 20.00    -0.130 Cl
ENDBRANCH   7   8
TORSDOF 1
ENDMDL
MODEL 4
REMARK VINA RESULT:      -3.9      8.586      9.914
REMARK  1 active torsions:
REMARK  status: ('A' for Active; 'I' for Inactive)
REMARK    1  A    between atoms: C7_7  and  C8_8 
ROOT
HETATM    1  C1  UNL     1     -40.795   8.235  -0.032  1.00 20.00    -0.026 C 
HETATM    2  C2  UNL     1     -41.992   8.416  -0.613  1.00 20.00    -0.025 C 
HETATM    3  C3  UNL     1     -42.372   7.266   1.352  1.00 20.00     0.017 C 
HETATM    4  C4  UNL     1     -41.071   5.775   0.040  1.00 20.00     0.014 C 
HETATM    5  C5  UNL     1     -40.926   7.052   0.897  1.00 20.00     0.009 C 
HETATM    6  C6  UNL     1     -42.915   7.342  -0.079  1.00 20.00     0.013 C 
HETATM    7  C7  UNL     1     -42.439   5.993  -0.682  1.00 20.00     0.007 C 
ENDROOT
BRANCH   7   8
HETATM    8  C8  UNL     1     -43.416   4.851  -0.431  1.00 20.00     0.119 C 
HETATM    9 CL9  UNL     1     -42.983   3.991   1.059  1.00 20.00    -0.130 Cl
ENDBRANCH   7   8
TORSDOF 1
ENDMDL
MODEL 5
REMARK VINA RESULT:      -3.9      2.223      3.686
REMARK  1 active torsions:
REMARK  status: ('A' for Active; 'I' for Inactive)
REMARK    1  A    between atoms: C7_7  and  C8_8 
ROOT
HETATM    1  C1  UNL     1     -32.643   8.314   2.195  1.00 20.00    -0.026 C 
HETATM    2  C2  UNL     1     -32.882   9.268   3.108  1.00 20.00    -0.025 C 
HETATM    3  C3  UNL     1     -31.461   7.740   4.096  1.00 20.00     0.017 C 
HETATM    4  C4  UNL     1     -33.453   6.513   3.690  1.00 20.00     0.014 C 
HETATM    5  C5  UNL     1     -32.220   7.074   2.946  1.00 20.00     0.009 C 
HETATM    6  C6  UNL     1     -32.631   8.655   4.470  1.00 20.00     0.013 C 
HETATM    7  C7  UNL     1     -33.774   7.638   4.727  1.00 20.00     0.007 C 
ENDROOT
BRANCH   7   8
HETATM    8  C8  UNL     1     -33.797   7.116   6.158  1.00 20.00     0.119 C 
HETATM    9 CL9  UNL     1     -34.625   5.550   6.227  1.00 20.00    -0.130 Cl
ENDBRANCH   7   8
TORSDOF 1
ENDMDL
MODEL 6
REMARK VINA RESULT:      -3.7     12.406     13.376
REMARK  1 active torsions:
REMARK  status: ('A' for Active; 'I' for Inactive)
REMARK    1  A    between atoms: C7_7  and  C8_8 
ROOT
HETATM    1  C1  UNL     1     -33.386  17.539  -3.642  1.00 20.00    -0.026 C 
HETATM    2  C2  UNL     1     -33.390  16.583  -2.701  1.00 20.00    -0.025 C 
HETATM    3  C3  UNL     1     -34.617  18.349  -1.862  1.00 20.00     0.017 C 
HETATM    4  C4  UNL     1     -32.421  19.219  -2.100  1.00 20.00     0.014 C 
HETATM    5  C5  UNL     1     -33.659  18.851  -2.946  1.00 20.00     0.009 C 
HETATM    6  C6  UNL     1     -33.652  17.262  -1.374  1.00 20.00     0.013 C 
HETATM    7  C7  UNL     1     -32.382  18.084  -1.026  1.00 20.00     0.007 C 
ENDROOT
BRANCH   7   8
HETATM    8  C8  UNL     1     -32.398  18.631   0.396  1.00 20.00     0.119 C 
HETATM    9 CL9  UNL     1     -30.828  18.360   1.174  1.00 20.00    -0.130 Cl
ENDBRANCH   7   8
TORSDOF 1
ENDMDL
MODEL 7
REMARK VINA RESULT:      -3.6      8.781     10.004
REMARK  1 active torsions:
REMARK  status: ('A' for Active; 'I' for Inactive)
REMARK    1  A    between atoms: C7_7  and  C8_8 
ROOT
HETATM    1  C1  UNL     1     -41.175   7.901  -0.291  1.00 20.00    -0.026 C 
HETATM    2  C2  UNL     1     -40.612   6.729   0.040  1.00 20.00    -0.025 C 
HETATM    3  C3  UNL     1     -42.728   6.253  -0.752  1.00 20.00     0.017 C 
HETATM    4  C4  UNL     1     -43.108   7.533   1.211  1.00 20.00     0.014 C 
HETATM    5  C5  UNL     1     -42.671   7.702  -0.260  1.00 20.00     0.009 C 
HETATM    6  C6  UNL     1     -41.738   5.752   0.305  1.00 20.00     0.013 C 
HETATM    7  C7  UNL     1     -42.419   6.194   1.628  1.00 20.00     0.007 C 
ENDROOT
BRANCH   7   8
HETATM    8  C8  UNL     1     -43.416   5.169   2.155  1.00 20.00     0.119 C 
HETATM    9 CL9  UNL     1     -43.267   3.649   1.254  1.00 20.00    -0.130 Cl
ENDBRANCH   7   8
TORSDOF 1
ENDMDL
MODEL 8
REMARK VINA RESULT:      -3.6      1.940      3.408
REMARK  1 active torsions:
REMARK  status: ('A' for Active; 'I' for Inactive)
REMARK    1  A    between atoms: C7_7  and  C8_8 
ROOT
HETATM    1  C1  UNL     1     -32.322   8.990   4.972  1.00 20.00    -0.026 C 
HETATM    2  C2  UNL     1     -32.013   7.927   4.213  1.00 20.00    -0.025 C 
HETATM    3  C3  UNL     1     -34.309   8.148   4.145  1.00 20.00     0.017 C 
HETATM    4  C4  UNL     1     -33.832   7.666   6.420  1.00 20.00     0.014 C 
HETATM    5  C5  UNL     1     -33.760   8.826   5.403  1.00 20.00     0.009 C 
HETATM    6  C6  UNL     1     -33.243   7.047   4.152  1.00 20.00     0.013 C 
HETATM    7  C7  UNL     1     -33.425   6.424   5.562  1.00 20.00     0.007 C 
ENDROOT
BRANCH   7   8
HETATM    8  C8  UNL     1     -34.480   5.326   5.596  1.00 20.00     0.119 C 
HETATM    9 CL9  UNL     1     -34.172   4.140   4.313  1.00 20.00    -0.130 Cl
ENDBRANCH   7   8
TORSDOF 1
ENDMDL
MODEL 9
REMARK VINA RESULT:      -3.5     15.906     16.864
REMARK  1 active torsions:
REMARK  status: ('A' for Active; 'I' for Inactive)
REMARK    1  A    between atoms: C7_7  and  C8_8 
ROOT
HETATM    1  C1  UNL     1     -22.041  17.818   7.892  1.00 20.00    -0.026 C 
HETATM    2  C2  UNL     1     -22.793  18.930   7.891  1.00 20.00    -0.025 C 
HETATM    3  C3  UNL     1     -21.774  18.817   9.959  1.00 20.00     0.017 C 
HETATM    4  C4  UNL     1     -23.182  16.906   9.892  1.00 20.00     0.014 C 
HETATM    5  C5  UNL     1     -21.837  17.420   9.334  1.00 20.00     0.009 C 
HETATM    6  C6  UNL     1     -23.101  19.263   9.335  1.00 20.00     0.013 C 
HETATM    7  C7  UNL     1     -24.086  18.180   9.850  1.00 20.00     0.007 C 
ENDROOT
BRANCH   7   8
HETATM    8  C8  UNL     1     -24.679  18.514  11.214  1.00 20.00     0.119 C 
HETATM    9 CL9  UNL     1     -25.220  17.034  12.027  1.00 20.00    -0.130 Cl
ENDBRANCH   7   8
TORSDOF 1
ENDMDL
