MODEL 1
REMARK VINA RESULT:      -4.2      0.000      0.000
REMARK  0 active torsions:
REMARK  status: ('A' for Active; 'I' for Inactive)
ROOT
HETATM    1  C1  UNL     1     -35.934  15.845  -5.141  1.00 20.00    -0.019 A 
HETATM    2  C2  UNL     1     -35.971  17.167  -4.900  1.00 20.00    -0.019 A 
HETATM    3  C3  UNL     1     -33.634  15.534  -3.055  1.00 20.00    -0.023 C 
HETATM    4  C4  UNL     1     -33.675  16.852  -2.798  1.00 20.00    -0.086 C 
HETATM    5  C5  UNL     1     -33.615  14.966  -4.442  1.00 20.00     0.042 C 
HETATM    6  C6  UNL     1     -33.698  17.871  -3.908  1.00 20.00     0.048 C 
HETATM    7  C7  UNL     1     -34.804  16.288  -7.918  1.00 20.00     0.001 C 
HETATM    8  C8  UNL     1     -34.842  17.794  -7.643  1.00 20.00     0.001 C 
HETATM    9  C9  UNL     1     -34.043  15.468  -6.879  1.00 20.00     0.015 C 
HETATM   10  C10 UNL     1     -34.116  18.233  -6.373  1.00 20.00     0.015 C 
HETATM   11  C11 UNL     1     -34.427  15.823  -5.430  1.00 20.00    -0.009 A 
HETATM   12  C12 UNL     1     -34.470  17.369  -5.147  1.00 20.00    -0.008 A 
HETATM   13  C13 UNL     1     -33.662  17.388  -1.398  1.00 20.00     0.043 C 
ENDROOT
TORSDOF 0
ENDMDL
MODEL 2
REMARK VINA RESULT:      -4.1     11.540     14.052
REMARK  0 active torsions:
REMARK  status: ('A' for Active; 'I' for Inactive)
ROOT
HETATM    1  C1  UNL     1     -34.912   7.799   4.628  1.00 20.00    -0.019 A 
HETATM    2  C2  UNL     1     -35.027   6.880   3.655  1.00 20.00    -0.019 A 
HETATM    3  C3  UNL     1     -32.174   8.707   3.440  1.00 20.00    -0.023 C 
HETATM    4  C4  UNL     1     -32.288   7.801   2.456  1.00 20.00    -0.086 C 
HETATM    5  C5  UNL     1     -32.416   8.389   4.885  1.00 20.00     0.042 C 
HETATM    6  C6  UNL     1     -32.671   6.372   2.741  1.00 20.00     0.048 C 
HETATM    7  C7  UNL     1     -34.505   5.656   6.732  1.00 20.00     0.001 C 
HETATM    8  C8  UNL     1     -34.632   4.608   5.623  1.00 20.00     0.001 C 
HETATM    9  C9  UNL     1     -33.445   6.726   6.482  1.00 20.00     0.015 C 
HETATM   10  C10 UNL     1     -33.681   4.803   4.443  1.00 20.00     0.015 C 
HETATM   11  C11 UNL     1     -33.519   7.329   5.066  1.00 20.00    -0.009 A 
HETATM   12  C12 UNL     1     -33.652   6.255   3.926  1.00 20.00    -0.008 A 
HETATM   13  C13 UNL     1     -32.007   8.145   1.024  1.00 20.00     0.043 C 
ENDROOT
TORSDOF 0
ENDMDL
MODEL 3
REMARK VINA RESULT:      -4.1      1.423      3.312
REMARK  0 active torsions:
REMARK  status: ('A' for Active; 'I' for Inactive)
ROOT
HETATM    1  C1  UNL     1     -33.935  19.204  -4.081  1.00 20.00    -0.019 A 
HETATM    2  C2  UNL     1     -32.932  18.360  -3.780  1.00 20.00    -0.019 A 
HETATM    3  C3  UNL     1     -34.898  19.109  -1.115  1.00 20.00    -0.023 C 
HETATM    4  C4  UNL     1     -33.890  18.278  -0.803  1.00 20.00    -0.086 C 
HETATM    5  C5  UNL     1     -35.784  18.919  -2.309  1.00 20.00     0.042 C 
HETATM    6  C6  UNL     1     -33.578  17.069  -1.645  1.00 20.00     0.048 C 
HETATM    7  C7  UNL     1     -35.345  17.087  -5.729  1.00 20.00     0.001 C 
HETATM    8  C8  UNL     1     -34.206  16.125  -5.384  1.00 20.00     0.001 C 
HETATM    9  C9  UNL     1     -36.026  17.730  -4.523  1.00 20.00     0.015 C 
HETATM   10  C10 UNL     1     -33.931  15.966  -3.890  1.00 20.00     0.015 C 
HETATM   11  C11 UNL     1     -35.026  18.298  -3.497  1.00 20.00    -0.009 A 
HETATM   12  C12 UNL     1     -33.854  17.312  -3.143  1.00 20.00    -0.008 A 
HETATM   13  C13 UNL     1     -33.043  18.481   0.417  1.00 20.00     0.043 C 
ENDROOT
TORSDOF 0
ENDMDL
MODEL 4
REMARK VINA RESULT:      -3.9     12.251     14.684
REMARK  0 active torsions:
REMARK  status: ('A' for Active; 'I' for Inactive)
ROOT
HETATM    1  C1  UNL     1     -43.416  13.215   6.664  1.00 20.00    -0.019 A 
HETATM    2  C2  UNL     1     -42.560  12.548   7.458  1.00 20.00    -0.019 A 
HETATM    3  C3  UNL     1     -41.182  13.499   4.504  1.00 20.00    -0.023 C 
HETATM    4  C4  UNL     1     -40.325  12.821   5.285  1.00 20.00    -0.086 C 
HETATM    5  C5  UNL     1     -42.038  14.624   5.002  1.00 20.00     0.042 C 
HETATM    6  C6  UNL     1     -40.158  13.154   6.745  1.00 20.00     0.048 C 
HETATM    7  C7  UNL     1     -43.417  15.611   8.519  1.00 20.00     0.001 C 
HETATM    8  C8  UNL     1     -42.439  14.854   9.423  1.00 20.00     0.001 C 
HETATM    9  C9  UNL     1     -42.972  15.742   7.065  1.00 20.00     0.015 C 
HETATM   10  C10 UNL     1     -41.179  14.348   8.723  1.00 20.00     0.015 C 
HETATM   11  C11 UNL     1     -42.477  14.412   6.463  1.00 20.00    -0.009 A 
HETATM   12  C12 UNL     1     -41.475  13.632   7.391  1.00 20.00    -0.008 A 
HETATM   13  C13 UNL     1     -39.460  11.721   4.747  1.00 20.00     0.043 C 
ENDROOT
TORSDOF 0
ENDMDL
MODEL 5
REMARK VINA RESULT:      -3.9     13.268     15.209
REMARK  0 active torsions:
REMARK  status: ('A' for Active; 'I' for Inactive)
ROOT
HETATM    1  C1  UNL     1     -41.687  14.100   9.471  1.00 20.00    -0.019 A 
HETATM    2  C2  UNL     1     -40.438  14.397   9.073  1.00 20.00    -0.019 A 
HETATM    3  C3  UNL     1     -42.159  12.534   6.814  1.00 20.00    -0.023 C 
HETATM    4  C4  UNL     1     -40.907  12.814   6.415  1.00 20.00    -0.086 C 
HETATM    5  C5  UNL     1     -43.092  13.562   7.379  1.00 20.00     0.042 C 
HETATM    6  C6  UNL     1     -40.345  14.209   6.503  1.00 20.00     0.048 C 
HETATM    7  C7  UNL     1     -42.565  16.986   9.180  1.00 20.00     0.001 C 
HETATM    8  C8  UNL     1     -41.144  17.324   8.722  1.00 20.00     0.001 C 
HETATM    9  C9  UNL     1     -43.245  15.872   8.386  1.00 20.00     0.015 C 
HETATM   10  C10 UNL     1     -40.632  16.490   7.548  1.00 20.00     0.015 C 
HETATM   11  C11 UNL     1     -42.346  14.635   8.193  1.00 20.00    -0.009 A 
HETATM   12  C12 UNL     1     -40.885  14.980   7.726  1.00 20.00    -0.008 A 
HETATM   13  C13 UNL     1     -40.010  11.768   5.825  1.00 20.00     0.043 C 
ENDROOT
TORSDOF 0
ENDMDL
MODEL 6
REMARK VINA RESULT:      -3.9      1.262      4.205
REMARK  0 active torsions:
REMARK  status: ('A' for Active; 'I' for Inactive)
ROOT
HETATM    1  C1  UNL     1     -32.918  18.182  -3.952  1.00 20.00    -0.019 A 
HETATM    2  C2  UNL     1     -33.980  18.856  -4.425  1.00 20.00    -0.019 A 
HETATM    3  C3  UNL     1     -34.038  15.551  -5.201  1.00 20.00    -0.023 C 
HETATM    4  C4  UNL     1     -35.095  16.220  -5.690  1.00 20.00    -0.086 C 
HETATM    5  C5  UNL     1     -33.557  15.690  -3.788  1.00 20.00     0.042 C 
HETATM    6  C6  UNL     1     -35.889  17.173  -4.834  1.00 20.00     0.048 C 
HETATM    7  C7  UNL     1     -33.875  18.498  -1.094  1.00 20.00     0.001 C 
HETATM    8  C8  UNL     1     -35.087  19.263  -1.632  1.00 20.00     0.001 C 
HETATM    9  C9  UNL     1     -33.668  17.115  -1.706  1.00 20.00     0.015 C 
HETATM   10  C10 UNL     1     -35.891  18.522  -2.699  1.00 20.00     0.015 C 
HETATM   11  C11 UNL     1     -33.766  17.116  -3.245  1.00 20.00    -0.009 A 
HETATM   12  C12 UNL     1     -35.008  17.904  -3.800  1.00 20.00    -0.008 A 
HETATM   13  C13 UNL     1     -35.569  16.034  -7.100  1.00 20.00     0.043 C 
ENDROOT
TORSDOF 0
ENDMDL
MODEL 7
REMARK VINA RESULT:      -3.7     12.998     14.893
REMARK  0 active torsions:
REMARK  status: ('A' for Active; 'I' for Inactive)
ROOT
HETATM    1  C1  UNL     1     -43.199  14.272   7.777  1.00 20.00    -0.019 A 
HETATM    2  C2  UNL     1     -42.246  13.699   8.531  1.00 20.00    -0.019 A 
HETATM    3  C3  UNL     1     -41.543  13.638   5.210  1.00 20.00    -0.023 C 
HETATM    4  C4  UNL     1     -40.593  13.050   5.955  1.00 20.00    -0.086 C 
HETATM    5  C5  UNL     1     -42.137  14.975   5.536  1.00 20.00     0.042 C 
HETATM    6  C6  UNL     1     -40.042  13.710   7.192  1.00 20.00     0.048 C 
HETATM    7  C7  UNL     1     -42.512  17.027   8.837  1.00 20.00     0.001 C 
HETATM    8  C8  UNL     1     -41.423  16.376   9.693  1.00 20.00     0.001 C 
HETATM    9  C9  UNL     1     -42.426  16.713   7.345  1.00 20.00     0.015 C 
HETATM   10  C10 UNL     1     -40.428  15.513   8.919  1.00 20.00     0.015 C 
HETATM   11  C11 UNL     1     -42.225  15.213   7.055  1.00 20.00    -0.009 A 
HETATM   12  C12 UNL     1     -41.109  14.541   7.936  1.00 20.00    -0.008 A 
HETATM   13  C13 UNL     1     -39.998  11.726   5.582  1.00 20.00     0.043 C 
ENDROOT
TORSDOF 0
ENDMDL
MODEL 8
REMARK VINA RESULT:      -3.5     24.640     26.326
REMARK  0 active torsions:
REMARK  status: ('A' for Active; 'I' for Inactive)
ROOT
HETATM    1  C1  UNL     1     -28.314  -1.676  10.131  1.00 20.00    -0.019 A 
HETATM    2  C2  UNL     1     -27.688  -2.862  10.045  1.00 20.00    -0.019 A 
HETATM    3  C3  UNL     1     -26.030  -0.609  11.970  1.00 20.00    -0.023 C 
HETATM    4  C4  UNL     1     -25.391  -1.786  11.877  1.00 20.00    -0.086 C 
HETATM    5  C5  UNL     1     -27.494  -0.487  12.266  1.00 20.00     0.042 C 
HETATM    6  C6  UNL     1     -26.114  -3.093  12.074  1.00 20.00     0.048 C 
HETATM    7  C7  UNL     1     -30.550  -2.871  11.792  1.00 20.00     0.001 C 
HETATM    8  C8  UNL     1     -29.836  -4.222  11.698  1.00 20.00     0.001 C 
HETATM    9  C9  UNL     1     -29.691  -1.730  12.332  1.00 20.00     0.015 C 
HETATM   10  C10 UNL     1     -28.378  -4.210  12.155  1.00 20.00     0.015 C 
HETATM   11  C11 UNL     1     -28.304  -1.652  11.665  1.00 20.00    -0.009 A 
HETATM   12  C12 UNL     1     -27.570  -3.038  11.565  1.00 20.00    -0.008 A 
HETATM   13  C13 UNL     1     -23.918  -1.871  11.610  1.00 20.00     0.043 C 
ENDROOT
TORSDOF 0
ENDMDL
MODEL 9
REMARK VINA RESULT:      -3.5      1.425      3.709
REMARK  0 active torsions:
REMARK  status: ('A' for Active; 'I' for Inactive)
ROOT
HETATM    1  C1  UNL     1     -34.524  16.609  -6.423  1.00 20.00    -0.019 A 
HETATM    2  C2  UNL     1     -34.398  17.796  -5.805  1.00 20.00    -0.019 A 
HETATM    3  C3  UNL     1     -37.611  16.714  -5.985  1.00 20.00    -0.023 C 
HETATM    4  C4  UNL     1     -37.496  17.908  -5.380  1.00 20.00    -0.086 C 
HETATM    5  C5  UNL     1     -36.741  15.538  -5.661  1.00 20.00     0.042 C 
HETATM    6  C6  UNL     1     -36.466  18.151  -4.307  1.00 20.00     0.048 C 
HETATM    7  C7  UNL     1     -33.169  15.166  -4.127  1.00 20.00     0.001 C 
HETATM    8  C8  UNL     1     -33.029  16.518  -3.421  1.00 20.00     0.001 C 
HETATM    9  C9  UNL     1     -34.593  14.811  -4.551  1.00 20.00     0.015 C 
HETATM   10  C10 UNL     1     -34.334  17.295  -3.258  1.00 20.00     0.015 C 
HETATM   11  C11 UNL     1     -35.313  15.966  -5.275  1.00 20.00    -0.009 A 
HETATM   12  C12 UNL     1     -35.167  17.355  -4.553  1.00 20.00    -0.008 A 
HETATM   13  C13 UNL     1     -38.404  19.055  -5.707  1.00 20.00     0.043 C 
ENDROOT
TORSDOF 0
ENDMDL
