MODEL 1
REMARK VINA RESULT:      -4.4      0.000      0.000
REMARK  0 active torsions:
REMARK  status: ('A' for Active; 'I' for Inactive)
ROOT
HETATM    1  C1  UNL     1     -34.339   6.350   6.455  1.00 20.00     0.147 A 
HETATM    2  C2  UNL     1     -34.378   5.013   4.789  1.00 20.00     0.214 A 
HETATM    3  C3  UNL     1     -33.717   7.021   5.430  1.00 20.00     0.057 A 
HETATM    4  C4  UNL     1     -33.106   8.289   5.239  1.00 20.00     0.033 A 
HETATM    5  C5  UNL     1     -32.583   8.594   4.034  1.00 20.00     0.023 A 
HETATM    6  C6  UNL     1     -33.210   6.452   3.105  1.00 20.00     0.117 A 
HETATM    7  C7  UNL     1     -32.629   7.652   2.918  1.00 20.00     0.027 A 
HETATM    8  N8  UNL     1     -34.747   5.103   6.049  1.00 20.00    -0.253 NA
HETATM    9  N9  UNL     1     -33.746   6.149   4.354  1.00 20.00    -0.314 N 
HETATM   10 BR10 UNL     1     -31.879   8.164   1.292  1.00 20.00    -0.050 Br
ENDROOT
TORSDOF 0
ENDMDL
MODEL 2
REMARK VINA RESULT:      -3.9     12.549     13.428
REMARK  0 active torsions:
REMARK  status: ('A' for Active; 'I' for Inactive)
ROOT
HETATM    1  C1  UNL     1     -35.727  14.541  -5.956  1.00 20.00     0.147 A 
HETATM    2  C2  UNL     1     -36.431  16.558  -5.951  1.00 20.00     0.214 A 
HETATM    3  C3  UNL     1     -34.910  15.214  -5.079  1.00 20.00     0.057 A 
HETATM    4  C4  UNL     1     -33.802  14.904  -4.247  1.00 20.00     0.033 A 
HETATM    5  C5  UNL     1     -33.246  15.878  -3.499  1.00 20.00     0.023 A 
HETATM    6  C6  UNL     1     -34.807  17.535  -4.312  1.00 20.00     0.117 A 
HETATM    7  C7  UNL     1     -33.756  17.247  -3.523  1.00 20.00     0.027 A 
HETATM    8  N8  UNL     1     -36.669  15.384  -6.493  1.00 20.00    -0.253 NA
HETATM    9  N9  UNL     1     -35.372  16.520  -5.080  1.00 20.00    -0.314 N 
HETATM   10 BR10 UNL     1     -32.920  18.525  -2.455  1.00 20.00    -0.050 Br
ENDROOT
TORSDOF 0
ENDMDL
MODEL 3
REMARK VINA RESULT:      -3.8      0.949      2.026
REMARK  0 active torsions:
REMARK  status: ('A' for Active; 'I' for Inactive)
ROOT
HETATM    1  C1  UNL     1     -34.561   5.121   5.801  1.00 20.00     0.147 A 
HETATM    2  C2  UNL     1     -34.109   7.179   6.153  1.00 20.00     0.214 A 
HETATM    3  C3  UNL     1     -33.951   5.566   4.653  1.00 20.00     0.057 A 
HETATM    4  C4  UNL     1     -33.583   5.019   3.395  1.00 20.00     0.033 A 
HETATM    5  C5  UNL     1     -32.974   5.808   2.486  1.00 20.00     0.023 A 
HETATM    6  C6  UNL     1     -33.032   7.724   3.958  1.00 20.00     0.117 A 
HETATM    7  C7  UNL     1     -32.682   7.212   2.764  1.00 20.00     0.027 A 
HETATM    8  N8  UNL     1     -34.655   6.130   6.728  1.00 20.00    -0.253 NA
HETATM    9  N9  UNL     1     -33.661   6.900   4.888  1.00 20.00    -0.314 N 
HETATM   10 BR10 UNL     1     -31.839   8.222   1.445  1.00 20.00    -0.050 Br
ENDROOT
TORSDOF 0
ENDMDL
MODEL 4
REMARK VINA RESULT:      -3.7     12.126     13.092
REMARK  0 active torsions:
REMARK  status: ('A' for Active; 'I' for Inactive)
ROOT
HETATM    1  C1  UNL     1     -34.564  16.099  -5.673  1.00 20.00     0.147 A 
HETATM    2  C2  UNL     1     -33.259  15.010  -4.378  1.00 20.00     0.214 A 
HETATM    3  C3  UNL     1     -34.523  16.818  -4.503  1.00 20.00     0.057 A 
HETATM    4  C4  UNL     1     -35.098  18.015  -4.000  1.00 20.00     0.033 A 
HETATM    5  C5  UNL     1     -34.804  18.411  -2.745  1.00 20.00     0.023 A 
HETATM    6  C6  UNL     1     -33.364  16.506  -2.371  1.00 20.00     0.117 A 
HETATM    7  C7  UNL     1     -33.907  17.639  -1.889  1.00 20.00     0.027 A 
HETATM    8  N8  UNL     1     -33.776  14.977  -5.587  1.00 20.00    -0.253 NA
HETATM    9  N9  UNL     1     -33.676  16.107  -3.668  1.00 20.00    -0.314 N 
HETATM   10 BR10 UNL     1     -33.562  18.267  -0.169  1.00 20.00    -0.050 Br
ENDROOT
TORSDOF 0
ENDMDL
MODEL 5
REMARK VINA RESULT:      -3.7     12.780     13.423
REMARK  0 active torsions:
REMARK  status: ('A' for Active; 'I' for Inactive)
ROOT
HETATM    1  C1  UNL     1     -27.993  -0.709  11.513  1.00 20.00     0.147 A 
HETATM    2  C2  UNL     1     -27.965  -2.175   9.959  1.00 20.00     0.214 A 
HETATM    3  C3  UNL     1     -26.709  -1.196  11.490  1.00 20.00     0.057 A 
HETATM    4  C4  UNL     1     -25.500  -0.968  12.199  1.00 20.00     0.033 A 
HETATM    5  C5  UNL     1     -24.399  -1.675  11.871  1.00 20.00     0.023 A 
HETATM    6  C6  UNL     1     -25.568  -2.881  10.131  1.00 20.00     0.117 A 
HETATM    7  C7  UNL     1     -24.419  -2.670  10.801  1.00 20.00     0.027 A 
HETATM    8  N8  UNL     1     -28.767  -1.323  10.559  1.00 20.00    -0.253 NA
HETATM    9  N9  UNL     1     -26.697  -2.145  10.480  1.00 20.00    -0.314 N 
HETATM   10 BR10 UNL     1     -22.849  -3.597  10.421  1.00 20.00    -0.050 Br
ENDROOT
TORSDOF 0
ENDMDL
MODEL 6
REMARK VINA RESULT:      -3.7     12.671     13.586
REMARK  0 active torsions:
REMARK  status: ('A' for Active; 'I' for Inactive)
ROOT
HETATM    1  C1  UNL     1     -34.111  15.104  -5.775  1.00 20.00     0.147 A 
HETATM    2  C2  UNL     1     -35.414  16.769  -6.084  1.00 20.00     0.214 A 
HETATM    3  C3  UNL     1     -34.002  15.872  -4.641  1.00 20.00     0.057 A 
HETATM    4  C4  UNL     1     -33.284  15.819  -3.417  1.00 20.00     0.033 A 
HETATM    5  C5  UNL     1     -33.450  16.805  -2.512  1.00 20.00     0.023 A 
HETATM    6  C6  UNL     1     -35.029  17.973  -3.922  1.00 20.00     0.117 A 
HETATM    7  C7  UNL     1     -34.351  17.928  -2.760  1.00 20.00     0.027 A 
HETATM    8  N8  UNL     1     -34.990  15.668  -6.667  1.00 20.00    -0.253 NA
HETATM    9  N9  UNL     1     -34.849  16.949  -4.848  1.00 20.00    -0.314 N 
HETATM   10 BR10 UNL     1     -34.512  19.243  -1.450  1.00 20.00    -0.050 Br
ENDROOT
TORSDOF 0
ENDMDL
MODEL 7
REMARK VINA RESULT:      -3.6     12.466     13.288
REMARK  0 active torsions:
REMARK  status: ('A' for Active; 'I' for Inactive)
ROOT
HETATM    1  C1  UNL     1     -33.352  16.774  -2.224  1.00 20.00     0.147 A 
HETATM    2  C2  UNL     1     -34.683  18.186  -3.118  1.00 20.00     0.214 A 
HETATM    3  C3  UNL     1     -33.659  16.258  -3.459  1.00 20.00     0.057 A 
HETATM    4  C4  UNL     1     -33.325  15.102  -4.214  1.00 20.00     0.033 A 
HETATM    5  C5  UNL     1     -33.853  14.943  -5.445  1.00 20.00     0.023 A 
HETATM    6  C6  UNL     1     -35.072  17.025  -5.304  1.00 20.00     0.117 A 
HETATM    7  C7  UNL     1     -34.760  15.932  -6.023  1.00 20.00     0.027 A 
HETATM    8  N8  UNL     1     -33.992  17.972  -2.019  1.00 20.00    -0.253 NA
HETATM    9  N9  UNL     1     -34.522  17.178  -4.034  1.00 20.00    -0.314 N 
HETATM   10 BR10 UNL     1     -35.438  15.623  -7.730  1.00 20.00    -0.050 Br
ENDROOT
TORSDOF 0
ENDMDL
MODEL 8
REMARK VINA RESULT:      -3.5     12.472     13.536
REMARK  0 active torsions:
REMARK  status: ('A' for Active; 'I' for Inactive)
ROOT
HETATM    1  C1  UNL     1     -34.863  16.183  -6.459  1.00 20.00     0.147 A 
HETATM    2  C2  UNL     1     -33.935  14.746  -5.179  1.00 20.00     0.214 A 
HETATM    3  C3  UNL     1     -34.466  16.884  -5.346  1.00 20.00     0.057 A 
HETATM    4  C4  UNL     1     -34.525  18.228  -4.890  1.00 20.00     0.033 A 
HETATM    5  C5  UNL     1     -34.003  18.539  -3.686  1.00 20.00     0.023 A 
HETATM    6  C6  UNL     1     -33.323  16.256  -3.276  1.00 20.00     0.117 A 
HETATM    7  C7  UNL     1     -33.377  17.527  -2.838  1.00 20.00     0.027 A 
HETATM    8  N8  UNL     1     -34.530  14.856  -6.348  1.00 20.00    -0.253 NA
HETATM    9  N9  UNL     1     -33.866  15.947  -4.521  1.00 20.00    -0.314 N 
HETATM   10 BR10 UNL     1     -32.685  18.053  -1.191  1.00 20.00    -0.050 Br
ENDROOT
TORSDOF 0
ENDMDL
MODEL 9
REMARK VINA RESULT:      -3.5     12.745     13.154
REMARK  0 active torsions:
REMARK  status: ('A' for Active; 'I' for Inactive)
ROOT
HETATM    1  C1  UNL     1     -33.117  18.552  -1.910  1.00 20.00     0.147 A 
HETATM    2  C2  UNL     1     -34.574  19.133  -0.459  1.00 20.00     0.214 A 
HETATM    3  C3  UNL     1     -32.437  18.635  -0.718  1.00 20.00     0.057 A 
HETATM    4  C4  UNL     1     -31.104  18.441  -0.268  1.00 20.00     0.033 A 
HETATM    5  C5  UNL     1     -30.815  18.629   1.036  1.00 20.00     0.023 A 
HETATM    6  C6  UNL     1     -33.101  19.208   1.566  1.00 20.00     0.117 A 
HETATM    7  C7  UNL     1     -31.840  19.027   1.998  1.00 20.00     0.027 A 
HETATM    8  N8  UNL     1     -34.444  18.862  -1.740  1.00 20.00    -0.253 NA
HETATM    9  N9  UNL     1     -33.387  19.012   0.217  1.00 20.00    -0.314 N 
HETATM   10 BR10 UNL     1     -31.343  19.263   3.778  1.00 20.00    -0.050 Br
ENDROOT
TORSDOF 0
ENDMDL
