MODEL 1
REMARK VINA RESULT:      -4.4      0.000      0.000
REMARK  0 active torsions:
REMARK  status: ('A' for Active; 'I' for Inactive)
ROOT
HETATM    1  C1  UNL     1     -32.260   8.018   4.430  1.00 20.00    -0.020 C 
HETATM    2  C2  UNL     1     -33.194   7.983   3.424  1.00 20.00    -0.020 C 
HETATM    3  C3  UNL     1     -34.781   5.695   5.919  1.00 20.00     0.002 C 
HETATM    4  C4  UNL     1     -33.373   6.259   6.280  1.00 20.00     0.014 C 
HETATM    5  C5  UNL     1     -35.132   6.317   4.534  1.00 20.00     0.014 C 
HETATM    6  C6  UNL     1     -33.319   7.480   5.385  1.00 20.00    -0.016 C 
HETATM    7  C7  UNL     1     -33.754   6.704   4.039  1.00 20.00    -0.016 C 
HETATM    8  C8  UNL     1     -34.072   8.657   6.059  1.00 20.00     0.020 C 
HETATM    9  C9  UNL     1     -33.054   5.468   3.416  1.00 20.00     0.020 C 
ENDROOT
TORSDOF 0
ENDMDL
MODEL 2
REMARK VINA RESULT:      -4.4      0.034      2.531
REMARK  0 active torsions:
REMARK  status: ('A' for Active; 'I' for Inactive)
ROOT
HETATM    1  C1  UNL     1     -33.160   7.970   3.402  1.00 20.00    -0.020 C 
HETATM    2  C2  UNL     1     -32.238   8.015   4.419  1.00 20.00    -0.020 C 
HETATM    3  C3  UNL     1     -34.793   5.727   5.907  1.00 20.00     0.002 C 
HETATM    4  C4  UNL     1     -35.122   6.333   4.508  1.00 20.00     0.014 C 
HETATM    5  C5  UNL     1     -33.386   6.287   6.277  1.00 20.00     0.014 C 
HETATM    6  C6  UNL     1     -33.735   6.704   4.027  1.00 20.00    -0.016 C 
HETATM    7  C7  UNL     1     -33.313   7.495   5.368  1.00 20.00    -0.016 C 
HETATM    8  C8  UNL     1     -33.036   5.454   3.430  1.00 20.00     0.020 C 
HETATM    9  C9  UNL     1     -34.066   8.686   6.016  1.00 20.00     0.020 C 
ENDROOT
TORSDOF 0
ENDMDL
MODEL 3
REMARK VINA RESULT:      -3.9      8.475      9.873
REMARK  0 active torsions:
REMARK  status: ('A' for Active; 'I' for Inactive)
ROOT
HETATM    1  C1  UNL     1     -41.261   7.718  -0.405  1.00 20.00    -0.020 C 
HETATM    2  C2  UNL     1     -40.956   7.615   0.931  1.00 20.00    -0.020 C 
HETATM    3  C3  UNL     1     -43.253   4.694   0.522  1.00 20.00     0.002 C 
HETATM    4  C4  UNL     1     -43.037   5.599  -0.729  1.00 20.00     0.014 C 
HETATM    5  C5  UNL     1     -42.365   5.320   1.640  1.00 20.00     0.014 C 
HETATM    6  C6  UNL     1     -41.726   6.267  -0.374  1.00 20.00    -0.016 C 
HETATM    7  C7  UNL     1     -42.181   6.724   1.105  1.00 20.00    -0.016 C 
HETATM    8  C8  UNL     1     -40.545   5.325  -0.729  1.00 20.00     0.020 C 
HETATM    9  C9  UNL     1     -43.417   7.589   1.467  1.00 20.00     0.020 C 
ENDROOT
TORSDOF 0
ENDMDL
MODEL 4
REMARK VINA RESULT:      -3.8      8.182      9.880
REMARK  0 active torsions:
REMARK  status: ('A' for Active; 'I' for Inactive)
ROOT
HETATM    1  C1  UNL     1     -41.969   4.862   1.306  1.00 20.00    -0.020 C 
HETATM    2  C2  UNL     1     -43.134   5.085   0.615  1.00 20.00    -0.020 C 
HETATM    3  C3  UNL     1     -41.290   8.256  -0.107  1.00 20.00     0.002 C 
HETATM    4  C4  UNL     1     -40.597   7.243   0.855  1.00 20.00     0.014 C 
HETATM    5  C5  UNL     1     -42.632   7.579  -0.520  1.00 20.00     0.014 C 
HETATM    6  C6  UNL     1     -41.310   5.962   0.480  1.00 20.00    -0.016 C 
HETATM    7  C7  UNL     1     -42.799   6.573   0.600  1.00 20.00    -0.016 C 
HETATM    8  C8  UNL     1     -40.659   5.352  -0.789  1.00 20.00     0.020 C 
HETATM    9  C9  UNL     1     -43.417   7.267   1.841  1.00 20.00     0.020 C 
ENDROOT
TORSDOF 0
ENDMDL
MODEL 5
REMARK VINA RESULT:      -3.8      8.488      9.598
REMARK  0 active torsions:
REMARK  status: ('A' for Active; 'I' for Inactive)
ROOT
HETATM    1  C1  UNL     1     -40.960   7.637   0.914  1.00 20.00    -0.020 C 
HETATM    2  C2  UNL     1     -41.275   7.760  -0.418  1.00 20.00    -0.020 C 
HETATM    3  C3  UNL     1     -43.234   4.703   0.473  1.00 20.00     0.002 C 
HETATM    4  C4  UNL     1     -42.343   5.318   1.595  1.00 20.00     0.014 C 
HETATM    5  C5  UNL     1     -43.035   5.630  -0.765  1.00 20.00     0.014 C 
HETATM    6  C6  UNL     1     -42.176   6.733   1.081  1.00 20.00    -0.016 C 
HETATM    7  C7  UNL     1     -41.727   6.304  -0.408  1.00 20.00    -0.016 C 
HETATM    8  C8  UNL     1     -43.417   7.580   1.466  1.00 20.00     0.020 C 
HETATM    9  C9  UNL     1     -40.540   5.379  -0.788  1.00 20.00     0.020 C 
ENDROOT
TORSDOF 0
ENDMDL
MODEL 6
REMARK VINA RESULT:      -3.4      1.020      2.808
REMARK  0 active torsions:
REMARK  status: ('A' for Active; 'I' for Inactive)
ROOT
HETATM    1  C1  UNL     1     -34.225   5.953   3.604  1.00 20.00    -0.020 C 
HETATM    2  C2  UNL     1     -32.916   5.614   3.361  1.00 20.00    -0.020 C 
HETATM    3  C3  UNL     1     -32.489   9.049   4.775  1.00 20.00     0.002 C 
HETATM    4  C4  UNL     1     -33.952   8.543   4.588  1.00 20.00     0.014 C 
HETATM    5  C5  UNL     1     -31.583   7.874   4.297  1.00 20.00     0.014 C 
HETATM    6  C6  UNL     1     -33.731   7.046   4.545  1.00 20.00    -0.016 C 
HETATM    7  C7  UNL     1     -32.557   7.095   3.439  1.00 20.00    -0.016 C 
HETATM    8  C8  UNL     1     -33.620   6.491   5.989  1.00 20.00     0.020 C 
HETATM    9  C9  UNL     1     -32.640   7.733   2.028  1.00 20.00     0.020 C 
ENDROOT
TORSDOF 0
ENDMDL
MODEL 7
REMARK VINA RESULT:      -3.4      1.025      2.960
REMARK  0 active torsions:
REMARK  status: ('A' for Active; 'I' for Inactive)
ROOT
HETATM    1  C1  UNL     1     -32.910   5.617   3.361  1.00 20.00    -0.020 C 
HETATM    2  C2  UNL     1     -34.218   5.955   3.607  1.00 20.00    -0.020 C 
HETATM    3  C3  UNL     1     -32.478   9.055   4.762  1.00 20.00     0.002 C 
HETATM    4  C4  UNL     1     -31.574   7.879   4.284  1.00 20.00     0.014 C 
HETATM    5  C5  UNL     1     -33.942   8.549   4.582  1.00 20.00     0.014 C 
HETATM    6  C6  UNL     1     -32.551   7.097   3.433  1.00 20.00    -0.016 C 
HETATM    7  C7  UNL     1     -33.721   7.052   4.543  1.00 20.00    -0.016 C 
HETATM    8  C8  UNL     1     -32.640   7.732   2.020  1.00 20.00     0.020 C 
HETATM    9  C9  UNL     1     -33.605   6.501   5.988  1.00 20.00     0.020 C 
ENDROOT
TORSDOF 0
ENDMDL
MODEL 8
REMARK VINA RESULT:      -3.0     11.765     13.581
REMARK  0 active torsions:
REMARK  status: ('A' for Active; 'I' for Inactive)
ROOT
HETATM    1  C1  UNL     1     -33.015  15.913  -3.796  1.00 20.00    -0.020 C 
HETATM    2  C2  UNL     1     -34.042  16.666  -3.280  1.00 20.00    -0.020 C 
HETATM    3  C3  UNL     1     -35.508  15.669  -6.572  1.00 20.00     0.002 C 
HETATM    4  C4  UNL     1     -34.043  15.216  -6.289  1.00 20.00     0.014 C 
HETATM    5  C5  UNL     1     -35.954  16.441  -5.293  1.00 20.00     0.014 C 
HETATM    6  C6  UNL     1     -34.008  15.298  -4.777  1.00 20.00    -0.016 C 
HETATM    7  C7  UNL     1     -34.610  16.792  -4.690  1.00 20.00    -0.016 C 
HETATM    8  C8  UNL     1     -34.627  14.013  -4.168  1.00 20.00     0.020 C 
HETATM    9  C9  UNL     1     -34.042  18.062  -5.377  1.00 20.00     0.020 C 
ENDROOT
TORSDOF 0
ENDMDL
MODEL 9
REMARK VINA RESULT:      -3.0     11.763     13.514
REMARK  0 active torsions:
REMARK  status: ('A' for Active; 'I' for Inactive)
ROOT
HETATM    1  C1  UNL     1     -34.043  16.664  -3.278  1.00 20.00    -0.020 C 
HETATM    2  C2  UNL     1     -33.017  15.911  -3.794  1.00 20.00    -0.020 C 
HETATM    3  C3  UNL     1     -35.508  15.670  -6.571  1.00 20.00     0.002 C 
HETATM    4  C4  UNL     1     -35.954  16.443  -5.291  1.00 20.00     0.014 C 
HETATM    5  C5  UNL     1     -34.043  15.216  -6.288  1.00 20.00     0.014 C 
HETATM    6  C6  UNL     1     -34.610  16.791  -4.688  1.00 20.00    -0.016 C 
HETATM    7  C7  UNL     1     -34.008  15.297  -4.776  1.00 20.00    -0.016 C 
HETATM    8  C8  UNL     1     -34.040  18.061  -5.374  1.00 20.00     0.020 C 
HETATM    9  C9  UNL     1     -34.629  14.012  -4.167  1.00 20.00     0.020 C 
ENDROOT
TORSDOF 0
ENDMDL
