MODEL 1
REMARK VINA RESULT:      -5.6      0.000      0.000
REMARK  0 active torsions:
REMARK  status: ('A' for Active; 'I' for Inactive)
ROOT
HETATM    1  C1  UNL     1     -34.055   7.171   6.350  1.00 20.00     0.129 C 
HETATM    2  C2  UNL     1     -34.177   5.655   6.101  1.00 20.00     0.254 C 
HETATM    3  C3  UNL     1     -33.745   7.341   4.850  1.00 20.00     0.313 C 
HETATM    4  C4  UNL     1     -34.477   5.994   4.620  1.00 20.00     0.338 C 
HETATM    5  F5  UNL     1     -35.164   5.022   6.772  1.00 20.00    -0.243 F 
HETATM    6  F6  UNL     1     -34.300   8.418   4.253  1.00 20.00    -0.199 F 
HETATM    7  F7  UNL     1     -32.431   7.346   4.526  1.00 20.00    -0.199 F 
HETATM    8  F8  UNL     1     -35.790   6.097   4.306  1.00 20.00    -0.196 F 
HETATM    9  F9  UNL     1     -33.919   5.172   3.705  1.00 20.00    -0.196 F 
ENDROOT
TORSDOF 0
ENDMDL
MODEL 2
REMARK VINA RESULT:      -5.5      0.814      2.908
REMARK  0 active torsions:
REMARK  status: ('A' for Active; 'I' for Inactive)
ROOT
HETATM    1  C1  UNL     1     -33.301   7.106   6.115  1.00 20.00     0.129 C 
HETATM    2  C2  UNL     1     -34.011   7.521   4.811  1.00 20.00     0.254 C 
HETATM    3  C3  UNL     1     -34.352   5.990   6.273  1.00 20.00     0.313 C 
HETATM    4  C4  UNL     1     -34.571   6.078   4.741  1.00 20.00     0.338 C 
HETATM    5  F5  UNL     1     -33.208   7.892   3.791  1.00 20.00    -0.243 F 
HETATM    6  F6  UNL     1     -33.890   4.806   6.730  1.00 20.00    -0.199 F 
HETATM    7  F7  UNL     1     -35.429   6.310   7.028  1.00 20.00    -0.199 F 
HETATM    8  F8  UNL     1     -33.839   5.211   4.002  1.00 20.00    -0.196 F 
HETATM    9  F9  UNL     1     -35.851   5.965   4.323  1.00 20.00    -0.196 F 
ENDROOT
TORSDOF 0
ENDMDL
MODEL 3
REMARK VINA RESULT:      -5.3      1.015      2.718
REMARK  0 active torsions:
REMARK  status: ('A' for Active; 'I' for Inactive)
ROOT
HETATM    1  C1  UNL     1     -34.374   5.293   5.884  1.00 20.00     0.129 C 
HETATM    2  C2  UNL     1     -34.118   6.759   6.285  1.00 20.00     0.254 C 
HETATM    3  C3  UNL     1     -34.747   5.795   4.476  1.00 20.00     0.313 C 
HETATM    4  C4  UNL     1     -33.900   7.057   4.780  1.00 20.00     0.338 C 
HETATM    5  F5  UNL     1     -33.055   6.977   7.089  1.00 20.00    -0.243 F 
HETATM    6  F6  UNL     1     -34.315   5.035   3.446  1.00 20.00    -0.199 F 
HETATM    7  F7  UNL     1     -36.065   6.022   4.271  1.00 20.00    -0.199 F 
HETATM    8  F8  UNL     1     -32.613   7.003   4.362  1.00 20.00    -0.196 F 
HETATM    9  F9  UNL     1     -34.408   8.226   4.334  1.00 20.00    -0.196 F 
ENDROOT
TORSDOF 0
ENDMDL
MODEL 4
REMARK VINA RESULT:      -5.2      1.368      2.434
REMARK  0 active torsions:
REMARK  status: ('A' for Active; 'I' for Inactive)
ROOT
HETATM    1  C1  UNL     1     -33.908   6.035   4.165  1.00 20.00     0.129 C 
HETATM    2  C2  UNL     1     -34.810   5.858   5.402  1.00 20.00     0.254 C 
HETATM    3  C3  UNL     1     -33.506   7.416   4.719  1.00 20.00     0.313 C 
HETATM    4  C4  UNL     1     -33.906   6.890   6.121  1.00 20.00     0.338 C 
HETATM    5  F5  UNL     1     -34.838   4.621   5.944  1.00 20.00    -0.243 F 
HETATM    6  F6  UNL     1     -32.206   7.754   4.570  1.00 20.00    -0.199 F 
HETATM    7  F7  UNL     1     -34.238   8.459   4.263  1.00 20.00    -0.199 F 
HETATM    8  F8  UNL     1     -32.896   6.363   6.851  1.00 20.00    -0.196 F 
HETATM    9  F9  UNL     1     -34.545   7.774   6.918  1.00 20.00    -0.196 F 
ENDROOT
TORSDOF 0
ENDMDL
MODEL 5
REMARK VINA RESULT:      -4.9      1.245      3.193
REMARK  0 active torsions:
REMARK  status: ('A' for Active; 'I' for Inactive)
ROOT
HETATM    1  C1  UNL     1     -33.741   5.702   3.227  1.00 20.00     0.129 C 
HETATM    2  C2  UNL     1     -32.657   6.624   3.819  1.00 20.00     0.254 C 
HETATM    3  C3  UNL     1     -34.483   5.794   4.575  1.00 20.00     0.313 C 
HETATM    4  C4  UNL     1     -33.730   7.127   4.817  1.00 20.00     0.338 C 
HETATM    5  F5  UNL     1     -32.149   7.555   2.983  1.00 20.00    -0.243 F 
HETATM    6  F6  UNL     1     -35.829   5.887   4.501  1.00 20.00    -0.199 F 
HETATM    7  F7  UNL     1     -34.206   4.806   5.458  1.00 20.00    -0.199 F 
HETATM    8  F8  UNL     1     -34.395   8.243   4.436  1.00 20.00    -0.196 F 
HETATM    9  F9  UNL     1     -33.303   7.337   6.081  1.00 20.00    -0.196 F 
ENDROOT
TORSDOF 0
ENDMDL
MODEL 6
REMARK VINA RESULT:      -4.8      1.251      2.559
REMARK  0 active torsions:
REMARK  status: ('A' for Active; 'I' for Inactive)
ROOT
HETATM    1  C1  UNL     1     -32.609   6.839   3.853  1.00 20.00     0.129 C 
HETATM    2  C2  UNL     1     -33.599   5.890   3.149  1.00 20.00     0.254 C 
HETATM    3  C3  UNL     1     -33.733   7.192   4.847  1.00 20.00     0.313 C 
HETATM    4  C4  UNL     1     -34.382   5.832   4.484  1.00 20.00     0.338 C 
HETATM    5  F5  UNL     1     -33.088   4.718   2.714  1.00 20.00    -0.243 F 
HETATM    6  F6  UNL     1     -33.355   7.334   6.136  1.00 20.00    -0.199 F 
HETATM    7  F7  UNL     1     -34.466   8.284   4.530  1.00 20.00    -0.199 F 
HETATM    8  F8  UNL     1     -34.058   4.801   5.299  1.00 20.00    -0.196 F 
HETATM    9  F9  UNL     1     -35.729   5.836   4.375  1.00 20.00    -0.196 F 
ENDROOT
TORSDOF 0
ENDMDL
MODEL 7
REMARK VINA RESULT:      -4.8      1.221      2.744
REMARK  0 active torsions:
REMARK  status: ('A' for Active; 'I' for Inactive)
ROOT
HETATM    1  C1  UNL     1     -34.051   7.160   4.201  1.00 20.00     0.129 C 
HETATM    2  C2  UNL     1     -33.103   7.063   5.412  1.00 20.00     0.254 C 
HETATM    3  C3  UNL     1     -34.707   5.848   4.673  1.00 20.00     0.313 C 
HETATM    4  C4  UNL     1     -34.176   6.177   6.092  1.00 20.00     0.338 C 
HETATM    5  F5  UNL     1     -32.816   8.226   6.036  1.00 20.00    -0.243 F 
HETATM    6  F6  UNL     1     -36.051   5.784   4.551  1.00 20.00    -0.199 F 
HETATM    7  F7  UNL     1     -34.208   4.719   4.119  1.00 20.00    -0.199 F 
HETATM    8  F8  UNL     1     -35.044   6.837   6.894  1.00 20.00    -0.196 F 
HETATM    9  F9  UNL     1     -33.708   5.128   6.801  1.00 20.00    -0.196 F 
ENDROOT
TORSDOF 0
ENDMDL
MODEL 8
REMARK VINA RESULT:      -4.8      1.375      2.491
REMARK  0 active torsions:
REMARK  status: ('A' for Active; 'I' for Inactive)
ROOT
HETATM    1  C1  UNL     1     -34.772   5.666   5.679  1.00 20.00     0.129 C 
HETATM    2  C2  UNL     1     -33.918   5.789   4.402  1.00 20.00     0.254 C 
HETATM    3  C3  UNL     1     -33.926   6.799   6.293  1.00 20.00     0.313 C 
HETATM    4  C4  UNL     1     -33.593   7.237   4.844  1.00 20.00     0.338 C 
HETATM    5  F5  UNL     1     -34.580   5.664   3.231  1.00 20.00    -0.243 F 
HETATM    6  F6  UNL     1     -34.602   7.702   7.036  1.00 20.00    -0.199 F 
HETATM    7  F7  UNL     1     -32.866   6.397   7.031  1.00 20.00    -0.199 F 
HETATM    8  F8  UNL     1     -34.403   8.192   4.329  1.00 20.00    -0.196 F 
HETATM    9  F9  UNL     1     -32.323   7.645   4.632  1.00 20.00    -0.196 F 
ENDROOT
TORSDOF 0
ENDMDL
MODEL 9
REMARK VINA RESULT:      -4.7      1.931      3.025
REMARK  0 active torsions:
REMARK  status: ('A' for Active; 'I' for Inactive)
ROOT
HETATM    1  C1  UNL     1     -34.205   6.491   4.471  1.00 20.00     0.129 C 
HETATM    2  C2  UNL     1     -32.911   6.328   3.649  1.00 20.00     0.254 C 
HETATM    3  C3  UNL     1     -33.501   7.610   5.262  1.00 20.00     0.313 C 
HETATM    4  C4  UNL     1     -32.563   7.785   4.040  1.00 20.00     0.338 C 
HETATM    5  F5  UNL     1     -33.073   6.095   2.328  1.00 20.00    -0.243 F 
HETATM    6  F6  UNL     1     -34.264   8.681   5.572  1.00 20.00    -0.199 F 
HETATM    7  F7  UNL     1     -32.892   7.218   6.405  1.00 20.00    -0.199 F 
HETATM    8  F8  UNL     1     -32.946   8.729   3.149  1.00 20.00    -0.196 F 
HETATM    9  F9  UNL     1     -31.265   8.021   4.327  1.00 20.00    -0.196 F 
ENDROOT
TORSDOF 0
ENDMDL
