MODEL 1
REMARK VINA RESULT:      -6.8      0.000      0.000
REMARK  0 active torsions:
REMARK  status: ('A' for Active; 'I' for Inactive)
ROOT
HETATM    1  C1  UNL     1     -33.901   4.752   4.025  1.00 20.00     0.131 C 
HETATM    2  C2  UNL     1     -33.201   5.376   2.780  1.00 20.00     0.083 C 
HETATM    3  C3  UNL     1     -34.351   6.120   6.398  1.00 20.00     0.013 C 
HETATM    4  C4  UNL     1     -34.052   7.673   6.470  1.00 20.00     0.006 C 
HETATM    5  C5  UNL     1     -32.193   7.988   3.076  1.00 20.00     0.006 C 
HETATM    6  C6  UNL     1     -32.513   8.841   4.405  1.00 20.00     0.005 C 
HETATM    7  C7  UNL     1     -34.536   5.829   4.907  1.00 20.00     0.060 C 
HETATM    8  C8  UNL     1     -32.621   6.573   3.480  1.00 20.00    -0.002 C 
HETATM    9  C9  UNL     1     -33.052   7.771   5.352  1.00 20.00    -0.009 C 
HETATM   10  C10 UNL     1     -33.801   6.987   4.311  1.00 20.00     0.005 C 
HETATM   11  O11 UNL     1     -33.995   3.551   4.232  1.00 20.00    -0.298 OA
ENDROOT
TORSDOF 0
ENDMDL
MODEL 2
REMARK VINA RESULT:      -6.7      1.073      1.639
REMARK  0 active torsions:
REMARK  status: ('A' for Active; 'I' for Inactive)
ROOT
HETATM    1  C1  UNL     1     -33.046   5.592   2.975  1.00 20.00     0.131 C 
HETATM    2  C2  UNL     1     -32.455   7.008   2.701  1.00 20.00     0.083 C 
HETATM    3  C3  UNL     1     -34.423   4.908   5.286  1.00 20.00     0.013 C 
HETATM    4  C4  UNL     1     -34.802   6.036   6.329  1.00 20.00     0.006 C 
HETATM    5  C5  UNL     1     -32.670   8.890   4.784  1.00 20.00     0.006 C 
HETATM    6  C6  UNL     1     -33.537   8.557   6.100  1.00 20.00     0.005 C 
HETATM    7  C7  UNL     1     -34.209   5.654   3.966  1.00 20.00     0.060 C 
HETATM    8  C8  UNL     1     -32.546   7.518   4.112  1.00 20.00    -0.002 C 
HETATM    9  C9  UNL     1     -33.750   7.049   5.971  1.00 20.00    -0.009 C 
HETATM   10  C10 UNL     1     -33.918   7.030   4.478  1.00 20.00     0.005 C 
HETATM   11  O11 UNL     1     -32.676   4.571   2.413  1.00 20.00    -0.298 OA
ENDROOT
TORSDOF 0
ENDMDL
MODEL 3
REMARK VINA RESULT:      -6.3      2.055      4.047
REMARK  0 active torsions:
REMARK  status: ('A' for Active; 'I' for Inactive)
ROOT
HETATM    1  C1  UNL     1     -32.768   8.611   4.953  1.00 20.00     0.131 C 
HETATM    2  C2  UNL     1     -33.753   8.265   6.111  1.00 20.00     0.083 C 
HETATM    3  C3  UNL     1     -32.190   6.899   2.847  1.00 20.00     0.013 C 
HETATM    4  C4  UNL     1     -33.017   5.559   2.683  1.00 20.00     0.006 C 
HETATM    5  C5  UNL     1     -34.840   5.668   6.110  1.00 20.00     0.006 C 
HETATM    6  C6  UNL     1     -34.597   4.681   4.860  1.00 20.00     0.005 C 
HETATM    7  C7  UNL     1     -33.086   7.808   3.691  1.00 20.00     0.060 C 
HETATM    8  C8  UNL     1     -33.824   6.786   5.852  1.00 20.00    -0.002 C 
HETATM    9  C9  UNL     1     -33.472   5.389   4.106  1.00 20.00    -0.009 C 
HETATM   10  C10 UNL     1     -33.956   6.790   4.356  1.00 20.00     0.005 C 
HETATM   11  O11 UNL     1     -31.899   9.468   5.021  1.00 20.00    -0.298 OA
ENDROOT
TORSDOF 0
ENDMDL
MODEL 4
REMARK VINA RESULT:      -6.1      1.800      3.025
REMARK  0 active torsions:
REMARK  status: ('A' for Active; 'I' for Inactive)
ROOT
HETATM    1  C1  UNL     1     -32.420   7.083   2.623  1.00 20.00     0.131 C 
HETATM    2  C2  UNL     1     -32.853   5.586   2.632  1.00 20.00     0.083 C 
HETATM    3  C3  UNL     1     -33.006   8.880   4.656  1.00 20.00     0.013 C 
HETATM    4  C4  UNL     1     -33.663   8.352   5.996  1.00 20.00     0.006 C 
HETATM    5  C5  UNL     1     -34.479   4.757   4.776  1.00 20.00     0.006 C 
HETATM    6  C6  UNL     1     -34.765   5.746   6.015  1.00 20.00     0.005 C 
HETATM    7  C7  UNL     1     -32.335   7.649   4.041  1.00 20.00     0.060 C 
HETATM    8  C8  UNL     1     -33.872   5.700   3.732  1.00 20.00    -0.002 C 
HETATM    9  C9  UNL     1     -34.291   7.092   5.467  1.00 20.00    -0.009 C 
HETATM   10  C10 UNL     1     -33.113   6.557   4.703  1.00 20.00     0.005 C 
HETATM   11  O11 UNL     1     -32.115   7.706   1.616  1.00 20.00    -0.298 OA
ENDROOT
TORSDOF 0
ENDMDL
MODEL 5
REMARK VINA RESULT:      -5.9      1.275      2.251
REMARK  0 active torsions:
REMARK  status: ('A' for Active; 'I' for Inactive)
ROOT
HETATM    1  C1  UNL     1     -34.555   5.755   5.763  1.00 20.00     0.131 C 
HETATM    2  C2  UNL     1     -34.527   4.794   4.536  1.00 20.00     0.083 C 
HETATM    3  C3  UNL     1     -33.240   8.198   5.848  1.00 20.00     0.013 C 
HETATM    4  C4  UNL     1     -32.557   8.761   4.536  1.00 20.00     0.006 C 
HETATM    5  C5  UNL     1     -32.882   5.548   2.379  1.00 20.00     0.006 C 
HETATM    6  C6  UNL     1     -32.176   6.996   2.358  1.00 20.00     0.005 C 
HETATM    7  C7  UNL     1     -34.287   7.202   5.345  1.00 20.00     0.060 C 
HETATM    8  C8  UNL     1     -33.367   5.437   3.829  1.00 20.00    -0.002 C 
HETATM    9  C9  UNL     1     -32.359   7.464   3.801  1.00 20.00    -0.009 C 
HETATM   10  C10 UNL     1     -33.732   6.884   3.993  1.00 20.00     0.005 C 
HETATM   11  O11 UNL     1     -34.829   5.409   6.903  1.00 20.00    -0.298 OA
ENDROOT
TORSDOF 0
ENDMDL
MODEL 6
REMARK VINA RESULT:      -5.8      1.761      3.649
REMARK  0 active torsions:
REMARK  status: ('A' for Active; 'I' for Inactive)
ROOT
HETATM    1  C1  UNL     1     -32.389   7.769   3.656  1.00 20.00     0.131 C 
HETATM    2  C2  UNL     1     -32.908   8.486   4.939  1.00 20.00     0.083 C 
HETATM    3  C3  UNL     1     -32.990   5.139   3.001  1.00 20.00     0.013 C 
HETATM    4  C4  UNL     1     -34.057   4.347   3.860  1.00 20.00     0.006 C 
HETATM    5  C5  UNL     1     -34.388   6.919   6.751  1.00 20.00     0.006 C 
HETATM    6  C6  UNL     1     -34.829   5.419   6.362  1.00 20.00     0.005 C 
HETATM    7  C7  UNL     1     -33.308   6.616   3.251  1.00 20.00     0.060 C 
HETATM    8  C8  UNL     1     -33.352   7.250   5.670  1.00 20.00    -0.002 C 
HETATM    9  C9  UNL     1     -33.961   5.136   5.137  1.00 20.00    -0.009 C 
HETATM   10  C10 UNL     1     -34.038   6.519   4.553  1.00 20.00     0.005 C 
HETATM   11  O11 UNL     1     -31.413   8.127   3.014  1.00 20.00    -0.298 OA
ENDROOT
TORSDOF 0
ENDMDL
MODEL 7
REMARK VINA RESULT:      -5.4      2.011      3.211
REMARK  0 active torsions:
REMARK  status: ('A' for Active; 'I' for Inactive)
ROOT
HETATM    1  C1  UNL     1     -32.505   8.493   3.725  1.00 20.00     0.131 C 
HETATM    2  C2  UNL     1     -32.160   7.407   2.661  1.00 20.00     0.083 C 
HETATM    3  C3  UNL     1     -34.057   8.019   5.976  1.00 20.00     0.013 C 
HETATM    4  C4  UNL     1     -34.489   6.537   6.327  1.00 20.00     0.006 C 
HETATM    5  C5  UNL     1     -33.357   4.882   3.001  1.00 20.00     0.006 C 
HETATM    6  C6  UNL     1     -34.190   4.546   4.339  1.00 20.00     0.005 C 
HETATM    7  C7  UNL     1     -32.825   7.864   5.082  1.00 20.00     0.060 C 
HETATM    8  C8  UNL     1     -33.196   6.404   3.084  1.00 20.00    -0.002 C 
HETATM    9  C9  UNL     1     -34.381   5.932   4.954  1.00 20.00    -0.009 C 
HETATM   10  C10 UNL     1     -33.031   6.472   4.575  1.00 20.00     0.005 C 
HETATM   11  O11 UNL     1     -32.455   9.698   3.521  1.00 20.00    -0.298 OA
ENDROOT
TORSDOF 0
ENDMDL
MODEL 8
REMARK VINA RESULT:      -5.3      2.005      3.158
REMARK  0 active torsions:
REMARK  status: ('A' for Active; 'I' for Inactive)
ROOT
HETATM    1  C1  UNL     1     -33.513   8.413   5.572  1.00 20.00     0.131 C 
HETATM    2  C2  UNL     1     -32.473   8.670   4.441  1.00 20.00     0.083 C 
HETATM    3  C3  UNL     1     -34.946   6.052   5.852  1.00 20.00     0.013 C 
HETATM    4  C4  UNL     1     -34.589   4.811   4.937  1.00 20.00     0.006 C 
HETATM    5  C5  UNL     1     -32.205   6.658   2.490  1.00 20.00     0.006 C 
HETATM    6  C6  UNL     1     -32.953   5.242   2.669  1.00 20.00     0.005 C 
HETATM    7  C7  UNL     1     -33.684   6.917   5.845  1.00 20.00     0.060 C 
HETATM    8  C8  UNL     1     -32.883   7.528   3.554  1.00 20.00    -0.002 C 
HETATM    9  C9  UNL     1     -33.945   5.543   3.792  1.00 20.00    -0.009 C 
HETATM   10  C10 UNL     1     -33.038   6.444   4.581  1.00 20.00     0.005 C 
HETATM   11  O11 UNL     1     -34.068   9.295   6.211  1.00 20.00    -0.298 OA
ENDROOT
TORSDOF 0
ENDMDL
MODEL 9
REMARK VINA RESULT:      -5.0      0.960      2.657
REMARK  0 active torsions:
REMARK  status: ('A' for Active; 'I' for Inactive)
ROOT
HETATM    1  C1  UNL     1     -34.518   5.436   5.021  1.00 20.00     0.131 C 
HETATM    2  C2  UNL     1     -34.498   6.449   6.206  1.00 20.00     0.083 C 
HETATM    3  C3  UNL     1     -33.166   5.821   2.628  1.00 20.00     0.013 C 
HETATM    4  C4  UNL     1     -32.167   7.041   2.486  1.00 20.00     0.006 C 
HETATM    5  C5  UNL     1     -33.141   8.876   5.767  1.00 20.00     0.006 C 
HETATM    6  C6  UNL     1     -32.273   9.096   4.427  1.00 20.00     0.005 C 
HETATM    7  C7  UNL     1     -33.280   5.585   4.137  1.00 20.00     0.060 C 
HETATM    8  C8  UNL     1     -33.948   7.617   5.435  1.00 20.00    -0.002 C 
HETATM    9  C9  UNL     1     -32.741   7.938   3.548  1.00 20.00    -0.009 C 
HETATM   10  C10 UNL     1     -32.868   6.928   4.652  1.00 20.00     0.005 C 
HETATM   11  O11 UNL     1     -35.377   4.580   4.861  1.00 20.00    -0.298 OA
ENDROOT
TORSDOF 0
ENDMDL
