MODEL 1
REMARK VINA RESULT:      -4.4      0.000      0.000
REMARK  1 active torsions:
REMARK  status: ('A' for Active; 'I' for Inactive)
REMARK    1  A    between atoms: C1_1  and  C4_4 
ROOT
HETATM    1  C1  UNL     1     -34.049   6.609   5.159  1.00 20.00     0.102 C 
HETATM    2  C2  UNL     1     -33.225   6.940   4.149  1.00 20.00    -0.015 C 
HETATM    3  C3  UNL     1     -32.930   6.080   2.953  1.00 20.00     0.055 C 
HETATM    4  I8  UNL     1     -32.245   8.789   4.195  1.00 20.00    -0.050 I 
ENDROOT
BRANCH   1   5
HETATM    5  C4  UNL     1     -34.816   5.337   5.273  1.00 20.00     0.408 C 
HETATM    6  F5  UNL     1     -34.065   4.254   4.955  1.00 20.00    -0.167 F 
HETATM    7  F6  UNL     1     -35.907   5.321   4.466  1.00 20.00    -0.167 F 
HETATM    8  F7  UNL     1     -35.267   5.140   6.539  1.00 20.00    -0.167 F 
ENDBRANCH   1   5
TORSDOF 1
ENDMDL
MODEL 2
REMARK VINA RESULT:      -4.4      0.059      1.339
REMARK  1 active torsions:
REMARK  status: ('A' for Active; 'I' for Inactive)
REMARK    1  A    between atoms: C1_1  and  C4_4 
ROOT
HETATM    1  C1  UNL     1     -34.036   6.600   5.167  1.00 20.00     0.102 C 
HETATM    2  C2  UNL     1     -33.227   6.901   4.135  1.00 20.00    -0.015 C 
HETATM    3  C3  UNL     1     -32.961   6.012   2.954  1.00 20.00     0.055 C 
HETATM    4  I8  UNL     1     -32.230   8.741   4.122  1.00 20.00    -0.050 I 
ENDROOT
BRANCH   1   5
HETATM    5  C4  UNL     1     -34.812   5.339   5.324  1.00 20.00     0.408 C 
HETATM    6  F5  UNL     1     -35.271   5.172   6.589  1.00 20.00    -0.167 F 
HETATM    7  F6  UNL     1     -34.077   4.241   5.015  1.00 20.00    -0.167 F 
HETATM    8  F7  UNL     1     -35.899   5.320   4.510  1.00 20.00    -0.167 F 
ENDBRANCH   1   5
TORSDOF 1
ENDMDL
MODEL 3
REMARK VINA RESULT:      -4.4      3.699      4.105
REMARK  1 active torsions:
REMARK  status: ('A' for Active; 'I' for Inactive)
REMARK    1  A    between atoms: C1_1  and  C4_4 
ROOT
HETATM    1  C1  UNL     1     -33.207   7.640   4.816  1.00 20.00     0.102 C 
HETATM    2  C2  UNL     1     -33.579   6.421   4.384  1.00 20.00    -0.015 C 
HETATM    3  C3  UNL     1     -33.139   5.786   3.096  1.00 20.00     0.055 C 
HETATM    4  I8  UNL     1     -34.876   5.272   5.559  1.00 20.00    -0.050 I 
ENDROOT
BRANCH   1   5
HETATM    5  C4  UNL     1     -32.296   8.574   4.100  1.00 20.00     0.408 C 
HETATM    6  F5  UNL     1     -32.820   9.005   2.926  1.00 20.00    -0.167 F 
HETATM    7  F6  UNL     1     -31.095   8.007   3.820  1.00 20.00    -0.167 F 
HETATM    8  F7  UNL     1     -32.038   9.683   4.841  1.00 20.00    -0.167 F 
ENDBRANCH   1   5
TORSDOF 1
ENDMDL
MODEL 4
REMARK VINA RESULT:      -4.3      0.970      2.156
REMARK  1 active torsions:
REMARK  status: ('A' for Active; 'I' for Inactive)
REMARK    1  A    between atoms: C1_1  and  C4_4 
ROOT
HETATM    1  C1  UNL     1     -33.703   6.117   4.331  1.00 20.00     0.102 C 
HETATM    2  C2  UNL     1     -33.528   7.229   5.067  1.00 20.00    -0.015 C 
HETATM    3  C3  UNL     1     -34.079   7.451   6.447  1.00 20.00     0.055 C 
HETATM    4  I8  UNL     1     -32.406   8.810   4.278  1.00 20.00    -0.050 I 
ENDROOT
BRANCH   1   5
HETATM    5  C4  UNL     1     -34.471   4.911   4.748  1.00 20.00     0.408 C 
HETATM    6  F5  UNL     1     -35.810   5.083   4.613  1.00 20.00    -0.167 F 
HETATM    7  F6  UNL     1     -34.237   4.575   6.042  1.00 20.00    -0.167 F 
HETATM    8  F7  UNL     1     -34.141   3.828   3.999  1.00 20.00    -0.167 F 
ENDBRANCH   1   5
TORSDOF 1
ENDMDL
MODEL 5
REMARK VINA RESULT:      -4.2      3.724      4.273
REMARK  1 active torsions:
REMARK  status: ('A' for Active; 'I' for Inactive)
REMARK    1  A    between atoms: C1_1  and  C4_4 
ROOT
HETATM    1  C1  UNL     1     -33.052   6.797   3.668  1.00 20.00     0.102 C 
HETATM    2  C2  UNL     1     -33.657   6.967   4.858  1.00 20.00    -0.015 C 
HETATM    3  C3  UNL     1     -33.587   8.212   5.696  1.00 20.00     0.055 C 
HETATM    4  I8  UNL     1     -34.800   5.406   5.655  1.00 20.00    -0.050 I 
ENDROOT
BRANCH   1   5
HETATM    5  C4  UNL     1     -32.209   7.806   2.970  1.00 20.00     0.408 C 
HETATM    6  F5  UNL     1     -32.790   9.031   2.943  1.00 20.00    -0.167 F 
HETATM    7  F6  UNL     1     -31.948   7.458   1.685  1.00 20.00    -0.167 F 
HETATM    8  F7  UNL     1     -31.007   7.960   3.583  1.00 20.00    -0.167 F 
ENDBRANCH   1   5
TORSDOF 1
ENDMDL
MODEL 6
REMARK VINA RESULT:      -3.9      1.638      2.406
REMARK  1 active torsions:
REMARK  status: ('A' for Active; 'I' for Inactive)
REMARK    1  A    between atoms: C1_1  and  C4_4 
ROOT
HETATM    1  C1  UNL     1     -33.787   6.546   4.754  1.00 20.00     0.102 C 
HETATM    2  C2  UNL     1     -33.032   7.586   4.356  1.00 20.00    -0.015 C 
HETATM    3  C3  UNL     1     -32.543   8.694   5.245  1.00 20.00     0.055 C 
HETATM    4  I8  UNL     1     -32.462   7.725   2.347  1.00 20.00    -0.050 I 
ENDROOT
BRANCH   1   5
HETATM    5  C4  UNL     1     -34.272   6.306   6.141  1.00 20.00     0.408 C 
HETATM    6  F5  UNL     1     -34.574   7.459   6.787  1.00 20.00    -0.167 F 
HETATM    7  F6  UNL     1     -33.357   5.649   6.899  1.00 20.00    -0.167 F 
HETATM    8  F7  UNL     1     -35.399   5.548   6.150  1.00 20.00    -0.167 F 
ENDBRANCH   1   5
TORSDOF 1
ENDMDL
MODEL 7
REMARK VINA RESULT:      -3.7      8.818      9.503
REMARK  1 active torsions:
REMARK  status: ('A' for Active; 'I' for Inactive)
REMARK    1  A    between atoms: C1_1  and  C4_4 
ROOT
HETATM    1  C1  UNL     1     -39.555  13.136   6.330  1.00 20.00     0.102 C 
HETATM    2  C2  UNL     1     -40.721  13.440   6.928  1.00 20.00    -0.015 C 
HETATM    3  C3  UNL     1     -42.038  12.774   6.647  1.00 20.00     0.055 C 
HETATM    4  I8  UNL     1     -40.765  14.953   8.373  1.00 20.00    -0.050 I 
ENDROOT
BRANCH   1   5
HETATM    5  C4  UNL     1     -39.359  12.091   5.287  1.00 20.00     0.408 C 
HETATM    6  F5  UNL     1     -40.025  12.377   4.141  1.00 20.00    -0.167 F 
HETATM    7  F6  UNL     1     -39.778  10.868   5.701  1.00 20.00    -0.167 F 
HETATM    8  F7  UNL     1     -38.049  11.960   4.954  1.00 20.00    -0.167 F 
ENDBRANCH   1   5
TORSDOF 1
ENDMDL
MODEL 8
REMARK VINA RESULT:      -3.7      8.892      9.553
REMARK  1 active torsions:
REMARK  status: ('A' for Active; 'I' for Inactive)
REMARK    1  A    between atoms: C1_1  and  C4_4 
ROOT
HETATM    1  C1  UNL     1     -40.577  12.825   4.971  1.00 20.00     0.102 C 
HETATM    2  C2  UNL     1     -41.021  13.666   5.923  1.00 20.00    -0.015 C 
HETATM    3  C3  UNL     1     -40.474  13.761   7.319  1.00 20.00     0.055 C 
HETATM    4  I8  UNL     1     -42.599  14.968   5.482  1.00 20.00    -0.050 I 
ENDROOT
BRANCH   1   5
HETATM    5  C4  UNL     1     -39.468  11.843   5.127  1.00 20.00     0.408 C 
HETATM    6  F5  UNL     1     -39.697  10.967   6.136  1.00 20.00    -0.167 F 
HETATM    7  F6  UNL     1     -38.279  12.447   5.381  1.00 20.00    -0.167 F 
HETATM    8  F7  UNL     1     -39.296  11.104   4.001  1.00 20.00    -0.167 F 
ENDBRANCH   1   5
TORSDOF 1
ENDMDL
MODEL 9
REMARK VINA RESULT:      -3.5     17.177     17.700
REMARK  1 active torsions:
REMARK  status: ('A' for Active; 'I' for Inactive)
REMARK    1  A    between atoms: C1_1  and  C4_4 
ROOT
HETATM    1  C1  UNL     1     -23.847  18.514  10.019  1.00 20.00     0.102 C 
HETATM    2  C2  UNL     1     -23.897  18.476  11.363  1.00 20.00    -0.015 C 
HETATM    3  C3  UNL     1     -22.718  18.257  12.268  1.00 20.00     0.055 C 
HETATM    4  I8  UNL     1     -25.737  18.735  12.325  1.00 20.00    -0.050 I 
ENDROOT
BRANCH   1   5
HETATM    5  C4  UNL     1     -22.621  18.348   9.190  1.00 20.00     0.408 C 
HETATM    6  F5  UNL     1     -22.064  17.121   9.338  1.00 20.00    -0.167 F 
HETATM    7  F6  UNL     1     -21.666  19.263   9.495  1.00 20.00    -0.167 F 
HETATM    8  F7  UNL     1     -22.892  18.496   7.867  1.00 20.00    -0.167 F 
ENDBRANCH   1   5
TORSDOF 1
ENDMDL
