MODEL 1
REMARK VINA RESULT:      -5.6      0.000      0.000
REMARK  3 active torsions:
REMARK  status: ('A' for Active; 'I' for Inactive)
REMARK    1  A    between atoms: C2_2  and  C5_5 
REMARK    2  A    between atoms: C4_4  and  C5_5 
REMARK    3  A    between atoms: C4_4  and  C6_6 
ROOT
HETATM    1  C4  UNL     1     -33.640   6.725   5.640  1.00 20.00     0.353 C 
HETATM    2  F7  UNL     1     -34.375   7.157   6.709  1.00 20.00    -0.233 F 
ENDROOT
BRANCH   1   3
HETATM    3  C5  UNL     1     -33.257   7.957   4.828  1.00 20.00     0.300 C 
HETATM    4  F8  UNL     1     -32.481   8.764   5.605  1.00 20.00    -0.198 F 
HETATM    5  F9  UNL     1     -34.398   8.665   4.588  1.00 20.00    -0.198 F 
BRANCH   3   6
HETATM    6  C2  UNL     1     -32.596   7.638   3.520  1.00 20.00     0.050 C 
HETATM    7  C1  UNL     1     -32.610   8.442   2.447  1.00 20.00    -0.029 C 
HETATM    8  C3  UNL     1     -31.949   8.108   1.150  1.00 20.00     0.036 C 
ENDBRANCH   3   6
ENDBRANCH   1   3
BRANCH   1   9
HETATM    9  C6  UNL     1     -34.486   5.709   4.903  1.00 20.00     0.424 C 
HETATM   10  F10 UNL     1     -35.647   6.241   4.469  1.00 20.00    -0.168 F 
HETATM   11  F11 UNL     1     -33.833   5.205   3.833  1.00 20.00    -0.168 F 
HETATM   12  F12 UNL     1     -34.797   4.676   5.718  1.00 20.00    -0.168 F 
ENDBRANCH   1   9
TORSDOF 3
ENDMDL
MODEL 2
REMARK VINA RESULT:      -5.5      1.925      3.861
REMARK  3 active torsions:
REMARK  status: ('A' for Active; 'I' for Inactive)
REMARK    1  A    between atoms: C2_2  and  C5_5 
REMARK    2  A    between atoms: C4_4  and  C5_5 
REMARK    3  A    between atoms: C4_4  and  C6_6 
ROOT
HETATM    1  C4  UNL     1     -33.182   8.309   3.528  1.00 20.00     0.353 C 
HETATM    2  F7  UNL     1     -32.911   9.550   3.023  1.00 20.00    -0.233 F 
ENDROOT
BRANCH   1   3
HETATM    3  C5  UNL     1     -33.110   8.415   5.048  1.00 20.00     0.300 C 
HETATM    4  F8  UNL     1     -34.003   9.358   5.460  1.00 20.00    -0.198 F 
HETATM    5  F9  UNL     1     -31.879   8.908   5.369  1.00 20.00    -0.198 F 
BRANCH   3   6
HETATM    6  C2  UNL     1     -33.311   7.108   5.756  1.00 20.00     0.050 C 
HETATM    7  C1  UNL     1     -34.428   6.369   5.683  1.00 20.00    -0.029 C 
HETATM    8  C3  UNL     1     -34.613   5.071   6.396  1.00 20.00     0.036 C 
ENDBRANCH   3   6
ENDBRANCH   1   3
BRANCH   1   9
HETATM    9  C6  UNL     1     -32.190   7.351   2.905  1.00 20.00     0.424 C 
HETATM   10  F10 UNL     1     -30.994   7.391   3.525  1.00 20.00    -0.168 F 
HETATM   11  F11 UNL     1     -32.640   6.078   2.948  1.00 20.00    -0.168 F 
HETATM   12  F12 UNL     1     -31.982   7.670   1.607  1.00 20.00    -0.168 F 
ENDBRANCH   1   9
TORSDOF 3
ENDMDL
MODEL 3
REMARK VINA RESULT:      -5.5      0.878      1.868
REMARK  3 active torsions:
REMARK  status: ('A' for Active; 'I' for Inactive)
REMARK    1  A    between atoms: C2_2  and  C5_5 
REMARK    2  A    between atoms: C4_4  and  C5_5 
REMARK    3  A    between atoms: C4_4  and  C6_6 
ROOT
HETATM    1  C4  UNL     1     -34.238   6.458   4.812  1.00 20.00     0.353 C 
HETATM    2  F7  UNL     1     -33.736   5.382   4.136  1.00 20.00    -0.233 F 
ENDROOT
BRANCH   1   3
HETATM    3  C5  UNL     1     -33.282   7.623   4.581  1.00 20.00     0.300 C 
HETATM    4  F8  UNL     1     -32.443   7.715   5.651  1.00 20.00    -0.198 F 
HETATM    5  F9  UNL     1     -34.019   8.771   4.592  1.00 20.00    -0.198 F 
BRANCH   3   6
HETATM    6  C2  UNL     1     -32.529   7.541   3.287  1.00 20.00     0.050 C 
HETATM    7  C1  UNL     1     -32.646   8.421   2.282  1.00 20.00    -0.029 C 
HETATM    8  C3  UNL     1     -31.890   8.322   0.999  1.00 20.00     0.036 C 
ENDBRANCH   3   6
ENDBRANCH   1   3
BRANCH   1   9
HETATM    9  C6  UNL     1     -34.399   6.039   6.258  1.00 20.00     0.424 C 
HETATM   10  F10 UNL     1     -33.291   5.433   6.732  1.00 20.00    -0.168 F 
HETATM   11  F11 UNL     1     -34.668   7.097   7.053  1.00 20.00    -0.168 F 
HETATM   12  F12 UNL     1     -35.421   5.161   6.381  1.00 20.00    -0.168 F 
ENDBRANCH   1   9
TORSDOF 3
ENDMDL
MODEL 4
REMARK VINA RESULT:      -5.4      1.803      3.324
REMARK  3 active torsions:
REMARK  status: ('A' for Active; 'I' for Inactive)
REMARK    1  A    between atoms: C2_2  and  C5_5 
REMARK    2  A    between atoms: C4_4  and  C5_5 
REMARK    3  A    between atoms: C4_4  and  C6_6 
ROOT
HETATM    1  C4  UNL     1     -34.153   7.002   6.125  1.00 20.00     0.353 C 
HETATM    2  F7  UNL     1     -33.095   6.521   6.843  1.00 20.00    -0.233 F 
ENDROOT
BRANCH   1   3
HETATM    3  C5  UNL     1     -34.773   5.820   5.387  1.00 20.00     0.300 C 
HETATM    4  F8  UNL     1     -35.868   6.260   4.706  1.00 20.00    -0.198 F 
HETATM    5  F9  UNL     1     -35.248   4.951   6.325  1.00 20.00    -0.198 F 
BRANCH   3   6
HETATM    6  C2  UNL     1     -33.813   5.094   4.492  1.00 20.00     0.050 C 
HETATM    7  C1  UNL     1     -33.656   5.344   3.184  1.00 20.00    -0.029 C 
HETATM    8  C3  UNL     1     -32.697   4.610   2.307  1.00 20.00     0.036 C 
ENDBRANCH   3   6
ENDBRANCH   1   3
BRANCH   1   9
HETATM    9  C6  UNL     1     -33.620   8.104   5.235  1.00 20.00     0.424 C 
HETATM   10  F10 UNL     1     -32.326   7.910   4.913  1.00 20.00    -0.168 F 
HETATM   11  F11 UNL     1     -34.327   8.198   4.087  1.00 20.00    -0.168 F 
HETATM   12  F12 UNL     1     -33.702   9.298   5.866  1.00 20.00    -0.168 F 
ENDBRANCH   1   9
TORSDOF 3
ENDMDL
MODEL 5
REMARK VINA RESULT:      -5.2      1.253      2.252
REMARK  3 active torsions:
REMARK  status: ('A' for Active; 'I' for Inactive)
REMARK    1  A    between atoms: C2_2  and  C5_5 
REMARK    2  A    between atoms: C4_4  and  C5_5 
REMARK    3  A    between atoms: C4_4  and  C6_6 
ROOT
HETATM    1  C4  UNL     1     -33.670   7.341   4.418  1.00 20.00     0.353 C 
HETATM    2  F7  UNL     1     -33.324   6.103   3.951  1.00 20.00    -0.233 F 
ENDROOT
BRANCH   1   3
HETATM    3  C5  UNL     1     -32.537   8.294   4.053  1.00 20.00     0.300 C 
HETATM    4  F8  UNL     1     -31.366   7.597   4.059  1.00 20.00    -0.198 F 
HETATM    5  F9  UNL     1     -32.426   9.208   5.059  1.00 20.00    -0.198 F 
BRANCH   3   6
HETATM    6  C2  UNL     1     -32.749   9.018   2.757  1.00 20.00     0.050 C 
HETATM    7  C1  UNL     1     -32.443   8.521   1.550  1.00 20.00    -0.029 C 
HETATM    8  C3  UNL     1     -32.658   9.258   0.269  1.00 20.00     0.036 C 
ENDBRANCH   3   6
ENDBRANCH   1   3
BRANCH   1   9
HETATM    9  C6  UNL     1     -33.934   7.198   5.901  1.00 20.00     0.424 C 
HETATM   10  F10 UNL     1     -34.859   6.251   6.159  1.00 20.00    -0.168 F 
HETATM   11  F11 UNL     1     -32.808   6.875   6.574  1.00 20.00    -0.168 F 
HETATM   12  F12 UNL     1     -34.398   8.362   6.410  1.00 20.00    -0.168 F 
ENDBRANCH   1   9
TORSDOF 3
ENDMDL
MODEL 6
REMARK VINA RESULT:      -5.2      1.519      2.092
REMARK  3 active torsions:
REMARK  status: ('A' for Active; 'I' for Inactive)
REMARK    1  A    between atoms: C2_2  and  C5_5 
REMARK    2  A    between atoms: C4_4  and  C5_5 
REMARK    3  A    between atoms: C4_4  and  C6_6 
ROOT
HETATM    1  C4  UNL     1     -33.966   5.390   5.869  1.00 20.00     0.353 C 
HETATM    2  F7  UNL     1     -34.994   4.913   6.634  1.00 20.00    -0.233 F 
ENDROOT
BRANCH   1   3
HETATM    3  C5  UNL     1     -33.780   6.860   6.230  1.00 20.00     0.300 C 
HETATM    4  F8  UNL     1     -32.699   6.971   7.053  1.00 20.00    -0.198 F 
HETATM    5  F9  UNL     1     -34.854   7.240   6.981  1.00 20.00    -0.198 F 
BRANCH   3   6
HETATM    6  C2  UNL     1     -33.672   7.767   5.041  1.00 20.00     0.050 C 
HETATM    7  C1  UNL     1     -32.552   8.407   4.673  1.00 20.00    -0.029 C 
HETATM    8  C3  UNL     1     -32.463   9.309   3.487  1.00 20.00     0.036 C 
ENDBRANCH   3   6
ENDBRANCH   1   3
BRANCH   1   9
HETATM    9  C6  UNL     1     -34.330   5.127   4.424  1.00 20.00     0.424 C 
HETATM   10  F10 UNL     1     -33.460   5.706   3.572  1.00 20.00    -0.168 F 
HETATM   11  F11 UNL     1     -34.361   3.804   4.155  1.00 20.00    -0.168 F 
HETATM   12  F12 UNL     1     -35.556   5.631   4.149  1.00 20.00    -0.168 F 
ENDBRANCH   1   9
TORSDOF 3
ENDMDL
MODEL 7
REMARK VINA RESULT:      -5.1      1.190      1.981
REMARK  3 active torsions:
REMARK  status: ('A' for Active; 'I' for Inactive)
REMARK    1  A    between atoms: C2_2  and  C5_5 
REMARK    2  A    between atoms: C4_4  and  C5_5 
REMARK    3  A    between atoms: C4_4  and  C6_6 
ROOT
HETATM    1  C4  UNL     1     -33.204   7.536   5.004  1.00 20.00     0.353 C 
HETATM    2  F7  UNL     1     -33.842   8.744   5.026  1.00 20.00    -0.233 F 
ENDROOT
BRANCH   1   3
HETATM    3  C5  UNL     1     -32.457   7.444   3.678  1.00 20.00     0.300 C 
HETATM    4  F8  UNL     1     -32.621   6.188   3.174  1.00 20.00    -0.198 F 
HETATM    5  F9  UNL     1     -31.125   7.562   3.946  1.00 20.00    -0.198 F 
BRANCH   3   6
HETATM    6  C2  UNL     1     -32.850   8.498   2.686  1.00 20.00     0.050 C 
HETATM    7  C1  UNL     1     -32.426   8.542   1.415  1.00 20.00    -0.029 C 
HETATM    8  C3  UNL     1     -32.826   9.601   0.442  1.00 20.00     0.036 C 
ENDBRANCH   3   6
ENDBRANCH   1   3
BRANCH   1   9
HETATM    9  C6  UNL     1     -34.260   6.473   5.219  1.00 20.00     0.424 C 
HETATM   10  F10 UNL     1     -35.260   6.567   4.319  1.00 20.00    -0.168 F 
HETATM   11  F11 UNL     1     -33.736   5.231   5.132  1.00 20.00    -0.168 F 
HETATM   12  F12 UNL     1     -34.812   6.602   6.447  1.00 20.00    -0.168 F 
ENDBRANCH   1   9
TORSDOF 3
ENDMDL
MODEL 8
REMARK VINA RESULT:      -5.1      1.334      3.065
REMARK  3 active torsions:
REMARK  status: ('A' for Active; 'I' for Inactive)
REMARK    1  A    between atoms: C2_2  and  C5_5 
REMARK    2  A    between atoms: C4_4  and  C5_5 
REMARK    3  A    between atoms: C4_4  and  C6_6 
ROOT
HETATM    1  C4  UNL     1     -34.759   5.767   6.067  1.00 20.00     0.353 C 
HETATM    2  F7  UNL     1     -34.001   4.757   6.591  1.00 20.00    -0.233 F 
ENDROOT
BRANCH   1   3
HETATM    3  C5  UNL     1     -34.763   5.589   4.552  1.00 20.00     0.300 C 
HETATM    4  F8  UNL     1     -36.047   5.683   4.108  1.00 20.00    -0.198 F 
HETATM    5  F9  UNL     1     -34.374   4.309   4.286  1.00 20.00    -0.198 F 
BRANCH   3   6
HETATM    6  C2  UNL     1     -33.851   6.535   3.830  1.00 20.00     0.050 C 
HETATM    7  C1  UNL     1     -32.868   6.158   2.999  1.00 20.00    -0.029 C 
HETATM    8  C3  UNL     1     -31.967   7.114   2.290  1.00 20.00     0.036 C 
ENDBRANCH   3   6
ENDBRANCH   1   3
BRANCH   1   9
HETATM    9  C6  UNL     1     -34.164   7.069   6.558  1.00 20.00     0.424 C 
HETATM   10  F10 UNL     1     -34.303   8.059   5.653  1.00 20.00    -0.168 F 
HETATM   11  F11 UNL     1     -34.741   7.473   7.710  1.00 20.00    -0.168 F 
HETATM   12  F12 UNL     1     -32.840   6.921   6.791  1.00 20.00    -0.168 F 
ENDBRANCH   1   9
TORSDOF 3
ENDMDL
MODEL 9
REMARK VINA RESULT:      -5.1      1.476      1.657
REMARK  3 active torsions:
REMARK  status: ('A' for Active; 'I' for Inactive)
REMARK    1  A    between atoms: C2_2  and  C5_5 
REMARK    2  A    between atoms: C4_4  and  C5_5 
REMARK    3  A    between atoms: C4_4  and  C6_6 
ROOT
HETATM    1  C4  UNL     1     -33.733   6.755   6.036  1.00 20.00     0.353 C 
HETATM    2  F7  UNL     1     -34.311   7.716   6.816  1.00 20.00    -0.233 F 
ENDROOT
BRANCH   1   3
HETATM    3  C5  UNL     1     -33.386   7.405   4.701  1.00 20.00     0.300 C 
HETATM    4  F8  UNL     1     -32.105   7.866   4.763  1.00 20.00    -0.198 F 
HETATM    5  F9  UNL     1     -34.170   8.514   4.566  1.00 20.00    -0.198 F 
BRANCH   3   6
HETATM    6  C2  UNL     1     -33.600   6.510   3.517  1.00 20.00     0.050 C 
HETATM    7  C1  UNL     1     -32.657   5.723   2.979  1.00 20.00    -0.029 C 
HETATM    8  C3  UNL     1     -32.887   4.839   1.798  1.00 20.00     0.036 C 
ENDBRANCH   3   6
ENDBRANCH   1   3
BRANCH   1   9
HETATM    9  C6  UNL     1     -34.712   5.604   5.952  1.00 20.00     0.424 C 
HETATM   10  F10 UNL     1     -35.668   5.822   5.026  1.00 20.00    -0.168 F 
HETATM   11  F11 UNL     1     -34.089   4.446   5.643  1.00 20.00    -0.168 F 
HETATM   12  F12 UNL     1     -35.336   5.430   7.140  1.00 20.00    -0.168 F 
ENDBRANCH   1   9
TORSDOF 3
ENDMDL
