MODEL 1
REMARK VINA RESULT:      -4.8      0.000      0.000
REMARK  0 active torsions:
REMARK  status: ('A' for Active; 'I' for Inactive)
ROOT
HETATM    1  C1  UNL     1     -33.241   5.902   3.360  1.00 20.00    -0.080 C 
HETATM    2  C2  UNL     1     -33.177   4.983   2.388  1.00 20.00     0.015 C 
HETATM    3  C3  UNL     1     -32.180   6.948   3.585  1.00 20.00     0.043 C 
HETATM    4  C4  UNL     1     -34.485   5.814   6.749  1.00 20.00     0.002 C 
HETATM    5  C5  UNL     1     -33.619   7.026   6.462  1.00 20.00     0.006 C 
HETATM    6  C6  UNL     1     -34.394   5.027   5.450  1.00 20.00     0.014 C 
HETATM    7  C7  UNL     1     -34.044   7.440   5.046  1.00 20.00     0.006 C 
HETATM    8  C8  UNL     1     -34.392   6.095   4.331  1.00 20.00    -0.017 C 
HETATM    9  C9  UNL     1     -32.957   8.132   4.183  1.00 20.00    -0.040 C 
HETATM   10  C10 UNL     1     -35.767   6.155   3.650  1.00 20.00     0.020 C 
HETATM   11  C11 UNL     1     -33.605   8.970   3.059  1.00 20.00     0.015 C 
HETATM   12  C12 UNL     1     -32.034   9.064   4.979  1.00 20.00     0.015 C 
ENDROOT
TORSDOF 0
ENDMDL
MODEL 2
REMARK VINA RESULT:      -4.1     11.846     13.570
REMARK  0 active torsions:
REMARK  status: ('A' for Active; 'I' for Inactive)
ROOT
HETATM    1  C1  UNL     1     -33.679  16.917  -3.002  1.00 20.00    -0.080 C 
HETATM    2  C2  UNL     1     -33.231  15.939  -3.800  1.00 20.00     0.015 C 
HETATM    3  C3  UNL     1     -33.671  16.831  -1.498  1.00 20.00     0.043 C 
HETATM    4  C4  UNL     1     -36.410  19.263  -3.285  1.00 20.00     0.002 C 
HETATM    5  C5  UNL     1     -35.838  19.178  -1.883  1.00 20.00     0.006 C 
HETATM    6  C6  UNL     1     -35.624  18.192  -4.028  1.00 20.00     0.014 C 
HETATM    7  C7  UNL     1     -34.325  19.074  -2.121  1.00 20.00     0.006 C 
HETATM    8  C8  UNL     1     -34.190  18.273  -3.454  1.00 20.00    -0.017 C 
HETATM    9  C9  UNL     1     -33.518  18.294  -1.051  1.00 20.00    -0.040 C 
HETATM   10  C10 UNL     1     -33.259  18.980  -4.449  1.00 20.00     0.020 C 
HETATM   11  C11 UNL     1     -32.031  18.709  -1.078  1.00 20.00     0.015 C 
HETATM   12  C12 UNL     1     -34.028  18.499   0.382  1.00 20.00     0.015 C 
ENDROOT
TORSDOF 0
ENDMDL
MODEL 3
REMARK VINA RESULT:      -3.6     12.182     13.875
REMARK  0 active torsions:
REMARK  status: ('A' for Active; 'I' for Inactive)
ROOT
HETATM    1  C1  UNL     1     -34.156  18.413  -5.197  1.00 20.00    -0.080 C 
HETATM    2  C2  UNL     1     -34.395  19.263  -6.204  1.00 20.00     0.015 C 
HETATM    3  C3  UNL     1     -33.242  18.730  -4.042  1.00 20.00     0.043 C 
HETATM    4  C4  UNL     1     -33.821  14.821  -5.039  1.00 20.00     0.002 C 
HETATM    5  C5  UNL     1     -33.320  15.523  -3.792  1.00 20.00     0.006 C 
HETATM    6  C6  UNL     1     -34.192  15.984  -5.947  1.00 20.00     0.014 C 
HETATM    7  C7  UNL     1     -34.355  16.636  -3.569  1.00 20.00     0.006 C 
HETATM    8  C8  UNL     1     -34.800  17.052  -5.007  1.00 20.00    -0.017 C 
HETATM    9  C9  UNL     1     -33.835  17.921  -2.876  1.00 20.00    -0.040 C 
HETATM   10  C10 UNL     1     -36.330  17.071  -5.144  1.00 20.00     0.020 C 
HETATM   11  C11 UNL     1     -34.999  18.699  -2.223  1.00 20.00     0.015 C 
HETATM   12  C12 UNL     1     -32.788  17.658  -1.786  1.00 20.00     0.015 C 
ENDROOT
TORSDOF 0
ENDMDL
MODEL 4
REMARK VINA RESULT:      -3.6     12.089     14.181
REMARK  0 active torsions:
REMARK  status: ('A' for Active; 'I' for Inactive)
ROOT
HETATM    1  C1  UNL     1     -35.760  18.178  -4.501  1.00 20.00    -0.080 C 
HETATM    2  C2  UNL     1     -36.546  19.257  -4.396  1.00 20.00     0.015 C 
HETATM    3  C3  UNL     1     -36.194  16.897  -5.164  1.00 20.00     0.043 C 
HETATM    4  C4  UNL     1     -33.285  16.718  -2.315  1.00 20.00     0.002 C 
HETATM    5  C5  UNL     1     -33.720  15.787  -3.430  1.00 20.00     0.006 C 
HETATM    6  C6  UNL     1     -34.190  17.924  -2.518  1.00 20.00     0.014 C 
HETATM    7  C7  UNL     1     -33.838  16.718  -4.646  1.00 20.00     0.006 C 
HETATM    8  C8  UNL     1     -34.313  18.082  -4.052  1.00 20.00    -0.017 C 
HETATM    9  C9  UNL     1     -34.883  16.312  -5.717  1.00 20.00    -0.040 C 
HETATM   10  C10 UNL     1     -33.440  19.247  -4.539  1.00 20.00     0.020 C 
HETATM   11  C11 UNL     1     -34.544  16.952  -7.081  1.00 20.00     0.015 C 
HETATM   12  C12 UNL     1     -34.992  14.796  -5.933  1.00 20.00     0.015 C 
ENDROOT
TORSDOF 0
ENDMDL
MODEL 5
REMARK VINA RESULT:      -3.5     12.149     13.989
REMARK  0 active torsions:
REMARK  status: ('A' for Active; 'I' for Inactive)
ROOT
HETATM    1  C1  UNL     1     -34.248  16.053  -6.605  1.00 20.00    -0.080 C 
HETATM    2  C2  UNL     1     -33.834  15.275  -7.613  1.00 20.00     0.015 C 
HETATM    3  C3  UNL     1     -34.557  17.519  -6.759  1.00 20.00     0.043 C 
HETATM    4  C4  UNL     1     -33.438  16.152  -3.087  1.00 20.00     0.002 C 
HETATM    5  C5  UNL     1     -34.161  17.395  -3.568  1.00 20.00     0.006 C 
HETATM    6  C6  UNL     1     -33.245  15.362  -4.373  1.00 20.00     0.014 C 
HETATM    7  C7  UNL     1     -35.219  16.840  -4.534  1.00 20.00     0.006 C 
HETATM    8  C8  UNL     1     -34.540  15.594  -5.187  1.00 20.00    -0.017 C 
HETATM    9  C9  UNL     1     -35.639  17.777  -5.696  1.00 20.00    -0.040 C 
HETATM   10  C10 UNL     1     -35.442  14.354  -5.116  1.00 20.00     0.020 C 
HETATM   11  C11 UNL     1     -37.029  17.382  -6.240  1.00 20.00     0.015 C 
HETATM   12  C12 UNL     1     -35.700  19.260  -5.307  1.00 20.00     0.015 C 
ENDROOT
TORSDOF 0
ENDMDL
MODEL 6
REMARK VINA RESULT:      -3.5     12.333     13.646
REMARK  0 active torsions:
REMARK  status: ('A' for Active; 'I' for Inactive)
ROOT
HETATM    1  C1  UNL     1     -27.230  -3.609  11.869  1.00 20.00    -0.080 C 
HETATM    2  C2  UNL     1     -27.945  -4.737  11.969  1.00 20.00     0.015 C 
HETATM    3  C3  UNL     1     -25.783  -3.505  12.273  1.00 20.00     0.043 C 
HETATM    4  C4  UNL     1     -28.059  -0.125  12.332  1.00 20.00     0.002 C 
HETATM    5  C5  UNL     1     -26.565  -0.384  12.296  1.00 20.00     0.006 C 
HETATM    6  C6  UNL     1     -28.640  -1.529  12.254  1.00 20.00     0.014 C 
HETATM    7  C7  UNL     1     -26.413  -1.437  11.189  1.00 20.00     0.006 C 
HETATM    8  C8  UNL     1     -27.714  -2.296  11.281  1.00 20.00    -0.017 C 
HETATM    9  C9  UNL     1     -25.222  -2.418  11.340  1.00 20.00    -0.040 C 
HETATM   10  C10 UNL     1     -28.392  -2.448   9.911  1.00 20.00     0.020 C 
HETATM   11  C11 UNL     1     -24.841  -3.030   9.974  1.00 20.00     0.015 C 
HETATM   12  C12 UNL     1     -23.958  -1.774  11.926  1.00 20.00     0.015 C 
ENDROOT
TORSDOF 0
ENDMDL
MODEL 7
REMARK VINA RESULT:      -3.4     10.461     11.587
REMARK  0 active torsions:
REMARK  status: ('A' for Active; 'I' for Inactive)
ROOT
HETATM    1  C1  UNL     1     -42.070  15.569   6.215  1.00 20.00    -0.080 C 
HETATM    2  C2  UNL     1     -42.788  16.348   5.397  1.00 20.00     0.015 C 
HETATM    3  C3  UNL     1     -41.237  16.102   7.351  1.00 20.00     0.043 C 
HETATM    4  C4  UNL     1     -40.193  12.528   5.692  1.00 20.00     0.002 C 
HETATM    5  C5  UNL     1     -39.882  13.203   7.015  1.00 20.00     0.006 C 
HETATM    6  C6  UNL     1     -41.151  13.512   5.037  1.00 20.00     0.014 C 
HETATM    7  C7  UNL     1     -41.256  13.688   7.499  1.00 20.00     0.006 C 
HETATM    8  C8  UNL     1     -42.029  14.051   6.191  1.00 20.00    -0.017 C 
HETATM    9  C9  UNL     1     -41.256  14.962   8.383  1.00 20.00    -0.040 C 
HETATM   10  C10 UNL     1     -43.417  13.398   6.153  1.00 20.00     0.020 C 
HETATM   11  C11 UNL     1     -42.542  15.034   9.236  1.00 20.00     0.015 C 
HETATM   12  C12 UNL     1     -40.061  15.052   9.341  1.00 20.00     0.015 C 
ENDROOT
TORSDOF 0
ENDMDL
MODEL 8
REMARK VINA RESULT:      -3.4     10.883     12.077
REMARK  0 active torsions:
REMARK  status: ('A' for Active; 'I' for Inactive)
ROOT
HETATM    1  C1  UNL     1     -42.709  13.247   7.223  1.00 20.00    -0.080 C 
HETATM    2  C2  UNL     1     -43.147  11.981   7.219  1.00 20.00     0.015 C 
HETATM    3  C3  UNL     1     -42.788  14.149   8.427  1.00 20.00     0.043 C 
HETATM    4  C4  UNL     1     -42.713  15.857   4.727  1.00 20.00     0.002 C 
HETATM    5  C5  UNL     1     -42.422  16.368   6.125  1.00 20.00     0.006 C 
HETATM    6  C6  UNL     1     -43.001  14.382   4.967  1.00 20.00     0.014 C 
HETATM    7  C7  UNL     1     -41.508  15.285   6.717  1.00 20.00     0.006 C 
HETATM    8  C8  UNL     1     -42.010  13.952   6.075  1.00 20.00    -0.017 C 
HETATM    9  C9  UNL     1     -41.585  15.093   8.254  1.00 20.00    -0.040 C 
HETATM   10  C10 UNL     1     -40.854  13.144   5.469  1.00 20.00     0.020 C 
HETATM   11  C11 UNL     1     -40.299  14.424   8.786  1.00 20.00     0.015 C 
HETATM   12  C12 UNL     1     -41.782  16.400   9.033  1.00 20.00     0.015 C 
ENDROOT
TORSDOF 0
ENDMDL
MODEL 9
REMARK VINA RESULT:      -3.3     12.207     14.638
REMARK  0 active torsions:
REMARK  status: ('A' for Active; 'I' for Inactive)
ROOT
HETATM    1  C1  UNL     1     -33.971  16.429  -4.229  1.00 20.00    -0.080 C 
HETATM    2  C2  UNL     1     -33.414  16.219  -3.029  1.00 20.00     0.015 C 
HETATM    3  C3  UNL     1     -34.094  15.363  -5.286  1.00 20.00     0.043 C 
HETATM    4  C4  UNL     1     -33.984  19.261  -6.470  1.00 20.00     0.002 C 
HETATM    5  C5  UNL     1     -34.454  17.977  -7.127  1.00 20.00     0.006 C 
HETATM    6  C6  UNL     1     -33.578  18.792  -5.081  1.00 20.00     0.014 C 
HETATM    7  C7  UNL     1     -35.310  17.314  -6.038  1.00 20.00     0.006 C 
HETATM    8  C8  UNL     1     -34.623  17.718  -4.696  1.00 20.00    -0.017 C 
HETATM    9  C9  UNL     1     -35.361  15.764  -6.062  1.00 20.00    -0.040 C 
HETATM   10  C10 UNL     1     -35.633  18.295  -3.693  1.00 20.00     0.020 C 
HETATM   11  C11 UNL     1     -36.621  15.248  -5.333  1.00 20.00     0.015 C 
HETATM   12  C12 UNL     1     -35.367  15.164  -7.474  1.00 20.00     0.015 C 
ENDROOT
TORSDOF 0
ENDMDL
