MODEL 1
REMARK VINA RESULT:      -4.6      0.000      0.000
REMARK  3 active torsions:
REMARK  status: ('A' for Active; 'I' for Inactive)
REMARK    1  A    between atoms: C2_2  and  C8_8 
REMARK    2  A    between atoms: C6_6  and  C7_7 
REMARK    3  A    between atoms: C7_7  and  C8_8 
ROOT
HETATM    1  C5  UNL     1     -32.886   4.985   2.546  1.00 20.00     0.014 C 
HETATM    2  C8  UNL     1     -33.051   6.104   3.578  1.00 20.00     0.004 C 
ENDROOT
BRANCH   2   3
HETATM    3  C2  UNL     1     -32.557   7.403   2.988  1.00 20.00    -0.027 C 
HETATM    4  C1  UNL     1     -32.365   8.521   3.703  1.00 20.00    -0.035 C 
HETATM    5  C3  UNL     1     -32.615   8.621   5.171  1.00 20.00     0.036 C 
ENDBRANCH   2   3
BRANCH   2   6
HETATM    6  C7  UNL     1     -34.523   6.201   4.022  1.00 20.00     0.008 C 
BRANCH   6   7
HETATM    7  C6  UNL     1     -34.896   5.175   5.098  1.00 20.00    -0.004 C 
HETATM    8  C4  UNL     1     -34.445   5.630   6.478  1.00 20.00     0.005 C 
ENDBRANCH   6   7
ENDBRANCH   2   6
TORSDOF 3
ENDMDL
MODEL 2
REMARK VINA RESULT:      -4.5      1.344      2.532
REMARK  3 active torsions:
REMARK  status: ('A' for Active; 'I' for Inactive)
REMARK    1  A    between atoms: C2_2  and  C8_8 
REMARK    2  A    between atoms: C6_6  and  C7_7 
REMARK    3  A    between atoms: C7_7  and  C8_8 
ROOT
HETATM    1  C5  UNL     1     -32.304   8.737   4.959  1.00 20.00     0.014 C 
HETATM    2  C8  UNL     1     -33.144   8.073   3.865  1.00 20.00     0.004 C 
ENDROOT
BRANCH   2   3
HETATM    3  C2  UNL     1     -32.232   7.585   2.764  1.00 20.00    -0.027 C 
HETATM    4  C1  UNL     1     -32.107   8.193   1.576  1.00 20.00    -0.035 C 
HETATM    5  C3  UNL     1     -32.852   9.428   1.193  1.00 20.00     0.036 C 
ENDBRANCH   2   3
BRANCH   2   6
HETATM    6  C7  UNL     1     -33.982   6.927   4.463  1.00 20.00     0.008 C 
BRANCH   6   7
HETATM    7  C6  UNL     1     -33.951   6.895   5.995  1.00 20.00    -0.004 C 
HETATM    8  C4  UNL     1     -34.525   5.592   6.534  1.00 20.00     0.005 C 
ENDBRANCH   6   7
ENDBRANCH   2   6
TORSDOF 3
ENDMDL
MODEL 3
REMARK VINA RESULT:      -4.5      1.044      3.627
REMARK  3 active torsions:
REMARK  status: ('A' for Active; 'I' for Inactive)
REMARK    1  A    between atoms: C2_2  and  C8_8 
REMARK    2  A    between atoms: C6_6  and  C7_7 
REMARK    3  A    between atoms: C7_7  and  C8_8 
ROOT
HETATM    1  C5  UNL     1     -32.264   8.970   5.054  1.00 20.00     0.014 C 
HETATM    2  C8  UNL     1     -32.952   7.602   5.024  1.00 20.00     0.004 C 
ENDROOT
BRANCH   2   3
HETATM    3  C2  UNL     1     -34.036   7.566   6.074  1.00 20.00    -0.027 C 
HETATM    4  C1  UNL     1     -34.604   6.437   6.520  1.00 20.00    -0.035 C 
HETATM    5  C3  UNL     1     -34.236   5.074   6.035  1.00 20.00     0.036 C 
ENDBRANCH   2   3
BRANCH   2   6
HETATM    6  C7  UNL     1     -33.509   7.321   3.616  1.00 20.00     0.008 C 
BRANCH   6   7
HETATM    7  C6  UNL     1     -32.528   6.554   2.722  1.00 20.00    -0.004 C 
HETATM    8  C4  UNL     1     -32.932   5.094   2.580  1.00 20.00     0.005 C 
ENDBRANCH   6   7
ENDBRANCH   2   6
TORSDOF 3
ENDMDL
MODEL 4
REMARK VINA RESULT:      -4.5      1.186      4.041
REMARK  3 active torsions:
REMARK  status: ('A' for Active; 'I' for Inactive)
REMARK    1  A    between atoms: C2_2  and  C8_8 
REMARK    2  A    between atoms: C6_6  and  C7_7 
REMARK    3  A    between atoms: C7_7  and  C8_8 
ROOT
HETATM    1  C5  UNL     1     -33.849   8.771   5.799  1.00 20.00     0.014 C 
HETATM    2  C8  UNL     1     -33.196   7.574   5.104  1.00 20.00     0.004 C 
ENDROOT
BRANCH   2   3
HETATM    3  C2  UNL     1     -34.268   6.716   4.475  1.00 20.00    -0.027 C 
HETATM    4  C1  UNL     1     -34.845   5.675   5.091  1.00 20.00    -0.035 C 
HETATM    5  C3  UNL     1     -34.501   5.232   6.474  1.00 20.00     0.036 C 
ENDBRANCH   2   3
BRANCH   2   6
HETATM    6  C7  UNL     1     -32.169   8.061   4.064  1.00 20.00     0.008 C 
BRANCH   6   7
HETATM    7  C6  UNL     1     -32.182   7.235   2.774  1.00 20.00    -0.004 C 
HETATM    8  C4  UNL     1     -32.187   8.130   1.543  1.00 20.00     0.005 C 
ENDBRANCH   6   7
ENDBRANCH   2   6
TORSDOF 3
ENDMDL
MODEL 5
REMARK VINA RESULT:      -4.4      1.042      2.744
REMARK  3 active torsions:
REMARK  status: ('A' for Active; 'I' for Inactive)
REMARK    1  A    between atoms: C2_2  and  C8_8 
REMARK    2  A    between atoms: C6_6  and  C7_7 
REMARK    3  A    between atoms: C7_7  and  C8_8 
ROOT
HETATM    1  C5  UNL     1     -34.071   9.070   5.614  1.00 20.00     0.014 C 
HETATM    2  C8  UNL     1     -33.593   7.742   5.020  1.00 20.00     0.004 C 
ENDROOT
BRANCH   2   3
HETATM    3  C2  UNL     1     -32.370   7.988   4.169  1.00 20.00    -0.027 C 
HETATM    4  C1  UNL     1     -32.041   7.242   3.105  1.00 20.00    -0.035 C 
HETATM    5  C3  UNL     1     -32.841   6.076   2.628  1.00 20.00     0.036 C 
ENDBRANCH   2   3
BRANCH   2   6
HETATM    6  C7  UNL     1     -33.313   6.730   6.147  1.00 20.00     0.008 C 
BRANCH   6   7
HETATM    7  C6  UNL     1     -34.498   5.801   6.430  1.00 20.00    -0.004 C 
HETATM    8  C4  UNL     1     -34.898   5.018   5.187  1.00 20.00     0.005 C 
ENDBRANCH   6   7
ENDBRANCH   2   6
TORSDOF 3
ENDMDL
MODEL 6
REMARK VINA RESULT:      -4.3      1.164      3.022
REMARK  3 active torsions:
REMARK  status: ('A' for Active; 'I' for Inactive)
REMARK    1  A    between atoms: C2_2  and  C8_8 
REMARK    2  A    between atoms: C6_6  and  C7_7 
REMARK    3  A    between atoms: C7_7  and  C8_8 
ROOT
HETATM    1  C5  UNL     1     -36.076   5.864   4.160  1.00 20.00     0.014 C 
HETATM    2  C8  UNL     1     -34.573   5.982   4.427  1.00 20.00     0.004 C 
ENDROOT
BRANCH   2   3
HETATM    3  C2  UNL     1     -34.344   6.168   5.909  1.00 20.00    -0.027 C 
HETATM    4  C1  UNL     1     -33.819   7.278   6.448  1.00 20.00    -0.035 C 
HETATM    5  C3  UNL     1     -33.398   8.469   5.653  1.00 20.00     0.036 C 
ENDBRANCH   2   3
BRANCH   2   6
HETATM    6  C7  UNL     1     -33.840   4.741   3.885  1.00 20.00     0.008 C 
BRANCH   6   7
HETATM    7  C6  UNL     1     -32.929   5.054   2.693  1.00 20.00    -0.004 C 
HETATM    8  C4  UNL     1     -32.479   6.507   2.705  1.00 20.00     0.005 C 
ENDBRANCH   6   7
ENDBRANCH   2   6
TORSDOF 3
ENDMDL
MODEL 7
REMARK VINA RESULT:      -4.2      0.928      3.695
REMARK  3 active torsions:
REMARK  status: ('A' for Active; 'I' for Inactive)
REMARK    1  A    between atoms: C2_2  and  C8_8 
REMARK    2  A    between atoms: C6_6  and  C7_7 
REMARK    3  A    between atoms: C7_7  and  C8_8 
ROOT
HETATM    1  C5  UNL     1     -34.463   5.882   6.720  1.00 20.00     0.014 C 
HETATM    2  C8  UNL     1     -33.881   6.352   5.384  1.00 20.00     0.004 C 
ENDROOT
BRANCH   2   3
HETATM    3  C2  UNL     1     -34.690   5.762   4.253  1.00 20.00    -0.027 C 
HETATM    4  C1  UNL     1     -34.151   5.271   3.129  1.00 20.00    -0.035 C 
HETATM    5  C3  UNL     1     -32.684   5.245   2.853  1.00 20.00     0.036 C 
ENDBRANCH   2   3
BRANCH   2   6
HETATM    6  C7  UNL     1     -33.858   7.891   5.329  1.00 20.00     0.008 C 
BRANCH   6   7
HETATM    7  C6  UNL     1     -32.513   8.456   4.860  1.00 20.00    -0.004 C 
HETATM    8  C4  UNL     1     -32.543   8.800   3.378  1.00 20.00     0.005 C 
ENDBRANCH   6   7
ENDBRANCH   2   6
TORSDOF 3
ENDMDL
MODEL 8
REMARK VINA RESULT:      -4.1      1.067      2.758
REMARK  3 active torsions:
REMARK  status: ('A' for Active; 'I' for Inactive)
REMARK    1  A    between atoms: C2_2  and  C8_8 
REMARK    2  A    between atoms: C6_6  and  C7_7 
REMARK    3  A    between atoms: C7_7  and  C8_8 
ROOT
HETATM    1  C5  UNL     1     -34.786   5.343   6.660  1.00 20.00     0.014 C 
HETATM    2  C8  UNL     1     -34.589   6.469   5.642  1.00 20.00     0.004 C 
ENDROOT
BRANCH   2   3
HETATM    3  C2  UNL     1     -33.229   7.092   5.844  1.00 20.00    -0.027 C 
HETATM    4  C1  UNL     1     -32.760   8.112   5.112  1.00 20.00    -0.035 C 
HETATM    5  C3  UNL     1     -33.524   8.760   4.005  1.00 20.00     0.036 C 
ENDBRANCH   2   3
BRANCH   2   6
HETATM    6  C7  UNL     1     -34.762   5.925   4.211  1.00 20.00     0.008 C 
BRANCH   6   7
HETATM    7  C6  UNL     1     -33.767   4.812   3.866  1.00 20.00    -0.004 C 
HETATM    8  C4  UNL     1     -32.918   5.182   2.659  1.00 20.00     0.005 C 
ENDBRANCH   6   7
ENDBRANCH   2   6
TORSDOF 3
ENDMDL
MODEL 9
REMARK VINA RESULT:      -4.0      0.791      3.212
REMARK  3 active torsions:
REMARK  status: ('A' for Active; 'I' for Inactive)
REMARK    1  A    between atoms: C2_2  and  C8_8 
REMARK    2  A    between atoms: C6_6  and  C7_7 
REMARK    3  A    between atoms: C7_7  and  C8_8 
ROOT
HETATM    1  C5  UNL     1     -32.924   5.339   2.838  1.00 20.00     0.014 C 
HETATM    2  C8  UNL     1     -34.119   5.774   3.690  1.00 20.00     0.004 C 
ENDROOT
BRANCH   2   3
HETATM    3  C2  UNL     1     -34.365   4.744   4.767  1.00 20.00    -0.027 C 
HETATM    4  C1  UNL     1     -34.518   5.044   6.065  1.00 20.00    -0.035 C 
HETATM    5  C3  UNL     1     -34.466   6.434   6.607  1.00 20.00     0.036 C 
ENDBRANCH   2   3
BRANCH   2   6
HETATM    6  C7  UNL     1     -33.866   7.173   4.284  1.00 20.00     0.008 C 
BRANCH   6   7
HETATM    7  C6  UNL     1     -32.540   7.790   3.825  1.00 20.00    -0.004 C 
HETATM    8  C4  UNL     1     -32.139   8.962   4.709  1.00 20.00     0.005 C 
ENDBRANCH   6   7
ENDBRANCH   2   6
TORSDOF 3
ENDMDL
