MODEL 1
REMARK VINA RESULT:      -3.7      0.000      0.000
REMARK  0 active torsions:
REMARK  status: ('A' for Active; 'I' for Inactive)
ROOT
HETATM    1  C1  UNL     1     -34.026   6.862   5.525  1.00 20.00     0.196 C 
HETATM    2  C2  UNL     1     -33.470   8.184   5.041  1.00 20.00     0.092 C 
HETATM    3  C3  UNL     1     -32.230   8.029   4.162  1.00 20.00     0.019 C 
HETATM    4  C4  UNL     1     -32.472   7.269   2.856  1.00 20.00     0.087 C 
HETATM    5  O5  UNL     1     -34.073   6.532   6.703  1.00 20.00    -0.285 OA
HETATM    6  S6  UNL     1     -34.681   5.846   4.247  1.00 20.00    -0.020 SA
HETATM    7  S7  UNL     1     -32.953   5.548   3.185  1.00 20.00    -0.090 SA
ENDROOT
TORSDOF 0
ENDMDL
MODEL 2
REMARK VINA RESULT:      -3.5      2.081      2.402
REMARK  0 active torsions:
REMARK  status: ('A' for Active; 'I' for Inactive)
ROOT
HETATM    1  C1  UNL     1     -34.488   6.009   4.587  1.00 20.00     0.196 C 
HETATM    2  C2  UNL     1     -33.455   5.496   3.607  1.00 20.00     0.092 C 
HETATM    3  C3  UNL     1     -32.767   6.611   2.819  1.00 20.00     0.019 C 
HETATM    4  C4  UNL     1     -31.960   7.586   3.679  1.00 20.00     0.087 C 
HETATM    5  O5  UNL     1     -35.683   5.758   4.511  1.00 20.00    -0.285 OA
HETATM    6  S6  UNL     1     -33.817   6.952   5.912  1.00 20.00    -0.020 SA
HETATM    7  S7  UNL     1     -33.041   8.501   4.816  1.00 20.00    -0.090 SA
ENDROOT
TORSDOF 0
ENDMDL
MODEL 3
REMARK VINA RESULT:      -3.5      1.986      2.930
REMARK  0 active torsions:
REMARK  status: ('A' for Active; 'I' for Inactive)
ROOT
HETATM    1  C1  UNL     1     -32.446   7.290   3.038  1.00 20.00     0.196 C 
HETATM    2  C2  UNL     1     -32.164   8.045   4.318  1.00 20.00     0.092 C 
HETATM    3  C3  UNL     1     -33.399   8.213   5.203  1.00 20.00     0.019 C 
HETATM    4  C4  UNL     1     -33.994   6.898   5.712  1.00 20.00     0.087 C 
HETATM    5  O5  UNL     1     -32.335   7.777   1.920  1.00 20.00    -0.285 OA
HETATM    6  S6  UNL     1     -32.881   5.602   3.278  1.00 20.00    -0.020 SA
HETATM    7  S7  UNL     1     -34.614   5.887   4.336  1.00 20.00    -0.090 SA
ENDROOT
TORSDOF 0
ENDMDL
MODEL 4
REMARK VINA RESULT:      -3.4      1.898      2.540
REMARK  0 active torsions:
REMARK  status: ('A' for Active; 'I' for Inactive)
ROOT
HETATM    1  C1  UNL     1     -34.157   5.095   4.521  1.00 20.00     0.196 C 
HETATM    2  C2  UNL     1     -34.885   5.898   5.578  1.00 20.00     0.092 C 
HETATM    3  C3  UNL     1     -34.025   6.999   6.197  1.00 20.00     0.019 C 
HETATM    4  C4  UNL     1     -33.571   8.076   5.210  1.00 20.00     0.087 C 
HETATM    5  O5  UNL     1     -33.913   3.900   4.621  1.00 20.00    -0.285 OA
HETATM    6  S6  UNL     1     -33.746   6.012   3.077  1.00 20.00    -0.020 SA
HETATM    7  S7  UNL     1     -32.480   7.376   3.937  1.00 20.00    -0.090 SA
ENDROOT
TORSDOF 0
ENDMDL
MODEL 5
REMARK VINA RESULT:      -3.3      2.456      3.359
REMARK  0 active torsions:
REMARK  status: ('A' for Active; 'I' for Inactive)
ROOT
HETATM    1  C1  UNL     1     -32.885   7.022   3.721  1.00 20.00     0.196 C 
HETATM    2  C2  UNL     1     -33.674   5.822   3.245  1.00 20.00     0.092 C 
HETATM    3  C3  UNL     1     -33.978   4.821   4.358  1.00 20.00     0.019 C 
HETATM    4  C4  UNL     1     -34.855   5.374   5.484  1.00 20.00     0.087 C 
HETATM    5  O5  UNL     1     -31.755   7.291   3.335  1.00 20.00    -0.285 OA
HETATM    6  S6  UNL     1     -33.759   8.062   4.838  1.00 20.00    -0.020 SA
HETATM    7  S7  UNL     1     -34.009   6.718   6.366  1.00 20.00    -0.090 SA
ENDROOT
TORSDOF 0
ENDMDL
MODEL 6
REMARK VINA RESULT:      -3.1      1.759      2.636
REMARK  0 active torsions:
REMARK  status: ('A' for Active; 'I' for Inactive)
ROOT
HETATM    1  C1  UNL     1     -33.549   7.756   5.299  1.00 20.00     0.196 C 
HETATM    2  C2  UNL     1     -33.822   6.771   6.416  1.00 20.00     0.092 C 
HETATM    3  C3  UNL     1     -34.743   5.626   5.997  1.00 20.00     0.019 C 
HETATM    4  C4  UNL     1     -34.177   4.733   4.891  1.00 20.00     0.087 C 
HETATM    5  O5  UNL     1     -33.891   8.932   5.329  1.00 20.00    -0.285 OA
HETATM    6  S6  UNL     1     -32.621   7.090   3.962  1.00 20.00    -0.020 SA
HETATM    7  S7  UNL     1     -33.960   5.665   3.347  1.00 20.00    -0.090 SA
ENDROOT
TORSDOF 0
ENDMDL
MODEL 7
REMARK VINA RESULT:      -3.1      9.786     10.209
REMARK  0 active torsions:
REMARK  status: ('A' for Active; 'I' for Inactive)
ROOT
HETATM    1  C1  UNL     1     -42.401   5.231  -0.685  1.00 20.00     0.196 C 
HETATM    2  C2  UNL     1     -40.979   5.749  -0.658  1.00 20.00     0.092 C 
HETATM    3  C3  UNL     1     -40.880   7.218  -0.250  1.00 20.00     0.019 C 
HETATM    4  C4  UNL     1     -41.372   7.513   1.169  1.00 20.00     0.087 C 
HETATM    5  O5  UNL     1     -42.966   4.841  -1.698  1.00 20.00    -0.285 OA
HETATM    6  S6  UNL     1     -43.171   5.162   0.896  1.00 20.00    -0.020 SA
HETATM    7  S7  UNL     1     -43.148   7.166   1.329  1.00 20.00    -0.090 SA
ENDROOT
TORSDOF 0
ENDMDL
MODEL 8
REMARK VINA RESULT:      -3.0     16.090     16.514
REMARK  0 active torsions:
REMARK  status: ('A' for Active; 'I' for Inactive)
ROOT
HETATM    1  C1  UNL     1     -24.934  18.621  10.844  1.00 20.00     0.196 C 
HETATM    2  C2  UNL     1     -24.274  18.694   9.484  1.00 20.00     0.092 C 
HETATM    3  C3  UNL     1     -22.856  19.262   9.532  1.00 20.00     0.019 C 
HETATM    4  C4  UNL     1     -21.866  18.422  10.341  1.00 20.00     0.087 C 
HETATM    5  O5  UNL     1     -25.934  19.256  11.151  1.00 20.00    -0.285 OA
HETATM    6  S6  UNL     1     -24.182  17.477  11.948  1.00 20.00    -0.020 SA
HETATM    7  S7  UNL     1     -22.340  18.365  12.094  1.00 20.00    -0.090 SA
ENDROOT
TORSDOF 0
ENDMDL
MODEL 9
REMARK VINA RESULT:      -3.0     13.119     13.500
REMARK  0 active torsions:
REMARK  status: ('A' for Active; 'I' for Inactive)
ROOT
HETATM    1  C1  UNL     1     -34.455  15.305  -5.789  1.00 20.00     0.196 C 
HETATM    2  C2  UNL     1     -33.947  14.740  -4.480  1.00 20.00     0.092 C 
HETATM    3  C3  UNL     1     -33.069  15.719  -3.701  1.00 20.00     0.019 C 
HETATM    4  C4  UNL     1     -33.786  16.997  -3.260  1.00 20.00     0.087 C 
HETATM    5  O5  UNL     1     -34.162  14.850  -6.887  1.00 20.00    -0.285 OA
HETATM    6  S6  UNL     1     -35.578  16.646  -5.606  1.00 20.00    -0.020 SA
HETATM    7  S7  UNL     1     -34.312  17.977  -4.697  1.00 20.00    -0.090 SA
ENDROOT
TORSDOF 0
ENDMDL
