MODEL 1
REMARK VINA RESULT:      -4.9      0.000      0.000
REMARK  0 active torsions:
REMARK  status: ('A' for Active; 'I' for Inactive)
ROOT
HETATM    1  C1  UNL     1     -34.215   5.499   6.536  1.00 20.00     0.006 C 
HETATM    2  C2  UNL     1     -33.438   6.821   6.358  1.00 20.00     0.009 C 
HETATM    3  C3  UNL     1     -33.017   6.254   3.944  1.00 20.00     0.014 C 
HETATM    4  C4  UNL     1     -35.011   7.499   4.516  1.00 20.00     0.014 C 
HETATM    5  C5  UNL     1     -34.870   5.031   5.268  1.00 20.00    -0.006 A 
HETATM    6  C6  UNL     1     -34.173   5.293   3.958  1.00 20.00    -0.005 A 
HETATM    7  C7  UNL     1     -35.405   6.063   4.311  1.00 20.00    -0.005 A 
HETATM    8  C8  UNL     1     -33.513   7.367   4.909  1.00 20.00    -0.043 C 
HETATM    9  C9  UNL     1     -32.743   8.668   4.756  1.00 20.00     0.015 C 
ENDROOT
TORSDOF 0
ENDMDL
MODEL 2
REMARK VINA RESULT:      -4.8      0.590      2.021
REMARK  0 active torsions:
REMARK  status: ('A' for Active; 'I' for Inactive)
ROOT
HETATM    1  C1  UNL     1     -33.279   5.137   3.492  1.00 20.00     0.006 C 
HETATM    2  C2  UNL     1     -32.793   6.588   3.693  1.00 20.00     0.009 C 
HETATM    3  C3  UNL     1     -35.088   7.256   4.476  1.00 20.00     0.014 C 
HETATM    4  C4  UNL     1     -33.477   6.487   6.110  1.00 20.00     0.014 C 
HETATM    5  C5  UNL     1     -34.401   4.764   4.420  1.00 20.00    -0.006 A 
HETATM    6  C6  UNL     1     -35.405   5.822   4.799  1.00 20.00    -0.005 A 
HETATM    7  C7  UNL     1     -34.410   5.347   5.808  1.00 20.00    -0.005 A 
HETATM    8  C8  UNL     1     -33.572   7.331   4.808  1.00 20.00    -0.043 C 
HETATM    9  C9  UNL     1     -33.076   8.756   4.989  1.00 20.00     0.015 C 
ENDROOT
TORSDOF 0
ENDMDL
MODEL 3
REMARK VINA RESULT:      -4.4      0.971      2.422
REMARK  0 active torsions:
REMARK  status: ('A' for Active; 'I' for Inactive)
ROOT
HETATM    1  C1  UNL     1     -33.297   7.610   5.570  1.00 20.00     0.006 C 
HETATM    2  C2  UNL     1     -33.018   6.972   4.192  1.00 20.00     0.009 C 
HETATM    3  C3  UNL     1     -33.371   4.683   5.174  1.00 20.00     0.014 C 
HETATM    4  C4  UNL     1     -35.272   5.859   4.248  1.00 20.00     0.014 C 
HETATM    5  C5  UNL     1     -34.221   6.783   6.420  1.00 20.00    -0.006 A 
HETATM    6  C6  UNL     1     -34.145   5.282   6.316  1.00 20.00    -0.005 A 
HETATM    7  C7  UNL     1     -35.320   6.008   5.744  1.00 20.00    -0.005 A 
HETATM    8  C8  UNL     1     -33.757   5.623   3.998  1.00 20.00    -0.043 C 
HETATM    9  C9  UNL     1     -33.469   5.013   2.636  1.00 20.00     0.015 C 
ENDROOT
TORSDOF 0
ENDMDL
MODEL 4
REMARK VINA RESULT:      -4.2     15.526     16.754
REMARK  0 active torsions:
REMARK  status: ('A' for Active; 'I' for Inactive)
ROOT
HETATM    1  C1  UNL     1     -22.797  18.795  12.332  1.00 20.00     0.006 C 
HETATM    2  C2  UNL     1     -22.113  18.386  11.010  1.00 20.00     0.009 C 
HETATM    3  C3  UNL     1     -23.897  16.658  10.615  1.00 20.00     0.014 C 
HETATM    4  C4  UNL     1     -24.230  18.895   9.753  1.00 20.00     0.014 C 
HETATM    5  C5  UNL     1     -24.282  18.566  12.316  1.00 20.00    -0.006 A 
HETATM    6  C6  UNL     1     -24.821  17.383  11.555  1.00 20.00    -0.005 A 
HETATM    7  C7  UNL     1     -25.026  18.765  11.022  1.00 20.00    -0.005 A 
HETATM    8  C8  UNL     1     -23.115  17.833   9.965  1.00 20.00    -0.043 C 
HETATM    9  C9  UNL     1     -22.421  17.437   8.672  1.00 20.00     0.015 C 
ENDROOT
TORSDOF 0
ENDMDL
MODEL 5
REMARK VINA RESULT:      -4.1      0.971      3.176
REMARK  0 active torsions:
REMARK  status: ('A' for Active; 'I' for Inactive)
ROOT
HETATM    1  C1  UNL     1     -32.207   7.221   3.224  1.00 20.00     0.006 C 
HETATM    2  C2  UNL     1     -33.172   6.053   3.525  1.00 20.00     0.009 C 
HETATM    3  C3  UNL     1     -33.264   6.745   5.941  1.00 20.00     0.014 C 
HETATM    4  C4  UNL     1     -34.876   7.682   4.399  1.00 20.00     0.014 C 
HETATM    5  C5  UNL     1     -32.405   8.393   4.144  1.00 20.00    -0.006 A 
HETATM    6  C6  UNL     1     -32.802   8.128   5.572  1.00 20.00    -0.005 A 
HETATM    7  C7  UNL     1     -33.798   8.707   4.620  1.00 20.00    -0.005 A 
HETATM    8  C8  UNL     1     -34.126   6.357   4.708  1.00 20.00    -0.043 C 
HETATM    9  C9  UNL     1     -35.066   5.195   4.986  1.00 20.00     0.015 C 
ENDROOT
TORSDOF 0
ENDMDL
MODEL 6
REMARK VINA RESULT:      -4.0     15.444     16.769
REMARK  0 active torsions:
REMARK  status: ('A' for Active; 'I' for Inactive)
ROOT
HETATM    1  C1  UNL     1     -22.016  18.577  11.510  1.00 20.00     0.006 C 
HETATM    2  C2  UNL     1     -23.320  18.496  12.332  1.00 20.00     0.009 C 
HETATM    3  C3  UNL     1     -24.666  18.903  10.247  1.00 20.00     0.014 C 
HETATM    4  C4  UNL     1     -24.134  16.625  10.863  1.00 20.00     0.014 C 
HETATM    5  C5  UNL     1     -22.199  18.149  10.081  1.00 20.00    -0.006 A 
HETATM    6  C6  UNL     1     -23.507  18.454   9.400  1.00 20.00    -0.005 A 
HETATM    7  C7  UNL     1     -23.179  17.047   9.780  1.00 20.00    -0.005 A 
HETATM    8  C8  UNL     1     -24.523  17.990  11.495  1.00 20.00    -0.043 C 
HETATM    9  C9  UNL     1     -25.795  17.917  12.323  1.00 20.00     0.015 C 
ENDROOT
TORSDOF 0
ENDMDL
MODEL 7
REMARK VINA RESULT:      -4.0     15.186     16.405
REMARK  0 active torsions:
REMARK  status: ('A' for Active; 'I' for Inactive)
ROOT
HETATM    1  C1  UNL     1     -25.265  16.532  12.037  1.00 20.00     0.006 C 
HETATM    2  C2  UNL     1     -24.133  16.314  11.009  1.00 20.00     0.009 C 
HETATM    3  C3  UNL     1     -24.651  18.540   9.959  1.00 20.00     0.014 C 
HETATM    4  C4  UNL     1     -23.037  18.449  11.760  1.00 20.00     0.014 C 
HETATM    5  C5  UNL     1     -25.514  17.984  12.331  1.00 20.00    -0.006 A 
HETATM    6  C6  UNL     1     -25.339  18.985  11.219  1.00 20.00    -0.005 A 
HETATM    7  C7  UNL     1     -24.343  18.929  12.332  1.00 20.00    -0.005 A 
HETATM    8  C8  UNL     1     -23.510  17.645  10.517  1.00 20.00    -0.043 C 
HETATM    9  C9  UNL     1     -22.398  17.407   9.508  1.00 20.00     0.015 C 
ENDROOT
TORSDOF 0
ENDMDL
MODEL 8
REMARK VINA RESULT:      -3.6      8.224      9.649
REMARK  0 active torsions:
REMARK  status: ('A' for Active; 'I' for Inactive)
ROOT
HETATM    1  C1  UNL     1     -43.417   5.192  -0.611  1.00 20.00     0.006 C 
HETATM    2  C2  UNL     1     -42.636   6.494  -0.889  1.00 20.00     0.009 C 
HETATM    3  C3  UNL     1     -42.875   7.160   1.524  1.00 20.00     0.014 C 
HETATM    4  C4  UNL     1     -40.946   5.858   0.860  1.00 20.00     0.014 C 
HETATM    5  C5  UNL     1     -43.259   4.708   0.803  1.00 20.00    -0.006 A 
HETATM    6  C6  UNL     1     -43.130   5.728   1.904  1.00 20.00    -0.005 A 
HETATM    7  C7  UNL     1     -41.939   4.924   1.494  1.00 20.00    -0.005 A 
HETATM    8  C8  UNL     1     -41.864   7.005   0.354  1.00 20.00    -0.043 C 
HETATM    9  C9  UNL     1     -41.103   8.286   0.057  1.00 20.00     0.015 C 
ENDROOT
TORSDOF 0
ENDMDL
MODEL 9
REMARK VINA RESULT:      -3.5      8.250      9.488
REMARK  0 active torsions:
REMARK  status: ('A' for Active; 'I' for Inactive)
ROOT
HETATM    1  C1  UNL     1     -42.816   5.503   2.016  1.00 20.00     0.006 C 
HETATM    2  C2  UNL     1     -43.417   6.863   1.603  1.00 20.00     0.009 C 
HETATM    3  C3  UNL     1     -41.204   7.551   0.627  1.00 20.00     0.014 C 
HETATM    4  C4  UNL     1     -42.800   6.413  -0.792  1.00 20.00     0.014 C 
HETATM    5  C5  UNL     1     -41.698   5.061   1.115  1.00 20.00    -0.006 A 
HETATM    6  C6  UNL     1     -40.789   6.109   0.528  1.00 20.00    -0.005 A 
HETATM    7  C7  UNL     1     -41.775   5.406  -0.349  1.00 20.00    -0.005 A 
HETATM    8  C8  UNL     1     -42.731   7.464   0.350  1.00 20.00    -0.043 C 
HETATM    9  C9  UNL     1     -43.338   8.802  -0.039  1.00 20.00     0.015 C 
ENDROOT
TORSDOF 0
ENDMDL
