MODEL 1
REMARK VINA RESULT:      -5.8      0.000      0.000
REMARK  0 active torsions:
REMARK  status: ('A' for Active; 'I' for Inactive)
ROOT
HETATM    1  C1  UNL     1     -33.592   7.440   6.390  1.00 20.00    -0.019 A 
HETATM    2  C2  UNL     1     -33.269   7.874   5.164  1.00 20.00    -0.086 A 
HETATM    3  C3  UNL     1     -34.355   4.802   4.977  1.00 20.00     0.132 C 
HETATM    4  C4  UNL     1     -34.080   7.240   4.068  1.00 20.00     0.046 A 
HETATM    5  C5  UNL     1     -34.261   4.960   6.505  1.00 20.00     0.088 C 
HETATM    6  C6  UNL     1     -34.680   6.440   6.318  1.00 20.00     0.027 A 
HETATM    7  C7  UNL     1     -34.951   6.216   4.798  1.00 20.00     0.067 A 
HETATM    8  C8  UNL     1     -32.226   8.884   4.838  1.00 20.00     0.043 C 
HETATM    9  O9  UNL     1     -34.060   3.911   4.209  1.00 20.00    -0.298 OA
ENDROOT
TORSDOF 0
ENDMDL
MODEL 2
REMARK VINA RESULT:      -4.5      1.517      2.012
REMARK  0 active torsions:
REMARK  status: ('A' for Active; 'I' for Inactive)
ROOT
HETATM    1  C1  UNL     1     -33.200   8.069   4.387  1.00 20.00    -0.019 A 
HETATM    2  C2  UNL     1     -32.946   7.094   3.505  1.00 20.00    -0.086 A 
HETATM    3  C3  UNL     1     -34.287   5.807   6.187  1.00 20.00     0.132 C 
HETATM    4  C4  UNL     1     -33.892   5.930   3.603  1.00 20.00     0.046 A 
HETATM    5  C5  UNL     1     -34.055   7.249   6.670  1.00 20.00     0.088 C 
HETATM    6  C6  UNL     1     -34.368   7.719   5.227  1.00 20.00     0.027 A 
HETATM    7  C7  UNL     1     -34.779   6.276   4.800  1.00 20.00     0.067 A 
HETATM    8  C8  UNL     1     -31.854   7.091   2.493  1.00 20.00     0.043 C 
HETATM    9  O9  UNL     1     -34.129   4.718   6.698  1.00 20.00    -0.298 OA
ENDROOT
TORSDOF 0
ENDMDL
MODEL 3
REMARK VINA RESULT:      -4.5      2.389      3.918
REMARK  0 active torsions:
REMARK  status: ('A' for Active; 'I' for Inactive)
ROOT
HETATM    1  C1  UNL     1     -33.659   7.592   5.043  1.00 20.00    -0.019 A 
HETATM    2  C2  UNL     1     -34.034   6.470   4.414  1.00 20.00    -0.086 A 
HETATM    3  C3  UNL     1     -32.395   8.381   2.337  1.00 20.00     0.132 C 
HETATM    4  C4  UNL     1     -33.101   6.057   3.311  1.00 20.00     0.046 A 
HETATM    5  C5  UNL     1     -32.544   9.345   3.527  1.00 20.00     0.088 C 
HETATM    6  C6  UNL     1     -32.403   8.118   4.462  1.00 20.00     0.027 A 
HETATM    7  C7  UNL     1     -32.069   7.184   3.258  1.00 20.00     0.067 A 
HETATM    8  C8  UNL     1     -35.241   5.655   4.722  1.00 20.00     0.043 C 
HETATM    9  O9  UNL     1     -32.507   8.511   1.137  1.00 20.00    -0.298 OA
ENDROOT
TORSDOF 0
ENDMDL
MODEL 4
REMARK VINA RESULT:      -4.3      2.213      3.753
REMARK  0 active torsions:
REMARK  status: ('A' for Active; 'I' for Inactive)
ROOT
HETATM    1  C1  UNL     1     -33.862   5.830   4.281  1.00 20.00    -0.019 A 
HETATM    2  C2  UNL     1     -34.229   6.051   5.551  1.00 20.00    -0.086 A 
HETATM    3  C3  UNL     1     -32.345   8.509   4.522  1.00 20.00     0.132 C 
HETATM    4  C4  UNL     1     -34.329   7.508   5.903  1.00 20.00     0.046 A 
HETATM    5  C5  UNL     1     -32.185   7.537   3.340  1.00 20.00     0.088 C 
HETATM    6  C6  UNL     1     -33.657   7.111   3.569  1.00 20.00     0.027 A 
HETATM    7  C7  UNL     1     -33.860   8.228   4.639  1.00 20.00     0.067 A 
HETATM    8  C8  UNL     1     -34.528   5.008   6.570  1.00 20.00     0.043 C 
HETATM    9  O9  UNL     1     -31.572   9.215   5.135  1.00 20.00    -0.298 OA
ENDROOT
TORSDOF 0
ENDMDL
MODEL 5
REMARK VINA RESULT:      -4.2     12.614     13.444
REMARK  0 active torsions:
REMARK  status: ('A' for Active; 'I' for Inactive)
ROOT
HETATM    1  C1  UNL     1     -34.509  17.026  -4.486  1.00 20.00    -0.019 A 
HETATM    2  C2  UNL     1     -33.717  16.432  -3.584  1.00 20.00    -0.086 A 
HETATM    3  C3  UNL     1     -35.651  14.197  -4.969  1.00 20.00     0.132 C 
HETATM    4  C4  UNL     1     -33.395  15.001  -3.915  1.00 20.00     0.046 A 
HETATM    5  C5  UNL     1     -36.275  15.483  -5.541  1.00 20.00     0.088 C 
HETATM    6  C6  UNL     1     -34.849  16.087  -5.579  1.00 20.00     0.027 A 
HETATM    7  C7  UNL     1     -34.212  14.721  -5.176  1.00 20.00     0.067 A 
HETATM    8  C8  UNL     1     -33.166  17.060  -2.353  1.00 20.00     0.043 C 
HETATM    9  O9  UNL     1     -36.115  13.173  -4.516  1.00 20.00    -0.298 OA
ENDROOT
TORSDOF 0
ENDMDL
MODEL 6
REMARK VINA RESULT:      -4.2      2.103      3.433
REMARK  0 active torsions:
REMARK  status: ('A' for Active; 'I' for Inactive)
ROOT
HETATM    1  C1  UNL     1     -32.445   6.954   2.912  1.00 20.00    -0.019 A 
HETATM    2  C2  UNL     1     -33.067   5.771   3.009  1.00 20.00    -0.086 A 
HETATM    3  C3  UNL     1     -33.449   7.429   5.794  1.00 20.00     0.132 C 
HETATM    4  C4  UNL     1     -34.261   5.791   3.922  1.00 20.00     0.046 A 
HETATM    5  C5  UNL     1     -32.429   8.334   5.081  1.00 20.00     0.088 C 
HETATM    6  C6  UNL     1     -33.126   7.969   3.747  1.00 20.00     0.027 A 
HETATM    7  C7  UNL     1     -34.262   7.207   4.498  1.00 20.00     0.067 A 
HETATM    8  C8  UNL     1     -32.676   4.516   2.310  1.00 20.00     0.043 C 
HETATM    9  O9  UNL     1     -33.561   7.032   6.934  1.00 20.00    -0.298 OA
ENDROOT
TORSDOF 0
ENDMDL
MODEL 7
REMARK VINA RESULT:      -4.1     15.671     16.774
REMARK  0 active torsions:
REMARK  status: ('A' for Active; 'I' for Inactive)
ROOT
HETATM    1  C1  UNL     1     -24.670  18.823  10.174  1.00 20.00    -0.019 A 
HETATM    2  C2  UNL     1     -24.407  17.992  11.192  1.00 20.00    -0.086 A 
HETATM    3  C3  UNL     1     -22.078  17.701   8.924  1.00 20.00     0.132 C 
HETATM    4  C4  UNL     1     -22.940  17.733  11.394  1.00 20.00     0.046 A 
HETATM    5  C5  UNL     1     -23.077  18.595   8.168  1.00 20.00     0.088 C 
HETATM    6  C6  UNL     1     -23.415  19.263   9.524  1.00 20.00     0.027 A 
HETATM    7  C7  UNL     1     -22.270  18.483  10.243  1.00 20.00     0.067 A 
HETATM    8  C8  UNL     1     -25.414  17.352  12.081  1.00 20.00     0.043 C 
HETATM    9  O9  UNL     1     -21.408  16.741   8.606  1.00 20.00    -0.298 OA
ENDROOT
TORSDOF 0
ENDMDL
MODEL 8
REMARK VINA RESULT:      -3.7     13.059     14.068
REMARK  0 active torsions:
REMARK  status: ('A' for Active; 'I' for Inactive)
ROOT
HETATM    1  C1  UNL     1     -33.640  15.344  -3.874  1.00 20.00    -0.019 A 
HETATM    2  C2  UNL     1     -34.521  15.698  -4.820  1.00 20.00    -0.086 A 
HETATM    3  C3  UNL     1     -34.392  18.023  -2.533  1.00 20.00     0.132 C 
HETATM    4  C4  UNL     1     -34.648  17.185  -4.999  1.00 20.00     0.046 A 
HETATM    5  C5  UNL     1     -33.544  16.933  -1.854  1.00 20.00     0.088 C 
HETATM    6  C6  UNL     1     -33.026  16.544  -3.261  1.00 20.00     0.027 A 
HETATM    7  C7  UNL     1     -33.743  17.767  -3.912  1.00 20.00     0.067 A 
HETATM    8  C8  UNL     1     -35.329  14.769  -5.655  1.00 20.00     0.043 C 
HETATM    9  O9  UNL     1     -35.251  18.782  -2.137  1.00 20.00    -0.298 OA
ENDROOT
TORSDOF 0
ENDMDL
MODEL 9
REMARK VINA RESULT:      -3.7     15.945     16.825
REMARK  0 active torsions:
REMARK  status: ('A' for Active; 'I' for Inactive)
ROOT
HETATM    1  C1  UNL     1     -21.536  18.463  10.125  1.00 20.00    -0.019 A 
HETATM    2  C2  UNL     1     -22.179  18.301   8.960  1.00 20.00    -0.086 A 
HETATM    3  C3  UNL     1     -24.134  17.401  11.414  1.00 20.00     0.132 C 
HETATM    4  C4  UNL     1     -23.670  18.462   9.068  1.00 20.00     0.046 A 
HETATM    5  C5  UNL     1     -22.816  17.601  12.182  1.00 20.00     0.088 C 
HETATM    6  C6  UNL     1     -22.496  18.765  11.210  1.00 20.00     0.027 A 
HETATM    7  C7  UNL     1     -23.912  18.671  10.563  1.00 20.00     0.067 A 
HETATM    8  C8  UNL     1     -21.549  17.992   7.648  1.00 20.00     0.043 C 
HETATM    9  O9  UNL     1     -25.005  16.558  11.454  1.00 20.00    -0.298 OA
ENDROOT
TORSDOF 0
ENDMDL
