MODEL 1
REMARK VINA RESULT:      -4.1      0.000      0.000
REMARK  2 active torsions:
REMARK  status: ('A' for Active; 'I' for Inactive)
REMARK    1  A    between atoms: C7_7  and  C10_10 
REMARK    2  A    between atoms: C8_8  and  C9_9 
ROOT
HETATM    1  C1  UNL     1     -40.268  14.196   8.979  1.00 20.00    -0.019 C 
HETATM    2  C3  UNL     1     -40.367  15.281   9.784  1.00 20.00    -0.087 C 
HETATM    3  C5  UNL     1     -40.936  16.495   9.034  1.00 20.00     0.039 C 
HETATM    4  C8  UNL     1     -40.958  14.526   7.705  1.00 20.00     0.021 C 
HETATM    5  C10 UNL     1     -40.538  16.020   7.660  1.00 20.00     0.005 C 
HETATM    6  C11 UNL     1     -39.970  15.382  11.211  1.00 20.00     0.043 C 
ENDROOT
BRANCH   4   7
HETATM    7  C9  UNL     1     -40.861  14.162   6.203  1.00 20.00     0.022 C 
HETATM    8  C4  UNL     1     -40.955  12.632   6.236  1.00 20.00    -0.082 C 
HETATM    9  C2  UNL     1     -42.197  12.312   6.653  1.00 20.00    -0.019 C 
HETATM   10  C12 UNL     1     -39.805  11.746   5.946  1.00 20.00     0.043 C 
HETATM   11  C7  UNL     1     -42.982  13.596   6.783  1.00 20.00     0.014 C 
HETATM   12  C6  UNL     1     -42.272  14.372   5.630  1.00 20.00     0.018 C 
ENDBRANCH   4   7
TORSDOF 2
ENDMDL
MODEL 2
REMARK VINA RESULT:      -4.0      1.185      4.254
REMARK  2 active torsions:
REMARK  status: ('A' for Active; 'I' for Inactive)
REMARK    1  A    between atoms: C7_7  and  C10_10 
REMARK    2  A    between atoms: C8_8  and  C9_9 
ROOT
HETATM    1  C1  UNL     1     -40.144  12.923   6.752  1.00 20.00    -0.019 C 
HETATM    2  C3  UNL     1     -40.176  12.699   5.416  1.00 20.00    -0.087 C 
HETATM    3  C5  UNL     1     -41.301  13.493   4.733  1.00 20.00     0.039 C 
HETATM    4  C8  UNL     1     -41.086  14.037   7.036  1.00 20.00     0.021 C 
HETATM    5  C10 UNL     1     -42.146  13.646   5.972  1.00 20.00     0.005 C 
HETATM    6  C11 UNL     1     -39.296  11.795   4.635  1.00 20.00     0.043 C 
ENDROOT
BRANCH   4   7
HETATM    7  C9  UNL     1     -42.007  14.515   8.186  1.00 20.00     0.022 C 
HETATM    8  C4  UNL     1     -40.994  14.903   9.269  1.00 20.00    -0.082 C 
HETATM    9  C2  UNL     1     -40.312  15.976   8.821  1.00 20.00    -0.019 C 
HETATM   10  C12 UNL     1     -40.797  14.119  10.509  1.00 20.00     0.043 C 
HETATM   11  C7  UNL     1     -40.931  16.396   7.508  1.00 20.00     0.014 C 
HETATM   12  C6  UNL     1     -42.393  15.962   7.838  1.00 20.00     0.018 C 
ENDBRANCH   4   7
TORSDOF 2
ENDMDL
MODEL 3
REMARK VINA RESULT:      -3.8     13.577     15.087
REMARK  2 active torsions:
REMARK  status: ('A' for Active; 'I' for Inactive)
REMARK    1  A    between atoms: C7_7  and  C10_10 
REMARK    2  A    between atoms: C8_8  and  C9_9 
ROOT
HETATM    1  C1  UNL     1     -34.674  16.862  -4.244  1.00 20.00    -0.019 C 
HETATM    2  C3  UNL     1     -33.630  16.456  -3.482  1.00 20.00    -0.087 C 
HETATM    3  C5  UNL     1     -32.913  15.245  -4.098  1.00 20.00     0.039 C 
HETATM    4  C8  UNL     1     -34.607  16.109  -5.523  1.00 20.00     0.021 C 
HETATM    5  C10 UNL     1     -34.090  14.777  -4.915  1.00 20.00     0.005 C 
HETATM    6  C11 UNL     1     -33.185  17.030  -2.187  1.00 20.00     0.043 C 
ENDROOT
BRANCH   4   7
HETATM    7  C9  UNL     1     -35.574  15.567  -6.604  1.00 20.00     0.022 C 
HETATM    8  C4  UNL     1     -36.391  16.814  -6.959  1.00 20.00    -0.082 C 
HETATM    9  C2  UNL     1     -35.558  17.687  -7.560  1.00 20.00    -0.019 C 
HETATM   10  C12 UNL     1     -37.812  16.984  -6.578  1.00 20.00     0.043 C 
HETATM   11  C7  UNL     1     -34.222  17.002  -7.729  1.00 20.00     0.014 C 
HETATM   12  C6  UNL     1     -34.771  15.553  -7.914  1.00 20.00     0.018 C 
ENDBRANCH   4   7
TORSDOF 2
ENDMDL
MODEL 4
REMARK VINA RESULT:      -3.7     13.052     14.258
REMARK  2 active torsions:
REMARK  status: ('A' for Active; 'I' for Inactive)
REMARK    1  A    between atoms: C7_7  and  C10_10 
REMARK    2  A    between atoms: C8_8  and  C9_9 
ROOT
HETATM    1  C1  UNL     1     -33.744  16.721  -3.944  1.00 20.00    -0.019 C 
HETATM    2  C3  UNL     1     -33.928  17.451  -2.817  1.00 20.00    -0.087 C 
HETATM    3  C5  UNL     1     -35.110  18.423  -2.957  1.00 20.00     0.039 C 
HETATM    4  C8  UNL     1     -34.905  16.981  -4.835  1.00 20.00     0.021 C 
HETATM    5  C10 UNL     1     -35.079  18.478  -4.463  1.00 20.00     0.005 C 
HETATM    6  C11 UNL     1     -33.120  17.405  -1.574  1.00 20.00     0.043 C 
ENDROOT
BRANCH   4   7
HETATM    7  C9  UNL     1     -35.219  17.030  -6.351  1.00 20.00     0.022 C 
HETATM    8  C4  UNL     1     -34.839  15.615  -6.803  1.00 20.00    -0.082 C 
HETATM    9  C2  UNL     1     -35.712  14.760  -6.235  1.00 20.00    -0.019 C 
HETATM   10  C12 UNL     1     -33.648  15.326  -7.633  1.00 20.00     0.043 C 
HETATM   11  C7  UNL     1     -36.750  15.582  -5.506  1.00 20.00     0.014 C 
HETATM   12  C6  UNL     1     -36.735  16.809  -6.471  1.00 20.00     0.018 C 
ENDBRANCH   4   7
TORSDOF 2
ENDMDL
MODEL 5
REMARK VINA RESULT:      -3.7      1.973      4.346
REMARK  2 active torsions:
REMARK  status: ('A' for Active; 'I' for Inactive)
REMARK    1  A    between atoms: C7_7  and  C10_10 
REMARK    2  A    between atoms: C8_8  and  C9_9 
ROOT
HETATM    1  C1  UNL     1     -40.454  13.007   4.865  1.00 20.00    -0.019 C 
HETATM    2  C3  UNL     1     -39.480  12.066   4.816  1.00 20.00    -0.087 C 
HETATM    3  C5  UNL     1     -38.945  11.729   6.217  1.00 20.00     0.039 C 
HETATM    4  C8  UNL     1     -40.800  13.211   6.296  1.00 20.00     0.021 C 
HETATM    5  C10 UNL     1     -39.362  13.031   6.852  1.00 20.00     0.005 C 
HETATM    6  C11 UNL     1     -38.918  11.415   3.607  1.00 20.00     0.043 C 
ENDROOT
BRANCH   4   7
HETATM    7  C9  UNL     1     -41.316  14.345   7.216  1.00 20.00     0.022 C 
HETATM    8  C4  UNL     1     -42.436  14.961   6.370  1.00 20.00    -0.082 C 
HETATM    9  C2  UNL     1     -43.417  14.043   6.266  1.00 20.00    -0.019 C 
HETATM   10  C12 UNL     1     -42.327  16.294   5.734  1.00 20.00     0.043 C 
HETATM   11  C7  UNL     1     -43.035  12.864   7.131  1.00 20.00     0.014 C 
HETATM   12  C6  UNL     1     -42.262  13.669   8.221  1.00 20.00     0.018 C 
ENDBRANCH   4   7
TORSDOF 2
ENDMDL
MODEL 6
REMARK VINA RESULT:      -3.3     20.215     22.497
REMARK  2 active torsions:
REMARK  status: ('A' for Active; 'I' for Inactive)
REMARK    1  A    between atoms: C7_7  and  C10_10 
REMARK    2  A    between atoms: C8_8  and  C9_9 
ROOT
HETATM    1  C1  UNL     1     -25.982  -3.645  11.782  1.00 20.00    -0.019 C 
HETATM    2  C3  UNL     1     -24.646  -3.780  11.603  1.00 20.00    -0.087 C 
HETATM    3  C5  UNL     1     -24.128  -2.870  10.479  1.00 20.00     0.039 C 
HETATM    4  C8  UNL     1     -26.424  -2.489  10.958  1.00 20.00     0.021 C 
HETATM    5  C10 UNL     1     -25.453  -2.739   9.772  1.00 20.00     0.005 C 
HETATM    6  C11 UNL     1     -23.728  -4.691  12.332  1.00 20.00     0.043 C 
ENDROOT
BRANCH   4   7
HETATM    7  C9  UNL     1     -27.687  -2.023  10.192  1.00 20.00     0.022 C 
HETATM    8  C4  UNL     1     -28.744  -1.998  11.303  1.00 20.00    -0.082 C 
HETATM    9  C2  UNL     1     -28.405  -1.018  12.163  1.00 20.00    -0.019 C 
HETATM   10  C12 UNL     1     -29.847  -2.982  11.388  1.00 20.00     0.043 C 
HETATM   11  C7  UNL     1     -27.207  -0.298  11.588  1.00 20.00     0.014 C 
HETATM   12  C6  UNL     1     -27.569  -0.495  10.083  1.00 20.00     0.018 C 
ENDBRANCH   4   7
TORSDOF 2
ENDMDL
MODEL 7
REMARK VINA RESULT:      -3.3     21.091     23.554
REMARK  2 active torsions:
REMARK  status: ('A' for Active; 'I' for Inactive)
REMARK    1  A    between atoms: C7_7  and  C10_10 
REMARK    2  A    between atoms: C8_8  and  C9_9 
ROOT
HETATM    1  C1  UNL     1     -24.627  -2.862   9.332  1.00 20.00    -0.019 C 
HETATM    2  C3  UNL     1     -23.372  -3.371   9.392  1.00 20.00    -0.087 C 
HETATM    3  C5  UNL     1     -22.946  -3.664  10.839  1.00 20.00     0.039 C 
HETATM    4  C8  UNL     1     -25.217  -2.978  10.691  1.00 20.00     0.021 C 
HETATM    5  C10 UNL     1     -23.908  -2.693  11.476  1.00 20.00     0.005 C 
HETATM    6  C11 UNL     1     -22.445  -3.616   8.259  1.00 20.00     0.043 C 
ENDROOT
BRANCH   4   7
HETATM    7  C9  UNL     1     -26.244  -2.234  11.579  1.00 20.00     0.022 C 
HETATM    8  C4  UNL     1     -27.371  -1.934  10.584  1.00 20.00    -0.082 C 
HETATM    9  C2  UNL     1     -27.921  -3.112  10.227  1.00 20.00    -0.019 C 
HETATM   10  C12 UNL     1     -27.664  -0.572  10.084  1.00 20.00     0.043 C 
HETATM   11  C7  UNL     1     -27.267  -4.193  11.057  1.00 20.00     0.014 C 
HETATM   12  C6  UNL     1     -27.016  -3.330  12.332  1.00 20.00     0.018 C 
ENDBRANCH   4   7
TORSDOF 2
ENDMDL
MODEL 8
REMARK VINA RESULT:      -3.2     12.359     13.443
REMARK  2 active torsions:
REMARK  status: ('A' for Active; 'I' for Inactive)
REMARK    1  A    between atoms: C7_7  and  C10_10 
REMARK    2  A    between atoms: C8_8  and  C9_9 
ROOT
HETATM    1  C1  UNL     1     -33.674  16.882  -1.939  1.00 20.00    -0.019 C 
HETATM    2  C3  UNL     1     -33.512  17.936  -1.102  1.00 20.00    -0.087 C 
HETATM    3  C5  UNL     1     -33.412  19.262  -1.872  1.00 20.00     0.039 C 
HETATM    4  C8  UNL     1     -33.915  17.430  -3.299  1.00 20.00     0.021 C 
HETATM    5  C10 UNL     1     -32.958  18.646  -3.170  1.00 20.00     0.005 C 
HETATM    6  C11 UNL     1     -33.402  17.901   0.377  1.00 20.00     0.043 C 
ENDROOT
BRANCH   4   7
HETATM    7  C9  UNL     1     -33.663  17.030  -4.774  1.00 20.00     0.022 C 
HETATM    8  C4  UNL     1     -34.698  15.920  -4.987  1.00 20.00    -0.082 C 
HETATM    9  C2  UNL     1     -35.919  16.487  -4.922  1.00 20.00    -0.019 C 
HETATM   10  C12 UNL     1     -34.333  14.492  -5.128  1.00 20.00     0.043 C 
HETATM   11  C7  UNL     1     -35.725  17.980  -4.793  1.00 20.00     0.014 C 
HETATM   12  C6  UNL     1     -34.407  18.074  -5.622  1.00 20.00     0.018 C 
ENDBRANCH   4   7
TORSDOF 2
ENDMDL
MODEL 9
REMARK VINA RESULT:      -3.2      1.798      4.196
REMARK  2 active torsions:
REMARK  status: ('A' for Active; 'I' for Inactive)
REMARK    1  A    between atoms: C7_7  and  C10_10 
REMARK    2  A    between atoms: C8_8  and  C9_9 
ROOT
HETATM    1  C1  UNL     1     -40.237  14.119   6.469  1.00 20.00    -0.019 C 
HETATM    2  C3  UNL     1     -40.564  12.822   6.250  1.00 20.00    -0.087 C 
HETATM    3  C5  UNL     1     -41.998  12.513   6.706  1.00 20.00     0.039 C 
HETATM    4  C8  UNL     1     -41.479  14.825   6.876  1.00 20.00     0.021 C 
HETATM    5  C10 UNL     1     -42.089  13.652   7.689  1.00 20.00     0.005 C 
HETATM    6  C11 UNL     1     -39.698  11.760   5.679  1.00 20.00     0.043 C 
ENDROOT
BRANCH   4   7
HETATM    7  C9  UNL     1     -41.896  16.026   7.761  1.00 20.00     0.022 C 
HETATM    8  C4  UNL     1     -41.553  17.221   6.864  1.00 20.00    -0.082 C 
HETATM    9  C2  UNL     1     -42.388  17.186   5.807  1.00 20.00    -0.019 C 
HETATM   10  C12 UNL     1     -40.422  18.137   7.137  1.00 20.00     0.043 C 
HETATM   11  C7  UNL     1     -43.371  16.061   6.036  1.00 20.00     0.014 C 
HETATM   12  C6  UNL     1     -43.417  16.161   7.592  1.00 20.00     0.018 C 
ENDBRANCH   4   7
TORSDOF 2
ENDMDL
