MODEL 1
REMARK VINA RESULT:      -5.1      0.000      0.000
REMARK  1 active torsions:
REMARK  status: ('A' for Active; 'I' for Inactive)
REMARK    1  A    between atoms: C1_1  and  C4_4 
ROOT
HETATM    1  C3  UNL     1     -32.131   9.086   4.846  1.00 20.00     0.018 A 
HETATM    2  C4  UNL     1     -33.479   8.416   4.890  1.00 20.00     0.017 A 
HETATM    3  C5  UNL     1     -32.652   8.380   3.617  1.00 20.00    -0.040 A 
HETATM    4  C8  UNL     1     -33.123   9.228   2.464  1.00 20.00     0.015 C 
HETATM    5  C9  UNL     1     -31.956   7.111   3.193  1.00 20.00     0.015 C 
ENDROOT
BRANCH   2   6
HETATM    6  C1  UNL     1     -33.650   7.224   5.708  1.00 20.00    -0.019 C 
HETATM    7  C2  UNL     1     -34.494   6.196   5.501  1.00 20.00    -0.091 C 
HETATM    8  C6  UNL     1     -34.548   5.031   6.449  1.00 20.00     0.042 C 
HETATM    9  C7  UNL     1     -35.437   6.111   4.335  1.00 20.00     0.042 C 
ENDBRANCH   2   6
TORSDOF 1
ENDMDL
MODEL 2
REMARK VINA RESULT:      -4.7      0.647      3.969
REMARK  1 active torsions:
REMARK  status: ('A' for Active; 'I' for Inactive)
REMARK    1  A    between atoms: C1_1  and  C4_4 
ROOT
HETATM    1  C3  UNL     1     -34.415   7.069   6.602  1.00 20.00     0.018 A 
HETATM    2  C4  UNL     1     -33.325   7.091   5.563  1.00 20.00     0.017 A 
HETATM    3  C5  UNL     1     -34.426   6.047   5.490  1.00 20.00    -0.040 A 
HETATM    4  C8  UNL     1     -34.055   4.629   5.835  1.00 20.00     0.015 C 
HETATM    5  C9  UNL     1     -35.515   6.155   4.453  1.00 20.00     0.015 C 
ENDROOT
BRANCH   2   6
HETATM    6  C1  UNL     1     -33.273   8.195   4.614  1.00 20.00    -0.019 C 
HETATM    7  C2  UNL     1     -32.731   8.198   3.383  1.00 20.00    -0.091 C 
HETATM    8  C6  UNL     1     -32.761   9.431   2.523  1.00 20.00     0.042 C 
HETATM    9  C7  UNL     1     -32.062   7.006   2.761  1.00 20.00     0.042 C 
ENDBRANCH   2   6
TORSDOF 1
ENDMDL
MODEL 3
REMARK VINA RESULT:      -4.1      1.161      4.244
REMARK  1 active torsions:
REMARK  status: ('A' for Active; 'I' for Inactive)
REMARK    1  A    between atoms: C1_1  and  C4_4 
ROOT
HETATM    1  C3  UNL     1     -35.640   5.978   4.534  1.00 20.00     0.018 A 
HETATM    2  C4  UNL     1     -34.343   6.714   4.742  1.00 20.00     0.017 A 
HETATM    3  C5  UNL     1     -34.490   5.279   5.218  1.00 20.00    -0.040 A 
HETATM    4  C8  UNL     1     -34.587   5.054   6.704  1.00 20.00     0.015 C 
HETATM    5  C9  UNL     1     -33.814   4.154   4.476  1.00 20.00     0.015 C 
ENDROOT
BRANCH   2   6
HETATM    6  C1  UNL     1     -33.522   7.041   3.584  1.00 20.00    -0.019 C 
HETATM    7  C2  UNL     1     -32.568   7.985   3.491  1.00 20.00    -0.091 C 
HETATM    8  C6  UNL     1     -31.805   8.197   2.213  1.00 20.00     0.042 C 
HETATM    9  C7  UNL     1     -32.179   8.894   4.622  1.00 20.00     0.042 C 
ENDBRANCH   2   6
TORSDOF 1
ENDMDL
MODEL 4
REMARK VINA RESULT:      -3.8     11.202     12.247
REMARK  1 active torsions:
REMARK  status: ('A' for Active; 'I' for Inactive)
REMARK    1  A    between atoms: C1_1  and  C4_4 
ROOT
HETATM    1  C3  UNL     1     -32.450  14.805  -4.284  1.00 20.00     0.018 A 
HETATM    2  C4  UNL     1     -33.196  16.078  -3.982  1.00 20.00     0.017 A 
HETATM    3  C5  UNL     1     -33.872  14.966  -4.766  1.00 20.00    -0.040 A 
HETATM    4  C8  UNL     1     -34.093  15.198  -6.238  1.00 20.00     0.015 C 
HETATM    5  C9  UNL     1     -34.931  14.109  -4.120  1.00 20.00     0.015 C 
ENDROOT
BRANCH   2   6
HETATM    6  C1  UNL     1     -33.577  16.365  -2.607  1.00 20.00    -0.019 C 
HETATM    7  C2  UNL     1     -33.380  17.504  -1.918  1.00 20.00    -0.091 C 
HETATM    8  C6  UNL     1     -33.838  17.641  -0.493  1.00 20.00     0.042 C 
HETATM    9  C7  UNL     1     -32.703  18.718  -2.487  1.00 20.00     0.042 C 
ENDBRANCH   2   6
TORSDOF 1
ENDMDL
MODEL 5
REMARK VINA RESULT:      -3.8      9.224     10.245
REMARK  1 active torsions:
REMARK  status: ('A' for Active; 'I' for Inactive)
REMARK    1  A    between atoms: C1_1  and  C4_4 
ROOT
HETATM    1  C3  UNL     1     -42.710  14.468   6.119  1.00 20.00     0.018 A 
HETATM    2  C4  UNL     1     -41.299  13.958   6.243  1.00 20.00     0.017 A 
HETATM    3  C5  UNL     1     -42.376  13.456   7.189  1.00 20.00    -0.040 A 
HETATM    4  C8  UNL     1     -42.318  13.935   8.616  1.00 20.00     0.015 C 
HETATM    5  C9  UNL     1     -42.940  12.066   7.037  1.00 20.00     0.015 C 
ENDROOT
BRANCH   2   6
HETATM    6  C1  UNL     1     -40.761  13.102   5.195  1.00 20.00    -0.019 C 
HETATM    7  C2  UNL     1     -39.704  12.272   5.271  1.00 20.00    -0.091 C 
HETATM    8  C6  UNL     1     -39.274  11.450   4.088  1.00 20.00     0.042 C 
HETATM    9  C7  UNL     1     -38.872  12.089   6.508  1.00 20.00     0.042 C 
ENDBRANCH   2   6
TORSDOF 1
ENDMDL
MODEL 6
REMARK VINA RESULT:      -3.7      1.155      4.045
REMARK  1 active torsions:
REMARK  status: ('A' for Active; 'I' for Inactive)
REMARK    1  A    between atoms: C1_1  and  C4_4 
ROOT
HETATM    1  C3  UNL     1     -34.126   8.336   4.788  1.00 20.00     0.018 A 
HETATM    2  C4  UNL     1     -32.784   7.702   4.531  1.00 20.00     0.017 A 
HETATM    3  C5  UNL     1     -33.913   6.881   5.130  1.00 20.00    -0.040 A 
HETATM    4  C8  UNL     1     -33.798   6.510   6.586  1.00 20.00     0.015 C 
HETATM    5  C9  UNL     1     -34.637   5.854   4.297  1.00 20.00     0.015 C 
ENDROOT
BRANCH   2   6
HETATM    6  C1  UNL     1     -32.352   7.493   3.156  1.00 20.00    -0.019 C 
HETATM    7  C2  UNL     1     -32.403   8.368   2.135  1.00 20.00    -0.091 C 
HETATM    8  C6  UNL     1     -31.912   7.993   0.764  1.00 20.00     0.042 C 
HETATM    9  C7  UNL     1     -32.939   9.766   2.258  1.00 20.00     0.042 C 
ENDBRANCH   2   6
TORSDOF 1
ENDMDL
MODEL 7
REMARK VINA RESULT:      -3.6     11.329     12.641
REMARK  1 active torsions:
REMARK  status: ('A' for Active; 'I' for Inactive)
REMARK    1  A    between atoms: C1_1  and  C4_4 
ROOT
HETATM    1  C3  UNL     1     -32.542  18.337  -1.923  1.00 20.00     0.018 A 
HETATM    2  C4  UNL     1     -33.420  17.157  -2.244  1.00 20.00     0.017 A 
HETATM    3  C5  UNL     1     -33.868  18.183  -1.219  1.00 20.00    -0.040 A 
HETATM    4  C8  UNL     1     -33.852  17.763   0.228  1.00 20.00     0.015 C 
HETATM    5  C9  UNL     1     -34.956  19.172  -1.552  1.00 20.00     0.015 C 
ENDROOT
BRANCH   2   6
HETATM    6  C1  UNL     1     -34.049  17.080  -3.555  1.00 20.00    -0.019 C 
HETATM    7  C2  UNL     1     -34.019  16.054  -4.425  1.00 20.00    -0.091 C 
HETATM    8  C6  UNL     1     -34.728  16.135  -5.748  1.00 20.00     0.042 C 
HETATM    9  C7  UNL     1     -33.297  14.762  -4.168  1.00 20.00     0.042 C 
ENDBRANCH   2   6
TORSDOF 1
ENDMDL
MODEL 8
REMARK VINA RESULT:      -3.5     14.546     15.680
REMARK  1 active torsions:
REMARK  status: ('A' for Active; 'I' for Inactive)
REMARK    1  A    between atoms: C1_1  and  C4_4 
ROOT
HETATM    1  C3  UNL     1     -22.786  17.260   9.488  1.00 20.00     0.018 A 
HETATM    2  C4  UNL     1     -22.939  18.376  10.487  1.00 20.00     0.017 A 
HETATM    3  C5  UNL     1     -22.740  18.693   9.014  1.00 20.00    -0.040 A 
HETATM    4  C8  UNL     1     -21.405  19.256   8.605  1.00 20.00     0.015 C 
HETATM    5  C9  UNL     1     -23.891  19.189   8.177  1.00 20.00     0.015 C 
ENDROOT
BRANCH   2   6
HETATM    6  C1  UNL     1     -24.230  18.578  11.130  1.00 20.00    -0.019 C 
HETATM    7  C2  UNL     1     -25.017  17.650  11.706  1.00 20.00    -0.091 C 
HETATM    8  C6  UNL     1     -26.331  18.025  12.332  1.00 20.00     0.042 C 
HETATM    9  C7  UNL     1     -24.671  16.190  11.780  1.00 20.00     0.042 C 
ENDBRANCH   2   6
TORSDOF 1
ENDMDL
MODEL 9
REMARK VINA RESULT:      -3.5      9.906     10.898
REMARK  1 active torsions:
REMARK  status: ('A' for Active; 'I' for Inactive)
REMARK    1  A    between atoms: C1_1  and  C4_4 
ROOT
HETATM    1  C3  UNL     1     -41.669  12.757   6.798  1.00 20.00     0.018 A 
HETATM    2  C4  UNL     1     -40.536  13.743   6.912  1.00 20.00     0.017 A 
HETATM    3  C5  UNL     1     -40.880  13.129   5.566  1.00 20.00    -0.040 A 
HETATM    4  C8  UNL     1     -39.923  12.108   5.009  1.00 20.00     0.015 C 
HETATM    5  C9  UNL     1     -41.578  13.946   4.509  1.00 20.00     0.015 C 
ENDROOT
BRANCH   2   6
HETATM    6  C1  UNL     1     -40.838  15.138   7.200  1.00 20.00    -0.019 C 
HETATM    7  C2  UNL     1     -40.675  15.793   8.364  1.00 20.00    -0.091 C 
HETATM    8  C6  UNL     1     -41.038  17.245   8.498  1.00 20.00     0.042 C 
HETATM    9  C7  UNL     1     -40.129  15.157   9.611  1.00 20.00     0.042 C 
ENDBRANCH   2   6
TORSDOF 1
ENDMDL
