MODEL 1
REMARK VINA RESULT:      -6.2      0.000      0.000
REMARK  0 active torsions:
REMARK  status: ('A' for Active; 'I' for Inactive)
ROOT
HETATM    1  C1  UNL     1     -33.822   7.339   6.482  1.00 20.00    -0.018 C 
HETATM    2  C2  UNL     1     -32.835   6.131   2.863  1.00 20.00    -0.018 C 
HETATM    3  C3  UNL     1     -34.532   6.336   5.889  1.00 20.00    -0.078 C 
HETATM    4  C4  UNL     1     -32.888   7.467   3.138  1.00 20.00    -0.078 C 
HETATM    5  C5  UNL     1     -34.643   4.836   6.112  1.00 20.00     0.035 C 
HETATM    6  C6  UNL     1     -31.845   8.559   3.304  1.00 20.00     0.035 C 
HETATM    7  C7  UNL     1     -34.254   4.242   4.656  1.00 20.00     0.013 C 
HETATM    8  C8  UNL     1     -32.175   9.129   4.784  1.00 20.00     0.013 C 
HETATM    9  C9  UNL     1     -32.938   7.948   5.392  1.00 20.00     0.017 C 
HETATM   10  C10 UNL     1     -33.482   5.419   4.053  1.00 20.00     0.017 C 
HETATM   11  C11 UNL     1     -34.514   6.470   4.424  1.00 20.00     0.030 C 
HETATM   12  C12 UNL     1     -33.863   7.751   4.203  1.00 20.00     0.030 C 
ENDROOT
TORSDOF 0
ENDMDL
MODEL 2
REMARK VINA RESULT:      -6.2      0.040      3.989
REMARK  0 active torsions:
REMARK  status: ('A' for Active; 'I' for Inactive)
ROOT
HETATM    1  C1  UNL     1     -32.825   6.081   2.858  1.00 20.00    -0.018 C 
HETATM    2  C2  UNL     1     -33.819   7.338   6.458  1.00 20.00    -0.018 C 
HETATM    3  C3  UNL     1     -32.875   7.420   3.115  1.00 20.00    -0.078 C 
HETATM    4  C4  UNL     1     -34.531   6.329   5.874  1.00 20.00    -0.078 C 
HETATM    5  C5  UNL     1     -31.828   8.511   3.271  1.00 20.00     0.035 C 
HETATM    6  C6  UNL     1     -34.648   4.834   6.117  1.00 20.00     0.035 C 
HETATM    7  C7  UNL     1     -32.161   9.100   4.743  1.00 20.00     0.013 C 
HETATM    8  C8  UNL     1     -34.257   4.219   4.670  1.00 20.00     0.013 C 
HETATM    9  C9  UNL     1     -33.478   5.385   4.055  1.00 20.00     0.017 C 
HETATM   10  C10 UNL     1     -32.930   7.930   5.362  1.00 20.00     0.017 C 
HETATM   11  C11 UNL     1     -33.852   7.721   4.173  1.00 20.00     0.030 C 
HETATM   12  C12 UNL     1     -34.509   6.445   4.408  1.00 20.00     0.030 C 
ENDROOT
TORSDOF 0
ENDMDL
MODEL 3
REMARK VINA RESULT:      -5.6      0.790      3.763
REMARK  0 active torsions:
REMARK  status: ('A' for Active; 'I' for Inactive)
ROOT
HETATM    1  C1  UNL     1     -32.199   7.402   2.960  1.00 20.00    -0.018 C 
HETATM    2  C2  UNL     1     -34.289   6.242   6.094  1.00 20.00    -0.018 C 
HETATM    3  C3  UNL     1     -32.744   8.337   3.791  1.00 20.00    -0.078 C 
HETATM    4  C4  UNL     1     -34.485   5.632   4.888  1.00 20.00    -0.078 C 
HETATM    5  C5  UNL     1     -32.177   9.308   4.815  1.00 20.00     0.035 C 
HETATM    6  C6  UNL     1     -34.147   4.263   4.322  1.00 20.00     0.035 C 
HETATM    7  C7  UNL     1     -32.989   8.907   6.158  1.00 20.00     0.013 C 
HETATM    8  C8  UNL     1     -33.278   4.639   3.008  1.00 20.00     0.013 C 
HETATM    9  C9  UNL     1     -32.820   6.059   3.352  1.00 20.00     0.017 C 
HETATM   10  C10 UNL     1     -33.437   7.483   5.817  1.00 20.00     0.017 C 
HETATM   11  C11 UNL     1     -33.964   7.827   4.435  1.00 20.00     0.030 C 
HETATM   12  C12 UNL     1     -34.194   6.551   3.776  1.00 20.00     0.030 C 
ENDROOT
TORSDOF 0
ENDMDL
MODEL 4
REMARK VINA RESULT:      -5.6      0.851      1.534
REMARK  0 active torsions:
REMARK  status: ('A' for Active; 'I' for Inactive)
ROOT
HETATM    1  C1  UNL     1     -34.409   5.967   5.966  1.00 20.00    -0.018 C 
HETATM    2  C2  UNL     1     -32.187   7.427   3.057  1.00 20.00    -0.018 C 
HETATM    3  C3  UNL     1     -34.487   5.420   4.719  1.00 20.00    -0.078 C 
HETATM    4  C4  UNL     1     -32.843   8.279   3.899  1.00 20.00    -0.078 C 
HETATM    5  C5  UNL     1     -34.028   4.107   4.103  1.00 20.00     0.035 C 
HETATM    6  C6  UNL     1     -32.406   9.218   5.010  1.00 20.00     0.035 C 
HETATM    7  C7  UNL     1     -33.097   4.609   2.876  1.00 20.00     0.013 C 
HETATM    8  C8  UNL     1     -33.281   8.694   6.268  1.00 20.00     0.013 C 
HETATM    9  C9  UNL     1     -33.618   7.269   5.820  1.00 20.00     0.017 C 
HETATM   10  C10 UNL     1     -32.751   6.030   3.330  1.00 20.00     0.017 C 
HETATM   11  C11 UNL     1     -34.177   6.417   3.682  1.00 20.00     0.030 C 
HETATM   12  C12 UNL     1     -34.072   7.663   4.424  1.00 20.00     0.030 C 
ENDROOT
TORSDOF 0
ENDMDL
MODEL 5
REMARK VINA RESULT:      -5.3      1.015      3.425
REMARK  0 active torsions:
REMARK  status: ('A' for Active; 'I' for Inactive)
ROOT
HETATM    1  C1  UNL     1     -33.993   4.369   4.171  1.00 20.00    -0.018 C 
HETATM    2  C2  UNL     1     -33.081   8.105   5.027  1.00 20.00    -0.018 C 
HETATM    3  C3  UNL     1     -33.713   5.242   3.162  1.00 20.00    -0.078 C 
HETATM    4  C4  UNL     1     -34.126   7.502   5.666  1.00 20.00    -0.078 C 
HETATM    5  C5  UNL     1     -32.548   5.417   2.200  1.00 20.00     0.035 C 
HETATM    6  C6  UNL     1     -34.357   6.996   7.080  1.00 20.00     0.035 C 
HETATM    7  C7  UNL     1     -32.099   6.949   2.478  1.00 20.00     0.013 C 
HETATM    8  C8  UNL     1     -34.748   5.444   6.831  1.00 20.00     0.013 C 
HETATM    9  C9  UNL     1     -34.149   5.208   5.441  1.00 20.00     0.017 C 
HETATM   10  C10 UNL     1     -32.687   7.181   3.873  1.00 20.00     0.017 C 
HETATM   11  C11 UNL     1     -34.060   6.620   3.542  1.00 20.00     0.030 C 
HETATM   12  C12 UNL     1     -34.737   6.465   4.820  1.00 20.00     0.030 C 
ENDROOT
TORSDOF 0
ENDMDL
MODEL 6
REMARK VINA RESULT:      -5.3      1.013      2.191
REMARK  0 active torsions:
REMARK  status: ('A' for Active; 'I' for Inactive)
ROOT
HETATM    1  C1  UNL     1     -33.073   8.111   5.025  1.00 20.00    -0.018 C 
HETATM    2  C2  UNL     1     -33.994   4.377   4.166  1.00 20.00    -0.018 C 
HETATM    3  C3  UNL     1     -34.120   7.511   5.662  1.00 20.00    -0.078 C 
HETATM    4  C4  UNL     1     -33.711   5.252   3.157  1.00 20.00    -0.078 C 
HETATM    5  C5  UNL     1     -34.353   7.004   7.077  1.00 20.00     0.035 C 
HETATM    6  C6  UNL     1     -32.546   5.424   2.197  1.00 20.00     0.035 C 
HETATM    7  C7  UNL     1     -34.748   5.453   6.826  1.00 20.00     0.013 C 
HETATM    8  C8  UNL     1     -32.093   6.954   2.475  1.00 20.00     0.013 C 
HETATM    9  C9  UNL     1     -32.681   7.186   3.871  1.00 20.00     0.017 C 
HETATM   10  C10 UNL     1     -34.149   5.217   5.436  1.00 20.00     0.017 C 
HETATM   11  C11 UNL     1     -34.732   6.476   4.816  1.00 20.00     0.030 C 
HETATM   12  C12 UNL     1     -34.056   6.631   3.538  1.00 20.00     0.030 C 
ENDROOT
TORSDOF 0
ENDMDL
MODEL 7
REMARK VINA RESULT:      -4.7      1.012      2.556
REMARK  0 active torsions:
REMARK  status: ('A' for Active; 'I' for Inactive)
ROOT
HETATM    1  C1  UNL     1     -33.065   5.376   2.573  1.00 20.00    -0.018 C 
HETATM    2  C2  UNL     1     -33.790   8.548   4.796  1.00 20.00    -0.018 C 
HETATM    3  C3  UNL     1     -33.322   5.222   3.904  1.00 20.00    -0.078 C 
HETATM    4  C4  UNL     1     -32.763   8.574   3.897  1.00 20.00    -0.078 C 
HETATM    5  C5  UNL     1     -34.494   4.676   4.704  1.00 20.00     0.035 C 
HETATM    6  C6  UNL     1     -32.532   9.276   2.570  1.00 20.00     0.035 C 
HETATM    7  C7  UNL     1     -34.867   5.925   5.666  1.00 20.00     0.013 C 
HETATM    8  C8  UNL     1     -32.217   8.038   1.575  1.00 20.00     0.013 C 
HETATM    9  C9  UNL     1     -32.849   6.874   2.344  1.00 20.00     0.017 C 
HETATM   10  C10 UNL     1     -34.245   7.090   4.891  1.00 20.00     0.017 C 
HETATM   11  C11 UNL     1     -32.906   6.410   4.665  1.00 20.00     0.030 C 
HETATM   12  C12 UNL     1     -32.215   7.226   3.679  1.00 20.00     0.030 C 
ENDROOT
TORSDOF 0
ENDMDL
MODEL 8
REMARK VINA RESULT:      -4.7      1.012      3.503
REMARK  0 active torsions:
REMARK  status: ('A' for Active; 'I' for Inactive)
ROOT
HETATM    1  C1  UNL     1     -33.788   8.549   4.810  1.00 20.00    -0.018 C 
HETATM    2  C2  UNL     1     -33.075   5.375   2.586  1.00 20.00    -0.018 C 
HETATM    3  C3  UNL     1     -32.762   8.573   3.911  1.00 20.00    -0.078 C 
HETATM    4  C4  UNL     1     -33.332   5.223   3.919  1.00 20.00    -0.078 C 
HETATM    5  C5  UNL     1     -32.530   9.274   2.582  1.00 20.00     0.035 C 
HETATM    6  C6  UNL     1     -34.503   4.680   4.719  1.00 20.00     0.035 C 
HETATM    7  C7  UNL     1     -32.220   8.034   1.587  1.00 20.00     0.013 C 
HETATM    8  C8  UNL     1     -34.872   5.929   5.682  1.00 20.00     0.013 C 
HETATM    9  C9  UNL     1     -34.248   7.093   4.906  1.00 20.00     0.017 C 
HETATM   10  C10 UNL     1     -32.855   6.872   2.357  1.00 20.00     0.017 C 
HETATM   11  C11 UNL     1     -32.219   7.223   3.691  1.00 20.00     0.030 C 
HETATM   12  C12 UNL     1     -32.909   6.409   4.679  1.00 20.00     0.030 C 
ENDROOT
TORSDOF 0
ENDMDL
MODEL 9
REMARK VINA RESULT:      -4.4     12.016     13.614
REMARK  0 active torsions:
REMARK  status: ('A' for Active; 'I' for Inactive)
ROOT
HETATM    1  C1  UNL     1     -36.120  18.058  -4.644  1.00 20.00    -0.018 C 
HETATM    2  C2  UNL     1     -33.694  15.029  -3.959  1.00 20.00    -0.018 C 
HETATM    3  C3  UNL     1     -35.811  17.199  -5.658  1.00 20.00    -0.078 C 
HETATM    4  C4  UNL     1     -33.387  16.265  -3.468  1.00 20.00    -0.078 C 
HETATM    5  C5  UNL     1     -36.576  16.121  -6.409  1.00 20.00     0.035 C 
HETATM    6  C6  UNL     1     -33.375  16.882  -2.079  1.00 20.00     0.035 C 
HETATM    7  C7  UNL     1     -35.642  14.817  -6.186  1.00 20.00     0.013 C 
HETATM    8  C8  UNL     1     -34.355  18.158  -2.261  1.00 20.00     0.013 C 
HETATM    9  C9  UNL     1     -35.157  17.740  -3.498  1.00 20.00     0.017 C 
HETATM   10  C10 UNL     1     -34.849  15.230  -4.943  1.00 20.00     0.017 C 
HETATM   11  C11 UNL     1     -34.478  16.608  -5.464  1.00 20.00     0.030 C 
HETATM   12  C12 UNL     1     -33.945  17.328  -4.318  1.00 20.00     0.030 C 
ENDROOT
TORSDOF 0
ENDMDL
