MODEL 1
REMARK VINA RESULT:      -5.8      0.000      0.000
REMARK  1 active torsions:
REMARK  status: ('A' for Active; 'I' for Inactive)
REMARK    1  A    between atoms: C2_2  and  C10_10 
ROOT
HETATM    1  C1  UNL     1     -33.393   5.529   3.364  1.00 20.00    -0.018 A 
HETATM    2  C2  UNL     1     -33.137   6.810   3.698  1.00 20.00    -0.075 A 
HETATM    3  C3  UNL     1     -34.680   5.615   6.669  1.00 20.00     0.001 C 
HETATM    4  C4  UNL     1     -34.430   4.598   5.561  1.00 20.00     0.009 C 
HETATM    5  C5  UNL     1     -33.982   6.872   6.163  1.00 20.00     0.010 C 
HETATM    6  C6  UNL     1     -34.592   5.415   4.280  1.00 20.00     0.016 A 
HETATM    7  C7  UNL     1     -34.303   6.885   4.670  1.00 20.00     0.022 A 
ENDROOT
BRANCH   2   8
HETATM    8  C10 UNL     1     -32.064   7.827   3.265  1.00 20.00     0.006 C 
HETATM    9  C8  UNL     1     -32.180   8.054   1.776  1.00 20.00     0.014 C 
HETATM   10  C9  UNL     1     -32.234   9.102   4.060  1.00 20.00     0.014 C 
ENDBRANCH   2   8
TORSDOF 1
ENDMDL
MODEL 2
REMARK VINA RESULT:      -4.7      1.182      1.822
REMARK  1 active torsions:
REMARK  status: ('A' for Active; 'I' for Inactive)
REMARK    1  A    between atoms: C2_2  and  C10_10 
ROOT
HETATM    1  C1  UNL     1     -34.268   4.665   4.348  1.00 20.00    -0.018 A 
HETATM    2  C2  UNL     1     -33.602   5.683   3.769  1.00 20.00    -0.075 A 
HETATM    3  C3  UNL     1     -34.333   7.064   6.962  1.00 20.00     0.001 C 
HETATM    4  C4  UNL     1     -34.727   5.610   6.729  1.00 20.00     0.009 C 
HETATM    5  C5  UNL     1     -33.545   7.425   5.708  1.00 20.00     0.010 C 
HETATM    6  C6  UNL     1     -35.088   5.568   5.245  1.00 20.00     0.016 A 
HETATM    7  C7  UNL     1     -34.324   6.743   4.585  1.00 20.00     0.022 A 
ENDROOT
BRANCH   2   8
HETATM    8  C10 UNL     1     -32.509   5.758   2.686  1.00 20.00     0.006 C 
HETATM    9  C8  UNL     1     -32.900   4.857   1.537  1.00 20.00     0.014 C 
HETATM   10  C9  UNL     1     -32.328   7.197   2.257  1.00 20.00     0.014 C 
ENDBRANCH   2   8
TORSDOF 1
ENDMDL
MODEL 3
REMARK VINA RESULT:      -4.7      0.859      3.998
REMARK  1 active torsions:
REMARK  status: ('A' for Active; 'I' for Inactive)
REMARK    1  A    between atoms: C2_2  and  C10_10 
ROOT
HETATM    1  C1  UNL     1     -32.976   5.996   2.972  1.00 20.00    -0.018 A 
HETATM    2  C2  UNL     1     -33.412   6.664   4.058  1.00 20.00    -0.075 A 
HETATM    3  C3  UNL     1     -32.438   9.348   1.940  1.00 20.00     0.001 C 
HETATM    4  C4  UNL     1     -32.352   7.941   1.360  1.00 20.00     0.009 C 
HETATM    5  C5  UNL     1     -33.123   9.138   3.285  1.00 20.00     0.010 C 
HETATM    6  C6  UNL     1     -31.995   7.075   2.566  1.00 20.00     0.016 A 
HETATM    7  C7  UNL     1     -32.492   7.850   3.812  1.00 20.00     0.022 A 
ENDROOT
BRANCH   2   8
HETATM    8  C10 UNL     1     -34.456   6.355   5.148  1.00 20.00     0.006 C 
HETATM    9  C8  UNL     1     -34.601   4.856   5.272  1.00 20.00     0.014 C 
HETATM   10  C9  UNL     1     -34.031   7.005   6.446  1.00 20.00     0.014 C 
ENDBRANCH   2   8
TORSDOF 1
ENDMDL
MODEL 4
REMARK VINA RESULT:      -4.6      1.049      4.075
REMARK  1 active torsions:
REMARK  status: ('A' for Active; 'I' for Inactive)
REMARK    1  A    between atoms: C2_2  and  C10_10 
ROOT
HETATM    1  C1  UNL     1     -33.906   7.679   6.059  1.00 20.00    -0.018 A 
HETATM    2  C2  UNL     1     -34.254   6.719   5.180  1.00 20.00    -0.075 A 
HETATM    3  C3  UNL     1     -31.716   8.426   3.369  1.00 20.00     0.001 C 
HETATM    4  C4  UNL     1     -31.972   8.883   4.800  1.00 20.00     0.009 C 
HETATM    5  C5  UNL     1     -32.586   7.182   3.231  1.00 20.00     0.010 C 
HETATM    6  C6  UNL     1     -33.471   8.656   4.988  1.00 20.00     0.016 A 
HETATM    7  C7  UNL     1     -33.868   7.556   3.971  1.00 20.00     0.022 A 
ENDROOT
BRANCH   2   8
HETATM    8  C10 UNL     1     -34.827   5.297   5.330  1.00 20.00     0.006 C 
HETATM    9  C8  UNL     1     -34.084   4.371   4.395  1.00 20.00     0.014 C 
HETATM   10  C9  UNL     1     -34.721   4.865   6.776  1.00 20.00     0.014 C 
ENDBRANCH   2   8
TORSDOF 1
ENDMDL
MODEL 5
REMARK VINA RESULT:      -4.1     12.073     13.089
REMARK  1 active torsions:
REMARK  status: ('A' for Active; 'I' for Inactive)
REMARK    1  A    between atoms: C2_2  and  C10_10 
ROOT
HETATM    1  C1  UNL     1     -34.141  18.401   0.426  1.00 20.00    -0.018 A 
HETATM    2  C2  UNL     1     -33.637  18.431  -0.823  1.00 20.00    -0.075 A 
HETATM    3  C3  UNL     1     -30.677  18.716   1.124  1.00 20.00     0.001 C 
HETATM    4  C4  UNL     1     -31.984  18.503   1.878  1.00 20.00     0.009 C 
HETATM    5  C5  UNL     1     -31.078  18.558  -0.338  1.00 20.00     0.010 C 
HETATM    6  C6  UNL     1     -33.019  19.226   1.017  1.00 20.00     0.016 A 
HETATM    7  C7  UNL     1     -32.432  19.263  -0.416  1.00 20.00     0.022 A 
ENDROOT
BRANCH   2   8
HETATM    8  C10 UNL     1     -34.098  17.841  -2.170  1.00 20.00     0.006 C 
HETATM    9  C8  UNL     1     -33.856  18.862  -3.257  1.00 20.00     0.014 C 
HETATM   10  C9  UNL     1     -33.366  16.542  -2.424  1.00 20.00     0.014 C 
ENDBRANCH   2   8
TORSDOF 1
ENDMDL
MODEL 6
REMARK VINA RESULT:      -4.1     11.903     13.175
REMARK  1 active torsions:
REMARK  status: ('A' for Active; 'I' for Inactive)
REMARK    1  A    between atoms: C2_2  and  C10_10 
ROOT
HETATM    1  C1  UNL     1     -33.672  14.867  -4.064  1.00 20.00    -0.018 A 
HETATM    2  C2  UNL     1     -33.630  16.211  -3.975  1.00 20.00    -0.075 A 
HETATM    3  C3  UNL     1     -36.659  15.733  -5.771  1.00 20.00     0.001 C 
HETATM    4  C4  UNL     1     -35.937  14.481  -5.285  1.00 20.00     0.009 C 
HETATM    5  C5  UNL     1     -35.870  16.870  -5.134  1.00 20.00     0.010 C 
HETATM    6  C6  UNL     1     -34.461  14.868  -5.355  1.00 20.00     0.016 A 
HETATM    7  C7  UNL     1     -34.417  16.413  -5.259  1.00 20.00     0.022 A 
ENDROOT
BRANCH   2   8
HETATM    8  C10 UNL     1     -33.018  17.190  -2.954  1.00 20.00     0.006 C 
HETATM    9  C8  UNL     1     -33.125  18.594  -3.502  1.00 20.00     0.014 C 
HETATM   10  C9  UNL     1     -33.722  17.032  -1.625  1.00 20.00     0.014 C 
ENDBRANCH   2   8
TORSDOF 1
ENDMDL
MODEL 7
REMARK VINA RESULT:      -3.9     12.097     13.643
REMARK  1 active torsions:
REMARK  status: ('A' for Active; 'I' for Inactive)
REMARK    1  A    between atoms: C2_2  and  C10_10 
ROOT
HETATM    1  C1  UNL     1     -33.461  16.638  -2.254  1.00 20.00    -0.018 A 
HETATM    2  C2  UNL     1     -33.071  17.897  -1.972  1.00 20.00    -0.075 A 
HETATM    3  C3  UNL     1     -34.731  18.367  -5.080  1.00 20.00     0.001 C 
HETATM    4  C4  UNL     1     -34.773  16.968  -4.477  1.00 20.00     0.009 C 
HETATM    5  C5  UNL     1     -34.083  19.207  -3.986  1.00 20.00     0.010 C 
HETATM    6  C6  UNL     1     -33.433  16.848  -3.752  1.00 20.00     0.016 A 
HETATM    7  C7  UNL     1     -32.986  18.297  -3.436  1.00 20.00     0.022 A 
ENDROOT
BRANCH   2   8
HETATM    8  C10 UNL     1     -32.809  18.660  -0.659  1.00 20.00     0.006 C 
HETATM    9  C8  UNL     1     -33.742  18.132   0.406  1.00 20.00     0.014 C 
HETATM   10  C9  UNL     1     -31.353  18.515  -0.278  1.00 20.00     0.014 C 
ENDBRANCH   2   8
TORSDOF 1
ENDMDL
MODEL 8
REMARK VINA RESULT:      -3.9      1.123      2.037
REMARK  1 active torsions:
REMARK  status: ('A' for Active; 'I' for Inactive)
REMARK    1  A    between atoms: C2_2  and  C10_10 
ROOT
HETATM    1  C1  UNL     1     -33.183   8.437   5.190  1.00 20.00    -0.018 A 
HETATM    2  C2  UNL     1     -32.738   7.978   4.004  1.00 20.00    -0.075 A 
HETATM    3  C3  UNL     1     -34.842   5.305   5.036  1.00 20.00     0.001 C 
HETATM    4  C4  UNL     1     -34.810   6.544   5.923  1.00 20.00     0.009 C 
HETATM    5  C5  UNL     1     -34.025   5.718   3.818  1.00 20.00     0.010 C 
HETATM    6  C6  UNL     1     -33.378   7.056   5.776  1.00 20.00     0.016 A 
HETATM    7  C7  UNL     1     -32.870   6.520   4.415  1.00 20.00     0.022 A 
ENDROOT
BRANCH   2   8
HETATM    8  C10 UNL     1     -32.272   8.664   2.705  1.00 20.00     0.006 C 
HETATM    9  C8  UNL     1     -32.135   7.617   1.624  1.00 20.00     0.014 C 
HETATM   10  C9  UNL     1     -33.253   9.753   2.335  1.00 20.00     0.014 C 
ENDBRANCH   2   8
TORSDOF 1
ENDMDL
MODEL 9
REMARK VINA RESULT:      -3.8     11.667     13.324
REMARK  1 active torsions:
REMARK  status: ('A' for Active; 'I' for Inactive)
REMARK    1  A    between atoms: C2_2  and  C10_10 
ROOT
HETATM    1  C1  UNL     1     -34.960  17.506  -4.594  1.00 20.00    -0.018 A 
HETATM    2  C2  UNL     1     -34.035  16.543  -4.412  1.00 20.00    -0.075 A 
HETATM    3  C3  UNL     1     -34.058  18.093  -1.214  1.00 20.00     0.001 C 
HETATM    4  C4  UNL     1     -35.075  18.593  -2.232  1.00 20.00     0.009 C 
HETATM    5  C5  UNL     1     -33.428  16.886  -1.900  1.00 20.00     0.010 C 
HETATM    6  C6  UNL     1     -34.351  18.438  -3.569  1.00 20.00     0.016 A 
HETATM    7  C7  UNL     1     -33.285  17.335  -3.354  1.00 20.00     0.022 A 
ENDROOT
BRANCH   2   8
HETATM    8  C10 UNL     1     -33.812  15.152  -5.036  1.00 20.00     0.006 C 
HETATM    9  C8  UNL     1     -34.651  14.142  -4.287  1.00 20.00     0.014 C 
HETATM   10  C9  UNL     1     -34.149  15.204  -6.509  1.00 20.00     0.014 C 
ENDBRANCH   2   8
TORSDOF 1
ENDMDL
