MODEL 1
REMARK VINA RESULT:      -4.1      0.000      0.000
REMARK  1 active torsions:
REMARK  status: ('A' for Active; 'I' for Inactive)
REMARK    1  A    between atoms: C2_2  and  C4_4 
ROOT
HETATM    1  C1  UNL     1     -34.391   5.926   6.322  1.00 20.00    -0.034 C 
HETATM    2  C2  UNL     1     -33.941   7.177   6.140  1.00 20.00    -0.016 C 
HETATM    3  C3  UNL     1     -34.677   4.975   5.208  1.00 20.00     0.036 C 
ENDROOT
BRANCH   2   4
HETATM    4  C4  UNL     1     -33.672   7.772   4.798  1.00 20.00     0.141 C 
HETATM    5 CL5  UNL     1     -32.280   8.871   4.890  1.00 20.00    -0.126 Cl
ENDBRANCH   2   4
TORSDOF 1
ENDMDL
MODEL 2
REMARK VINA RESULT:      -4.0      2.228      2.999
REMARK  1 active torsions:
REMARK  status: ('A' for Active; 'I' for Inactive)
REMARK    1  A    between atoms: C2_2  and  C4_4 
ROOT
HETATM    1  C1  UNL     1     -33.842   7.112   6.337  1.00 20.00    -0.034 C 
HETATM    2  C2  UNL     1     -34.605   6.021   6.179  1.00 20.00    -0.016 C 
HETATM    3  C3  UNL     1     -33.385   7.978   5.210  1.00 20.00     0.036 C 
ENDROOT
BRANCH   2   4
HETATM    4  C4  UNL     1     -35.091   5.536   4.853  1.00 20.00     0.141 C 
HETATM    5 CL5  UNL     1     -33.953   4.344   4.190  1.00 20.00    -0.126 Cl
ENDBRANCH   2   4
TORSDOF 1
ENDMDL
MODEL 3
REMARK VINA RESULT:      -3.9      2.363      3.184
REMARK  1 active torsions:
REMARK  status: ('A' for Active; 'I' for Inactive)
REMARK    1  A    between atoms: C2_2  and  C4_4 
ROOT
HETATM    1  C1  UNL     1     -32.609   8.164   4.650  1.00 20.00    -0.034 C 
HETATM    2  C2  UNL     1     -33.596   7.644   5.394  1.00 20.00    -0.016 C 
HETATM    3  C3  UNL     1     -32.186   7.615   3.328  1.00 20.00     0.036 C 
ENDROOT
BRANCH   2   4
HETATM    4  C4  UNL     1     -34.393   6.447   4.990  1.00 20.00     0.141 C 
HETATM    5 CL5  UNL     1     -34.513   5.312   6.351  1.00 20.00    -0.126 Cl
ENDBRANCH   2   4
TORSDOF 1
ENDMDL
MODEL 4
REMARK VINA RESULT:      -3.9      2.298      2.761
REMARK  1 active torsions:
REMARK  status: ('A' for Active; 'I' for Inactive)
REMARK    1  A    between atoms: C2_2  and  C4_4 
ROOT
HETATM    1  C1  UNL     1     -34.679   5.449   6.003  1.00 20.00    -0.034 C 
HETATM    2  C2  UNL     1     -34.530   5.069   4.725  1.00 20.00    -0.016 C 
HETATM    3  C3  UNL     1     -34.230   6.769   6.534  1.00 20.00     0.036 C 
ENDROOT
BRANCH   2   4
HETATM    4  C4  UNL     1     -33.894   5.921   3.677  1.00 20.00     0.141 C 
HETATM    5 CL5  UNL     1     -32.857   4.925   2.634  1.00 20.00    -0.126 Cl
ENDBRANCH   2   4
TORSDOF 1
ENDMDL
MODEL 5
REMARK VINA RESULT:      -3.8      1.137      1.307
REMARK  1 active torsions:
REMARK  status: ('A' for Active; 'I' for Inactive)
REMARK    1  A    between atoms: C2_2  and  C4_4 
ROOT
HETATM    1  C1  UNL     1     -34.151   6.861   6.438  1.00 20.00    -0.034 C 
HETATM    2  C2  UNL     1     -33.566   7.519   5.427  1.00 20.00    -0.016 C 
HETATM    3  C3  UNL     1     -34.650   5.458   6.339  1.00 20.00     0.036 C 
ENDROOT
BRANCH   2   4
HETATM    4  C4  UNL     1     -33.343   6.928   4.074  1.00 20.00     0.141 C 
HETATM    5 CL5  UNL     1     -31.994   7.754   3.266  1.00 20.00    -0.126 Cl
ENDBRANCH   2   4
TORSDOF 1
ENDMDL
MODEL 6
REMARK VINA RESULT:      -3.7      1.060      1.179
REMARK  1 active torsions:
REMARK  status: ('A' for Active; 'I' for Inactive)
REMARK    1  A    between atoms: C2_2  and  C4_4 
ROOT
HETATM    1  C1  UNL     1     -34.895   5.307   5.777  1.00 20.00    -0.034 C 
HETATM    2  C2  UNL     1     -34.453   6.400   6.417  1.00 20.00    -0.016 C 
HETATM    3  C3  UNL     1     -34.263   4.752   4.545  1.00 20.00     0.036 C 
ENDROOT
BRANCH   2   4
HETATM    4  C4  UNL     1     -33.271   7.197   5.972  1.00 20.00     0.141 C 
HETATM    5 CL5  UNL     1     -33.730   8.261   4.626  1.00 20.00    -0.126 Cl
ENDBRANCH   2   4
TORSDOF 1
ENDMDL
MODEL 7
REMARK VINA RESULT:      -3.6      0.815      1.178
REMARK  1 active torsions:
REMARK  status: ('A' for Active; 'I' for Inactive)
REMARK    1  A    between atoms: C2_2  and  C4_4 
ROOT
HETATM    1  C1  UNL     1     -34.729   5.759   4.982  1.00 20.00    -0.034 C 
HETATM    2  C2  UNL     1     -34.122   6.867   4.531  1.00 20.00    -0.016 C 
HETATM    3  C3  UNL     1     -34.623   5.266   6.387  1.00 20.00     0.036 C 
ENDROOT
BRANCH   2   4
HETATM    4  C4  UNL     1     -33.263   7.743   5.381  1.00 20.00     0.141 C 
HETATM    5 CL5  UNL     1     -32.266   8.795   4.353  1.00 20.00    -0.126 Cl
ENDBRANCH   2   4
TORSDOF 1
ENDMDL
MODEL 8
REMARK VINA RESULT:      -3.6      2.358      3.444
REMARK  1 active torsions:
REMARK  status: ('A' for Active; 'I' for Inactive)
REMARK    1  A    between atoms: C2_2  and  C4_4 
ROOT
HETATM    1  C1  UNL     1     -32.926   7.954   4.095  1.00 20.00    -0.034 C 
HETATM    2  C2  UNL     1     -33.732   7.031   4.640  1.00 20.00    -0.016 C 
HETATM    3  C3  UNL     1     -32.207   8.999   4.882  1.00 20.00     0.036 C 
ENDROOT
BRANCH   2   4
HETATM    4  C4  UNL     1     -34.009   6.935   6.104  1.00 20.00     0.141 C 
HETATM    5 CL5  UNL     1     -34.705   5.346   6.486  1.00 20.00    -0.126 Cl
ENDBRANCH   2   4
TORSDOF 1
ENDMDL
MODEL 9
REMARK VINA RESULT:      -3.4      2.696      3.469
REMARK  1 active torsions:
REMARK  status: ('A' for Active; 'I' for Inactive)
REMARK    1  A    between atoms: C2_2  and  C4_4 
ROOT
HETATM    1  C1  UNL     1     -32.884   5.836   2.994  1.00 20.00    -0.034 C 
HETATM    2  C2  UNL     1     -33.898   5.356   3.729  1.00 20.00    -0.016 C 
HETATM    3  C3  UNL     1     -32.340   7.219   3.131  1.00 20.00     0.036 C 
ENDROOT
BRANCH   2   4
HETATM    4  C4  UNL     1     -34.609   6.149   4.776  1.00 20.00     0.141 C 
HETATM    5 CL5  UNL     1     -34.461   5.341   6.352  1.00 20.00    -0.126 Cl
ENDBRANCH   2   4
TORSDOF 1
ENDMDL
