MODEL 1
REMARK VINA RESULT:      -3.8      0.000      0.000
REMARK  1 active torsions:
REMARK  status: ('A' for Active; 'I' for Inactive)
REMARK    1  A    between atoms: C2_2  and  C6_6 
ROOT
HETATM    1  C1  UNL     1     -33.262   7.899   5.190  1.00 20.00     0.071 C 
HETATM    2  C2  UNL     1     -33.487   6.786   4.469  1.00 20.00     0.003 C 
HETATM    3 BR7  UNL     1     -32.110   9.305   4.802  1.00 20.00    -0.062 Br
HETATM    4 BR8  UNL     1     -32.578   6.491   2.831  1.00 20.00    -0.054 Br
ENDROOT
BRANCH   2   5
HETATM    5  C6  UNL     1     -34.472   5.666   4.880  1.00 20.00    -0.017 C 
HETATM    6  C3  UNL     1     -34.035   4.263   4.386  1.00 20.00     0.020 C 
HETATM    7  C4  UNL     1     -34.584   5.574   6.418  1.00 20.00     0.020 C 
HETATM    8  C5  UNL     1     -35.873   5.926   4.281  1.00 20.00     0.020 C 
ENDBRANCH   2   5
TORSDOF 1
ENDMDL
MODEL 2
REMARK VINA RESULT:      -3.5      1.002      1.790
REMARK  1 active torsions:
REMARK  status: ('A' for Active; 'I' for Inactive)
REMARK    1  A    between atoms: C2_2  and  C6_6 
ROOT
HETATM    1  C1  UNL     1     -32.964   6.699   3.020  1.00 20.00     0.071 C 
HETATM    2  C2  UNL     1     -33.509   6.814   4.246  1.00 20.00     0.003 C 
HETATM    3 BR7  UNL     1     -31.881   7.919   2.128  1.00 20.00    -0.062 Br
HETATM    4 BR8  UNL     1     -33.214   8.363   5.298  1.00 20.00    -0.054 Br
ENDROOT
BRANCH   2   5
HETATM    5  C6  UNL     1     -34.402   5.736   4.904  1.00 20.00    -0.017 C 
HETATM    6  C3  UNL     1     -33.926   4.290   4.607  1.00 20.00     0.020 C 
HETATM    7  C4  UNL     1     -34.401   5.890   6.442  1.00 20.00     0.020 C 
HETATM    8  C5  UNL     1     -35.853   5.836   4.383  1.00 20.00     0.020 C 
ENDBRANCH   2   5
TORSDOF 1
ENDMDL
MODEL 3
REMARK VINA RESULT:      -3.5      1.006      2.362
REMARK  1 active torsions:
REMARK  status: ('A' for Active; 'I' for Inactive)
REMARK    1  A    between atoms: C2_2  and  C6_6 
ROOT
HETATM    1  C1  UNL     1     -32.959   6.688   2.999  1.00 20.00     0.071 C 
HETATM    2  C2  UNL     1     -33.509   6.795   4.223  1.00 20.00     0.003 C 
HETATM    3 BR7  UNL     1     -31.878   7.916   2.116  1.00 20.00    -0.062 Br
HETATM    4 BR8  UNL     1     -33.225   8.341   5.283  1.00 20.00    -0.054 Br
ENDROOT
BRANCH   2   5
HETATM    5  C6  UNL     1     -34.399   5.710   4.875  1.00 20.00    -0.017 C 
HETATM    6  C3  UNL     1     -34.431   5.802   6.423  1.00 20.00     0.020 C 
HETATM    7  C4  UNL     1     -35.862   5.845   4.398  1.00 20.00     0.020 C 
HETATM    8  C5  UNL     1     -33.878   4.297   4.530  1.00 20.00     0.020 C 
ENDBRANCH   2   5
TORSDOF 1
ENDMDL
MODEL 4
REMARK VINA RESULT:      -3.4      1.008      2.336
REMARK  1 active torsions:
REMARK  status: ('A' for Active; 'I' for Inactive)
REMARK    1  A    between atoms: C2_2  and  C6_6 
ROOT
HETATM    1  C1  UNL     1     -32.936   6.678   3.003  1.00 20.00     0.071 C 
HETATM    2  C2  UNL     1     -33.497   6.807   4.220  1.00 20.00     0.003 C 
HETATM    3 BR7  UNL     1     -31.858   7.896   2.103  1.00 20.00    -0.062 Br
HETATM    4 BR8  UNL     1     -33.236   8.379   5.247  1.00 20.00    -0.054 Br
ENDROOT
BRANCH   2   5
HETATM    5  C6  UNL     1     -34.384   5.729   4.887  1.00 20.00    -0.017 C 
HETATM    6  C3  UNL     1     -35.863   5.789   4.423  1.00 20.00     0.020 C 
HETATM    7  C4  UNL     1     -33.874   4.312   4.542  1.00 20.00     0.020 C 
HETATM    8  C5  UNL     1     -34.398   5.907   6.421  1.00 20.00     0.020 C 
ENDBRANCH   2   5
TORSDOF 1
ENDMDL
MODEL 5
REMARK VINA RESULT:      -3.3     15.590     17.097
REMARK  1 active torsions:
REMARK  status: ('A' for Active; 'I' for Inactive)
REMARK    1  A    between atoms: C2_2  and  C6_6 
ROOT
HETATM    1  C1  UNL     1     -24.176  16.933  10.784  1.00 20.00     0.071 C 
HETATM    2  C2  UNL     1     -23.150  17.804  10.734  1.00 20.00     0.003 C 
HETATM    3 BR7  UNL     1     -25.039  16.262  12.287  1.00 20.00    -0.062 Br
HETATM    4 BR8  UNL     1     -22.399  18.510  12.325  1.00 20.00    -0.054 Br
ENDROOT
BRANCH   2   5
HETATM    5  C6  UNL     1     -22.497  18.304   9.424  1.00 20.00    -0.017 C 
HETATM    6  C3  UNL     1     -23.467  19.131   8.541  1.00 20.00     0.020 C 
HETATM    7  C4  UNL     1     -21.293  19.222   9.730  1.00 20.00     0.020 C 
HETATM    8  C5  UNL     1     -22.025  17.113   8.560  1.00 20.00     0.020 C 
ENDBRANCH   2   5
TORSDOF 1
ENDMDL
MODEL 6
REMARK VINA RESULT:      -3.1     12.716     13.538
REMARK  1 active torsions:
REMARK  status: ('A' for Active; 'I' for Inactive)
REMARK    1  A    between atoms: C2_2  and  C6_6 
ROOT
HETATM    1  C1  UNL     1     -31.579  18.493  -0.230  1.00 20.00     0.071 C 
HETATM    2  C2  UNL     1     -32.893  18.495  -0.523  1.00 20.00     0.003 C 
HETATM    3 BR7  UNL     1     -30.773  18.752   1.425  1.00 20.00    -0.062 Br
HETATM    4 BR8  UNL     1     -34.188  18.787   0.830  1.00 20.00    -0.054 Br
ENDROOT
BRANCH   2   5
HETATM    5  C6  UNL     1     -33.468  18.268  -1.941  1.00 20.00    -0.017 C 
HETATM    6  C3  UNL     1     -34.976  18.614  -2.045  1.00 20.00     0.020 C 
HETATM    7  C4  UNL     1     -32.742  19.159  -2.974  1.00 20.00     0.020 C 
HETATM    8  C5  UNL     1     -33.328  16.787  -2.357  1.00 20.00     0.020 C 
ENDBRANCH   2   5
TORSDOF 1
ENDMDL
MODEL 7
REMARK VINA RESULT:      -2.9     13.449     14.272
REMARK  1 active torsions:
REMARK  status: ('A' for Active; 'I' for Inactive)
REMARK    1  A    between atoms: C2_2  and  C6_6 
ROOT
HETATM    1  C1  UNL     1     -34.000  17.279  -3.948  1.00 20.00     0.071 C 
HETATM    2  C2  UNL     1     -34.269  16.283  -4.813  1.00 20.00     0.003 C 
HETATM    3 BR7  UNL     1     -33.368  17.145  -2.205  1.00 20.00    -0.062 Br
HETATM    4 BR8  UNL     1     -34.016  14.471  -4.316  1.00 20.00    -0.054 Br
ENDROOT
BRANCH   2   5
HETATM    5  C6  UNL     1     -34.796  16.499  -6.252  1.00 20.00    -0.017 C 
HETATM    6  C3  UNL     1     -34.120  15.567  -7.290  1.00 20.00     0.020 C 
HETATM    7  C4  UNL     1     -36.312  16.213  -6.327  1.00 20.00     0.020 C 
HETATM    8  C5  UNL     1     -34.525  17.946  -6.720  1.00 20.00     0.020 C 
ENDBRANCH   2   5
TORSDOF 1
ENDMDL
MODEL 8
REMARK VINA RESULT:      -2.9     13.454     14.307
REMARK  1 active torsions:
REMARK  status: ('A' for Active; 'I' for Inactive)
REMARK    1  A    between atoms: C2_2  and  C6_6 
ROOT
HETATM    1  C1  UNL     1     -33.994  17.252  -3.955  1.00 20.00     0.071 C 
HETATM    2  C2  UNL     1     -34.285  16.266  -4.824  1.00 20.00     0.003 C 
HETATM    3 BR7  UNL     1     -33.380  17.097  -2.207  1.00 20.00    -0.062 Br
HETATM    4 BR8  UNL     1     -34.088  14.447  -4.328  1.00 20.00    -0.054 Br
ENDROOT
BRANCH   2   5
HETATM    5  C6  UNL     1     -34.793  16.500  -6.266  1.00 20.00    -0.017 C 
HETATM    6  C3  UNL     1     -34.570  17.953  -6.759  1.00 20.00     0.020 C 
HETATM    7  C4  UNL     1     -34.051  15.581  -7.262  1.00 20.00     0.020 C 
HETATM    8  C5  UNL     1     -36.312  16.233  -6.359  1.00 20.00     0.020 C 
ENDBRANCH   2   5
TORSDOF 1
ENDMDL
MODEL 9
REMARK VINA RESULT:      -2.9     12.993     14.106
REMARK  1 active torsions:
REMARK  status: ('A' for Active; 'I' for Inactive)
REMARK    1  A    between atoms: C2_2  and  C6_6 
ROOT
HETATM    1  C1  UNL     1     -35.205  16.903  -5.389  1.00 20.00     0.071 C 
HETATM    2  C2  UNL     1     -34.354  16.677  -4.371  1.00 20.00     0.003 C 
HETATM    3 BR7  UNL     1     -35.668  15.753  -6.775  1.00 20.00    -0.062 Br
HETATM    4 BR8  UNL     1     -33.448  15.019  -4.214  1.00 20.00    -0.054 Br
ENDROOT
BRANCH   2   5
HETATM    5  C6  UNL     1     -34.034  17.704  -3.260  1.00 20.00    -0.017 C 
HETATM    6  C3  UNL     1     -35.284  18.487  -2.780  1.00 20.00     0.020 C 
HETATM    7  C4  UNL     1     -33.454  16.999  -2.014  1.00 20.00     0.020 C 
HETATM    8  C5  UNL     1     -33.025  18.758  -3.766  1.00 20.00     0.020 C 
ENDBRANCH   2   5
TORSDOF 1
ENDMDL
