MODEL 1
REMARK VINA RESULT:      -4.7      0.000      0.000
REMARK  1 active torsions:
REMARK  status: ('A' for Active; 'I' for Inactive)
REMARK    1  A    between atoms: C1_1  and  C2_2 
ROOT
HETATM    1  C2  UNL     1     -34.525   5.755   4.762  1.00 20.00     0.363 C 
HETATM    2  F4  UNL     1     -34.530   4.694   5.608  1.00 20.00    -0.183 F 
HETATM    3  F5  UNL     1     -35.811   5.931   4.355  1.00 20.00    -0.183 F 
HETATM    4 CL7  UNL     1     -33.525   5.387   3.346  1.00 20.00    -0.044 Cl
ENDROOT
BRANCH   1   5
HETATM    5  C1  UNL     1     -34.071   7.003   5.495  1.00 20.00     0.353 C 
HETATM    6  F3  UNL     1     -33.605   6.625   6.719  1.00 20.00    -0.225 F 
HETATM    7 CL6  UNL     1     -32.767   7.855   4.643  1.00 20.00    -0.082 Cl
ENDBRANCH   1   5
TORSDOF 1
ENDMDL
MODEL 2
REMARK VINA RESULT:      -4.7      1.581      1.837
REMARK  1 active torsions:
REMARK  status: ('A' for Active; 'I' for Inactive)
REMARK    1  A    between atoms: C1_1  and  C2_2 
ROOT
HETATM    1  C2  UNL     1     -34.507   5.927   4.742  1.00 20.00     0.363 C 
HETATM    2  F4  UNL     1     -35.787   6.071   4.316  1.00 20.00    -0.183 F 
HETATM    3  F5  UNL     1     -33.898   5.091   3.860  1.00 20.00    -0.183 F 
HETATM    4 CL7  UNL     1     -34.491   5.173   6.346  1.00 20.00    -0.044 Cl
ENDROOT
BRANCH   1   5
HETATM    5  C1  UNL     1     -33.796   7.267   4.714  1.00 20.00     0.353 C 
HETATM    6  F3  UNL     1     -33.250   7.480   5.944  1.00 20.00    -0.225 F 
HETATM    7 CL6  UNL     1     -32.492   7.320   3.511  1.00 20.00    -0.082 Cl
ENDBRANCH   1   5
TORSDOF 1
ENDMDL
MODEL 3
REMARK VINA RESULT:      -4.5      1.201      2.715
REMARK  1 active torsions:
REMARK  status: ('A' for Active; 'I' for Inactive)
REMARK    1  A    between atoms: C1_1  and  C2_2 
ROOT
HETATM    1  C2  UNL     1     -34.387   5.876   6.082  1.00 20.00     0.363 C 
HETATM    2  F4  UNL     1     -35.463   6.164   6.856  1.00 20.00    -0.183 F 
HETATM    3  F5  UNL     1     -33.659   4.950   6.761  1.00 20.00    -0.183 F 
HETATM    4 CL7  UNL     1     -33.398   7.330   5.865  1.00 20.00    -0.044 Cl
ENDROOT
BRANCH   1   5
HETATM    5  C1  UNL     1     -34.840   5.271   4.767  1.00 20.00     0.353 C 
HETATM    6  F3  UNL     1     -35.946   5.949   4.350  1.00 20.00    -0.225 F 
HETATM    7 CL6  UNL     1     -33.603   5.394   3.499  1.00 20.00    -0.082 Cl
ENDBRANCH   1   5
TORSDOF 1
ENDMDL
MODEL 4
REMARK VINA RESULT:      -4.5      1.783      3.100
REMARK  1 active torsions:
REMARK  status: ('A' for Active; 'I' for Inactive)
REMARK    1  A    between atoms: C1_1  and  C2_2 
ROOT
HETATM    1  C2  UNL     1     -33.443   7.578   5.299  1.00 20.00     0.363 C 
HETATM    2  F4  UNL     1     -34.131   8.708   5.599  1.00 20.00    -0.183 F 
HETATM    3  F5  UNL     1     -32.856   7.165   6.453  1.00 20.00    -0.183 F 
HETATM    4 CL7  UNL     1     -32.176   7.944   4.114  1.00 20.00    -0.044 Cl
ENDROOT
BRANCH   1   5
HETATM    5  C1  UNL     1     -34.398   6.499   4.825  1.00 20.00     0.353 C 
HETATM    6  F3  UNL     1     -33.806   5.837   3.791  1.00 20.00    -0.225 F 
HETATM    7 CL6  UNL     1     -34.775   5.318   6.096  1.00 20.00    -0.082 Cl
ENDBRANCH   1   5
TORSDOF 1
ENDMDL
MODEL 5
REMARK VINA RESULT:      -4.5      1.507      1.793
REMARK  1 active torsions:
REMARK  status: ('A' for Active; 'I' for Inactive)
REMARK    1  A    between atoms: C1_1  and  C2_2 
ROOT
HETATM    1  C2  UNL     1     -34.722   5.776   4.704  1.00 20.00     0.363 C 
HETATM    2  F4  UNL     1     -35.989   5.888   4.233  1.00 20.00    -0.183 F 
HETATM    3  F5  UNL     1     -34.006   6.778   4.128  1.00 20.00    -0.183 F 
HETATM    4 CL7  UNL     1     -34.031   4.222   4.204  1.00 20.00    -0.044 Cl
ENDROOT
BRANCH   1   5
HETATM    5  C1  UNL     1     -34.707   5.970   6.208  1.00 20.00     0.353 C 
HETATM    6  F3  UNL     1     -33.974   4.960   6.756  1.00 20.00    -0.225 F 
HETATM    7 CL6  UNL     1     -33.971   7.514   6.688  1.00 20.00    -0.082 Cl
ENDBRANCH   1   5
TORSDOF 1
ENDMDL
MODEL 6
REMARK VINA RESULT:      -4.4      1.992      2.834
REMARK  1 active torsions:
REMARK  status: ('A' for Active; 'I' for Inactive)
REMARK    1  A    between atoms: C1_1  and  C2_2 
ROOT
HETATM    1  C2  UNL     1     -33.264   7.691   4.768  1.00 20.00     0.363 C 
HETATM    2  F4  UNL     1     -34.263   8.516   4.368  1.00 20.00    -0.183 F 
HETATM    3  F5  UNL     1     -32.324   8.478   5.355  1.00 20.00    -0.183 F 
HETATM    4 CL7  UNL     1     -32.542   6.897   3.358  1.00 20.00    -0.044 Cl
ENDROOT
BRANCH   1   5
HETATM    5  C1  UNL     1     -33.785   6.704   5.796  1.00 20.00     0.353 C 
HETATM    6  F3  UNL     1     -34.394   7.412   6.788  1.00 20.00    -0.225 F 
HETATM    7 CL6  UNL     1     -34.972   5.573   5.113  1.00 20.00    -0.082 Cl
ENDBRANCH   1   5
TORSDOF 1
ENDMDL
MODEL 7
REMARK VINA RESULT:      -4.4      1.897      2.361
REMARK  1 active torsions:
REMARK  status: ('A' for Active; 'I' for Inactive)
REMARK    1  A    between atoms: C1_1  and  C2_2 
ROOT
HETATM    1  C2  UNL     1     -34.544   5.532   4.817  1.00 20.00     0.363 C 
HETATM    2  F4  UNL     1     -35.702   5.941   4.241  1.00 20.00    -0.183 F 
HETATM    3  F5  UNL     1     -34.334   4.255   4.401  1.00 20.00    -0.183 F 
HETATM    4 CL7  UNL     1     -34.718   5.534   6.581  1.00 20.00    -0.044 Cl
ENDROOT
BRANCH   1   5
HETATM    5  C1  UNL     1     -33.392   6.396   4.339  1.00 20.00     0.353 C 
HETATM    6  F3  UNL     1     -33.202   6.147   3.013  1.00 20.00    -0.225 F 
HETATM    7 CL6  UNL     1     -33.715   8.130   4.539  1.00 20.00    -0.082 Cl
ENDBRANCH   1   5
TORSDOF 1
ENDMDL
MODEL 8
REMARK VINA RESULT:      -4.4      2.018      2.576
REMARK  1 active torsions:
REMARK  status: ('A' for Active; 'I' for Inactive)
REMARK    1  A    between atoms: C1_1  and  C2_2 
ROOT
HETATM    1  C2  UNL     1     -33.499   7.416   4.768  1.00 20.00     0.363 C 
HETATM    2  F4  UNL     1     -33.264   6.494   3.801  1.00 20.00    -0.183 F 
HETATM    3  F5  UNL     1     -34.636   8.070   4.412  1.00 20.00    -0.183 F 
HETATM    4 CL7  UNL     1     -32.165   8.582   4.821  1.00 20.00    -0.044 Cl
ENDROOT
BRANCH   1   5
HETATM    5  C1  UNL     1     -33.730   6.726   6.099  1.00 20.00     0.353 C 
HETATM    6  F3  UNL     1     -34.442   7.572   6.894  1.00 20.00    -0.225 F 
HETATM    7 CL6  UNL     1     -34.649   5.216   5.931  1.00 20.00    -0.082 Cl
ENDBRANCH   1   5
TORSDOF 1
ENDMDL
MODEL 9
REMARK VINA RESULT:      -4.3      1.722      2.674
REMARK  1 active torsions:
REMARK  status: ('A' for Active; 'I' for Inactive)
REMARK    1  A    between atoms: C1_1  and  C2_2 
ROOT
HETATM    1  C2  UNL     1     -34.548   6.165   4.818  1.00 20.00     0.363 C 
HETATM    2  F4  UNL     1     -34.190   7.414   4.427  1.00 20.00    -0.183 F 
HETATM    3  F5  UNL     1     -35.783   5.936   4.299  1.00 20.00    -0.183 F 
HETATM    4 CL7  UNL     1     -34.652   6.098   6.586  1.00 20.00    -0.044 Cl
ENDROOT
BRANCH   1   5
HETATM    5  C1  UNL     1     -33.582   5.144   4.246  1.00 20.00     0.353 C 
HETATM    6  F3  UNL     1     -34.222   3.942   4.195  1.00 20.00    -0.225 F 
HETATM    7 CL6  UNL     1     -33.048   5.559   2.604  1.00 20.00    -0.082 Cl
ENDBRANCH   1   5
TORSDOF 1
ENDMDL
