MODEL 1
REMARK VINA RESULT:      -3.7      0.000      0.000
REMARK  1 active torsions:
REMARK  status: ('A' for Active; 'I' for Inactive)
REMARK    1  A    between atoms: C3_3  and  C5_5 
ROOT
HETATM    1  C1  UNL     1     -30.780  18.859   0.527  1.00 20.00     0.144 A 
HETATM    2  C2  UNL     1     -31.836  18.886   1.414  1.00 20.00     0.071 A 
HETATM    3  C3  UNL     1     -32.398  18.365  -0.869  1.00 20.00     0.103 A 
HETATM    4  N7  UNL     1     -31.101  18.560  -0.782  1.00 20.00    -0.251 NA
HETATM    5  S8  UNL     1     -33.293  18.527   0.586  1.00 20.00    -0.061 SA
HETATM    6 BR9  UNL     1     -31.714  19.262   3.265  1.00 20.00    -0.041 Br
ENDROOT
BRANCH   3   7
HETATM    7  C5  UNL     1     -33.118  18.033  -2.072  1.00 20.00    -0.035 C 
HETATM    8  C4  UNL     1     -33.661  19.043  -2.778  1.00 20.00     0.021 C 
HETATM    9  C6  UNL     1     -33.297  16.615  -2.564  1.00 20.00     0.050 C 
ENDBRANCH   3   7
TORSDOF 1
ENDMDL
MODEL 2
REMARK VINA RESULT:      -3.5     11.494     11.901
REMARK  1 active torsions:
REMARK  status: ('A' for Active; 'I' for Inactive)
REMARK    1  A    between atoms: C3_3  and  C5_5 
ROOT
HETATM    1  C1  UNL     1     -42.322  14.604   4.684  1.00 20.00     0.144 A 
HETATM    2  C2  UNL     1     -42.272  14.900   6.030  1.00 20.00     0.071 A 
HETATM    3  C3  UNL     1     -40.694  13.253   5.259  1.00 20.00     0.103 A 
HETATM    4  N7  UNL     1     -41.417  13.660   4.240  1.00 20.00    -0.251 NA
HETATM    5  S8  UNL     1     -41.048  13.962   6.780  1.00 20.00    -0.061 SA
HETATM    6 BR9  UNL     1     -43.377  16.145   6.929  1.00 20.00    -0.041 Br
ENDROOT
BRANCH   3   7
HETATM    7  C5  UNL     1     -39.641  12.270   5.201  1.00 20.00    -0.035 C 
HETATM    8  C4  UNL     1     -39.118  11.841   6.366  1.00 20.00     0.021 C 
HETATM    9  C6  UNL     1     -39.099  11.714   3.905  1.00 20.00     0.050 C 
ENDBRANCH   3   7
TORSDOF 1
ENDMDL
MODEL 3
REMARK VINA RESULT:      -3.4      3.464      4.606
REMARK  1 active torsions:
REMARK  status: ('A' for Active; 'I' for Inactive)
REMARK    1  A    between atoms: C3_3  and  C5_5 
ROOT
HETATM    1  C1  UNL     1     -32.978  18.799  -3.805  1.00 20.00     0.144 A 
HETATM    2  C2  UNL     1     -33.640  17.592  -3.719  1.00 20.00     0.071 A 
HETATM    3  C3  UNL     1     -32.659  18.398  -1.673  1.00 20.00     0.103 A 
HETATM    4  N7  UNL     1     -32.416  19.263  -2.632  1.00 20.00    -0.251 NA
HETATM    5  S8  UNL     1     -33.559  17.004  -2.111  1.00 20.00    -0.061 SA
HETATM    6 BR9  UNL     1     -34.509  16.705  -5.147  1.00 20.00    -0.041 Br
ENDROOT
BRANCH   3   7
HETATM    7  C5  UNL     1     -32.235  18.525  -0.301  1.00 20.00    -0.035 C 
HETATM    8  C4  UNL     1     -30.912  18.582  -0.055  1.00 20.00     0.021 C 
HETATM    9  C6  UNL     1     -33.201  18.586   0.860  1.00 20.00     0.050 C 
ENDBRANCH   3   7
TORSDOF 1
ENDMDL
MODEL 4
REMARK VINA RESULT:      -3.4      4.924      6.035
REMARK  1 active torsions:
REMARK  status: ('A' for Active; 'I' for Inactive)
REMARK    1  A    between atoms: C3_3  and  C5_5 
ROOT
HETATM    1  C1  UNL     1     -33.854  14.964  -4.653  1.00 20.00     0.144 A 
HETATM    2  C2  UNL     1     -34.721  15.748  -5.386  1.00 20.00     0.071 A 
HETATM    3  C3  UNL     1     -33.720  16.802  -3.466  1.00 20.00     0.103 A 
HETATM    4  N7  UNL     1     -33.279  15.567  -3.553  1.00 20.00    -0.251 NA
HETATM    5  S8  UNL     1     -34.829  17.304  -4.675  1.00 20.00    -0.061 SA
HETATM    6 BR9  UNL     1     -35.656  15.205  -6.939  1.00 20.00    -0.041 Br
ENDROOT
BRANCH   3   7
HETATM    7  C5  UNL     1     -33.352  17.756  -2.449  1.00 20.00    -0.035 C 
HETATM    8  C4  UNL     1     -33.590  17.427  -1.165  1.00 20.00     0.021 C 
HETATM    9  C6  UNL     1     -32.729  19.097  -2.760  1.00 20.00     0.050 C 
ENDBRANCH   3   7
TORSDOF 1
ENDMDL
MODEL 5
REMARK VINA RESULT:      -3.4      3.898      5.000
REMARK  1 active torsions:
REMARK  status: ('A' for Active; 'I' for Inactive)
REMARK    1  A    between atoms: C3_3  and  C5_5 
ROOT
HETATM    1  C1  UNL     1     -33.758  16.429  -3.827  1.00 20.00     0.144 A 
HETATM    2  C2  UNL     1     -34.022  17.667  -4.373  1.00 20.00     0.071 A 
HETATM    3  C3  UNL     1     -33.256  17.670  -2.090  1.00 20.00     0.103 A 
HETATM    4  N7  UNL     1     -33.318  16.428  -2.518  1.00 20.00    -0.251 NA
HETATM    5  S8  UNL     1     -33.712  18.887  -3.209  1.00 20.00    -0.061 SA
HETATM    6 BR9  UNL     1     -34.633  17.990  -6.135  1.00 20.00    -0.041 Br
ENDROOT
BRANCH   3   7
HETATM    7  C5  UNL     1     -32.841  18.084  -0.773  1.00 20.00    -0.035 C 
HETATM    8  C4  UNL     1     -33.770  18.095   0.203  1.00 20.00     0.021 C 
HETATM    9  C6  UNL     1     -31.429  18.510  -0.447  1.00 20.00     0.050 C 
ENDBRANCH   3   7
TORSDOF 1
ENDMDL
MODEL 6
REMARK VINA RESULT:      -3.3     12.109     12.708
REMARK  1 active torsions:
REMARK  status: ('A' for Active; 'I' for Inactive)
REMARK    1  A    between atoms: C3_3  and  C5_5 
ROOT
HETATM    1  C1  UNL     1     -32.515   8.815   3.640  1.00 20.00     0.144 A 
HETATM    2  C2  UNL     1     -32.500   7.938   2.576  1.00 20.00     0.071 A 
HETATM    3  C3  UNL     1     -33.490   7.105   4.606  1.00 20.00     0.103 A 
HETATM    4  N7  UNL     1     -33.083   8.339   4.805  1.00 20.00    -0.251 NA
HETATM    5  S8  UNL     1     -33.222   6.455   3.042  1.00 20.00    -0.061 SA
HETATM    6 BR9  UNL     1     -31.795   8.300   0.857  1.00 20.00    -0.041 Br
ENDROOT
BRANCH   3   7
HETATM    7  C5  UNL     1     -34.135   6.266   5.585  1.00 20.00    -0.035 C 
HETATM    8  C4  UNL     1     -34.362   6.787   6.807  1.00 20.00     0.021 C 
HETATM    9  C6  UNL     1     -34.554   4.841   5.306  1.00 20.00     0.050 C 
ENDBRANCH   3   7
TORSDOF 1
ENDMDL
MODEL 7
REMARK VINA RESULT:      -3.2     12.394     13.092
REMARK  1 active torsions:
REMARK  status: ('A' for Active; 'I' for Inactive)
REMARK    1  A    between atoms: C3_3  and  C5_5 
ROOT
HETATM    1  C1  UNL     1     -32.901   6.050   2.459  1.00 20.00     0.144 A 
HETATM    2  C2  UNL     1     -32.584   7.392   2.441  1.00 20.00     0.071 A 
HETATM    3  C3  UNL     1     -33.544   6.569   4.490  1.00 20.00     0.103 A 
HETATM    4  N7  UNL     1     -33.451   5.576   3.634  1.00 20.00    -0.251 NA
HETATM    5  S8  UNL     1     -32.988   8.099   3.949  1.00 20.00    -0.061 SA
HETATM    6 BR9  UNL     1     -31.820   8.326   0.983  1.00 20.00    -0.041 Br
ENDROOT
BRANCH   3   7
HETATM    7  C5  UNL     1     -34.068   6.475   5.830  1.00 20.00    -0.035 C 
HETATM    8  C4  UNL     1     -33.991   7.570   6.611  1.00 20.00     0.021 C 
HETATM    9  C6  UNL     1     -34.684   5.215   6.390  1.00 20.00     0.050 C 
ENDBRANCH   3   7
TORSDOF 1
ENDMDL
MODEL 8
REMARK VINA RESULT:      -3.2     11.959     12.324
REMARK  1 active torsions:
REMARK  status: ('A' for Active; 'I' for Inactive)
REMARK    1  A    between atoms: C3_3  and  C5_5 
ROOT
HETATM    1  C1  UNL     1     -40.396  14.693   9.381  1.00 20.00     0.144 A 
HETATM    2  C2  UNL     1     -41.012  15.793   8.822  1.00 20.00     0.071 A 
HETATM    3  C3  UNL     1     -40.535  13.978   7.313  1.00 20.00     0.103 A 
HETATM    4  N7  UNL     1     -40.123  13.651   8.517  1.00 20.00    -0.251 NA
HETATM    5  S8  UNL     1     -41.261  15.524   7.147  1.00 20.00    -0.061 SA
HETATM    6 BR9  UNL     1     -41.511  17.368   9.745  1.00 20.00    -0.041 Br
ENDROOT
BRANCH   3   7
HETATM    7  C5  UNL     1     -40.427  13.152   6.136  1.00 20.00    -0.035 C 
HETATM    8  C4  UNL     1     -41.221  13.447   5.088  1.00 20.00     0.021 C 
HETATM    9  C6  UNL     1     -39.481  11.979   6.033  1.00 20.00     0.050 C 
ENDBRANCH   3   7
TORSDOF 1
ENDMDL
MODEL 9
REMARK VINA RESULT:      -3.2      3.890      4.962
REMARK  1 active torsions:
REMARK  status: ('A' for Active; 'I' for Inactive)
REMARK    1  A    between atoms: C3_3  and  C5_5 
ROOT
HETATM    1  C1  UNL     1     -34.401  18.213  -3.484  1.00 20.00     0.144 A 
HETATM    2  C2  UNL     1     -33.475  17.501  -2.750  1.00 20.00     0.071 A 
HETATM    3  C3  UNL     1     -34.450  16.338  -4.619  1.00 20.00     0.103 A 
HETATM    4  N7  UNL     1     -34.960  17.547  -4.557  1.00 20.00    -0.251 NA
HETATM    5  S8  UNL     1     -33.292  15.934  -3.419  1.00 20.00    -0.061 SA
HETATM    6 BR9  UNL     1     -32.542  18.140  -1.233  1.00 20.00    -0.041 Br
ENDROOT
BRANCH   3   7
HETATM    7  C5  UNL     1     -34.782  15.337  -5.602  1.00 20.00    -0.035 C 
HETATM    8  C4  UNL     1     -34.028  15.278  -6.717  1.00 20.00     0.021 C 
HETATM    9  C6  UNL     1     -35.931  14.369  -5.441  1.00 20.00     0.050 C 
ENDBRANCH   3   7
TORSDOF 1
ENDMDL
