MODEL 1
REMARK VINA RESULT:      -4.3      0.000      0.000
REMARK  1 active torsions:
REMARK  status: ('A' for Active; 'I' for Inactive)
REMARK    1  A    between atoms: C3_3  and  C9_9 
ROOT
HETATM    1  C1  UNL     1     -33.282  16.624  -2.394  1.00 20.00     0.017 A 
HETATM    2  C2  UNL     1     -33.774  16.326  -3.698  1.00 20.00     0.028 A 
HETATM    3  C3  UNL     1     -33.200  17.981  -2.171  1.00 20.00    -0.012 A 
HETATM    4  C4  UNL     1     -34.049  17.467  -4.420  1.00 20.00     0.051 A 
HETATM    5  S10 UNL     1     -33.714  18.888  -3.528  1.00 20.00    -0.087 SA
HETATM    6 BR11 UNL     1     -34.719  17.478  -6.197  1.00 20.00    -0.043 Br
ENDROOT
BRANCH   3   7
HETATM    7  C9  UNL     1     -32.735  18.698  -0.934  1.00 20.00     0.026 C 
HETATM    8  C7  UNL     1     -31.280  18.428  -0.543  1.00 20.00     0.010 C 
HETATM    9  C5  UNL     1     -31.184  18.889   0.909  1.00 20.00     0.001 C 
HETATM   10  C6  UNL     1     -32.611  18.886   1.459  1.00 20.00     0.001 C 
HETATM   11  C8  UNL     1     -33.493  18.334   0.344  1.00 20.00     0.010 C 
ENDBRANCH   3   7
TORSDOF 1
ENDMDL
MODEL 2
REMARK VINA RESULT:      -4.2      3.440      5.325
REMARK  1 active torsions:
REMARK  status: ('A' for Active; 'I' for Inactive)
REMARK    1  A    between atoms: C3_3  and  C9_9 
ROOT
HETATM    1  C1  UNL     1     -31.170  18.486  -0.588  1.00 20.00     0.017 A 
HETATM    2  C2  UNL     1     -30.722  18.781   0.732  1.00 20.00     0.028 A 
HETATM    3  C3  UNL     1     -32.542  18.373  -0.656  1.00 20.00    -0.012 A 
HETATM    4  C4  UNL     1     -31.769  18.882   1.623  1.00 20.00     0.051 A 
HETATM    5  S10 UNL     1     -33.283  18.622   0.867  1.00 20.00    -0.087 SA
HETATM    6 BR11 UNL     1     -31.573  19.263   3.473  1.00 20.00    -0.043 Br
ENDROOT
BRANCH   3   7
HETATM    7  C9  UNL     1     -33.397  18.073  -1.855  1.00 20.00     0.026 C 
HETATM    8  C7  UNL     1     -33.296  16.637  -2.374  1.00 20.00     0.010 C 
HETATM    9  C5  UNL     1     -33.880  16.699  -3.783  1.00 20.00     0.001 C 
HETATM   10  C6  UNL     1     -33.789  18.160  -4.225  1.00 20.00     0.001 C 
HETATM   11  C8  UNL     1     -33.069  18.898  -3.101  1.00 20.00     0.010 C 
ENDBRANCH   3   7
TORSDOF 1
ENDMDL
MODEL 3
REMARK VINA RESULT:      -4.2      1.480      2.086
REMARK  1 active torsions:
REMARK  status: ('A' for Active; 'I' for Inactive)
REMARK    1  A    between atoms: C3_3  and  C9_9 
ROOT
HETATM    1  C1  UNL     1     -34.681  18.072  -3.429  1.00 20.00     0.017 A 
HETATM    2  C2  UNL     1     -35.155  17.466  -4.629  1.00 20.00     0.028 A 
HETATM    3  C3  UNL     1     -33.717  17.306  -2.810  1.00 20.00    -0.012 A 
HETATM    4  C4  UNL     1     -34.534  16.261  -4.880  1.00 20.00     0.051 A 
HETATM    5  S10 UNL     1     -33.388  15.865  -3.673  1.00 20.00    -0.087 SA
HETATM    6 BR11 UNL     1     -34.899  15.157  -6.382  1.00 20.00    -0.043 Br
ENDROOT
BRANCH   3   7
HETATM    7  C9  UNL     1     -32.974  17.592  -1.535  1.00 20.00     0.026 C 
HETATM    8  C7  UNL     1     -33.862  17.807  -0.307  1.00 20.00     0.010 C 
HETATM    9  C5  UNL     1     -32.948  18.484   0.711  1.00 20.00     0.001 C 
HETATM   10  C6  UNL     1     -31.803  19.110  -0.085  1.00 20.00     0.001 C 
HETATM   11  C8  UNL     1     -32.126  18.864  -1.556  1.00 20.00     0.010 C 
ENDBRANCH   3   7
TORSDOF 1
ENDMDL
MODEL 4
REMARK VINA RESULT:      -4.2      1.702      2.635
REMARK  1 active torsions:
REMARK  status: ('A' for Active; 'I' for Inactive)
REMARK    1  A    between atoms: C3_3  and  C9_9 
ROOT
HETATM    1  C1  UNL     1     -33.599  15.017  -4.048  1.00 20.00     0.017 A 
HETATM    2  C2  UNL     1     -34.331  14.639  -5.211  1.00 20.00     0.028 A 
HETATM    3  C3  UNL     1     -33.623  16.379  -3.842  1.00 20.00    -0.012 A 
HETATM    4  C4  UNL     1     -34.887  15.727  -5.848  1.00 20.00     0.051 A 
HETATM    5  S10 UNL     1     -34.524  17.195  -5.047  1.00 20.00    -0.087 SA
HETATM    6 BR11 UNL     1     -35.931  15.627  -7.431  1.00 20.00    -0.043 Br
ENDROOT
BRANCH   3   7
HETATM    7  C9  UNL     1     -32.978  17.169  -2.737  1.00 20.00     0.026 C 
HETATM    8  C7  UNL     1     -33.720  17.127  -1.400  1.00 20.00     0.010 C 
HETATM    9  C5  UNL     1     -33.145  18.298  -0.607  1.00 20.00     0.001 C 
HETATM   10  C6  UNL     1     -32.542  19.259  -1.633  1.00 20.00     0.001 C 
HETATM   11  C8  UNL     1     -32.862  18.670  -3.003  1.00 20.00     0.010 C 
ENDBRANCH   3   7
TORSDOF 1
ENDMDL
MODEL 5
REMARK VINA RESULT:      -3.7     12.311     13.471
REMARK  1 active torsions:
REMARK  status: ('A' for Active; 'I' for Inactive)
REMARK    1  A    between atoms: C3_3  and  C9_9 
ROOT
HETATM    1  C1  UNL     1     -42.803  12.526   7.179  1.00 20.00     0.017 A 
HETATM    2  C2  UNL     1     -43.413  13.455   8.071  1.00 20.00     0.028 A 
HETATM    3  C3  UNL     1     -41.499  12.866   6.891  1.00 20.00    -0.012 A 
HETATM    4  C4  UNL     1     -42.552  14.468   8.432  1.00 20.00     0.051 A 
HETATM    5  S10 UNL     1     -41.016  14.299   7.695  1.00 20.00    -0.087 SA
HETATM    6 BR11 UNL     1     -43.000  15.893   9.604  1.00 20.00    -0.043 Br
ENDROOT
BRANCH   3   7
HETATM    7  C9  UNL     1     -40.522  12.152   6.001  1.00 20.00     0.026 C 
HETATM    8  C7  UNL     1     -39.070  12.184   6.483  1.00 20.00     0.010 C 
HETATM    9  C5  UNL     1     -38.250  11.798   5.254  1.00 20.00     0.001 C 
HETATM   10  C6  UNL     1     -39.134  12.084   4.039  1.00 20.00     0.001 C 
HETATM   11  C8  UNL     1     -40.411  12.716   4.583  1.00 20.00     0.010 C 
ENDBRANCH   3   7
TORSDOF 1
ENDMDL
MODEL 6
REMARK VINA RESULT:      -3.7      2.843      5.887
REMARK  1 active torsions:
REMARK  status: ('A' for Active; 'I' for Inactive)
REMARK    1  A    between atoms: C3_3  and  C9_9 
ROOT
HETATM    1  C1  UNL     1     -33.453  16.364  -3.180  1.00 20.00     0.017 A 
HETATM    2  C2  UNL     1     -33.309  16.977  -1.902  1.00 20.00     0.028 A 
HETATM    3  C3  UNL     1     -34.375  17.020  -3.967  1.00 20.00    -0.012 A 
HETATM    4  C4  UNL     1     -34.126  18.078  -1.761  1.00 20.00     0.051 A 
HETATM    5  S10 UNL     1     -35.061  18.367  -3.164  1.00 20.00    -0.087 SA
HETATM    6 BR11 UNL     1     -34.216  19.156  -0.200  1.00 20.00    -0.043 Br
ENDROOT
BRANCH   3   7
HETATM    7  C9  UNL     1     -34.810  16.692  -5.367  1.00 20.00     0.026 C 
HETATM    8  C7  UNL     1     -36.284  16.975  -5.666  1.00 20.00     0.010 C 
HETATM    9  C5  UNL     1     -36.573  16.187  -6.942  1.00 20.00     0.001 C 
HETATM   10  C6  UNL     1     -35.502  15.099  -7.030  1.00 20.00     0.001 C 
HETATM   11  C8  UNL     1     -34.671  15.219  -5.756  1.00 20.00     0.010 C 
ENDBRANCH   3   7
TORSDOF 1
ENDMDL
MODEL 7
REMARK VINA RESULT:      -3.6     12.416     13.644
REMARK  1 active torsions:
REMARK  status: ('A' for Active; 'I' for Inactive)
REMARK    1  A    between atoms: C3_3  and  C9_9 
ROOT
HETATM    1  C1  UNL     1     -42.362  13.220   7.293  1.00 20.00     0.017 A 
HETATM    2  C2  UNL     1     -43.010  13.685   8.474  1.00 20.00     0.028 A 
HETATM    3  C3  UNL     1     -41.030  13.571   7.262  1.00 20.00    -0.012 A 
HETATM    4  C4  UNL     1     -42.147  14.372   9.300  1.00 20.00     0.051 A 
HETATM    5  S10 UNL     1     -40.566  14.456   8.652  1.00 20.00    -0.087 SA
HETATM    6 BR11 UNL     1     -42.640  15.143  10.964  1.00 20.00    -0.043 Br
ENDROOT
BRANCH   3   7
HETATM    7  C9  UNL     1     -40.010  13.273   6.199  1.00 20.00     0.026 C 
HETATM    8  C7  UNL     1     -40.589  12.778   4.872  1.00 20.00     0.010 C 
HETATM    9  C5  UNL     1     -39.400  12.154   4.145  1.00 20.00     0.001 C 
HETATM   10  C6  UNL     1     -38.364  11.820   5.220  1.00 20.00     0.001 C 
HETATM   11  C8  UNL     1     -39.012  12.170   6.556  1.00 20.00     0.010 C 
ENDBRANCH   3   7
TORSDOF 1
ENDMDL
MODEL 8
REMARK VINA RESULT:      -3.5      3.012      5.383
REMARK  1 active torsions:
REMARK  status: ('A' for Active; 'I' for Inactive)
REMARK    1  A    between atoms: C3_3  and  C9_9 
ROOT
HETATM    1  C1  UNL     1     -35.191  18.698  -2.808  1.00 20.00     0.017 A 
HETATM    2  C2  UNL     1     -35.175  19.263  -1.500  1.00 20.00     0.028 A 
HETATM    3  C3  UNL     1     -34.232  17.720  -2.961  1.00 20.00    -0.012 A 
HETATM    4  C4  UNL     1     -34.205  18.694  -0.703  1.00 20.00     0.051 A 
HETATM    5  S10 UNL     1     -33.319  17.487  -1.532  1.00 20.00    -0.087 SA
HETATM    6 BR11 UNL     1     -33.875  19.183   1.102  1.00 20.00    -0.043 Br
ENDROOT
BRANCH   3   7
HETATM    7  C9  UNL     1     -33.928  16.891  -4.177  1.00 20.00     0.026 C 
HETATM    8  C7  UNL     1     -35.090  16.745  -5.162  1.00 20.00     0.010 C 
HETATM    9  C5  UNL     1     -34.697  15.560  -6.042  1.00 20.00     0.001 C 
HETATM   10  C6  UNL     1     -33.667  14.755  -5.248  1.00 20.00     0.001 C 
HETATM   11  C8  UNL     1     -33.555  15.437  -3.888  1.00 20.00     0.010 C 
ENDBRANCH   3   7
TORSDOF 1
ENDMDL
MODEL 9
REMARK VINA RESULT:      -3.4     11.478     12.373
REMARK  1 active torsions:
REMARK  status: ('A' for Active; 'I' for Inactive)
REMARK    1  A    between atoms: C3_3  and  C9_9 
ROOT
HETATM    1  C1  UNL     1     -32.942   8.640   5.055  1.00 20.00     0.017 A 
HETATM    2  C2  UNL     1     -33.530   7.798   6.044  1.00 20.00     0.028 A 
HETATM    3  C3  UNL     1     -32.859   8.016   3.830  1.00 20.00    -0.012 A 
HETATM    4  C4  UNL     1     -33.873   6.565   5.536  1.00 20.00     0.051 A 
HETATM    5  S10 UNL     1     -33.486   6.424   3.874  1.00 20.00    -0.087 SA
HETATM    6 BR11 UNL     1     -34.679   5.173   6.546  1.00 20.00    -0.043 Br
ENDROOT
BRANCH   3   7
HETATM    7  C9  UNL     1     -32.308   8.559   2.541  1.00 20.00     0.026 C 
HETATM    8  C7  UNL     1     -33.152   9.657   1.892  1.00 20.00     0.010 C 
HETATM    9  C5  UNL     1     -32.648   9.727   0.453  1.00 20.00     0.001 C 
HETATM   10  C6  UNL     1     -31.970   8.386   0.167  1.00 20.00     0.001 C 
HETATM   11  C8  UNL     1     -32.179   7.532   1.414  1.00 20.00     0.010 C 
ENDBRANCH   3   7
TORSDOF 1
ENDMDL
