MODEL 1
REMARK VINA RESULT:      -4.4      0.000      0.000
REMARK  1 active torsions:
REMARK  status: ('A' for Active; 'I' for Inactive)
REMARK    1  A    between atoms: C4_4  and  C5_5 
ROOT
HETATM    1  C1  UNL     1     -33.000   8.081   4.646  1.00 20.00     0.059 C 
HETATM    2  C5  UNL     1     -33.575   7.459   5.835  1.00 20.00     0.132 C 
HETATM    3  N6  UNL     1     -32.531   8.588   3.714  1.00 20.00    -0.197 NA
ENDROOT
BRANCH   2   4
HETATM    4  C4  UNL     1     -34.561   6.442   5.299  1.00 20.00     0.046 C 
HETATM    5  C2  UNL     1     -34.627   5.097   6.030  1.00 20.00     0.175 C 
HETATM    6  O7  UNL     1     -34.426   4.372   4.791  1.00 20.00    -0.390 OA
HETATM    7  C3  UNL     1     -34.101   5.604   4.102  1.00 20.00     0.175 C 
ENDBRANCH   2   4
TORSDOF 1
ENDMDL
MODEL 2
REMARK VINA RESULT:      -4.2      2.644      3.440
REMARK  1 active torsions:
REMARK  status: ('A' for Active; 'I' for Inactive)
REMARK    1  A    between atoms: C4_4  and  C5_5 
ROOT
HETATM    1  C1  UNL     1     -34.502   5.708   5.418  1.00 20.00     0.059 C 
HETATM    2  C5  UNL     1     -34.059   6.972   5.999  1.00 20.00     0.132 C 
HETATM    3  N6  UNL     1     -34.858   4.695   4.976  1.00 20.00    -0.197 NA
ENDROOT
BRANCH   2   4
HETATM    4  C4  UNL     1     -33.653   7.819   4.811  1.00 20.00     0.046 C 
HETATM    5  C2  UNL     1     -32.779   7.142   3.750  1.00 20.00     0.175 C 
HETATM    6  O7  UNL     1     -31.794   8.202   3.831  1.00 20.00    -0.390 OA
HETATM    7  C3  UNL     1     -32.445   8.742   5.007  1.00 20.00     0.175 C 
ENDBRANCH   2   4
TORSDOF 1
ENDMDL
MODEL 3
REMARK VINA RESULT:      -4.0      1.199      1.396
REMARK  1 active torsions:
REMARK  status: ('A' for Active; 'I' for Inactive)
REMARK    1  A    between atoms: C4_4  and  C5_5 
ROOT
HETATM    1  C1  UNL     1     -32.595   8.163   4.486  1.00 20.00     0.059 C 
HETATM    2  C5  UNL     1     -33.101   6.901   3.953  1.00 20.00     0.132 C 
HETATM    3  N6  UNL     1     -32.176   9.165   4.895  1.00 20.00    -0.197 NA
ENDROOT
BRANCH   2   4
HETATM    4  C4  UNL     1     -34.331   6.600   4.783  1.00 20.00     0.046 C 
HETATM    5  C2  UNL     1     -34.144   6.564   6.303  1.00 20.00     0.175 C 
HETATM    6  O7  UNL     1     -34.744   5.248   6.384  1.00 20.00    -0.390 OA
HETATM    7  C3  UNL     1     -34.709   5.123   4.941  1.00 20.00     0.175 C 
ENDBRANCH   2   4
TORSDOF 1
ENDMDL
MODEL 4
REMARK VINA RESULT:      -3.9      0.556      1.233
REMARK  1 active torsions:
REMARK  status: ('A' for Active; 'I' for Inactive)
REMARK    1  A    between atoms: C4_4  and  C5_5 
ROOT
HETATM    1  C1  UNL     1     -32.968   8.361   4.890  1.00 20.00     0.059 C 
HETATM    2  C5  UNL     1     -33.895   7.733   5.826  1.00 20.00     0.132 C 
HETATM    3  N6  UNL     1     -32.239   8.880   4.151  1.00 20.00    -0.197 NA
ENDROOT
BRANCH   2   4
HETATM    4  C4  UNL     1     -33.715   6.246   5.607  1.00 20.00     0.046 C 
HETATM    5  C2  UNL     1     -34.230   5.679   4.280  1.00 20.00     0.175 C 
HETATM    6  O7  UNL     1     -35.012   4.673   4.970  1.00 20.00    -0.390 OA
HETATM    7  C3  UNL     1     -34.764   5.325   6.240  1.00 20.00     0.175 C 
ENDBRANCH   2   4
TORSDOF 1
ENDMDL
MODEL 5
REMARK VINA RESULT:      -3.8      2.676      3.418
REMARK  1 active torsions:
REMARK  status: ('A' for Active; 'I' for Inactive)
REMARK    1  A    between atoms: C4_4  and  C5_5 
ROOT
HETATM    1  C1  UNL     1     -34.522   5.691   5.362  1.00 20.00     0.059 C 
HETATM    2  C5  UNL     1     -34.233   6.987   5.968  1.00 20.00     0.132 C 
HETATM    3  N6  UNL     1     -34.769   4.658   4.892  1.00 20.00    -0.197 NA
ENDROOT
BRANCH   2   4
HETATM    4  C4  UNL     1     -32.948   7.442   5.308  1.00 20.00     0.046 C 
HETATM    5  C2  UNL     1     -32.819   8.940   5.016  1.00 20.00     0.175 C 
HETATM    6  O7  UNL     1     -32.504   8.680   3.626  1.00 20.00    -0.390 OA
HETATM    7  C3  UNL     1     -32.864   7.286   3.786  1.00 20.00     0.175 C 
ENDBRANCH   2   4
TORSDOF 1
ENDMDL
MODEL 6
REMARK VINA RESULT:      -3.7      1.531      2.253
REMARK  1 active torsions:
REMARK  status: ('A' for Active; 'I' for Inactive)
REMARK    1  A    between atoms: C4_4  and  C5_5 
ROOT
HETATM    1  C1  UNL     1     -32.818   6.475   3.103  1.00 20.00     0.059 C 
HETATM    2  C5  UNL     1     -33.644   5.408   3.659  1.00 20.00     0.132 C 
HETATM    3  N6  UNL     1     -32.152   7.309   2.648  1.00 20.00    -0.197 NA
ENDROOT
BRANCH   2   4
HETATM    4  C4  UNL     1     -34.541   6.099   4.664  1.00 20.00     0.046 C 
HETATM    5  C2  UNL     1     -33.909   7.221   5.493  1.00 20.00     0.175 C 
HETATM    6  O7  UNL     1     -34.343   6.603   6.730  1.00 20.00    -0.390 OA
HETATM    7  C3  UNL     1     -34.726   5.402   6.016  1.00 20.00     0.175 C 
ENDBRANCH   2   4
TORSDOF 1
ENDMDL
MODEL 7
REMARK VINA RESULT:      -3.6      1.811      2.144
REMARK  1 active torsions:
REMARK  status: ('A' for Active; 'I' for Inactive)
REMARK    1  A    between atoms: C4_4  and  C5_5 
ROOT
HETATM    1  C1  UNL     1     -32.903   6.132   3.211  1.00 20.00     0.059 C 
HETATM    2  C5  UNL     1     -32.945   7.324   4.053  1.00 20.00     0.132 C 
HETATM    3  N6  UNL     1     -32.851   5.193   2.531  1.00 20.00    -0.197 NA
ENDROOT
BRANCH   2   4
HETATM    4  C4  UNL     1     -34.181   7.144   4.911  1.00 20.00     0.046 C 
HETATM    5  C2  UNL     1     -33.949   6.828   6.392  1.00 20.00     0.175 C 
HETATM    6  O7  UNL     1     -34.807   5.662   6.316  1.00 20.00    -0.390 OA
HETATM    7  C3  UNL     1     -34.851   5.766   4.872  1.00 20.00     0.175 C 
ENDBRANCH   2   4
TORSDOF 1
ENDMDL
MODEL 8
REMARK VINA RESULT:      -3.4      2.701      3.603
REMARK  1 active torsions:
REMARK  status: ('A' for Active; 'I' for Inactive)
REMARK    1  A    between atoms: C4_4  and  C5_5 
ROOT
HETATM    1  C1  UNL     1     -34.474   5.523   5.410  1.00 20.00     0.059 C 
HETATM    2  C5  UNL     1     -33.960   5.718   4.058  1.00 20.00     0.132 C 
HETATM    3  N6  UNL     1     -34.886   5.347   6.481  1.00 20.00    -0.197 NA
ENDROOT
BRANCH   2   4
HETATM    4  C4  UNL     1     -33.633   7.194   3.980  1.00 20.00     0.046 C 
HETATM    5  C2  UNL     1     -32.281   7.567   3.364  1.00 20.00     0.175 C 
HETATM    6  O7  UNL     1     -31.932   8.366   4.522  1.00 20.00    -0.390 OA
HETATM    7  C3  UNL     1     -33.069   7.842   5.249  1.00 20.00     0.175 C 
ENDBRANCH   2   4
TORSDOF 1
ENDMDL
MODEL 9
REMARK VINA RESULT:      -3.3     16.172     17.062
REMARK  1 active torsions:
REMARK  status: ('A' for Active; 'I' for Inactive)
REMARK    1  A    between atoms: C4_4  and  C5_5 
ROOT
HETATM    1  C1  UNL     1     -21.599  17.699   8.689  1.00 20.00     0.059 C 
HETATM    2  C5  UNL     1     -21.293  18.416   9.923  1.00 20.00     0.132 C 
HETATM    3  N6  UNL     1     -21.822  17.131   7.702  1.00 20.00    -0.197 NA
ENDROOT
BRANCH   2   4
HETATM    4  C4  UNL     1     -22.617  18.514  10.650  1.00 20.00     0.046 C 
HETATM    5  C2  UNL     1     -22.576  18.373  12.176  1.00 20.00     0.175 C 
HETATM    6  O7  UNL     1     -23.580  17.327  12.143  1.00 20.00    -0.390 OA
HETATM    7  C3  UNL     1     -23.469  17.241  10.702  1.00 20.00     0.175 C 
ENDBRANCH   2   4
TORSDOF 1
ENDMDL
