MODEL 1
REMARK VINA RESULT:      -4.4      0.000      0.000
REMARK  1 active torsions:
REMARK  status: ('A' for Active; 'I' for Inactive)
REMARK    1  A    between atoms: C2_2  and  C6_6 
ROOT
HETATM    1  C1  UNL     1     -32.157   8.676   3.949  1.00 20.00     0.167 A 
HETATM    2  C2  UNL     1     -33.718   6.940   4.544  1.00 20.00     0.024 A 
HETATM    3  C3  UNL     1     -32.914   6.678   3.455  1.00 20.00     0.116 A 
HETATM    4  N7  UNL     1     -32.019   7.672   3.112  1.00 20.00    -0.245 NA
HETATM    5  S8  UNL     1     -33.345   8.492   5.174  1.00 20.00    -0.084 SA
HETATM    6 BR9  UNL     1     -32.976   5.073   2.443  1.00 20.00    -0.028 Br
ENDROOT
BRANCH   2   7
HETATM    7  C6  UNL     1     -34.793   6.013   5.135  1.00 20.00     0.028 A 
HETATM    8  C4  UNL     1     -34.954   5.959   6.636  1.00 20.00     0.010 A 
HETATM    9  C5  UNL     1     -34.349   4.796   5.913  1.00 20.00     0.010 A 
ENDBRANCH   2   7
TORSDOF 1
ENDMDL
MODEL 2
REMARK VINA RESULT:      -4.3      1.850      3.417
REMARK  1 active torsions:
REMARK  status: ('A' for Active; 'I' for Inactive)
REMARK    1  A    between atoms: C2_2  and  C6_6 
ROOT
HETATM    1  C1  UNL     1     -34.722   5.024   6.112  1.00 20.00     0.167 A 
HETATM    2  C2  UNL     1     -33.792   6.787   4.760  1.00 20.00     0.024 A 
HETATM    3  C3  UNL     1     -33.813   5.535   4.183  1.00 20.00     0.116 A 
HETATM    4  N7  UNL     1     -34.345   4.523   4.957  1.00 20.00    -0.245 NA
HETATM    5  S8  UNL     1     -34.465   6.706   6.336  1.00 20.00    -0.084 SA
HETATM    6 BR9  UNL     1     -33.169   5.152   2.439  1.00 20.00    -0.028 Br
ENDROOT
BRANCH   2   7
HETATM    7  C6  UNL     1     -33.256   8.081   4.124  1.00 20.00     0.028 A 
HETATM    8  C4  UNL     1     -31.805   8.134   3.707  1.00 20.00     0.010 A 
HETATM    9  C5  UNL     1     -32.261   8.910   4.903  1.00 20.00     0.010 A 
ENDBRANCH   2   7
TORSDOF 1
ENDMDL
MODEL 3
REMARK VINA RESULT:      -3.6      2.190      2.303
REMARK  1 active torsions:
REMARK  status: ('A' for Active; 'I' for Inactive)
REMARK    1  A    between atoms: C2_2  and  C6_6 
ROOT
HETATM    1  C1  UNL     1     -32.095   6.588   2.413  1.00 20.00     0.167 A 
HETATM    2  C2  UNL     1     -33.731   6.328   4.162  1.00 20.00     0.024 A 
HETATM    3  C3  UNL     1     -33.025   7.512   4.170  1.00 20.00     0.116 A 
HETATM    4  N7  UNL     1     -32.086   7.663   3.168  1.00 20.00    -0.245 NA
HETATM    5  S8  UNL     1     -33.207   5.356   2.849  1.00 20.00    -0.084 SA
HETATM    6 BR9  UNL     1     -33.274   8.895   5.446  1.00 20.00    -0.028 Br
ENDROOT
BRANCH   2   7
HETATM    7  C6  UNL     1     -34.825   5.905   5.156  1.00 20.00     0.028 A 
HETATM    8  C4  UNL     1     -34.657   6.271   6.613  1.00 20.00     0.010 A 
HETATM    9  C5  UNL     1     -34.497   4.846   6.184  1.00 20.00     0.010 A 
ENDBRANCH   2   7
TORSDOF 1
ENDMDL
MODEL 4
REMARK VINA RESULT:      -3.3     12.763     13.403
REMARK  1 active torsions:
REMARK  status: ('A' for Active; 'I' for Inactive)
REMARK    1  A    between atoms: C2_2  and  C6_6 
ROOT
HETATM    1  C1  UNL     1     -35.229  18.553  -4.874  1.00 20.00     0.167 A 
HETATM    2  C2  UNL     1     -34.140  17.578  -2.960  1.00 20.00     0.024 A 
HETATM    3  C3  UNL     1     -34.128  16.818  -4.110  1.00 20.00     0.116 A 
HETATM    4  N7  UNL     1     -34.752  17.374  -5.209  1.00 20.00    -0.245 NA
HETATM    5  S8  UNL     1     -34.963  19.054  -3.255  1.00 20.00    -0.084 SA
HETATM    6 BR9  UNL     1     -33.322  15.104  -4.249  1.00 20.00    -0.028 Br
ENDROOT
BRANCH   2   7
HETATM    7  C6  UNL     1     -33.523  17.199  -1.603  1.00 20.00     0.028 A 
HETATM    8  C4  UNL     1     -33.754  18.116  -0.423  1.00 20.00     0.010 A 
HETATM    9  C5  UNL     1     -32.399  18.050  -1.057  1.00 20.00     0.010 A 
ENDBRANCH   2   7
TORSDOF 1
ENDMDL
MODEL 5
REMARK VINA RESULT:      -3.3      2.657      3.809
REMARK  1 active torsions:
REMARK  status: ('A' for Active; 'I' for Inactive)
REMARK    1  A    between atoms: C2_2  and  C6_6 
ROOT
HETATM    1  C1  UNL     1     -33.512   4.244   3.269  1.00 20.00     0.167 A 
HETATM    2  C2  UNL     1     -33.586   6.510   4.083  1.00 20.00     0.024 A 
HETATM    3  C3  UNL     1     -34.135   5.555   4.912  1.00 20.00     0.116 A 
HETATM    4  N7  UNL     1     -34.094   4.255   4.447  1.00 20.00    -0.245 NA
HETATM    5  S8  UNL     1     -32.989   5.761   2.660  1.00 20.00    -0.084 SA
HETATM    6 BR9  UNL     1     -34.916   5.929   6.602  1.00 20.00    -0.028 Br
ENDROOT
BRANCH   2   7
HETATM    7  C6  UNL     1     -33.502   8.021   4.354  1.00 20.00     0.028 A 
HETATM    8  C4  UNL     1     -32.562   8.855   3.514  1.00 20.00     0.010 A 
HETATM    9  C5  UNL     1     -32.229   8.579   4.947  1.00 20.00     0.010 A 
ENDBRANCH   2   7
TORSDOF 1
ENDMDL
MODEL 6
REMARK VINA RESULT:      -3.3      2.609      3.739
REMARK  1 active torsions:
REMARK  status: ('A' for Active; 'I' for Inactive)
REMARK    1  A    between atoms: C2_2  and  C6_6 
ROOT
HETATM    1  C1  UNL     1     -34.674   5.953   6.649  1.00 20.00     0.167 A 
HETATM    2  C2  UNL     1     -33.919   6.309   4.389  1.00 20.00     0.024 A 
HETATM    3  C3  UNL     1     -33.595   7.298   5.294  1.00 20.00     0.116 A 
HETATM    4  N7  UNL     1     -34.028   7.096   6.590  1.00 20.00    -0.245 NA
HETATM    5  S8  UNL     1     -34.800   5.070   5.183  1.00 20.00    -0.084 SA
HETATM    6 BR9  UNL     1     -32.617   8.866   4.858  1.00 20.00    -0.028 Br
ENDROOT
BRANCH   2   7
HETATM    7  C6  UNL     1     -33.565   6.284   2.893  1.00 20.00     0.028 A 
HETATM    8  C4  UNL     1     -32.847   5.074   2.341  1.00 20.00     0.010 A 
HETATM    9  C5  UNL     1     -32.109   6.367   2.494  1.00 20.00     0.010 A 
ENDBRANCH   2   7
TORSDOF 1
ENDMDL
MODEL 7
REMARK VINA RESULT:      -3.3     10.608     10.948
REMARK  1 active torsions:
REMARK  status: ('A' for Active; 'I' for Inactive)
REMARK    1  A    between atoms: C2_2  and  C6_6 
ROOT
HETATM    1  C1  UNL     1     -41.266  15.804   7.777  1.00 20.00     0.167 A 
HETATM    2  C2  UNL     1     -41.044  13.764   6.516  1.00 20.00     0.024 A 
HETATM    3  C3  UNL     1     -41.821  14.746   5.938  1.00 20.00     0.116 A 
HETATM    4  N7  UNL     1     -41.950  15.916   6.660  1.00 20.00    -0.245 NA
HETATM    5  S8  UNL     1     -40.444  14.318   8.024  1.00 20.00    -0.084 SA
HETATM    6 BR9  UNL     1     -42.688  14.572   4.259  1.00 20.00    -0.028 Br
ENDROOT
BRANCH   2   7
HETATM    7  C6  UNL     1     -40.739  12.374   5.932  1.00 20.00     0.028 A 
HETATM    8  C4  UNL     1     -39.374  11.773   6.175  1.00 20.00     0.010 A 
HETATM    9  C5  UNL     1     -39.733  12.268   4.809  1.00 20.00     0.010 A 
ENDBRANCH   2   7
TORSDOF 1
ENDMDL
MODEL 8
REMARK VINA RESULT:      -3.2     10.707     11.026
REMARK  1 active torsions:
REMARK  status: ('A' for Active; 'I' for Inactive)
REMARK    1  A    between atoms: C2_2  and  C6_6 
ROOT
HETATM    1  C1  UNL     1     -42.448  15.778   5.472  1.00 20.00     0.167 A 
HETATM    2  C2  UNL     1     -41.305  13.715   5.960  1.00 20.00     0.024 A 
HETATM    3  C3  UNL     1     -41.267  14.672   6.952  1.00 20.00     0.116 A 
HETATM    4  N7  UNL     1     -41.922  15.856   6.674  1.00 20.00    -0.245 NA
HETATM    5  S8  UNL     1     -42.195  14.310   4.620  1.00 20.00    -0.084 SA
HETATM    6 BR9  UNL     1     -40.391  14.447   8.621  1.00 20.00    -0.028 Br
ENDROOT
BRANCH   2   7
HETATM    7  C6  UNL     1     -40.662  12.319   6.008  1.00 20.00     0.028 A 
HETATM    8  C4  UNL     1     -39.171  12.218   6.236  1.00 20.00     0.010 A 
HETATM    9  C5  UNL     1     -39.736  11.911   4.884  1.00 20.00     0.010 A 
ENDBRANCH   2   7
TORSDOF 1
ENDMDL
MODEL 9
REMARK VINA RESULT:      -3.2      2.326      2.781
REMARK  1 active torsions:
REMARK  status: ('A' for Active; 'I' for Inactive)
REMARK    1  A    between atoms: C2_2  and  C6_6 
ROOT
HETATM    1  C1  UNL     1     -32.309   8.943   4.784  1.00 20.00     0.167 A 
HETATM    2  C2  UNL     1     -33.320   6.915   3.969  1.00 20.00     0.024 A 
HETATM    3  C3  UNL     1     -33.571   7.223   5.289  1.00 20.00     0.116 A 
HETATM    4  N7  UNL     1     -32.992   8.386   5.759  1.00 20.00    -0.245 NA
HETATM    5  S8  UNL     1     -32.321   8.124   3.276  1.00 20.00    -0.084 SA
HETATM    6 BR9  UNL     1     -34.637   6.164   6.450  1.00 20.00    -0.028 Br
ENDROOT
BRANCH   2   7
HETATM    7  C6  UNL     1     -33.837   5.687   3.200  1.00 20.00     0.028 A 
HETATM    8  C4  UNL     1     -33.589   4.314   3.780  1.00 20.00     0.010 A 
HETATM    9  C5  UNL     1     -32.830   4.754   2.567  1.00 20.00     0.010 A 
ENDBRANCH   2   7
TORSDOF 1
ENDMDL
