MODEL 1
REMARK VINA RESULT:      -3.7      0.000      0.000
REMARK  0 active torsions:
REMARK  status: ('A' for Active; 'I' for Inactive)
ROOT
HETATM    1  C1  UNL     1     -24.555  19.037   9.038  1.00 20.00     0.136 C 
HETATM    2  C2  UNL     1     -25.118  18.881  10.436  1.00 20.00     0.088 C 
HETATM    3  C3  UNL     1     -23.066  19.009   8.862  1.00 20.00     0.152 C 
HETATM    4  C4  UNL     1     -23.631  16.814  10.514  1.00 20.00     0.083 C 
HETATM    5  C5  UNL     1     -24.327  17.913  11.344  1.00 20.00    -0.033 C 
HETATM    6  C6  UNL     1     -25.323  17.223  12.303  1.00 20.00     0.016 C 
HETATM    7  C7  UNL     1     -23.318  18.683  12.222  1.00 20.00     0.016 C 
HETATM    8  O8  UNL     1     -25.300  19.262   8.081  1.00 20.00    -0.297 OA
HETATM    9  S9  UNL     1     -22.398  17.389   9.296  1.00 20.00    -0.161 SA
ENDROOT
TORSDOF 0
ENDMDL
MODEL 2
REMARK VINA RESULT:      -3.5     15.330     16.518
REMARK  0 active torsions:
REMARK  status: ('A' for Active; 'I' for Inactive)
ROOT
HETATM    1  C1  UNL     1     -33.617  16.203  -3.740  1.00 20.00     0.136 C 
HETATM    2  C2  UNL     1     -33.282  16.625  -2.324  1.00 20.00     0.088 C 
HETATM    3  C3  UNL     1     -34.617  17.015  -4.508  1.00 20.00     0.152 C 
HETATM    4  C4  UNL     1     -32.875  18.905  -3.386  1.00 20.00     0.083 C 
HETATM    5  C5  UNL     1     -33.262  18.153  -2.095  1.00 20.00    -0.033 C 
HETATM    6  C6  UNL     1     -32.195  18.471  -1.023  1.00 20.00     0.016 C 
HETATM    7  C7  UNL     1     -34.616  18.644  -1.539  1.00 20.00     0.016 C 
HETATM    8  O8  UNL     1     -33.140  15.172  -4.219  1.00 20.00    -0.297 OA
HETATM    9  S9  UNL     1     -33.995  18.682  -4.811  1.00 20.00    -0.161 SA
ENDROOT
TORSDOF 0
ENDMDL
MODEL 3
REMARK VINA RESULT:      -3.3     18.483     19.710
REMARK  0 active torsions:
REMARK  status: ('A' for Active; 'I' for Inactive)
ROOT
HETATM    1  C1  UNL     1     -35.219  14.026  -4.884  1.00 20.00     0.136 C 
HETATM    2  C2  UNL     1     -35.858  14.631  -6.118  1.00 20.00     0.088 C 
HETATM    3  C3  UNL     1     -33.847  14.489  -4.492  1.00 20.00     0.152 C 
HETATM    4  C4  UNL     1     -35.277  16.848  -5.004  1.00 20.00     0.083 C 
HETATM    5  C5  UNL     1     -35.536  16.126  -6.342  1.00 20.00    -0.033 C 
HETATM    6  C6  UNL     1     -36.759  16.792  -7.011  1.00 20.00     0.016 C 
HETATM    7  C7  UNL     1     -34.348  16.292  -7.314  1.00 20.00     0.016 C 
HETATM    8  O8  UNL     1     -35.780  13.120  -4.266  1.00 20.00    -0.297 OA
HETATM    9  S9  UNL     1     -33.867  16.232  -4.020  1.00 20.00    -0.161 SA
ENDROOT
TORSDOF 0
ENDMDL
MODEL 4
REMARK VINA RESULT:      -3.3     17.116     18.313
REMARK  0 active torsions:
REMARK  status: ('A' for Active; 'I' for Inactive)
ROOT
HETATM    1  C1  UNL     1     -33.556  16.525  -3.240  1.00 20.00     0.136 C 
HETATM    2  C2  UNL     1     -33.948  15.211  -3.884  1.00 20.00     0.088 C 
HETATM    3  C3  UNL     1     -33.290  17.703  -4.129  1.00 20.00     0.152 C 
HETATM    4  C4  UNL     1     -35.700  16.626  -5.075  1.00 20.00     0.083 C 
HETATM    5  C5  UNL     1     -34.835  15.350  -5.142  1.00 20.00    -0.033 C 
HETATM    6  C6  UNL     1     -35.787  14.134  -5.202  1.00 20.00     0.016 C 
HETATM    7  C7  UNL     1     -33.979  15.313  -6.426  1.00 20.00     0.016 C 
HETATM    8  O8  UNL     1     -33.382  16.601  -2.022  1.00 20.00    -0.297 OA
HETATM    9  S9  UNL     1     -34.792  18.207  -4.994  1.00 20.00    -0.161 SA
ENDROOT
TORSDOF 0
ENDMDL
MODEL 5
REMARK VINA RESULT:      -3.1     15.597     16.222
REMARK  0 active torsions:
REMARK  status: ('A' for Active; 'I' for Inactive)
ROOT
HETATM    1  C1  UNL     1     -32.673   7.640   4.111  1.00 20.00     0.136 C 
HETATM    2  C2  UNL     1     -33.255   6.338   3.598  1.00 20.00     0.088 C 
HETATM    3  C3  UNL     1     -33.533   8.513   4.974  1.00 20.00     0.152 C 
HETATM    4  C4  UNL     1     -33.827   5.939   6.048  1.00 20.00     0.083 C 
HETATM    5  C5  UNL     1     -34.204   5.624   4.586  1.00 20.00    -0.033 C 
HETATM    6  C6  UNL     1     -34.063   4.099   4.378  1.00 20.00     0.016 C 
HETATM    7  C7  UNL     1     -35.676   5.983   4.291  1.00 20.00     0.016 C 
HETATM    8  O8  UNL     1     -31.550   8.008   3.761  1.00 20.00    -0.297 OA
HETATM    9  S9  UNL     1     -33.915   7.696   6.538  1.00 20.00    -0.161 SA
ENDROOT
TORSDOF 0
ENDMDL
MODEL 6
REMARK VINA RESULT:      -3.0     23.732     24.265
REMARK  0 active torsions:
REMARK  status: ('A' for Active; 'I' for Inactive)
ROOT
HETATM    1  C1  UNL     1     -42.799   4.998  -0.376  1.00 20.00     0.136 C 
HETATM    2  C2  UNL     1     -42.119   6.283  -0.802  1.00 20.00     0.088 C 
HETATM    3  C3  UNL     1     -42.639   4.545   1.045  1.00 20.00     0.152 C 
HETATM    4  C4  UNL     1     -43.294   7.266   1.233  1.00 20.00     0.083 C 
HETATM    5  C5  UNL     1     -42.086   7.385   0.281  1.00 20.00    -0.033 C 
HETATM    6  C6  UNL     1     -42.168   8.759  -0.420  1.00 20.00     0.016 C 
HETATM    7  C7  UNL     1     -40.750   7.355   1.055  1.00 20.00     0.016 C 
HETATM    8  O8  UNL     1     -43.401   4.303  -1.197  1.00 20.00    -0.297 OA
HETATM    9  S9  UNL     1     -43.417   5.711   2.183  1.00 20.00    -0.161 SA
ENDROOT
TORSDOF 0
ENDMDL
MODEL 7
REMARK VINA RESULT:      -3.0     19.445     20.351
REMARK  0 active torsions:
REMARK  status: ('A' for Active; 'I' for Inactive)
ROOT
HETATM    1  C1  UNL     1     -25.012  -1.494  12.022  1.00 20.00     0.136 C 
HETATM    2  C2  UNL     1     -26.208  -0.604  11.750  1.00 20.00     0.088 C 
HETATM    3  C3  UNL     1     -25.256  -2.941  12.332  1.00 20.00     0.152 C 
HETATM    4  C4  UNL     1     -26.837  -2.418  10.074  1.00 20.00     0.083 C 
HETATM    5  C5  UNL     1     -27.364  -1.294  10.991  1.00 20.00    -0.033 C 
HETATM    6  C6  UNL     1     -28.057  -0.240  10.098  1.00 20.00     0.016 C 
HETATM    7  C7  UNL     1     -28.431  -1.820  11.974  1.00 20.00     0.016 C 
HETATM    8  O8  UNL     1     -23.874  -1.022  12.067  1.00 20.00    -0.297 OA
HETATM    9  S9  UNL     1     -25.969  -3.792  10.908  1.00 20.00    -0.161 SA
ENDROOT
TORSDOF 0
ENDMDL
MODEL 8
REMARK VINA RESULT:      -3.0     15.453     16.102
REMARK  0 active torsions:
REMARK  status: ('A' for Active; 'I' for Inactive)
ROOT
HETATM    1  C1  UNL     1     -34.216   5.900   5.766  1.00 20.00     0.136 C 
HETATM    2  C2  UNL     1     -33.804   7.354   5.883  1.00 20.00     0.088 C 
HETATM    3  C3  UNL     1     -34.780   5.422   4.462  1.00 20.00     0.152 C 
HETATM    4  C4  UNL     1     -32.484   6.872   3.757  1.00 20.00     0.083 C 
HETATM    5  C5  UNL     1     -33.193   7.955   4.597  1.00 20.00    -0.033 C 
HETATM    6  C6  UNL     1     -32.136   9.005   5.006  1.00 20.00     0.016 C 
HETATM    7  C7  UNL     1     -34.267   8.697   3.773  1.00 20.00     0.016 C 
HETATM    8  O8  UNL     1     -34.164   5.152   6.744  1.00 20.00    -0.297 OA
HETATM    9  S9  UNL     1     -33.537   5.508   3.154  1.00 20.00    -0.161 SA
ENDROOT
TORSDOF 0
ENDMDL
MODEL 9
REMARK VINA RESULT:      -3.0     18.116     19.079
REMARK  0 active torsions:
REMARK  status: ('A' for Active; 'I' for Inactive)
ROOT
HETATM    1  C1  UNL     1     -34.195  14.912  -4.598  1.00 20.00     0.136 C 
HETATM    2  C2  UNL     1     -34.060  16.357  -4.161  1.00 20.00     0.088 C 
HETATM    3  C3  UNL     1     -35.459  14.492  -5.286  1.00 20.00     0.152 C 
HETATM    4  C4  UNL     1     -34.704  16.867  -6.573  1.00 20.00     0.083 C 
HETATM    5  C5  UNL     1     -34.708  17.383  -5.118  1.00 20.00    -0.033 C 
HETATM    6  C6  UNL     1     -33.873  18.683  -5.074  1.00 20.00     0.016 C 
HETATM    7  C7  UNL     1     -36.133  17.748  -4.651  1.00 20.00     0.016 C 
HETATM    8  O8  UNL     1     -33.322  14.088  -4.322  1.00 20.00    -0.297 OA
HETATM    9  S9  UNL     1     -35.632  15.325  -6.879  1.00 20.00    -0.161 SA
ENDROOT
TORSDOF 0
ENDMDL
