MODEL 1
REMARK VINA RESULT:      -4.0      0.000      0.000
REMARK  0 active torsions:
REMARK  status: ('A' for Active; 'I' for Inactive)
ROOT
HETATM    1  C1  UNL     1     -35.461   6.109   4.683  1.00 20.00     0.223 A 
HETATM    2  C2  UNL     1     -33.826   5.391   6.249  1.00 20.00     0.128 A 
HETATM    3  C3  UNL     1     -34.636   7.302   4.995  1.00 20.00     0.092 A 
HETATM    4  C4  UNL     1     -33.582   6.845   5.978  1.00 20.00     0.026 A 
HETATM    5  C5  UNL     1     -33.170   7.409   4.630  1.00 20.00    -0.029 A 
HETATM    6  C6  UNL     1     -32.589   6.505   3.573  1.00 20.00     0.016 C 
HETATM    7  C7  UNL     1     -32.565   8.791   4.626  1.00 20.00     0.016 C 
HETATM    8  N8  UNL     1     -34.977   5.054   5.437  1.00 20.00    -0.360 N 
HETATM    9  O9  UNL     1     -36.393   6.123   3.897  1.00 20.00    -0.273 OA
HETATM   10  H20 UNL     1     -35.392   4.128   5.423  1.00 20.00     0.162 HD
ENDROOT
TORSDOF 0
ENDMDL
MODEL 2
REMARK VINA RESULT:      -3.9      8.808      9.700
REMARK  0 active torsions:
REMARK  status: ('A' for Active; 'I' for Inactive)
ROOT
HETATM    1  C1  UNL     1     -43.187   4.816  -0.647  1.00 20.00     0.223 A 
HETATM    2  C2  UNL     1     -42.744   5.071   1.671  1.00 20.00     0.128 A 
HETATM    3  C3  UNL     1     -43.020   6.272  -0.417  1.00 20.00     0.092 A 
HETATM    4  C4  UNL     1     -42.719   6.437   1.056  1.00 20.00     0.026 A 
HETATM    5  C5  UNL     1     -41.708   6.892   0.017  1.00 20.00    -0.029 A 
HETATM    6  C6  UNL     1     -40.418   6.135  -0.171  1.00 20.00     0.016 C 
HETATM    7  C7  UNL     1     -41.556   8.380  -0.179  1.00 20.00     0.016 C 
HETATM    8  N8  UNL     1     -43.046   4.178   0.572  1.00 20.00    -0.360 N 
HETATM    9  O9  UNL     1     -43.417   4.331  -1.743  1.00 20.00    -0.273 OA
HETATM   10  H20 UNL     1     -43.144   3.174   0.686  1.00 20.00     0.162 HD
ENDROOT
TORSDOF 0
ENDMDL
MODEL 3
REMARK VINA RESULT:      -3.8     12.797     13.795
REMARK  0 active torsions:
REMARK  status: ('A' for Active; 'I' for Inactive)
ROOT
HETATM    1  C1  UNL     1     -33.719  14.652  -4.709  1.00 20.00     0.223 A 
HETATM    2  C2  UNL     1     -35.967  13.959  -5.029  1.00 20.00     0.128 A 
HETATM    3  C3  UNL     1     -34.132  15.188  -6.030  1.00 20.00     0.092 A 
HETATM    4  C4  UNL     1     -35.570  14.764  -6.229  1.00 20.00     0.026 A 
HETATM    5  C5  UNL     1     -35.211  16.239  -6.192  1.00 20.00    -0.029 A 
HETATM    6  C6  UNL     1     -35.615  17.091  -5.016  1.00 20.00     0.016 C 
HETATM    7  C7  UNL     1     -35.249  16.983  -7.504  1.00 20.00     0.016 C 
HETATM    8  N8  UNL     1     -34.787  13.942  -4.191  1.00 20.00    -0.360 N 
HETATM    9  O9  UNL     1     -32.614  14.835  -4.226  1.00 20.00    -0.273 OA
HETATM   10  H20 UNL     1     -34.746  13.452  -3.302  1.00 20.00     0.162 HD
ENDROOT
TORSDOF 0
ENDMDL
MODEL 4
REMARK VINA RESULT:      -3.8     12.541     13.282
REMARK  0 active torsions:
REMARK  status: ('A' for Active; 'I' for Inactive)
ROOT
HETATM    1  C1  UNL     1     -35.825  14.274  -5.200  1.00 20.00     0.223 A 
HETATM    2  C2  UNL     1     -34.190  15.109  -6.706  1.00 20.00     0.128 A 
HETATM    3  C3  UNL     1     -34.641  14.619  -4.374  1.00 20.00     0.092 A 
HETATM    4  C4  UNL     1     -33.604  15.169  -5.328  1.00 20.00     0.026 A 
HETATM    5  C5  UNL     1     -34.140  16.039  -4.204  1.00 20.00    -0.029 A 
HETATM    6  C6  UNL     1     -35.051  17.200  -4.510  1.00 20.00     0.016 C 
HETATM    7  C7  UNL     1     -33.212  16.302  -3.044  1.00 20.00     0.016 C 
HETATM    8  N8  UNL     1     -35.511  14.548  -6.520  1.00 20.00    -0.360 N 
HETATM    9  O9  UNL     1     -36.859  13.824  -4.736  1.00 20.00    -0.273 OA
HETATM   10  H20 UNL     1     -36.151  14.371  -7.288  1.00 20.00     0.162 HD
ENDROOT
TORSDOF 0
ENDMDL
MODEL 5
REMARK VINA RESULT:      -3.7      2.207      3.299
REMARK  0 active torsions:
REMARK  status: ('A' for Active; 'I' for Inactive)
ROOT
HETATM    1  C1  UNL     1     -32.742   7.297   3.653  1.00 20.00     0.223 A 
HETATM    2  C2  UNL     1     -33.779   8.712   5.253  1.00 20.00     0.128 A 
HETATM    3  C3  UNL     1     -33.030   6.444   4.833  1.00 20.00     0.092 A 
HETATM    4  C4  UNL     1     -33.708   7.337   5.847  1.00 20.00     0.026 A 
HETATM    5  C5  UNL     1     -34.437   6.125   5.295  1.00 20.00    -0.029 A 
HETATM    6  C6  UNL     1     -35.598   6.301   4.350  1.00 20.00     0.016 C 
HETATM    7  C7  UNL     1     -34.602   4.948   6.224  1.00 20.00     0.016 C 
HETATM    8  N8  UNL     1     -33.163   8.581   3.949  1.00 20.00    -0.360 N 
HETATM    9  O9  UNL     1     -32.215   6.879   2.635  1.00 20.00    -0.273 OA
HETATM   10  H20 UNL     1     -33.051   9.361   3.309  1.00 20.00     0.162 HD
ENDROOT
TORSDOF 0
ENDMDL
MODEL 6
REMARK VINA RESULT:      -3.7      8.786      9.636
REMARK  0 active torsions:
REMARK  status: ('A' for Active; 'I' for Inactive)
ROOT
HETATM    1  C1  UNL     1     -42.917   5.436   1.411  1.00 20.00     0.223 A 
HETATM    2  C2  UNL     1     -42.728   5.154  -0.939  1.00 20.00     0.128 A 
HETATM    3  C3  UNL     1     -41.762   6.266   0.987  1.00 20.00     0.092 A 
HETATM    4  C4  UNL     1     -41.649   6.103  -0.512  1.00 20.00     0.026 A 
HETATM    5  C5  UNL     1     -41.903   7.476   0.087  1.00 20.00    -0.029 A 
HETATM    6  C6  UNL     1     -43.246   8.141  -0.077  1.00 20.00     0.016 C 
HETATM    7  C7  UNL     1     -40.752   8.451   0.066  1.00 20.00     0.016 C 
HETATM    8  N8  UNL     1     -43.417   4.806   0.286  1.00 20.00    -0.360 N 
HETATM    9  O9  UNL     1     -43.302   5.360   2.566  1.00 20.00    -0.273 OA
HETATM   10  H20 UNL     1     -44.198   4.157   0.316  1.00 20.00     0.162 HD
ENDROOT
TORSDOF 0
ENDMDL
MODEL 7
REMARK VINA RESULT:      -3.6     12.840     13.784
REMARK  0 active torsions:
REMARK  status: ('A' for Active; 'I' for Inactive)
ROOT
HETATM    1  C1  UNL     1     -33.515  16.929  -3.648  1.00 20.00     0.223 A 
HETATM    2  C2  UNL     1     -32.682  19.150  -3.526  1.00 20.00     0.128 A 
HETATM    3  C3  UNL     1     -33.188  17.170  -2.220  1.00 20.00     0.092 A 
HETATM    4  C4  UNL     1     -32.674  18.590  -2.135  1.00 20.00     0.026 A 
HETATM    5  C5  UNL     1     -33.920  18.185  -1.366  1.00 20.00    -0.029 A 
HETATM    6  C6  UNL     1     -35.275  18.690  -1.793  1.00 20.00     0.016 C 
HETATM    7  C7  UNL     1     -33.782  18.047   0.129  1.00 20.00     0.016 C 
HETATM    8  N8  UNL     1     -33.188  18.074  -4.353  1.00 20.00    -0.360 N 
HETATM    9  O9  UNL     1     -33.980  15.881  -4.063  1.00 20.00    -0.273 OA
HETATM   10  H20 UNL     1     -33.293  18.153  -5.359  1.00 20.00     0.162 HD
ENDROOT
TORSDOF 0
ENDMDL
MODEL 8
REMARK VINA RESULT:      -3.5     13.217     14.181
REMARK  0 active torsions:
REMARK  status: ('A' for Active; 'I' for Inactive)
ROOT
HETATM    1  C1  UNL     1     -34.045  15.137  -6.794  1.00 20.00     0.223 A 
HETATM    2  C2  UNL     1     -34.081  14.525  -4.500  1.00 20.00     0.128 A 
HETATM    3  C3  UNL     1     -35.473  15.127  -6.392  1.00 20.00     0.092 A 
HETATM    4  C4  UNL     1     -35.499  14.756  -4.926  1.00 20.00     0.026 A 
HETATM    5  C5  UNL     1     -36.052  16.095  -5.381  1.00 20.00    -0.029 A 
HETATM    6  C6  UNL     1     -35.317  17.371  -5.055  1.00 20.00     0.016 C 
HETATM    7  C7  UNL     1     -37.552  16.254  -5.366  1.00 20.00     0.016 C 
HETATM    8  N8  UNL     1     -33.295  14.765  -5.693  1.00 20.00    -0.360 N 
HETATM    9  O9  UNL     1     -33.665  15.423  -7.918  1.00 20.00    -0.273 OA
HETATM   10  H20 UNL     1     -32.285  14.670  -5.718  1.00 20.00     0.162 HD
ENDROOT
TORSDOF 0
ENDMDL
MODEL 9
REMARK VINA RESULT:      -3.5      8.310      9.864
REMARK  0 active torsions:
REMARK  status: ('A' for Active; 'I' for Inactive)
ROOT
HETATM    1  C1  UNL     1     -42.382   7.887  -0.353  1.00 20.00     0.223 A 
HETATM    2  C2  UNL     1     -40.511   6.879   0.705  1.00 20.00     0.128 A 
HETATM    3  C3  UNL     1     -42.593   6.421  -0.449  1.00 20.00     0.092 A 
HETATM    4  C4  UNL     1     -41.412   5.776   0.240  1.00 20.00     0.026 A 
HETATM    5  C5  UNL     1     -42.819   5.540   0.761  1.00 20.00    -0.029 A 
HETATM    6  C6  UNL     1     -43.258   6.152   2.067  1.00 20.00     0.016 C 
HETATM    7  C7  UNL     1     -43.417   4.177   0.514  1.00 20.00     0.016 C 
HETATM    8  N8  UNL     1     -41.175   8.097   0.289  1.00 20.00    -0.360 N 
HETATM    9  O9  UNL     1     -43.169   8.710  -0.791  1.00 20.00    -0.273 OA
HETATM   10  H20 UNL     1     -40.789   9.021   0.454  1.00 20.00     0.162 HD
ENDROOT
TORSDOF 0
ENDMDL
