MODEL 1
REMARK VINA RESULT:      -4.9      0.000      0.000
REMARK  1 active torsions:
REMARK  status: ('A' for Active; 'I' for Inactive)
REMARK    1  A    between atoms: C1_1  and  C3_3 
ROOT
HETATM    1  C3  UNL     1     -34.689   5.506   4.682  1.00 20.00     0.408 C 
HETATM    2  F4  UNL     1     -35.905   5.916   4.241  1.00 20.00    -0.167 F 
HETATM    3  F5  UNL     1     -34.683   4.151   4.613  1.00 20.00    -0.167 F 
HETATM    4  F6  UNL     1     -33.777   5.948   3.780  1.00 20.00    -0.167 F 
ENDROOT
BRANCH   1   5
HETATM    5  C1  UNL     1     -34.427   5.980   6.069  1.00 20.00     0.096 C 
HETATM    6  C2  UNL     1     -33.809   7.129   6.364  1.00 20.00     0.060 C 
HETATM    7 BR7  UNL     1     -33.173   8.328   5.101  1.00 20.00    -0.064 Br
ENDBRANCH   1   5
TORSDOF 1
ENDMDL
MODEL 2
REMARK VINA RESULT:      -4.8      2.497      3.175
REMARK  1 active torsions:
REMARK  status: ('A' for Active; 'I' for Inactive)
REMARK    1  A    between atoms: C1_1  and  C3_3 
ROOT
HETATM    1  C3  UNL     1     -33.168   8.050   4.973  1.00 20.00     0.408 C 
HETATM    2  F4  UNL     1     -32.458   9.180   5.221  1.00 20.00    -0.167 F 
HETATM    3  F5  UNL     1     -34.242   8.418   4.230  1.00 20.00    -0.167 F 
HETATM    4  F6  UNL     1     -32.394   7.268   4.181  1.00 20.00    -0.167 F 
ENDROOT
BRANCH   1   5
HETATM    5  C1  UNL     1     -33.586   7.383   6.237  1.00 20.00     0.096 C 
HETATM    6  C2  UNL     1     -34.260   6.230   6.288  1.00 20.00     0.060 C 
HETATM    7 BR7  UNL     1     -34.792   5.263   4.797  1.00 20.00    -0.064 Br
ENDBRANCH   1   5
TORSDOF 1
ENDMDL
MODEL 3
REMARK VINA RESULT:      -4.8      0.026      1.426
REMARK  1 active torsions:
REMARK  status: ('A' for Active; 'I' for Inactive)
REMARK    1  A    between atoms: C1_1  and  C3_3 
ROOT
HETATM    1  C3  UNL     1     -34.706   5.506   4.693  1.00 20.00     0.408 C 
HETATM    2  F4  UNL     1     -34.689   4.151   4.612  1.00 20.00    -0.167 F 
HETATM    3  F5  UNL     1     -33.776   5.962   3.816  1.00 20.00    -0.167 F 
HETATM    4  F6  UNL     1     -35.914   5.911   4.229  1.00 20.00    -0.167 F 
ENDROOT
BRANCH   1   5
HETATM    5  C1  UNL     1     -34.418   5.970   6.078  1.00 20.00     0.096 C 
HETATM    6  C2  UNL     1     -33.807   7.123   6.371  1.00 20.00     0.060 C 
HETATM    7 BR7  UNL     1     -33.216   8.342   5.105  1.00 20.00    -0.064 Br
ENDBRANCH   1   5
TORSDOF 1
ENDMDL
MODEL 4
REMARK VINA RESULT:      -4.8      0.055      1.417
REMARK  1 active torsions:
REMARK  status: ('A' for Active; 'I' for Inactive)
REMARK    1  A    between atoms: C1_1  and  C3_3 
ROOT
HETATM    1  C3  UNL     1     -34.666   5.477   4.679  1.00 20.00     0.408 C 
HETATM    2  F4  UNL     1     -33.743   5.977   3.819  1.00 20.00    -0.167 F 
HETATM    3  F5  UNL     1     -35.882   5.872   4.222  1.00 20.00    -0.167 F 
HETATM    4  F6  UNL     1     -34.623   4.127   4.558  1.00 20.00    -0.167 F 
ENDROOT
BRANCH   1   5
HETATM    5  C1  UNL     1     -34.429   5.955   6.069  1.00 20.00     0.096 C 
HETATM    6  C2  UNL     1     -33.846   7.120   6.372  1.00 20.00     0.060 C 
HETATM    7 BR7  UNL     1     -33.234   8.339   5.116  1.00 20.00    -0.064 Br
ENDBRANCH   1   5
TORSDOF 1
ENDMDL
MODEL 5
REMARK VINA RESULT:      -4.8      2.484      2.996
REMARK  1 active torsions:
REMARK  status: ('A' for Active; 'I' for Inactive)
REMARK    1  A    between atoms: C1_1  and  C3_3 
ROOT
HETATM    1  C3  UNL     1     -33.188   8.060   5.002  1.00 20.00     0.408 C 
HETATM    2  F4  UNL     1     -34.258   8.414   4.245  1.00 20.00    -0.167 F 
HETATM    3  F5  UNL     1     -32.416   7.251   4.233  1.00 20.00    -0.167 F 
HETATM    4  F6  UNL     1     -32.473   9.191   5.221  1.00 20.00    -0.167 F 
ENDROOT
BRANCH   1   5
HETATM    5  C1  UNL     1     -33.612   7.375   6.254  1.00 20.00     0.096 C 
HETATM    6  C2  UNL     1     -34.275   6.215   6.287  1.00 20.00     0.060 C 
HETATM    7 BR7  UNL     1     -34.781   5.258   4.781  1.00 20.00    -0.064 Br
ENDBRANCH   1   5
TORSDOF 1
ENDMDL
MODEL 6
REMARK VINA RESULT:      -4.8      1.007      1.047
REMARK  1 active torsions:
REMARK  status: ('A' for Active; 'I' for Inactive)
REMARK    1  A    between atoms: C1_1  and  C3_3 
ROOT
HETATM    1  C3  UNL     1     -34.592   5.760   5.011  1.00 20.00     0.408 C 
HETATM    2  F4  UNL     1     -35.747   6.124   4.400  1.00 20.00    -0.167 F 
HETATM    3  F5  UNL     1     -34.873   4.663   5.760  1.00 20.00    -0.167 F 
HETATM    4  F6  UNL     1     -33.741   5.359   4.034  1.00 20.00    -0.167 F 
ENDROOT
BRANCH   1   5
HETATM    5  C1  UNL     1     -34.050   6.865   5.850  1.00 20.00     0.096 C 
HETATM    6  C2  UNL     1     -33.190   7.788   5.409  1.00 20.00     0.060 C 
HETATM    7 BR7  UNL     1     -32.524   7.854   3.680  1.00 20.00    -0.064 Br
ENDBRANCH   1   5
TORSDOF 1
ENDMDL
MODEL 7
REMARK VINA RESULT:      -4.6      1.978      2.171
REMARK  1 active torsions:
REMARK  status: ('A' for Active; 'I' for Inactive)
REMARK    1  A    between atoms: C1_1  and  C3_3 
ROOT
HETATM    1  C3  UNL     1     -34.811   5.741   5.280  1.00 20.00     0.408 C 
HETATM    2  F4  UNL     1     -35.920   5.827   4.502  1.00 20.00    -0.167 F 
HETATM    3  F5  UNL     1     -35.237   5.742   6.569  1.00 20.00    -0.167 F 
HETATM    4  F6  UNL     1     -34.265   4.521   5.050  1.00 20.00    -0.167 F 
ENDROOT
BRANCH   1   5
HETATM    5  C1  UNL     1     -33.875   6.868   5.017  1.00 20.00     0.096 C 
HETATM    6  C2  UNL     1     -33.047   6.925   3.969  1.00 20.00     0.060 C 
HETATM    7 BR7  UNL     1     -32.921   5.614   2.664  1.00 20.00    -0.064 Br
ENDBRANCH   1   5
TORSDOF 1
ENDMDL
MODEL 8
REMARK VINA RESULT:      -4.5      2.325      2.874
REMARK  1 active torsions:
REMARK  status: ('A' for Active; 'I' for Inactive)
REMARK    1  A    between atoms: C1_1  and  C3_3 
ROOT
HETATM    1  C3  UNL     1     -34.114   6.874   5.990  1.00 20.00     0.408 C 
HETATM    2  F4  UNL     1     -34.660   7.381   7.124  1.00 20.00    -0.167 F 
HETATM    3  F5  UNL     1     -34.380   7.760   4.997  1.00 20.00    -0.167 F 
HETATM    4  F6  UNL     1     -32.769   6.878   6.167  1.00 20.00    -0.167 F 
ENDROOT
BRANCH   1   5
HETATM    5  C1  UNL     1     -34.666   5.527   5.677  1.00 20.00     0.096 C 
HETATM    6  C2  UNL     1     -34.382   4.841   4.565  1.00 20.00     0.060 C 
HETATM    7 BR7  UNL     1     -33.254   5.445   3.223  1.00 20.00    -0.064 Br
ENDBRANCH   1   5
TORSDOF 1
ENDMDL
MODEL 9
REMARK VINA RESULT:      -4.4      2.161      2.484
REMARK  1 active torsions:
REMARK  status: ('A' for Active; 'I' for Inactive)
REMARK    1  A    between atoms: C1_1  and  C3_3 
ROOT
HETATM    1  C3  UNL     1     -34.300   6.227   6.294  1.00 20.00     0.408 C 
HETATM    2  F4  UNL     1     -34.572   7.449   6.819  1.00 20.00    -0.167 F 
HETATM    3  F5  UNL     1     -33.100   5.843   6.799  1.00 20.00    -0.167 F 
HETATM    4  F6  UNL     1     -35.226   5.371   6.792  1.00 20.00    -0.167 F 
ENDROOT
BRANCH   1   5
HETATM    5  C1  UNL     1     -34.273   6.270   4.806  1.00 20.00     0.096 C 
HETATM    6  C2  UNL     1     -33.552   7.143   4.094  1.00 20.00     0.060 C 
HETATM    7 BR7  UNL     1     -32.464   8.449   4.834  1.00 20.00    -0.064 Br
ENDBRANCH   1   5
TORSDOF 1
ENDMDL
