MODEL 1
REMARK VINA RESULT:      -6.3      0.000      0.000
REMARK  0 active torsions:
REMARK  status: ('A' for Active; 'I' for Inactive)
ROOT
HETATM    1  C1  UNL     1     -34.571   5.406   6.380  1.00 20.00    -0.002 C 
HETATM    2  C2  UNL     1     -34.369   4.837   5.065  1.00 20.00     0.009 C 
HETATM    3  C3  UNL     1     -34.335   6.730   6.353  1.00 20.00    -0.013 C 
HETATM    4  C4  UNL     1     -32.822   7.912   4.645  1.00 20.00     0.006 C 
HETATM    5  C5  UNL     1     -32.102   7.610   3.547  1.00 20.00     0.113 C 
HETATM    6  C6  UNL     1     -33.294   5.745   2.982  1.00 20.00     0.124 C 
HETATM    7  C7  UNL     1     -34.035   5.836   4.244  1.00 20.00    -0.029 C 
HETATM    8  C8  UNL     1     -34.084   7.162   4.936  1.00 20.00     0.066 C 
HETATM    9  N9  UNL     1     -32.381   6.604   2.637  1.00 20.00    -0.273 NA
ENDROOT
TORSDOF 0
ENDMDL
MODEL 2
REMARK VINA RESULT:      -5.7      1.627      3.601
REMARK  0 active torsions:
REMARK  status: ('A' for Active; 'I' for Inactive)
ROOT
HETATM    1  C1  UNL     1     -32.126   7.205   3.047  1.00 20.00    -0.002 C 
HETATM    2  C2  UNL     1     -32.563   7.920   4.226  1.00 20.00     0.009 C 
HETATM    3  C3  UNL     1     -32.905   6.129   2.843  1.00 20.00    -0.013 C 
HETATM    4  C4  UNL     1     -34.236   4.917   4.677  1.00 20.00     0.006 C 
HETATM    5  C5  UNL     1     -34.505   5.049   5.990  1.00 20.00     0.113 C 
HETATM    6  C6  UNL     1     -34.134   7.300   6.089  1.00 20.00     0.124 C 
HETATM    7  C7  UNL     1     -33.628   7.277   4.713  1.00 20.00    -0.029 C 
HETATM    8  C8  UNL     1     -34.035   6.137   3.833  1.00 20.00     0.066 C 
HETATM    9  N9  UNL     1     -34.573   6.238   6.697  1.00 20.00    -0.273 NA
ENDROOT
TORSDOF 0
ENDMDL
MODEL 3
REMARK VINA RESULT:      -5.6      1.569      3.250
REMARK  0 active torsions:
REMARK  status: ('A' for Active; 'I' for Inactive)
ROOT
HETATM    1  C1  UNL     1     -32.194   8.386   4.473  1.00 20.00    -0.002 C 
HETATM    2  C2  UNL     1     -33.251   8.011   5.388  1.00 20.00     0.009 C 
HETATM    3  C3  UNL     1     -32.231   7.605   3.379  1.00 20.00    -0.013 C 
HETATM    4  C4  UNL     1     -33.239   5.242   3.301  1.00 20.00     0.006 C 
HETATM    5  C5  UNL     1     -33.905   4.396   4.111  1.00 20.00     0.113 C 
HETATM    6  C6  UNL     1     -34.760   6.003   5.490  1.00 20.00     0.124 C 
HETATM    7  C7  UNL     1     -33.937   7.015   4.821  1.00 20.00    -0.029 C 
HETATM    8  C8  UNL     1     -33.443   6.719   3.440  1.00 20.00     0.066 C 
HETATM    9  N9  UNL     1     -34.761   4.751   5.140  1.00 20.00    -0.273 NA
ENDROOT
TORSDOF 0
ENDMDL
MODEL 4
REMARK VINA RESULT:      -5.2      1.490      3.016
REMARK  0 active torsions:
REMARK  status: ('A' for Active; 'I' for Inactive)
ROOT
HETATM    1  C1  UNL     1     -32.598   8.677   3.760  1.00 20.00    -0.002 C 
HETATM    2  C2  UNL     1     -32.766   7.386   3.130  1.00 20.00     0.009 C 
HETATM    3  C3  UNL     1     -32.844   8.584   5.079  1.00 20.00    -0.013 C 
HETATM    4  C4  UNL     1     -34.328   6.790   6.167  1.00 20.00     0.006 C 
HETATM    5  C5  UNL     1     -35.021   5.691   5.808  1.00 20.00     0.113 C 
HETATM    6  C6  UNL     1     -33.800   5.239   3.931  1.00 20.00     0.124 C 
HETATM    7  C7  UNL     1     -33.089   6.512   4.086  1.00 20.00    -0.029 C 
HETATM    8  C8  UNL     1     -33.066   7.143   5.443  1.00 20.00     0.066 C 
HETATM    9  N9  UNL     1     -34.713   4.835   4.764  1.00 20.00    -0.273 NA
ENDROOT
TORSDOF 0
ENDMDL
MODEL 5
REMARK VINA RESULT:      -4.7      1.079      2.105
REMARK  0 active torsions:
REMARK  status: ('A' for Active; 'I' for Inactive)
ROOT
HETATM    1  C1  UNL     1     -35.114   5.419   5.397  1.00 20.00    -0.002 C 
HETATM    2  C2  UNL     1     -34.546   6.639   5.928  1.00 20.00     0.009 C 
HETATM    3  C3  UNL     1     -34.366   4.967   4.375  1.00 20.00    -0.013 C 
HETATM    4  C4  UNL     1     -32.843   6.435   2.915  1.00 20.00     0.006 C 
HETATM    5  C5  UNL     1     -32.430   7.715   2.847  1.00 20.00     0.113 C 
HETATM    6  C6  UNL     1     -32.780   8.199   5.052  1.00 20.00     0.124 C 
HETATM    7  C7  UNL     1     -33.436   6.900   5.233  1.00 20.00    -0.029 C 
HETATM    8  C8  UNL     1     -33.133   5.816   4.247  1.00 20.00     0.066 C 
HETATM    9  N9  UNL     1     -32.280   8.584   3.915  1.00 20.00    -0.273 NA
ENDROOT
TORSDOF 0
ENDMDL
MODEL 6
REMARK VINA RESULT:      -4.0     16.368     16.834
REMARK  0 active torsions:
REMARK  status: ('A' for Active; 'I' for Inactive)
ROOT
HETATM    1  C1  UNL     1     -24.213  18.280  11.686  1.00 20.00    -0.002 C 
HETATM    2  C2  UNL     1     -24.743  18.830  10.457  1.00 20.00     0.009 C 
HETATM    3  C3  UNL     1     -22.880  18.137  11.592  1.00 20.00    -0.013 C 
HETATM    4  C4  UNL     1     -21.589  17.869   9.386  1.00 20.00     0.006 C 
HETATM    5  C5  UNL     1     -21.832  17.877   8.061  1.00 20.00     0.113 C 
HETATM    6  C6  UNL     1     -23.739  19.129   8.172  1.00 20.00     0.124 C 
HETATM    7  C7  UNL     1     -23.712  19.041   9.635  1.00 20.00    -0.029 C 
HETATM    8  C8  UNL     1     -22.405  18.732  10.296  1.00 20.00     0.066 C 
HETATM    9  N9  UNL     1     -22.830  18.588   7.416  1.00 20.00    -0.273 NA
ENDROOT
TORSDOF 0
ENDMDL
MODEL 7
REMARK VINA RESULT:      -3.9      0.816      2.166
REMARK  0 active torsions:
REMARK  status: ('A' for Active; 'I' for Inactive)
ROOT
HETATM    1  C1  UNL     1     -34.441   7.487   6.366  1.00 20.00    -0.002 C 
HETATM    2  C2  UNL     1     -33.491   8.183   5.525  1.00 20.00     0.009 C 
HETATM    3  C3  UNL     1     -34.453   6.177   6.064  1.00 20.00    -0.013 C 
HETATM    4  C4  UNL     1     -33.765   5.192   3.792  1.00 20.00     0.006 C 
HETATM    5  C5  UNL     1     -33.260   5.611   2.616  1.00 20.00     0.113 C 
HETATM    6  C6  UNL     1     -32.269   7.499   3.437  1.00 20.00     0.124 C 
HETATM    7  C7  UNL     1     -32.915   7.274   4.733  1.00 20.00    -0.029 C 
HETATM    8  C8  UNL     1     -33.374   5.887   5.059  1.00 20.00     0.066 C 
HETATM    9  N9  UNL     1     -32.417   6.694   2.426  1.00 20.00    -0.273 NA
ENDROOT
TORSDOF 0
ENDMDL
MODEL 8
REMARK VINA RESULT:      -3.9     16.337     17.198
REMARK  0 active torsions:
REMARK  status: ('A' for Active; 'I' for Inactive)
ROOT
HETATM    1  C1  UNL     1     -21.790  18.969   8.645  1.00 20.00    -0.002 C 
HETATM    2  C2  UNL     1     -23.210  19.241   8.605  1.00 20.00     0.009 C 
HETATM    3  C3  UNL     1     -21.498  18.191   9.703  1.00 20.00    -0.013 C 
HETATM    4  C4  UNL     1     -22.911  18.043  11.844  1.00 20.00     0.006 C 
HETATM    5  C5  UNL     1     -24.072  18.523  12.329  1.00 20.00     0.113 C 
HETATM    6  C6  UNL     1     -25.040  18.911  10.297  1.00 20.00     0.124 C 
HETATM    7  C7  UNL     1     -23.771  18.599   9.632  1.00 20.00    -0.029 C 
HETATM    8  C8  UNL     1     -22.772  17.771  10.379  1.00 20.00     0.066 C 
HETATM    9  N9  UNL     1     -25.193  18.858  11.587  1.00 20.00    -0.273 NA
ENDROOT
TORSDOF 0
ENDMDL
MODEL 9
REMARK VINA RESULT:      -3.8     12.401     13.470
REMARK  0 active torsions:
REMARK  status: ('A' for Active; 'I' for Inactive)
ROOT
HETATM    1  C1  UNL     1     -34.184  17.921  -1.925  1.00 20.00    -0.002 C 
HETATM    2  C2  UNL     1     -34.635  18.315  -3.242  1.00 20.00     0.009 C 
HETATM    3  C3  UNL     1     -33.449  16.798  -2.004  1.00 20.00    -0.013 C 
HETATM    4  C4  UNL     1     -33.631  15.060  -3.889  1.00 20.00     0.006 C 
HETATM    5  C5  UNL     1     -34.290  14.889  -5.051  1.00 20.00     0.113 C 
HETATM    6  C6  UNL     1     -34.661  17.108  -5.447  1.00 20.00     0.124 C 
HETATM    7  C7  UNL     1     -34.142  17.433  -4.115  1.00 20.00    -0.029 C 
HETATM    8  C8  UNL     1     -33.245  16.438  -3.448  1.00 20.00     0.066 C 
HETATM    9  N9  UNL     1     -34.716  15.893  -5.906  1.00 20.00    -0.273 NA
ENDROOT
TORSDOF 0
ENDMDL
