MODEL 1
REMARK VINA RESULT:      -4.2      0.000      0.000
REMARK  1 active torsions:
REMARK  status: ('A' for Active; 'I' for Inactive)
REMARK    1  A    between atoms: C4_4  and  C5_5 
ROOT
HETATM    1  C5  UNL     1     -33.136  18.076  -1.092  1.00 20.00     0.039 C 
HETATM    2  C6  UNL     1     -31.639  18.303  -0.936  1.00 20.00     0.060 C 
HETATM    3  C7  UNL     1     -31.292  19.141   0.280  1.00 20.00     0.008 C 
HETATM    4  C8  UNL     1     -32.128  18.676   1.455  1.00 20.00     0.022 C 
HETATM    5  C9  UNL     1     -33.596  18.876   1.126  1.00 20.00     0.149 C 
HETATM    6  N10 UNL     1     -33.994  18.309  -0.158  1.00 20.00    -0.293 NA
ENDROOT
BRANCH   1   7
HETATM    7  C4  UNL     1     -33.628  17.519  -2.392  1.00 20.00    -0.005 A 
HETATM    8  C1  UNL     1     -33.256  16.259  -2.944  1.00 20.00     0.021 A 
HETATM    9  C2  UNL     1     -33.872  16.023  -4.154  1.00 20.00     0.050 A 
HETATM   10  S11 UNL     1     -34.892  17.316  -4.618  1.00 20.00    -0.113 SA
HETATM   11  C3  UNL     1     -34.513  18.198  -3.201  1.00 20.00     0.063 A 
ENDBRANCH   1   7
TORSDOF 1
ENDMDL
MODEL 2
REMARK VINA RESULT:      -4.2      1.058      1.093
REMARK  1 active torsions:
REMARK  status: ('A' for Active; 'I' for Inactive)
REMARK    1  A    between atoms: C4_4  and  C5_5 
ROOT
HETATM    1  C5  UNL     1     -32.546  18.503  -0.469  1.00 20.00     0.039 C 
HETATM    2  C6  UNL     1     -31.052  18.459  -0.186  1.00 20.00     0.060 C 
HETATM    3  C7  UNL     1     -30.673  19.163   1.103  1.00 20.00     0.008 C 
HETATM    4  C8  UNL     1     -31.673  18.794   2.179  1.00 20.00     0.022 C 
HETATM    5  C9  UNL     1     -33.052  19.262   1.753  1.00 20.00     0.149 C 
HETATM    6  N10 UNL     1     -33.429  18.836   0.409  1.00 20.00    -0.293 NA
ENDROOT
BRANCH   1   7
HETATM    7  C4  UNL     1     -33.013  18.104  -1.835  1.00 20.00    -0.005 A 
HETATM    8  C1  UNL     1     -33.361  16.782  -2.236  1.00 20.00     0.021 A 
HETATM    9  C2  UNL     1     -33.752  16.727  -3.556  1.00 20.00     0.050 A 
HETATM   10  S11 UNL     1     -33.697  18.265  -4.306  1.00 20.00    -0.113 SA
HETATM   11  C3  UNL     1     -33.150  19.010  -2.865  1.00 20.00     0.063 A 
ENDBRANCH   1   7
TORSDOF 1
ENDMDL
MODEL 3
REMARK VINA RESULT:      -4.0      1.057      1.633
REMARK  1 active torsions:
REMARK  status: ('A' for Active; 'I' for Inactive)
REMARK    1  A    between atoms: C4_4  and  C5_5 
ROOT
HETATM    1  C5  UNL     1     -33.063  17.775  -1.621  1.00 20.00     0.039 C 
HETATM    2  C6  UNL     1     -34.062  18.013  -0.498  1.00 20.00     0.060 C 
HETATM    3  C7  UNL     1     -33.396  18.305   0.833  1.00 20.00     0.008 C 
HETATM    4  C8  UNL     1     -32.245  19.263   0.610  1.00 20.00     0.022 C 
HETATM    5  C9  UNL     1     -31.230  18.609  -0.310  1.00 20.00     0.149 C 
HETATM    6  N10 UNL     1     -31.810  18.069  -1.536  1.00 20.00    -0.293 NA
ENDROOT
BRANCH   1   7
HETATM    7  C4  UNL     1     -33.575  17.198  -2.905  1.00 20.00    -0.005 A 
HETATM    8  C1  UNL     1     -33.295  15.889  -3.392  1.00 20.00     0.021 A 
HETATM    9  C2  UNL     1     -33.907  15.645  -4.602  1.00 20.00     0.050 A 
HETATM   10  S11 UNL     1     -34.813  16.992  -5.146  1.00 20.00    -0.113 SA
HETATM   11  C3  UNL     1     -34.390  17.906  -3.761  1.00 20.00     0.063 A 
ENDBRANCH   1   7
TORSDOF 1
ENDMDL
MODEL 4
REMARK VINA RESULT:      -4.0      2.248      4.757
REMARK  1 active torsions:
REMARK  status: ('A' for Active; 'I' for Inactive)
REMARK    1  A    between atoms: C4_4  and  C5_5 
ROOT
HETATM    1  C5  UNL     1     -33.756  17.501  -2.493  1.00 20.00     0.039 C 
HETATM    2  C6  UNL     1     -33.191  16.228  -3.106  1.00 20.00     0.060 C 
HETATM    3  C7  UNL     1     -34.057  15.674  -4.222  1.00 20.00     0.008 C 
HETATM    4  C8  UNL     1     -34.517  16.817  -5.103  1.00 20.00     0.022 C 
HETATM    5  C9  UNL     1     -35.347  17.779  -4.272  1.00 20.00     0.149 C 
HETATM    6  N10 UNL     1     -34.697  18.197  -3.034  1.00 20.00    -0.293 NA
ENDROOT
BRANCH   1   7
HETATM    7  C4  UNL     1     -33.160  17.984  -1.207  1.00 20.00    -0.005 A 
HETATM    8  C1  UNL     1     -33.852  18.098   0.033  1.00 20.00     0.021 A 
HETATM    9  C2  UNL     1     -33.038  18.574   1.038  1.00 20.00     0.050 A 
HETATM   10  S11 UNL     1     -31.447  18.881   0.484  1.00 20.00    -0.113 SA
HETATM   11  C3  UNL     1     -31.843  18.377  -1.103  1.00 20.00     0.063 A 
ENDBRANCH   1   7
TORSDOF 1
ENDMDL
MODEL 5
REMARK VINA RESULT:      -3.9      2.372      4.998
REMARK  1 active torsions:
REMARK  status: ('A' for Active; 'I' for Inactive)
REMARK    1  A    between atoms: C4_4  and  C5_5 
ROOT
HETATM    1  C5  UNL     1     -33.931  16.807  -3.415  1.00 20.00     0.039 C 
HETATM    2  C6  UNL     1     -33.284  15.461  -3.705  1.00 20.00     0.060 C 
HETATM    3  C7  UNL     1     -34.046  14.648  -4.735  1.00 20.00     0.008 C 
HETATM    4  C8  UNL     1     -34.471  15.560  -5.868  1.00 20.00     0.022 C 
HETATM    5  C9  UNL     1     -35.389  16.636  -5.318  1.00 20.00     0.149 C 
HETATM    6  N10 UNL     1     -34.848  17.332  -4.155  1.00 20.00    -0.293 NA
ENDROOT
BRANCH   1   7
HETATM    7  C4  UNL     1     -33.449  17.574  -2.223  1.00 20.00    -0.005 A 
HETATM    8  C1  UNL     1     -33.901  17.390  -0.884  1.00 20.00     0.021 A 
HETATM    9  C2  UNL     1     -33.274  18.245  -0.004  1.00 20.00     0.050 A 
HETATM   10  S11 UNL     1     -32.146  19.263  -0.792  1.00 20.00    -0.113 SA
HETATM   11  C3  UNL     1     -32.494  18.563  -2.315  1.00 20.00     0.063 A 
ENDBRANCH   1   7
TORSDOF 1
ENDMDL
MODEL 6
REMARK VINA RESULT:      -3.8      1.485      1.967
REMARK  1 active torsions:
REMARK  status: ('A' for Active; 'I' for Inactive)
REMARK    1  A    between atoms: C4_4  and  C5_5 
ROOT
HETATM    1  C5  UNL     1     -33.978  17.575  -2.564  1.00 20.00     0.039 C 
HETATM    2  C6  UNL     1     -32.761  17.413  -1.664  1.00 20.00     0.060 C 
HETATM    3  C7  UNL     1     -32.637  18.520  -0.634  1.00 20.00     0.008 C 
HETATM    4  C8  UNL     1     -34.003  18.798  -0.041  1.00 20.00     0.022 C 
HETATM    5  C9  UNL     1     -34.935  19.262  -1.146  1.00 20.00     0.149 C 
HETATM    6  N10 UNL     1     -34.951  18.381  -2.309  1.00 20.00    -0.293 NA
ENDROOT
BRANCH   1   7
HETATM    7  C4  UNL     1     -34.058  16.723  -3.793  1.00 20.00    -0.005 A 
HETATM    8  C1  UNL     1     -33.496  15.422  -3.935  1.00 20.00     0.021 A 
HETATM    9  C2  UNL     1     -33.732  14.889  -5.183  1.00 20.00     0.050 A 
HETATM   10  S11 UNL     1     -34.627  15.957  -6.178  1.00 20.00    -0.113 SA
HETATM   11  C3  UNL     1     -34.701  17.137  -4.939  1.00 20.00     0.063 A 
ENDBRANCH   1   7
TORSDOF 1
ENDMDL
MODEL 7
REMARK VINA RESULT:      -3.6      2.531      5.341
REMARK  1 active torsions:
REMARK  status: ('A' for Active; 'I' for Inactive)
REMARK    1  A    between atoms: C4_4  and  C5_5 
ROOT
HETATM    1  C5  UNL     1     -34.051  16.715  -4.094  1.00 20.00     0.039 C 
HETATM    2  C6  UNL     1     -35.147  17.368  -4.923  1.00 20.00     0.060 C 
HETATM    3  C7  UNL     1     -35.365  16.684  -6.259  1.00 20.00     0.008 C 
HETATM    4  C8  UNL     1     -35.344  15.184  -6.054  1.00 20.00     0.022 C 
HETATM    5  C9  UNL     1     -33.985  14.778  -5.514  1.00 20.00     0.149 C 
HETATM    6  N10 UNL     1     -33.561  15.550  -4.351  1.00 20.00    -0.293 NA
ENDROOT
BRANCH   1   7
HETATM    7  C4  UNL     1     -33.542  17.456  -2.896  1.00 20.00    -0.005 A 
HETATM    8  C1  UNL     1     -33.689  17.037  -1.542  1.00 20.00     0.021 A 
HETATM    9  C2  UNL     1     -33.118  17.928  -0.659  1.00 20.00     0.050 A 
HETATM   10  S11 UNL     1     -32.409  19.263  -1.464  1.00 20.00    -0.113 SA
HETATM   11  C3  UNL     1     -32.865  18.651  -2.997  1.00 20.00     0.063 A 
ENDBRANCH   1   7
TORSDOF 1
ENDMDL
MODEL 8
REMARK VINA RESULT:      -3.6      2.057      2.907
REMARK  1 active torsions:
REMARK  status: ('A' for Active; 'I' for Inactive)
REMARK    1  A    between atoms: C4_4  and  C5_5 
ROOT
HETATM    1  C5  UNL     1     -34.411  17.320  -3.501  1.00 20.00     0.039 C 
HETATM    2  C6  UNL     1     -33.288  16.708  -2.677  1.00 20.00     0.060 C 
HETATM    3  C7  UNL     1     -32.823  17.610  -1.549  1.00 20.00     0.008 C 
HETATM    4  C8  UNL     1     -34.035  18.216  -0.872  1.00 20.00     0.022 C 
HETATM    5  C9  UNL     1     -34.799  19.052  -1.882  1.00 20.00     0.149 C 
HETATM    6  N10 UNL     1     -35.094  18.347  -3.125  1.00 20.00    -0.293 NA
ENDROOT
BRANCH   1   7
HETATM    7  C4  UNL     1     -34.759  16.669  -4.804  1.00 20.00    -0.005 A 
HETATM    8  C1  UNL     1     -34.125  15.513  -5.345  1.00 20.00     0.021 A 
HETATM    9  C2  UNL     1     -34.662  15.150  -6.561  1.00 20.00     0.050 A 
HETATM   10  S11 UNL     1     -35.923  16.201  -7.045  1.00 20.00    -0.113 SA
HETATM   11  C3  UNL     1     -35.755  17.146  -5.628  1.00 20.00     0.063 A 
ENDBRANCH   1   7
TORSDOF 1
ENDMDL
MODEL 9
REMARK VINA RESULT:      -3.4     24.581     25.308
REMARK  1 active torsions:
REMARK  status: ('A' for Active; 'I' for Inactive)
REMARK    1  A    between atoms: C4_4  and  C5_5 
ROOT
HETATM    1  C5  UNL     1     -25.683  -2.186  10.849  1.00 20.00     0.039 C 
HETATM    2  C6  UNL     1     -25.679  -1.118  11.933  1.00 20.00     0.060 C 
HETATM    3  C7  UNL     1     -26.874  -0.186  11.850  1.00 20.00     0.008 C 
HETATM    4  C8  UNL     1     -28.119  -1.004  11.578  1.00 20.00     0.022 C 
HETATM    5  C9  UNL     1     -27.961  -1.716  10.247  1.00 20.00     0.149 C 
HETATM    6  N10 UNL     1     -26.713  -2.462  10.124  1.00 20.00    -0.293 NA
ENDROOT
BRANCH   1   7
HETATM    7  C4  UNL     1     -24.430  -2.979  10.643  1.00 20.00    -0.005 A 
HETATM    8  C1  UNL     1     -23.907  -3.383   9.380  1.00 20.00     0.021 A 
HETATM    9  C2  UNL     1     -22.740  -4.104   9.510  1.00 20.00     0.050 A 
HETATM   10  S11 UNL     1     -22.281  -4.292  11.149  1.00 20.00    -0.113 SA
HETATM   11  C3  UNL     1     -23.644  -3.408  11.690  1.00 20.00     0.063 A 
ENDBRANCH   1   7
TORSDOF 1
ENDMDL
