MODEL 1
REMARK VINA RESULT:      -4.0      0.000      0.000
REMARK  0 active torsions:
REMARK  status: ('A' for Active; 'I' for Inactive)
ROOT
HETATM    1  C1  UNL     1     -34.060   7.255   4.239  1.00 20.00     0.075 C 
HETATM    2  C2  UNL     1     -33.020   7.668   5.273  1.00 20.00     0.273 C 
HETATM    3  C3  UNL     1     -34.597   6.268   6.315  1.00 20.00     0.312 C 
HETATM    4  C4  UNL     1     -34.706   6.011   4.824  1.00 20.00     0.127 C 
HETATM    5  C5  UNL     1     -34.023   4.725   4.374  1.00 20.00     0.053 C 
HETATM    6  N6  UNL     1     -33.277   6.882   6.490  1.00 20.00     0.086 N 
HETATM    7  F7  UNL     1     -36.010   5.957   4.457  1.00 20.00    -0.241 F 
HETATM    8  H17 UNL     1     -32.558   6.174   6.621  1.00 20.00     0.316 HD
ENDROOT
TORSDOF 0
ENDMDL
MODEL 2
REMARK VINA RESULT:      -3.9      1.396      2.010
REMARK  0 active torsions:
REMARK  status: ('A' for Active; 'I' for Inactive)
ROOT
HETATM    1  C1  UNL     1     -34.413   5.757   6.262  1.00 20.00     0.075 C 
HETATM    2  C2  UNL     1     -33.942   7.194   6.451  1.00 20.00     0.273 C 
HETATM    3  C3  UNL     1     -33.412   6.515   4.262  1.00 20.00     0.312 C 
HETATM    4  C4  UNL     1     -34.501   5.581   4.756  1.00 20.00     0.127 C 
HETATM    5  C5  UNL     1     -35.883   5.908   4.203  1.00 20.00     0.053 C 
HETATM    6  N6  UNL     1     -33.507   7.689   5.136  1.00 20.00     0.086 N 
HETATM    7  F7  UNL     1     -34.197   4.301   4.427  1.00 20.00    -0.241 F 
HETATM    8  H17 UNL     1     -34.171   8.367   4.767  1.00 20.00     0.316 HD
ENDROOT
TORSDOF 0
ENDMDL
MODEL 3
REMARK VINA RESULT:      -3.9      1.848      2.379
REMARK  0 active torsions:
REMARK  status: ('A' for Active; 'I' for Inactive)
ROOT
HETATM    1  C1  UNL     1     -33.812   6.822   6.199  1.00 20.00     0.075 C 
HETATM    2  C2  UNL     1     -34.313   5.409   6.472  1.00 20.00     0.273 C 
HETATM    3  C3  UNL     1     -35.302   6.181   4.483  1.00 20.00     0.312 C 
HETATM    4  C4  UNL     1     -34.072   7.038   4.718  1.00 20.00     0.127 C 
HETATM    5  C5  UNL     1     -32.883   6.650   3.847  1.00 20.00     0.053 C 
HETATM    6  N6  UNL     1     -35.076   4.978   5.291  1.00 20.00     0.086 N 
HETATM    7  F7  UNL     1     -34.365   8.342   4.491  1.00 20.00    -0.241 F 
HETATM    8  H17 UNL     1     -34.561   4.276   4.765  1.00 20.00     0.316 HD
ENDROOT
TORSDOF 0
ENDMDL
MODEL 4
REMARK VINA RESULT:      -3.6     15.792     16.631
REMARK  0 active torsions:
REMARK  status: ('A' for Active; 'I' for Inactive)
ROOT
HETATM    1  C1  UNL     1     -23.075  18.781  11.078  1.00 20.00     0.075 C 
HETATM    2  C2  UNL     1     -22.728  17.988  12.332  1.00 20.00     0.273 C 
HETATM    3  C3  UNL     1     -24.211  16.712  11.026  1.00 20.00     0.312 C 
HETATM    4  C4  UNL     1     -23.589  17.740  10.099  1.00 20.00     0.127 C 
HETATM    5  C5  UNL     1     -22.490  17.173   9.208  1.00 20.00     0.053 C 
HETATM    6  N6  UNL     1     -23.294  16.639  12.167  1.00 20.00     0.086 N 
HETATM    7  F7  UNL     1     -24.544  18.288   9.307  1.00 20.00    -0.241 F 
HETATM    8  H17 UNL     1     -22.557  15.957  12.003  1.00 20.00     0.316 HD
ENDROOT
TORSDOF 0
ENDMDL
MODEL 5
REMARK VINA RESULT:      -3.4     16.451     16.876
REMARK  0 active torsions:
REMARK  status: ('A' for Active; 'I' for Inactive)
ROOT
HETATM    1  C1  UNL     1     -23.374  17.477  10.165  1.00 20.00     0.075 C 
HETATM    2  C2  UNL     1     -24.139  18.678   9.623  1.00 20.00     0.273 C 
HETATM    3  C3  UNL     1     -24.885  18.239  11.810  1.00 20.00     0.312 C 
HETATM    4  C4  UNL     1     -23.529  17.575  11.672  1.00 20.00     0.127 C 
HETATM    5  C5  UNL     1     -22.397  18.353  12.332  1.00 20.00     0.053 C 
HETATM    6  N6  UNL     1     -24.919  19.239  10.738  1.00 20.00     0.086 N 
HETATM    7  F7  UNL     1     -23.565  16.330  12.210  1.00 20.00    -0.241 F 
HETATM    8  H17 UNL     1     -24.522  20.123  11.048  1.00 20.00     0.316 HD
ENDROOT
TORSDOF 0
ENDMDL
MODEL 6
REMARK VINA RESULT:      -3.4     16.220     17.201
REMARK  0 active torsions:
REMARK  status: ('A' for Active; 'I' for Inactive)
ROOT
HETATM    1  C1  UNL     1     -23.592  18.590  10.117  1.00 20.00     0.075 C 
HETATM    2  C2  UNL     1     -22.073  18.472  10.086  1.00 20.00     0.273 C 
HETATM    3  C3  UNL     1     -22.782  18.422  12.328  1.00 20.00     0.312 C 
HETATM    4  C4  UNL     1     -23.988  18.056  11.483  1.00 20.00     0.127 C 
HETATM    5  C5  UNL     1     -24.292  16.563  11.467  1.00 20.00     0.053 C 
HETATM    6  N6  UNL     1     -21.629  18.174  11.457  1.00 20.00     0.086 N 
HETATM    7  F7  UNL     1     -25.085  18.714  11.931  1.00 20.00    -0.241 F 
HETATM    8  H17 UNL     1     -21.313  17.209  11.532  1.00 20.00     0.316 HD
ENDROOT
TORSDOF 0
ENDMDL
MODEL 7
REMARK VINA RESULT:      -3.3     16.193     16.935
REMARK  0 active torsions:
REMARK  status: ('A' for Active; 'I' for Inactive)
ROOT
HETATM    1  C1  UNL     1     -24.263  17.074  10.839  1.00 20.00     0.075 C 
HETATM    2  C2  UNL     1     -24.439  17.922  12.092  1.00 20.00     0.273 C 
HETATM    3  C3  UNL     1     -22.364  18.449  11.117  1.00 20.00     0.312 C 
HETATM    4  C4  UNL     1     -23.203  17.803  10.031  1.00 20.00     0.127 C 
HETATM    5  C5  UNL     1     -23.798  18.800   9.043  1.00 20.00     0.053 C 
HETATM    6  N6  UNL     1     -23.336  18.896  12.120  1.00 20.00     0.086 N 
HETATM    7  F7  UNL     1     -22.457  16.906   9.340  1.00 20.00    -0.241 F 
HETATM    8  H17 UNL     1     -23.676  19.832  11.909  1.00 20.00     0.316 HD
ENDROOT
TORSDOF 0
ENDMDL
MODEL 8
REMARK VINA RESULT:      -3.3      8.732      9.300
REMARK  0 active torsions:
REMARK  status: ('A' for Active; 'I' for Inactive)
ROOT
HETATM    1  C1  UNL     1     -40.991   5.828  -0.437  1.00 20.00     0.075 C 
HETATM    2  C2  UNL     1     -42.428   5.461  -0.789  1.00 20.00     0.273 C 
HETATM    3  C3  UNL     1     -42.448   6.780   1.159  1.00 20.00     0.312 C 
HETATM    4  C4  UNL     1     -41.119   7.037   0.473  1.00 20.00     0.127 C 
HETATM    5  C5  UNL     1     -41.071   8.357  -0.288  1.00 20.00     0.053 C 
HETATM    6  N6  UNL     1     -43.307   6.229   0.107  1.00 20.00     0.086 N 
HETATM    7  F7  UNL     1     -40.117   7.030   1.386  1.00 20.00    -0.241 F 
HETATM    8  H17 UNL     1     -43.783   6.970  -0.403  1.00 20.00     0.316 HD
ENDROOT
TORSDOF 0
ENDMDL
MODEL 9
REMARK VINA RESULT:      -3.2      8.715      9.217
REMARK  0 active torsions:
REMARK  status: ('A' for Active; 'I' for Inactive)
ROOT
HETATM    1  C1  UNL     1     -42.360   6.904   1.276  1.00 20.00     0.075 C 
HETATM    2  C2  UNL     1     -43.350   7.687   0.423  1.00 20.00     0.273 C 
HETATM    3  C3  UNL     1     -41.169   8.313  -0.196  1.00 20.00     0.312 C 
HETATM    4  C4  UNL     1     -41.054   6.973   0.504  1.00 20.00     0.127 C 
HETATM    5  C5  UNL     1     -40.870   5.799  -0.450  1.00 20.00     0.053 C 
HETATM    6  N6  UNL     1     -42.575   8.398  -0.606  1.00 20.00     0.086 N 
HETATM    7  F7  UNL     1     -40.011   6.990   1.371  1.00 20.00    -0.241 F 
HETATM    8  H17 UNL     1     -42.716   7.976  -1.521  1.00 20.00     0.316 HD
ENDROOT
TORSDOF 0
ENDMDL
