MODEL 1
REMARK VINA RESULT:      -4.3      0.000      0.000
REMARK  0 active torsions:
REMARK  status: ('A' for Active; 'I' for Inactive)
ROOT
HETATM    1  C1  UNL     1     -31.988   8.450   0.820  1.00 20.00     0.012 C 
HETATM    2  C2  UNL     1     -32.186   7.864   1.849  1.00 20.00    -0.113 C 
HETATM    3  C3  UNL     1     -33.311   5.919   2.876  1.00 20.00     0.047 C 
HETATM    4  C4  UNL     1     -33.087   8.072   4.140  1.00 20.00     0.047 C 
HETATM    5  C5  UNL     1     -33.671   5.230   4.195  1.00 20.00     0.273 C 
HETATM    6  C6  UNL     1     -33.453   7.312   5.418  1.00 20.00     0.273 C 
HETATM    7  C7  UNL     1     -32.429   7.148   3.112  1.00 20.00     0.067 C 
HETATM    8  C8  UNL     1     -34.706   5.481   6.355  1.00 20.00     0.309 C 
HETATM    9  N9  UNL     1     -34.323   6.166   5.121  1.00 20.00     0.084 N 
ENDROOT
TORSDOF 0
ENDMDL
MODEL 2
REMARK VINA RESULT:      -3.8     11.797     13.170
REMARK  0 active torsions:
REMARK  status: ('A' for Active; 'I' for Inactive)
ROOT
HETATM    1  C1  UNL     1     -33.537  17.434  -1.029  1.00 20.00     0.012 C 
HETATM    2  C2  UNL     1     -33.525  17.164  -2.199  1.00 20.00    -0.113 C 
HETATM    3  C3  UNL     1     -34.590  17.617  -4.382  1.00 20.00     0.047 C 
HETATM    4  C4  UNL     1     -33.720  15.329  -3.841  1.00 20.00     0.047 C 
HETATM    5  C5  UNL     1     -34.667  17.196  -5.851  1.00 20.00     0.273 C 
HETATM    6  C6  UNL     1     -33.825  14.984  -5.329  1.00 20.00     0.273 C 
HETATM    7  C7  UNL     1     -33.510  16.831  -3.632  1.00 20.00     0.067 C 
HETATM    8  C8  UNL     1     -35.019  15.372  -7.384  1.00 20.00     0.309 C 
HETATM    9  N9  UNL     1     -34.897  15.751  -5.976  1.00 20.00     0.084 N 
ENDROOT
TORSDOF 0
ENDMDL
MODEL 3
REMARK VINA RESULT:      -3.7     12.213     12.787
REMARK  0 active torsions:
REMARK  status: ('A' for Active; 'I' for Inactive)
ROOT
HETATM    1  C1  UNL     1     -29.440  19.009   2.780  1.00 20.00     0.012 C 
HETATM    2  C2  UNL     1     -30.378  18.702   2.097  1.00 20.00    -0.113 C 
HETATM    3  C3  UNL     1     -31.214  18.542  -0.223  1.00 20.00     0.047 C 
HETATM    4  C4  UNL     1     -32.770  19.133   1.652  1.00 20.00     0.047 C 
HETATM    5  C5  UNL     1     -32.439  18.269  -1.098  1.00 20.00     0.273 C 
HETATM    6  C6  UNL     1     -33.944  18.839   0.714  1.00 20.00     0.273 C 
HETATM    7  C7  UNL     1     -31.530  18.326   1.260  1.00 20.00     0.067 C 
HETATM    8  C8  UNL     1     -34.728  18.861  -1.563  1.00 20.00     0.309 C 
HETATM    9  N9  UNL     1     -33.581  19.096  -0.685  1.00 20.00     0.084 N 
ENDROOT
TORSDOF 0
ENDMDL
MODEL 4
REMARK VINA RESULT:      -3.5     10.201     10.957
REMARK  0 active torsions:
REMARK  status: ('A' for Active; 'I' for Inactive)
ROOT
HETATM    1  C1  UNL     1     -38.944  11.644   4.115  1.00 20.00     0.012 C 
HETATM    2  C2  UNL     1     -39.775  12.142   4.824  1.00 20.00    -0.113 C 
HETATM    3  C3  UNL     1     -41.593  13.811   4.932  1.00 20.00     0.047 C 
HETATM    4  C4  UNL     1     -40.142  13.380   6.930  1.00 20.00     0.047 C 
HETATM    5  C5  UNL     1     -42.575  14.538   5.854  1.00 20.00     0.273 C 
HETATM    6  C6  UNL     1     -41.173  14.121   7.786  1.00 20.00     0.273 C 
HETATM    7  C7  UNL     1     -40.793  12.752   5.695  1.00 20.00     0.067 C 
HETATM    8  C8  UNL     1     -42.824  15.873   7.844  1.00 20.00     0.309 C 
HETATM    9  N9  UNL     1     -41.880  15.139   7.000  1.00 20.00     0.084 N 
ENDROOT
TORSDOF 0
ENDMDL
MODEL 5
REMARK VINA RESULT:      -3.5     10.433     11.269
REMARK  0 active torsions:
REMARK  status: ('A' for Active; 'I' for Inactive)
ROOT
HETATM    1  C1  UNL     1     -39.354  11.761   4.669  1.00 20.00     0.012 C 
HETATM    2  C2  UNL     1     -40.144  12.426   5.281  1.00 20.00    -0.113 C 
HETATM    3  C3  UNL     1     -40.406  14.088   7.090  1.00 20.00     0.047 C 
HETATM    4  C4  UNL     1     -42.168  12.350   6.696  1.00 20.00     0.047 C 
HETATM    5  C5  UNL     1     -41.410  14.851   7.957  1.00 20.00     0.273 C 
HETATM    6  C6  UNL     1     -43.115  13.170   7.576  1.00 20.00     0.273 C 
HETATM    7  C7  UNL     1     -41.115  13.240   6.031  1.00 20.00     0.067 C 
HETATM    8  C8  UNL     1     -43.291  14.672   9.450  1.00 20.00     0.309 C 
HETATM    9  N9  UNL     1     -42.371  13.934   8.586  1.00 20.00     0.084 N 
ENDROOT
TORSDOF 0
ENDMDL
MODEL 6
REMARK VINA RESULT:      -3.5      1.390      4.073
REMARK  0 active torsions:
REMARK  status: ('A' for Active; 'I' for Inactive)
ROOT
HETATM    1  C1  UNL     1     -34.700   5.186   6.864  1.00 20.00     0.012 C 
HETATM    2  C2  UNL     1     -34.462   5.767   5.841  1.00 20.00    -0.113 C 
HETATM    3  C3  UNL     1     -33.455   5.561   3.594  1.00 20.00     0.047 C 
HETATM    4  C4  UNL     1     -33.317   7.723   4.857  1.00 20.00     0.047 C 
HETATM    5  C5  UNL     1     -33.040   6.320   2.332  1.00 20.00     0.273 C 
HETATM    6  C6  UNL     1     -32.907   8.410   3.552  1.00 20.00     0.273 C 
HETATM    7  C7  UNL     1     -34.172   6.481   4.587  1.00 20.00     0.067 C 
HETATM    8  C8  UNL     1     -31.770   8.164   1.443  1.00 20.00     0.309 C 
HETATM    9  N9  UNL     1     -32.200   7.480   2.662  1.00 20.00     0.084 N 
ENDROOT
TORSDOF 0
ENDMDL
MODEL 7
REMARK VINA RESULT:      -3.4     11.818     13.169
REMARK  0 active torsions:
REMARK  status: ('A' for Active; 'I' for Inactive)
ROOT
HETATM    1  C1  UNL     1     -32.561  18.496  -0.060  1.00 20.00     0.012 C 
HETATM    2  C2  UNL     1     -32.721  18.155  -1.200  1.00 20.00    -0.113 C 
HETATM    3  C3  UNL     1     -33.977  18.605  -3.279  1.00 20.00     0.047 C 
HETATM    4  C4  UNL     1     -33.325  16.263  -2.668  1.00 20.00     0.047 C 
HETATM    5  C5  UNL     1     -34.278  18.108  -4.695  1.00 20.00     0.273 C 
HETATM    6  C6  UNL     1     -33.647  15.843  -4.105  1.00 20.00     0.273 C 
HETATM    7  C7  UNL     1     -32.916  17.736  -2.597  1.00 20.00     0.067 C 
HETATM    8  C8  UNL     1     -35.023  16.253  -6.038  1.00 20.00     0.309 C 
HETATM    9  N9  UNL     1     -34.691  16.698  -4.685  1.00 20.00     0.084 N 
ENDROOT
TORSDOF 0
ENDMDL
MODEL 8
REMARK VINA RESULT:      -3.2     11.816     12.811
REMARK  0 active torsions:
REMARK  status: ('A' for Active; 'I' for Inactive)
ROOT
HETATM    1  C1  UNL     1     -34.305  15.076  -5.858  1.00 20.00     0.012 C 
HETATM    2  C2  UNL     1     -34.090  15.930  -5.042  1.00 20.00    -0.113 C 
HETATM    3  C3  UNL     1     -33.480  16.357  -2.686  1.00 20.00     0.047 C 
HETATM    4  C4  UNL     1     -35.039  17.903  -3.896  1.00 20.00     0.047 C 
HETATM    5  C5  UNL     1     -33.320  17.430  -1.607  1.00 20.00     0.273 C 
HETATM    6  C6  UNL     1     -34.827  18.925  -2.777  1.00 20.00     0.273 C 
HETATM    7  C7  UNL     1     -33.827  16.978  -4.042  1.00 20.00     0.067 C 
HETATM    8  C8  UNL     1     -34.379  19.247  -0.433  1.00 20.00     0.309 C 
HETATM    9  N9  UNL     1     -34.527  18.261  -1.502  1.00 20.00     0.084 N 
ENDROOT
TORSDOF 0
ENDMDL
MODEL 9
REMARK VINA RESULT:      -3.2     12.055     13.240
REMARK  0 active torsions:
REMARK  status: ('A' for Active; 'I' for Inactive)
ROOT
HETATM    1  C1  UNL     1     -34.441  15.352  -6.669  1.00 20.00     0.012 C 
HETATM    2  C2  UNL     1     -34.400  15.987  -5.651  1.00 20.00    -0.113 C 
HETATM    3  C3  UNL     1     -33.944  18.215  -4.684  1.00 20.00     0.047 C 
HETATM    4  C4  UNL     1     -33.367  16.134  -3.412  1.00 20.00     0.047 C 
HETATM    5  C5  UNL     1     -33.770  19.007  -3.387  1.00 20.00     0.273 C 
HETATM    6  C6  UNL     1     -33.212  16.995  -2.155  1.00 20.00     0.273 C 
HETATM    7  C7  UNL     1     -34.348  16.765  -4.402  1.00 20.00     0.067 C 
HETATM    8  C8  UNL     1     -32.603  19.156  -1.285  1.00 20.00     0.309 C 
HETATM    9  N9  UNL     1     -32.795  18.361  -2.498  1.00 20.00     0.084 N 
ENDROOT
TORSDOF 0
ENDMDL
