MODEL 1
REMARK VINA RESULT:      -4.4      0.000      0.000
REMARK  1 active torsions:
REMARK  status: ('A' for Active; 'I' for Inactive)
REMARK    1  A    between atoms: C9_9  and  S11_11 
ROOT
HETATM    1  C1  UNL     1     -33.593  18.811   1.256  1.00 20.00     0.015 A 
HETATM    2  C2  UNL     1     -32.122  19.155   3.185  1.00 20.00     0.016 A 
HETATM    3  C3  UNL     1     -33.749  18.573  -0.106  1.00 20.00     0.025 A 
HETATM    4  C4  UNL     1     -30.841  19.251   3.708  1.00 20.00     0.039 A 
HETATM    5  C5  UNL     1     -31.349  18.540  -0.355  1.00 20.00     0.056 A 
HETATM    6  C6  UNL     1     -32.308  18.915   1.817  1.00 20.00    -0.007 A 
HETATM    7  C7  UNL     1     -31.163  18.779   1.004  1.00 20.00     0.070 A 
HETATM    8  C8  UNL     1     -32.626  18.436  -0.912  1.00 20.00     0.036 A 
HETATM    9  C9  UNL     1     -29.782  19.105   2.835  1.00 20.00     0.091 A 
HETATM   10  N10 UNL     1     -29.919  18.872   1.510  1.00 20.00    -0.242 NA
HETATM   11 CL12 UNL     1     -32.807  18.140  -2.598  1.00 20.00    -0.084 Cl
ENDROOT
BRANCH   9  12
HETATM   12  S11 UNL     1     -28.112  19.221   3.453  1.00 20.00    -0.123 SA
HETATM   13  H18 UNL     1     -27.673  20.139   2.580  1.00 20.00     0.108 HD
ENDBRANCH   9  12
TORSDOF 1
ENDMDL
MODEL 2
REMARK VINA RESULT:      -4.1      3.396      4.536
REMARK  1 active torsions:
REMARK  status: ('A' for Active; 'I' for Inactive)
REMARK    1  A    between atoms: C9_9  and  S11_11 
ROOT
HETATM    1  C1  UNL     1     -32.903  19.263   2.425  1.00 20.00     0.015 A 
HETATM    2  C2  UNL     1     -34.281  18.874   0.436  1.00 20.00     0.016 A 
HETATM    3  C3  UNL     1     -31.654  19.263   3.036  1.00 20.00     0.025 A 
HETATM    4  C4  UNL     1     -34.379  18.494  -0.894  1.00 20.00     0.039 A 
HETATM    5  C5  UNL     1     -30.664  18.506   0.969  1.00 20.00     0.056 A 
HETATM    6  C6  UNL     1     -33.036  18.883   1.078  1.00 20.00    -0.007 A 
HETATM    7  C7  UNL     1     -31.902  18.497   0.332  1.00 20.00     0.070 A 
HETATM    8  C8  UNL     1     -30.533  18.884   2.308  1.00 20.00     0.036 A 
HETATM    9  C9  UNL     1     -33.215  18.132  -1.541  1.00 20.00     0.091 A 
HETATM   10  N10 UNL     1     -31.994  18.127  -0.960  1.00 20.00    -0.242 NA
HETATM   11 CL12 UNL     1     -28.982  18.882   3.054  1.00 20.00    -0.084 Cl
ENDROOT
BRANCH   9  12
HETATM   12  S11 UNL     1     -33.281  17.633  -3.253  1.00 20.00    -0.123 SA
HETATM   13  H18 UNL     1     -31.960  17.504  -3.442  1.00 20.00     0.108 HD
ENDBRANCH   9  12
TORSDOF 1
ENDMDL
MODEL 3
REMARK VINA RESULT:      -4.1      3.939      5.407
REMARK  1 active torsions:
REMARK  status: ('A' for Active; 'I' for Inactive)
REMARK    1  A    between atoms: C9_9  and  S11_11 
ROOT
HETATM    1  C1  UNL     1     -31.146  18.403  -0.342  1.00 20.00     0.015 A 
HETATM    2  C2  UNL     1     -32.721  18.428  -2.219  1.00 20.00     0.016 A 
HETATM    3  C3  UNL     1     -30.896  18.577   1.015  1.00 20.00     0.025 A 
HETATM    4  C4  UNL     1     -34.008  18.627  -2.697  1.00 20.00     0.039 A 
HETATM    5  C5  UNL     1     -33.219  19.138   1.352  1.00 20.00     0.056 A 
HETATM    6  C6  UNL     1     -32.440  18.597  -0.857  1.00 20.00    -0.007 A 
HETATM    7  C7  UNL     1     -33.498  18.971  -0.002  1.00 20.00     0.070 A 
HETATM    8  C8  UNL     1     -31.933  18.944   1.863  1.00 20.00     0.036 A 
HETATM    9  C9  UNL     1     -34.977  18.992  -1.785  1.00 20.00     0.091 A 
HETATM   10  N10 UNL     1     -34.748  19.165  -0.463  1.00 20.00    -0.242 NA
HETATM   11 CL12 UNL     1     -31.635  19.161   3.544  1.00 20.00    -0.084 Cl
ENDROOT
BRANCH   9  12
HETATM   12  S11 UNL     1     -36.650  19.263  -2.343  1.00 20.00    -0.123 SA
HETATM   13  H18 UNL     1     -36.419  19.100  -3.654  1.00 20.00     0.108 HD
ENDBRANCH   9  12
TORSDOF 1
ENDMDL
MODEL 4
REMARK VINA RESULT:      -4.1      2.022      3.003
REMARK  1 active torsions:
REMARK  status: ('A' for Active; 'I' for Inactive)
REMARK    1  A    between atoms: C9_9  and  S11_11 
ROOT
HETATM    1  C1  UNL     1     -32.712  18.365  -2.003  1.00 20.00     0.015 A 
HETATM    2  C2  UNL     1     -31.066  18.360  -0.189  1.00 20.00     0.016 A 
HETATM    3  C3  UNL     1     -34.016  18.578  -2.438  1.00 20.00     0.025 A 
HETATM    4  C4  UNL     1     -30.761  18.569   1.148  1.00 20.00     0.039 A 
HETATM    5  C5  UNL     1     -34.644  19.195  -0.192  1.00 20.00     0.056 A 
HETATM    6  C6  UNL     1     -32.371  18.567  -0.655  1.00 20.00    -0.007 A 
HETATM    7  C7  UNL     1     -33.348  18.988   0.272  1.00 20.00     0.070 A 
HETATM    8  C8  UNL     1     -34.983  18.994  -1.532  1.00 20.00     0.036 A 
HETATM    9  C9  UNL     1     -31.782  18.980   1.979  1.00 20.00     0.091 A 
HETATM   10  N10 UNL     1     -33.054  19.191   1.570  1.00 20.00    -0.242 NA
HETATM   11 CL12 UNL     1     -36.599  19.262  -2.060  1.00 20.00    -0.084 Cl
ENDROOT
BRANCH   9  12
HETATM   12  S11 UNL     1     -31.448  19.262   3.709  1.00 20.00    -0.123 SA
HETATM   13  H18 UNL     1     -32.605  18.780   4.186  1.00 20.00     0.108 HD
ENDBRANCH   9  12
TORSDOF 1
ENDMDL
MODEL 5
REMARK VINA RESULT:      -4.0      5.674      7.189
REMARK  1 active torsions:
REMARK  status: ('A' for Active; 'I' for Inactive)
REMARK    1  A    between atoms: C9_9  and  S11_11 
ROOT
HETATM    1  C1  UNL     1     -34.081  15.102  -5.467  1.00 20.00     0.015 A 
HETATM    2  C2  UNL     1     -33.232  15.975  -3.341  1.00 20.00     0.016 A 
HETATM    3  C3  UNL     1     -34.958  15.207  -6.542  1.00 20.00     0.025 A 
HETATM    4  C4  UNL     1     -33.279  16.933  -2.338  1.00 20.00     0.039 A 
HETATM    5  C5  UNL     1     -35.883  17.211  -5.565  1.00 20.00     0.056 A 
HETATM    6  C6  UNL     1     -34.104  16.056  -4.435  1.00 20.00    -0.007 A 
HETATM    7  C7  UNL     1     -35.018  17.130  -4.478  1.00 20.00     0.070 A 
HETATM    8  C8  UNL     1     -35.860  16.263  -6.591  1.00 20.00     0.036 A 
HETATM    9  C9  UNL     1     -34.207  17.946  -2.467  1.00 20.00     0.091 A 
HETATM   10  N10 UNL     1     -35.065  18.061  -3.506  1.00 20.00    -0.242 NA
HETATM   11 CL12 UNL     1     -36.949  16.403  -7.917  1.00 20.00    -0.084 Cl
ENDROOT
BRANCH   9  12
HETATM   12  S11 UNL     1     -34.313  19.204  -1.206  1.00 20.00    -0.123 SA
HETATM   13  H18 UNL     1     -33.159  18.919  -0.586  1.00 20.00     0.108 HD
ENDBRANCH   9  12
TORSDOF 1
ENDMDL
MODEL 6
REMARK VINA RESULT:      -4.0      6.396      8.202
REMARK  1 active torsions:
REMARK  status: ('A' for Active; 'I' for Inactive)
REMARK    1  A    between atoms: C9_9  and  S11_11 
ROOT
HETATM    1  C1  UNL     1     -33.269  16.031  -3.057  1.00 20.00     0.015 A 
HETATM    2  C2  UNL     1     -33.944  15.133  -5.234  1.00 20.00     0.016 A 
HETATM    3  C3  UNL     1     -33.391  17.006  -2.072  1.00 20.00     0.025 A 
HETATM    4  C4  UNL     1     -34.725  15.230  -6.376  1.00 20.00     0.039 A 
HETATM    5  C5  UNL     1     -35.060  18.121  -3.411  1.00 20.00     0.056 A 
HETATM    6  C6  UNL     1     -34.046  16.101  -4.226  1.00 20.00    -0.007 A 
HETATM    7  C7  UNL     1     -34.958  17.161  -4.413  1.00 20.00     0.070 A 
HETATM    8  C8  UNL     1     -34.288  18.052  -2.249  1.00 20.00     0.036 A 
HETATM    9  C9  UNL     1     -35.588  16.302  -6.470  1.00 20.00     0.091 A 
HETATM   10  N10 UNL     1     -35.718  17.257  -5.521  1.00 20.00    -0.242 NA
HETATM   11 CL12 UNL     1     -34.448  19.263  -1.036  1.00 20.00    -0.084 Cl
ENDROOT
BRANCH   9  12
HETATM   12  S11 UNL     1     -36.616  16.477  -7.918  1.00 20.00    -0.123 SA
HETATM   13  H18 UNL     1     -36.643  15.182  -8.264  1.00 20.00     0.108 HD
ENDBRANCH   9  12
TORSDOF 1
ENDMDL
MODEL 7
REMARK VINA RESULT:      -3.9     11.791     12.355
REMARK  1 active torsions:
REMARK  status: ('A' for Active; 'I' for Inactive)
REMARK    1  A    between atoms: C9_9  and  S11_11 
ROOT
HETATM    1  C1  UNL     1     -41.998  14.369   5.565  1.00 20.00     0.015 A 
HETATM    2  C2  UNL     1     -42.368  15.376   7.768  1.00 20.00     0.016 A 
HETATM    3  C3  UNL     1     -41.280  13.500   4.750  1.00 20.00     0.025 A 
HETATM    4  C4  UNL     1     -42.014  15.491   9.104  1.00 20.00     0.039 A 
HETATM    5  C5  UNL     1     -39.895  12.906   6.634  1.00 20.00     0.056 A 
HETATM    6  C6  UNL     1     -41.663  14.509   6.923  1.00 20.00    -0.007 A 
HETATM    7  C7  UNL     1     -40.595  13.769   7.474  1.00 20.00     0.070 A 
HETATM    8  C8  UNL     1     -40.228  12.768   5.285  1.00 20.00     0.036 A 
HETATM    9  C9  UNL     1     -40.955  14.728   9.551  1.00 20.00     0.091 A 
HETATM   10  N10 UNL     1     -40.249  13.879   8.770  1.00 20.00    -0.242 NA
HETATM   11 CL12 UNL     1     -39.335  11.688   4.285  1.00 20.00    -0.084 Cl
ENDROOT
BRANCH   9  12
HETATM   12  S11 UNL     1     -40.454  14.836  11.260  1.00 20.00    -0.123 SA
HETATM   13  H18 UNL     1     -41.477  14.142  11.781  1.00 20.00     0.108 HD
ENDBRANCH   9  12
TORSDOF 1
ENDMDL
MODEL 8
REMARK VINA RESULT:      -3.8      5.013      6.708
REMARK  1 active torsions:
REMARK  status: ('A' for Active; 'I' for Inactive)
REMARK    1  A    between atoms: C9_9  and  S11_11 
ROOT
HETATM    1  C1  UNL     1     -35.124  19.210  -1.914  1.00 20.00     0.015 A 
HETATM    2  C2  UNL     1     -35.817  18.207  -4.039  1.00 20.00     0.016 A 
HETATM    3  C3  UNL     1     -34.241  19.253  -0.840  1.00 20.00     0.025 A 
HETATM    4  C4  UNL     1     -35.612  17.270  -5.041  1.00 20.00     0.039 A 
HETATM    5  C5  UNL     1     -32.997  17.429  -1.816  1.00 20.00     0.056 A 
HETATM    6  C6  UNL     1     -34.944  18.272  -2.946  1.00 20.00    -0.007 A 
HETATM    7  C7  UNL     1     -33.865  17.364  -2.902  1.00 20.00     0.070 A 
HETATM    8  C8  UNL     1     -33.176  18.362  -0.791  1.00 20.00     0.036 A 
HETATM    9  C9  UNL     1     -34.531  16.423  -4.912  1.00 20.00     0.091 A 
HETATM   10  N10 UNL     1     -33.664  16.453  -3.874  1.00 20.00    -0.242 NA
HETATM   11 CL12 UNL     1     -32.077  18.407   0.533  1.00 20.00    -0.084 Cl
ENDROOT
BRANCH   9  12
HETATM   12  S11 UNL     1     -34.219  15.197  -6.170  1.00 20.00    -0.123 SA
HETATM   13  H18 UNL     1     -35.102  14.284  -5.738  1.00 20.00     0.108 HD
ENDBRANCH   9  12
TORSDOF 1
ENDMDL
MODEL 9
REMARK VINA RESULT:      -3.8      7.212      9.139
REMARK  1 active torsions:
REMARK  status: ('A' for Active; 'I' for Inactive)
REMARK    1  A    between atoms: C9_9  and  S11_11 
ROOT
HETATM    1  C1  UNL     1     -33.827  14.882  -4.914  1.00 20.00     0.015 A 
HETATM    2  C2  UNL     1     -35.361  15.114  -6.811  1.00 20.00     0.016 A 
HETATM    3  C3  UNL     1     -33.252  15.415  -3.765  1.00 20.00     0.025 A 
HETATM    4  C4  UNL     1     -36.284  15.874  -7.515  1.00 20.00     0.039 A 
HETATM    5  C5  UNL     1     -34.544  17.429  -4.077  1.00 20.00     0.056 A 
HETATM    6  C6  UNL     1     -34.766  15.626  -5.650  1.00 20.00    -0.007 A 
HETATM    7  C7  UNL     1     -35.134  16.922  -5.230  1.00 20.00     0.070 A 
HETATM    8  C8  UNL     1     -33.611  16.690  -3.346  1.00 20.00     0.036 A 
HETATM    9  C9  UNL     1     -36.581  17.130  -7.028  1.00 20.00     0.091 A 
HETATM   10  N10 UNL     1     -36.030  17.661  -5.912  1.00 20.00    -0.242 NA
HETATM   11 CL12 UNL     1     -32.907  17.358  -1.924  1.00 20.00    -0.084 Cl
ENDROOT
BRANCH   9  12
HETATM   12  S11 UNL     1     -37.760  18.151  -7.894  1.00 20.00    -0.123 SA
HETATM   13  H18 UNL     1     -38.227  18.813  -6.825  1.00 20.00     0.108 HD
ENDBRANCH   9  12
TORSDOF 1
ENDMDL
