MODEL 1
REMARK VINA RESULT:      -5.0      0.000      0.000
REMARK  1 active torsions:
REMARK  status: ('A' for Active; 'I' for Inactive)
REMARK    1  A    between atoms: C2_2  and  C3_3 
ROOT
HETATM    1  C1  UNL     1     -34.625   5.440   6.305  1.00 20.00     0.080 C 
HETATM    2  C2  UNL     1     -34.484   5.914   4.867  1.00 20.00     0.272 C 
HETATM    3  F4  UNL     1     -35.726   6.228   4.402  1.00 20.00    -0.216 F 
HETATM    4 CL8  UNL     1     -33.824   4.597   3.862  1.00 20.00    -0.073 Cl
ENDROOT
BRANCH   2   5
HETATM    5  C3  UNL     1     -33.613   7.148   4.751  1.00 20.00     0.437 C 
HETATM    6  F5  UNL     1     -34.350   8.243   4.463  1.00 20.00    -0.166 F 
HETATM    7  F6  UNL     1     -32.963   7.389   5.911  1.00 20.00    -0.166 F 
HETATM    8  F7  UNL     1     -32.681   7.011   3.782  1.00 20.00    -0.166 F 
ENDBRANCH   2   5
TORSDOF 1
ENDMDL
MODEL 2
REMARK VINA RESULT:      -5.0      0.012      1.334
REMARK  1 active torsions:
REMARK  status: ('A' for Active; 'I' for Inactive)
REMARK    1  A    between atoms: C2_2  and  C3_3 
ROOT
HETATM    1  C1  UNL     1     -34.633   5.426   6.298  1.00 20.00     0.080 C 
HETATM    2  C2  UNL     1     -34.489   5.908   4.864  1.00 20.00     0.272 C 
HETATM    3  F4  UNL     1     -35.730   6.218   4.395  1.00 20.00    -0.216 F 
HETATM    4 CL8  UNL     1     -33.818   4.600   3.854  1.00 20.00    -0.073 Cl
ENDROOT
BRANCH   2   5
HETATM    5  C3  UNL     1     -33.623   7.147   4.757  1.00 20.00     0.437 C 
HETATM    6  F5  UNL     1     -32.970   7.390   5.915  1.00 20.00    -0.166 F 
HETATM    7  F6  UNL     1     -32.691   7.001   3.789  1.00 20.00    -0.166 F 
HETATM    8  F7  UNL     1     -34.354   8.243   4.457  1.00 20.00    -0.166 F 
ENDBRANCH   2   5
TORSDOF 1
ENDMDL
MODEL 3
REMARK VINA RESULT:      -4.9      1.772      2.539
REMARK  1 active torsions:
REMARK  status: ('A' for Active; 'I' for Inactive)
REMARK    1  A    between atoms: C2_2  and  C3_3 
ROOT
HETATM    1  C1  UNL     1     -34.063   4.525   4.296  1.00 20.00     0.080 C 
HETATM    2  C2  UNL     1     -34.359   5.921   4.820  1.00 20.00     0.272 C 
HETATM    3  F4  UNL     1     -35.655   6.217   4.524  1.00 20.00    -0.216 F 
HETATM    4 CL8  UNL     1     -33.310   7.106   3.998  1.00 20.00    -0.073 Cl
ENDROOT
BRANCH   2   5
HETATM    5  C3  UNL     1     -34.184   6.021   6.321  1.00 20.00     0.437 C 
HETATM    6  F5  UNL     1     -33.817   4.835   6.853  1.00 20.00    -0.166 F 
HETATM    7  F6  UNL     1     -33.224   6.920   6.635  1.00 20.00    -0.166 F 
HETATM    8  F7  UNL     1     -35.324   6.413   6.932  1.00 20.00    -0.166 F 
ENDBRANCH   2   5
TORSDOF 1
ENDMDL
MODEL 4
REMARK VINA RESULT:      -4.8      1.782      2.306
REMARK  1 active torsions:
REMARK  status: ('A' for Active; 'I' for Inactive)
REMARK    1  A    between atoms: C2_2  and  C3_3 
ROOT
HETATM    1  C1  UNL     1     -34.055   4.581   4.288  1.00 20.00     0.080 C 
HETATM    2  C2  UNL     1     -34.345   5.974   4.824  1.00 20.00     0.272 C 
HETATM    3  F4  UNL     1     -35.645   6.272   4.545  1.00 20.00    -0.216 F 
HETATM    4 CL8  UNL     1     -33.306   7.165   3.996  1.00 20.00    -0.073 Cl
ENDROOT
BRANCH   2   5
HETATM    5  C3  UNL     1     -34.152   6.066   6.323  1.00 20.00     0.437 C 
HETATM    6  F5  UNL     1     -35.276   6.499   6.936  1.00 20.00    -0.166 F 
HETATM    7  F6  UNL     1     -33.847   4.856   6.844  1.00 20.00    -0.166 F 
HETATM    8  F7  UNL     1     -33.151   6.914   6.648  1.00 20.00    -0.166 F 
ENDBRANCH   2   5
TORSDOF 1
ENDMDL
MODEL 5
REMARK VINA RESULT:      -4.6      1.864      2.936
REMARK  1 active torsions:
REMARK  status: ('A' for Active; 'I' for Inactive)
REMARK    1  A    between atoms: C2_2  and  C3_3 
ROOT
HETATM    1  C1  UNL     1     -32.869   6.707   3.756  1.00 20.00     0.080 C 
HETATM    2  C2  UNL     1     -33.979   6.897   4.778  1.00 20.00     0.272 C 
HETATM    3  F4  UNL     1     -34.713   7.983   4.407  1.00 20.00    -0.216 F 
HETATM    4 CL8  UNL     1     -33.271   7.218   6.382  1.00 20.00    -0.073 Cl
ENDROOT
BRANCH   2   5
HETATM    5  C3  UNL     1     -34.908   5.703   4.846  1.00 20.00     0.437 C 
HETATM    6  F5  UNL     1     -34.364   4.623   4.244  1.00 20.00    -0.166 F 
HETATM    7  F6  UNL     1     -35.164   5.365   6.130  1.00 20.00    -0.166 F 
HETATM    8  F7  UNL     1     -36.093   5.957   4.248  1.00 20.00    -0.166 F 
ENDBRANCH   2   5
TORSDOF 1
ENDMDL
MODEL 6
REMARK VINA RESULT:      -4.5      1.416      1.548
REMARK  1 active torsions:
REMARK  status: ('A' for Active; 'I' for Inactive)
REMARK    1  A    between atoms: C2_2  and  C3_3 
ROOT
HETATM    1  C1  UNL     1     -35.727   6.124   4.271  1.00 20.00     0.080 C 
HETATM    2  C2  UNL     1     -34.304   5.921   4.766  1.00 20.00     0.272 C 
HETATM    3  F4  UNL     1     -33.711   4.982   3.977  1.00 20.00    -0.216 F 
HETATM    4 CL8  UNL     1     -34.331   5.310   6.441  1.00 20.00    -0.073 Cl
ENDROOT
BRANCH   2   5
HETATM    5  C3  UNL     1     -33.480   7.190   4.686  1.00 20.00     0.437 C 
HETATM    6  F5  UNL     1     -34.251   8.256   4.381  1.00 20.00    -0.166 F 
HETATM    7  F6  UNL     1     -32.880   7.449   5.870  1.00 20.00    -0.166 F 
HETATM    8  F7  UNL     1     -32.511   7.098   3.749  1.00 20.00    -0.166 F 
ENDBRANCH   2   5
TORSDOF 1
ENDMDL
MODEL 7
REMARK VINA RESULT:      -4.4      1.544      2.834
REMARK  1 active torsions:
REMARK  status: ('A' for Active; 'I' for Inactive)
REMARK    1  A    between atoms: C2_2  and  C3_3 
ROOT
HETATM    1  C1  UNL     1     -34.347   8.168   4.830  1.00 20.00     0.080 C 
HETATM    2  C2  UNL     1     -33.747   6.773   4.909  1.00 20.00     0.272 C 
HETATM    3  F4  UNL     1     -32.934   6.725   6.002  1.00 20.00    -0.216 F 
HETATM    4 CL8  UNL     1     -32.757   6.462   3.459  1.00 20.00    -0.073 Cl
ENDROOT
BRANCH   2   5
HETATM    5  C3  UNL     1     -34.804   5.699   5.061  1.00 20.00     0.437 C 
HETATM    6  F5  UNL     1     -34.360   4.507   4.607  1.00 20.00    -0.166 F 
HETATM    7  F6  UNL     1     -35.142   5.538   6.360  1.00 20.00    -0.166 F 
HETATM    8  F7  UNL     1     -35.930   6.007   4.382  1.00 20.00    -0.166 F 
ENDBRANCH   2   5
TORSDOF 1
ENDMDL
MODEL 8
REMARK VINA RESULT:      -4.4      1.557      1.832
REMARK  1 active torsions:
REMARK  status: ('A' for Active; 'I' for Inactive)
REMARK    1  A    between atoms: C2_2  and  C3_3 
ROOT
HETATM    1  C1  UNL     1     -33.556   7.108   6.104  1.00 20.00     0.080 C 
HETATM    2  C2  UNL     1     -33.594   7.386   4.610  1.00 20.00     0.272 C 
HETATM    3  F4  UNL     1     -34.761   8.032   4.330  1.00 20.00    -0.216 F 
HETATM    4 CL8  UNL     1     -33.575   5.847   3.710  1.00 20.00    -0.073 Cl
ENDROOT
BRANCH   2   5
HETATM    5  C3  UNL     1     -32.448   8.269   4.159  1.00 20.00     0.437 C 
HETATM    6  F5  UNL     1     -32.813   9.056   3.123  1.00 20.00    -0.166 F 
HETATM    7  F6  UNL     1     -32.044   9.081   5.162  1.00 20.00    -0.166 F 
HETATM    8  F7  UNL     1     -31.380   7.541   3.769  1.00 20.00    -0.166 F 
ENDBRANCH   2   5
TORSDOF 1
ENDMDL
MODEL 9
REMARK VINA RESULT:      -4.3      1.355      1.426
REMARK  1 active torsions:
REMARK  status: ('A' for Active; 'I' for Inactive)
REMARK    1  A    between atoms: C2_2  and  C3_3 
ROOT
HETATM    1  C1  UNL     1     -34.057   4.565   4.723  1.00 20.00     0.080 C 
HETATM    2  C2  UNL     1     -34.660   5.915   5.074  1.00 20.00     0.272 C 
HETATM    3  F4  UNL     1     -35.018   5.889   6.389  1.00 20.00    -0.216 F 
HETATM    4 CL8  UNL     1     -36.127   6.191   4.099  1.00 20.00    -0.073 Cl
ENDROOT
BRANCH   2   5
HETATM    5  C3  UNL     1     -33.679   7.053   4.876  1.00 20.00     0.437 C 
HETATM    6  F5  UNL     1     -34.316   8.197   4.545  1.00 20.00    -0.166 F 
HETATM    7  F6  UNL     1     -32.983   7.290   6.011  1.00 20.00    -0.166 F 
HETATM    8  F7  UNL     1     -32.787   6.778   3.900  1.00 20.00    -0.166 F 
ENDBRANCH   2   5
TORSDOF 1
ENDMDL
