MODEL 1
REMARK VINA RESULT:      -5.3      0.000      0.000
REMARK  1 active torsions:
REMARK  status: ('A' for Active; 'I' for Inactive)
REMARK    1  A    between atoms: C2_2  and  C6_6 
ROOT
HETATM    1  C1  UNL     1     -34.606   5.245   6.321  1.00 20.00     0.119 A 
HETATM    2  C2  UNL     1     -33.947   6.779   4.860  1.00 20.00     0.043 A 
HETATM    3  C3  UNL     1     -34.111   6.646   6.325  1.00 20.00     0.105 A 
HETATM    4  N7  UNL     1     -34.694   4.730   5.137  1.00 20.00    -0.167 NA
HETATM    5  N8  UNL     1     -34.268   5.717   4.192  1.00 20.00    -0.159 NA
ENDROOT
BRANCH   2   6
HETATM    6  C6  UNL     1     -33.456   8.010   4.224  1.00 20.00     0.035 A 
HETATM    7  C4  UNL     1     -32.382   8.812   4.903  1.00 20.00     0.011 A 
HETATM    8  C5  UNL     1     -32.062   8.039   3.659  1.00 20.00     0.011 A 
ENDBRANCH   2   6
TORSDOF 1
ENDMDL
MODEL 2
REMARK VINA RESULT:      -5.1      1.554      3.500
REMARK  1 active torsions:
REMARK  status: ('A' for Active; 'I' for Inactive)
REMARK    1  A    between atoms: C2_2  and  C6_6 
ROOT
HETATM    1  C1  UNL     1     -32.220   8.755   4.429  1.00 20.00     0.119 A 
HETATM    2  C2  UNL     1     -33.662   7.076   4.587  1.00 20.00     0.043 A 
HETATM    3  C3  UNL     1     -33.390   8.367   5.258  1.00 20.00     0.105 A 
HETATM    4  N7  UNL     1     -31.919   7.886   3.519  1.00 20.00    -0.167 NA
HETATM    5  N8  UNL     1     -32.849   6.801   3.617  1.00 20.00    -0.159 NA
ENDROOT
BRANCH   2   6
HETATM    6  C6  UNL     1     -34.764   6.188   4.985  1.00 20.00     0.035 A 
HETATM    7  C4  UNL     1     -34.585   4.700   4.881  1.00 20.00     0.011 A 
HETATM    8  C5  UNL     1     -34.623   5.355   6.228  1.00 20.00     0.011 A 
ENDBRANCH   2   6
TORSDOF 1
ENDMDL
MODEL 3
REMARK VINA RESULT:      -5.0      1.873      3.719
REMARK  1 active torsions:
REMARK  status: ('A' for Active; 'I' for Inactive)
REMARK    1  A    between atoms: C2_2  and  C6_6 
ROOT
HETATM    1  C1  UNL     1     -31.973   8.012   3.553  1.00 20.00     0.119 A 
HETATM    2  C2  UNL     1     -33.697   7.127   4.634  1.00 20.00     0.043 A 
HETATM    3  C3  UNL     1     -32.794   6.774   3.515  1.00 20.00     0.105 A 
HETATM    4  N7  UNL     1     -32.336   8.847   4.472  1.00 20.00    -0.167 NA
HETATM    5  N8  UNL     1     -33.448   8.279   5.173  1.00 20.00    -0.159 NA
ENDROOT
BRANCH   2   6
HETATM    6  C6  UNL     1     -34.776   6.243   5.095  1.00 20.00     0.035 A 
HETATM    7  C4  UNL     1     -34.630   4.756   4.932  1.00 20.00     0.011 A 
HETATM    8  C5  UNL     1     -34.548   5.368   6.297  1.00 20.00     0.011 A 
ENDBRANCH   2   6
TORSDOF 1
ENDMDL
MODEL 4
REMARK VINA RESULT:      -4.8      1.198      1.352
REMARK  1 active torsions:
REMARK  status: ('A' for Active; 'I' for Inactive)
REMARK    1  A    between atoms: C2_2  and  C6_6 
ROOT
HETATM    1  C1  UNL     1     -34.808   4.950   5.556  1.00 20.00     0.119 A 
HETATM    2  C2  UNL     1     -33.947   6.923   5.018  1.00 20.00     0.043 A 
HETATM    3  C3  UNL     1     -34.518   5.741   4.333  1.00 20.00     0.105 A 
HETATM    4  N7  UNL     1     -34.476   5.552   6.653  1.00 20.00    -0.167 NA
HETATM    5  N8  UNL     1     -33.921   6.826   6.309  1.00 20.00    -0.159 NA
ENDROOT
BRANCH   2   6
HETATM    6  C6  UNL     1     -33.458   8.104   4.292  1.00 20.00     0.035 A 
HETATM    7  C4  UNL     1     -32.245   8.830   4.801  1.00 20.00     0.011 A 
HETATM    8  C5  UNL     1     -32.157   8.020   3.544  1.00 20.00     0.011 A 
ENDBRANCH   2   6
TORSDOF 1
ENDMDL
MODEL 5
REMARK VINA RESULT:      -4.0      1.002      1.445
REMARK  1 active torsions:
REMARK  status: ('A' for Active; 'I' for Inactive)
REMARK    1  A    between atoms: C2_2  and  C6_6 
ROOT
HETATM    1  C1  UNL     1     -34.608   6.597   6.403  1.00 20.00     0.119 A 
HETATM    2  C2  UNL     1     -33.265   7.070   4.701  1.00 20.00     0.043 A 
HETATM    3  C3  UNL     1     -33.505   7.540   6.084  1.00 20.00     0.105 A 
HETATM    4  N7  UNL     1     -34.905   5.799   5.429  1.00 20.00    -0.167 NA
HETATM    5  N8  UNL     1     -34.039   6.101   4.329  1.00 20.00    -0.159 NA
ENDROOT
BRANCH   2   6
HETATM    6  C6  UNL     1     -32.233   7.652   3.831  1.00 20.00     0.035 A 
HETATM    7  C4  UNL     1     -32.323   7.449   2.345  1.00 20.00     0.011 A 
HETATM    8  C5  UNL     1     -32.594   8.801   2.931  1.00 20.00     0.011 A 
ENDBRANCH   2   6
TORSDOF 1
ENDMDL
MODEL 6
REMARK VINA RESULT:      -3.9      1.643      2.122
REMARK  1 active torsions:
REMARK  status: ('A' for Active; 'I' for Inactive)
REMARK    1  A    between atoms: C2_2  and  C6_6 
ROOT
HETATM    1  C1  UNL     1     -34.369   6.553   6.629  1.00 20.00     0.119 A 
HETATM    2  C2  UNL     1     -34.127   5.929   4.514  1.00 20.00     0.043 A 
HETATM    3  C3  UNL     1     -33.843   7.112   5.357  1.00 20.00     0.105 A 
HETATM    4  N7  UNL     1     -34.832   5.350   6.514  1.00 20.00    -0.167 NA
HETATM    5  N8  UNL     1     -34.676   4.944   5.150  1.00 20.00    -0.159 NA
ENDROOT
BRANCH   2   6
HETATM    6  C6  UNL     1     -33.806   5.879   3.080  1.00 20.00     0.035 A 
HETATM    7  C4  UNL     1     -32.491   6.428   2.600  1.00 20.00     0.011 A 
HETATM    8  C5  UNL     1     -32.726   4.948   2.601  1.00 20.00     0.011 A 
ENDBRANCH   2   6
TORSDOF 1
ENDMDL
MODEL 7
REMARK VINA RESULT:      -3.8     12.645     13.232
REMARK  1 active torsions:
REMARK  status: ('A' for Active; 'I' for Inactive)
REMARK    1  A    between atoms: C2_2  and  C6_6 
ROOT
HETATM    1  C1  UNL     1     -32.821  18.999  -0.907  1.00 20.00     0.119 A 
HETATM    2  C2  UNL     1     -31.373  18.519   0.704  1.00 20.00     0.043 A 
HETATM    3  C3  UNL     1     -32.840  18.621   0.530  1.00 20.00     0.105 A 
HETATM    4  N7  UNL     1     -31.630  19.084  -1.405  1.00 20.00    -0.167 NA
HETATM    5  N8  UNL     1     -30.693  18.775  -0.368  1.00 20.00    -0.159 NA
ENDROOT
BRANCH   2   6
HETATM    6  C6  UNL     1     -30.748  18.155   1.983  1.00 20.00     0.035 A 
HETATM    7  C4  UNL     1     -29.696  19.053   2.571  1.00 20.00     0.011 A 
HETATM    8  C5  UNL     1     -31.050  18.973   3.208  1.00 20.00     0.011 A 
ENDBRANCH   2   6
TORSDOF 1
ENDMDL
MODEL 8
REMARK VINA RESULT:      -3.8      9.285      9.709
REMARK  1 active torsions:
REMARK  status: ('A' for Active; 'I' for Inactive)
REMARK    1  A    between atoms: C2_2  and  C6_6 
ROOT
HETATM    1  C1  UNL     1     -42.130  14.485   6.218  1.00 20.00     0.119 A 
HETATM    2  C2  UNL     1     -40.704  12.786   6.160  1.00 20.00     0.043 A 
HETATM    3  C3  UNL     1     -41.435  13.649   5.205  1.00 20.00     0.105 A 
HETATM    4  N7  UNL     1     -41.849  14.160   7.438  1.00 20.00    -0.167 NA
HETATM    5  N8  UNL     1     -40.927  13.065   7.405  1.00 20.00    -0.159 NA
ENDROOT
BRANCH   2   6
HETATM    6  C6  UNL     1     -39.799  11.711   5.728  1.00 20.00     0.035 A 
HETATM    7  C4  UNL     1     -39.232  11.740   4.337  1.00 20.00     0.011 A 
HETATM    8  C5  UNL     1     -38.343  12.020   5.510  1.00 20.00     0.011 A 
ENDBRANCH   2   6
TORSDOF 1
ENDMDL
MODEL 9
REMARK VINA RESULT:      -3.8     12.797     13.217
REMARK  1 active torsions:
REMARK  status: ('A' for Active; 'I' for Inactive)
REMARK    1  A    between atoms: C2_2  and  C6_6 
ROOT
HETATM    1  C1  UNL     1     -31.240  18.853   1.508  1.00 20.00     0.119 A 
HETATM    2  C2  UNL     1     -32.345  18.507  -0.384  1.00 20.00     0.043 A 
HETATM    3  C3  UNL     1     -32.622  18.528   1.070  1.00 20.00     0.105 A 
HETATM    4  N7  UNL     1     -30.403  18.981   0.530  1.00 20.00    -0.167 NA
HETATM    5  N8  UNL     1     -31.113  18.759  -0.693  1.00 20.00    -0.159 NA
ENDROOT
BRANCH   2   6
HETATM    6  C6  UNL     1     -33.383  18.229  -1.387  1.00 20.00     0.035 A 
HETATM    7  C4  UNL     1     -32.984  18.019  -2.821  1.00 20.00     0.011 A 
HETATM    8  C5  UNL     1     -33.463  16.859  -2.002  1.00 20.00     0.011 A 
ENDBRANCH   2   6
TORSDOF 1
ENDMDL
