MODEL 1
REMARK VINA RESULT:      -5.5      0.000      0.000
REMARK  0 active torsions:
REMARK  status: ('A' for Active; 'I' for Inactive)
ROOT
HETATM    1  C1  UNL     1     -32.534   7.267   3.167  1.00 20.00     0.034 A 
HETATM    2  C2  UNL     1     -34.126   6.810   6.272  1.00 20.00     0.027 A 
HETATM    3  C3  UNL     1     -32.242   8.469   3.963  1.00 20.00     0.118 A 
HETATM    4  C4  UNL     1     -33.916   5.287   3.929  1.00 20.00     0.124 A 
HETATM    5  C5  UNL     1     -33.272   6.596   4.045  1.00 20.00     0.011 A 
HETATM    6  C6  UNL     1     -33.418   7.321   5.265  1.00 20.00     0.066 A 
HETATM    7  C7  UNL     1     -34.789   5.461   6.149  1.00 20.00     0.178 A 
HETATM    8  N8  UNL     1     -32.743   8.508   5.164  1.00 20.00    -0.261 NA
HETATM    9  N9  UNL     1     -34.612   4.741   4.864  1.00 20.00    -0.297 NA
ENDROOT
TORSDOF 0
ENDMDL
MODEL 2
REMARK VINA RESULT:      -5.4      0.795      3.628
REMARK  0 active torsions:
REMARK  status: ('A' for Active; 'I' for Inactive)
ROOT
HETATM    1  C1  UNL     1     -34.426   6.511   6.364  1.00 20.00     0.034 A 
HETATM    2  C2  UNL     1     -33.107   5.988   3.144  1.00 20.00     0.027 A 
HETATM    3  C3  UNL     1     -34.906   5.190   5.929  1.00 20.00     0.118 A 
HETATM    4  C4  UNL     1     -32.943   8.063   5.021  1.00 20.00     0.124 A 
HETATM    5  C5  UNL     1     -33.717   6.851   5.293  1.00 20.00     0.011 A 
HETATM    6  C6  UNL     1     -33.760   5.832   4.295  1.00 20.00     0.066 A 
HETATM    7  C7  UNL     1     -32.311   7.239   2.867  1.00 20.00     0.178 A 
HETATM    8  N8  UNL     1     -34.530   4.795   4.747  1.00 20.00    -0.261 NA
HETATM    9  N9  UNL     1     -32.293   8.272   3.930  1.00 20.00    -0.297 NA
ENDROOT
TORSDOF 0
ENDMDL
MODEL 3
REMARK VINA RESULT:      -5.3      1.111      1.984
REMARK  0 active torsions:
REMARK  status: ('A' for Active; 'I' for Inactive)
ROOT
HETATM    1  C1  UNL     1     -32.858   8.607   5.298  1.00 20.00     0.034 A 
HETATM    2  C2  UNL     1     -33.798   5.538   3.855  1.00 20.00     0.027 A 
HETATM    3  C3  UNL     1     -32.288   8.594   3.942  1.00 20.00     0.118 A 
HETATM    4  C4  UNL     1     -34.238   6.756   6.340  1.00 20.00     0.124 A 
HETATM    5  C5  UNL     1     -33.457   7.421   5.295  1.00 20.00     0.011 A 
HETATM    6  C6  UNL     1     -33.270   6.746   4.052  1.00 20.00     0.066 A 
HETATM    7  C7  UNL     1     -34.602   4.857   4.934  1.00 20.00     0.178 A 
HETATM    8  N8  UNL     1     -32.519   7.534   3.223  1.00 20.00    -0.261 NA
HETATM    9  N9  UNL     1     -34.772   5.593   6.210  1.00 20.00    -0.297 NA
ENDROOT
TORSDOF 0
ENDMDL
MODEL 4
REMARK VINA RESULT:      -5.2      1.351      3.050
REMARK  0 active torsions:
REMARK  status: ('A' for Active; 'I' for Inactive)
ROOT
HETATM    1  C1  UNL     1     -34.425   4.973   4.710  1.00 20.00     0.034 A 
HETATM    2  C2  UNL     1     -33.026   8.168   5.183  1.00 20.00     0.027 A 
HETATM    3  C3  UNL     1     -34.860   5.423   6.041  1.00 20.00     0.118 A 
HETATM    4  C4  UNL     1     -32.959   6.281   3.112  1.00 20.00     0.124 A 
HETATM    5  C5  UNL     1     -33.704   6.028   4.346  1.00 20.00     0.011 A 
HETATM    6  C6  UNL     1     -33.698   7.030   5.362  1.00 20.00     0.066 A 
HETATM    7  C7  UNL     1     -32.259   8.424   3.910  1.00 20.00     0.178 A 
HETATM    8  N8  UNL     1     -34.448   6.598   6.422  1.00 20.00    -0.261 NA
HETATM    9  N9  UNL     1     -32.292   7.357   2.880  1.00 20.00    -0.297 NA
ENDROOT
TORSDOF 0
ENDMDL
MODEL 5
REMARK VINA RESULT:      -5.0      1.143      1.471
REMARK  0 active torsions:
REMARK  status: ('A' for Active; 'I' for Inactive)
ROOT
HETATM    1  C1  UNL     1     -33.003   5.533   2.717  1.00 20.00     0.034 A 
HETATM    2  C2  UNL     1     -33.535   7.522   5.571  1.00 20.00     0.027 A 
HETATM    3  C3  UNL     1     -32.258   6.782   2.497  1.00 20.00     0.118 A 
HETATM    4  C4  UNL     1     -34.381   4.974   4.767  1.00 20.00     0.124 A 
HETATM    5  C5  UNL     1     -33.515   5.791   3.916  1.00 20.00     0.011 A 
HETATM    6  C6  UNL     1     -33.120   7.080   4.384  1.00 20.00     0.066 A 
HETATM    7  C7  UNL     1     -34.428   6.677   6.446  1.00 20.00     0.178 A 
HETATM    8  N8  UNL     1     -32.320   7.672   3.445  1.00 20.00    -0.261 NA
HETATM    9  N9  UNL     1     -34.814   5.344   5.921  1.00 20.00    -0.297 NA
ENDROOT
TORSDOF 0
ENDMDL
MODEL 6
REMARK VINA RESULT:      -5.0      1.427      2.169
REMARK  0 active torsions:
REMARK  status: ('A' for Active; 'I' for Inactive)
ROOT
HETATM    1  C1  UNL     1     -32.395   8.008   3.847  1.00 20.00     0.034 A 
HETATM    2  C2  UNL     1     -34.254   5.098   4.525  1.00 20.00     0.027 A 
HETATM    3  C3  UNL     1     -32.249   7.139   2.669  1.00 20.00     0.118 A 
HETATM    4  C4  UNL     1     -33.733   7.467   5.928  1.00 20.00     0.124 A 
HETATM    5  C5  UNL     1     -33.177   7.236   4.594  1.00 20.00     0.011 A 
HETATM    6  C6  UNL     1     -33.480   6.008   3.934  1.00 20.00     0.066 A 
HETATM    7  C7  UNL     1     -34.826   5.340   5.899  1.00 20.00     0.178 A 
HETATM    8  N8  UNL     1     -32.866   5.994   2.710  1.00 20.00    -0.261 NA
HETATM    9  N9  UNL     1     -34.486   6.629   6.550  1.00 20.00    -0.297 NA
ENDROOT
TORSDOF 0
ENDMDL
MODEL 7
REMARK VINA RESULT:      -3.9     16.010     16.859
REMARK  0 active torsions:
REMARK  status: ('A' for Active; 'I' for Inactive)
ROOT
HETATM    1  C1  UNL     1     -22.826  19.020   8.565  1.00 20.00     0.034 A 
HETATM    2  C2  UNL     1     -23.032  18.415  12.026  1.00 20.00     0.027 A 
HETATM    3  C3  UNL     1     -21.451  18.775   9.026  1.00 20.00     0.118 A 
HETATM    4  C4  UNL     1     -24.899  19.000  10.020  1.00 20.00     0.124 A 
HETATM    5  C5  UNL     1     -23.472  18.887   9.719  1.00 20.00     0.011 A 
HETATM    6  C6  UNL     1     -22.573  18.587  10.787  1.00 20.00     0.066 A 
HETATM    7  C7  UNL     1     -24.504  18.533  12.332  1.00 20.00     0.178 A 
HETATM    8  N8  UNL     1     -21.297  18.526  10.294  1.00 20.00    -0.261 NA
HETATM    9  N9  UNL     1     -25.403  18.846  11.194  1.00 20.00    -0.297 NA
ENDROOT
TORSDOF 0
ENDMDL
MODEL 8
REMARK VINA RESULT:      -3.9     15.970     16.678
REMARK  0 active torsions:
REMARK  status: ('A' for Active; 'I' for Inactive)
ROOT
HETATM    1  C1  UNL     1     -25.004  18.723  11.172  1.00 20.00     0.034 A 
HETATM    2  C2  UNL     1     -21.890  18.207   9.616  1.00 20.00     0.027 A 
HETATM    3  C3  UNL     1     -24.077  18.298  12.232  1.00 20.00     0.118 A 
HETATM    4  C4  UNL     1     -24.422  19.012   8.724  1.00 20.00     0.124 A 
HETATM    5  C5  UNL     1     -24.177  18.698  10.132  1.00 20.00     0.011 A 
HETATM    6  C6  UNL     1     -22.865  18.294  10.521  1.00 20.00     0.066 A 
HETATM    7  C7  UNL     1     -22.147  18.531   8.166  1.00 20.00     0.178 A 
HETATM    8  N8  UNL     1     -22.852  18.050  11.868  1.00 20.00    -0.261 NA
HETATM    9  N9  UNL     1     -23.524  18.947   7.805  1.00 20.00    -0.297 NA
ENDROOT
TORSDOF 0
ENDMDL
MODEL 9
REMARK VINA RESULT:      -3.7     12.796     13.393
REMARK  0 active torsions:
REMARK  status: ('A' for Active; 'I' for Inactive)
ROOT
HETATM    1  C1  UNL     1     -32.203  18.677   1.432  1.00 20.00     0.034 A 
HETATM    2  C2  UNL     1     -32.505  18.727  -2.074  1.00 20.00     0.027 A 
HETATM    3  C3  UNL     1     -30.837  18.575   0.896  1.00 20.00     0.118 A 
HETATM    4  C4  UNL     1     -34.322  18.854   0.056  1.00 20.00     0.124 A 
HETATM    5  C5  UNL     1     -32.882  18.739   0.291  1.00 20.00     0.011 A 
HETATM    6  C6  UNL     1     -32.010  18.679  -0.837  1.00 20.00     0.066 A 
HETATM    7  C7  UNL     1     -33.990  18.845  -2.312  1.00 20.00     0.178 A 
HETATM    8  N8  UNL     1     -30.718  18.575  -0.399  1.00 20.00    -0.261 NA
HETATM    9  N9  UNL     1     -34.859  18.904  -1.112  1.00 20.00    -0.297 NA
ENDROOT
TORSDOF 0
ENDMDL
