MODEL 1
REMARK VINA RESULT:      -3.6      0.000      0.000
REMARK  0 active torsions:
REMARK  status: ('A' for Active; 'I' for Inactive)
ROOT
HETATM    1  C1  UNL     1     -34.358   6.870   6.644  1.00 20.00     0.011 C 
HETATM    2  C2  UNL     1     -33.363   7.661   5.796  1.00 20.00     0.017 C 
HETATM    3  C3  UNL     1     -34.299   5.370   6.389  1.00 20.00     0.074 C 
HETATM    4  C4  UNL     1     -33.464   6.022   3.844  1.00 20.00     0.089 C 
HETATM    5  C5  UNL     1     -33.594   7.469   4.300  1.00 20.00     0.067 C 
HETATM    6  S6  UNL     1     -34.689   4.959   4.664  1.00 20.00    -0.168 SA
HETATM    7 BR7  UNL     1     -32.270   8.543   3.325  1.00 20.00    -0.090 Br
ENDROOT
TORSDOF 0
ENDMDL
MODEL 2
REMARK VINA RESULT:      -3.5      2.725      3.745
REMARK  0 active torsions:
REMARK  status: ('A' for Active; 'I' for Inactive)
ROOT
HETATM    1  C1  UNL     1     -33.012   6.148   2.562  1.00 20.00     0.011 C 
HETATM    2  C2  UNL     1     -33.520   5.473   3.835  1.00 20.00     0.017 C 
HETATM    3  C3  UNL     1     -31.963   7.218   2.830  1.00 20.00     0.074 C 
HETATM    4  C4  UNL     1     -33.204   7.560   5.269  1.00 20.00     0.089 C 
HETATM    5  C5  UNL     1     -34.156   6.466   4.804  1.00 20.00     0.067 C 
HETATM    6  S6  UNL     1     -32.612   8.558   3.870  1.00 20.00    -0.168 SA
HETATM    7 BR7  UNL     1     -34.779   5.479   6.384  1.00 20.00    -0.090 Br
ENDROOT
TORSDOF 0
ENDMDL
MODEL 3
REMARK VINA RESULT:      -3.5      1.461      2.209
REMARK  0 active torsions:
REMARK  status: ('A' for Active; 'I' for Inactive)
ROOT
HETATM    1  C1  UNL     1     -34.107   4.737   4.475  1.00 20.00     0.011 C 
HETATM    2  C2  UNL     1     -33.636   5.624   3.325  1.00 20.00     0.017 C 
HETATM    3  C3  UNL     1     -34.966   5.481   5.489  1.00 20.00     0.074 C 
HETATM    4  C4  UNL     1     -33.550   7.732   4.759  1.00 20.00     0.089 C 
HETATM    5  C5  UNL     1     -32.802   6.807   3.809  1.00 20.00     0.067 C 
HETATM    6  S6  UNL     1     -34.064   6.852   6.265  1.00 20.00    -0.168 SA
HETATM    7 BR7  UNL     1     -32.246   7.855   2.243  1.00 20.00    -0.090 Br
ENDROOT
TORSDOF 0
ENDMDL
MODEL 4
REMARK VINA RESULT:      -3.3      2.573      3.252
REMARK  0 active torsions:
REMARK  status: ('A' for Active; 'I' for Inactive)
ROOT
HETATM    1  C1  UNL     1     -32.517   8.841   4.845  1.00 20.00     0.011 C 
HETATM    2  C2  UNL     1     -33.568   7.971   5.533  1.00 20.00     0.017 C 
HETATM    3  C3  UNL     1     -32.555   8.735   3.327  1.00 20.00     0.074 C 
HETATM    4  C4  UNL     1     -33.525   6.183   3.713  1.00 20.00     0.089 C 
HETATM    5  C5  UNL     1     -33.404   6.491   5.199  1.00 20.00     0.067 C 
HETATM    6  S6  UNL     1     -32.239   7.041   2.757  1.00 20.00    -0.168 SA
HETATM    7 BR7  UNL     1     -34.797   5.483   6.151  1.00 20.00    -0.090 Br
ENDROOT
TORSDOF 0
ENDMDL
MODEL 5
REMARK VINA RESULT:      -3.1     15.435     15.837
REMARK  0 active torsions:
REMARK  status: ('A' for Active; 'I' for Inactive)
ROOT
HETATM    1  C1  UNL     1     -24.305  16.586  11.948  1.00 20.00     0.011 C 
HETATM    2  C2  UNL     1     -23.883  17.002  10.540  1.00 20.00     0.017 C 
HETATM    3  C3  UNL     1     -25.697  17.077  12.323  1.00 20.00     0.074 C 
HETATM    4  C4  UNL     1     -25.222  19.173  10.595  1.00 20.00     0.089 C 
HETATM    5  C5  UNL     1     -23.868  18.517  10.362  1.00 20.00     0.067 C 
HETATM    6  S6  UNL     1     -25.809  18.889  12.292  1.00 20.00    -0.168 SA
HETATM    7 BR7  UNL     1     -23.296  18.921   8.527  1.00 20.00    -0.090 Br
ENDROOT
TORSDOF 0
ENDMDL
MODEL 6
REMARK VINA RESULT:      -3.1      1.780      2.201
REMARK  0 active torsions:
REMARK  status: ('A' for Active; 'I' for Inactive)
ROOT
HETATM    1  C1  UNL     1     -33.588   7.914   5.187  1.00 20.00     0.011 C 
HETATM    2  C2  UNL     1     -32.978   7.096   4.050  1.00 20.00     0.017 C 
HETATM    3  C3  UNL     1     -33.774   7.112   6.467  1.00 20.00     0.074 C 
HETATM    4  C4  UNL     1     -34.036   4.909   4.829  1.00 20.00     0.089 C 
HETATM    5  C5  UNL     1     -33.834   5.888   3.681  1.00 20.00     0.067 C 
HETATM    6  S6  UNL     1     -34.889   5.699   6.226  1.00 20.00    -0.168 SA
HETATM    7 BR7  UNL     1     -32.955   4.933   2.206  1.00 20.00    -0.090 Br
ENDROOT
TORSDOF 0
ENDMDL
MODEL 7
REMARK VINA RESULT:      -2.9     12.927     13.774
REMARK  0 active torsions:
REMARK  status: ('A' for Active; 'I' for Inactive)
ROOT
HETATM    1  C1  UNL     1     -32.929  17.921  -1.698  1.00 20.00     0.011 C 
HETATM    2  C2  UNL     1     -33.450  16.580  -2.211  1.00 20.00     0.017 C 
HETATM    3  C3  UNL     1     -33.651  19.115  -2.309  1.00 20.00     0.074 C 
HETATM    4  C4  UNL     1     -34.064  17.504  -4.509  1.00 20.00     0.089 C 
HETATM    5  C5  UNL     1     -33.306  16.442  -3.724  1.00 20.00     0.067 C 
HETATM    6  S6  UNL     1     -33.459  19.172  -4.114  1.00 20.00    -0.168 SA
HETATM    7 BR7  UNL     1     -33.991  14.680  -4.255  1.00 20.00    -0.090 Br
ENDROOT
TORSDOF 0
ENDMDL
MODEL 8
REMARK VINA RESULT:      -2.9     12.610     13.005
REMARK  0 active torsions:
REMARK  status: ('A' for Active; 'I' for Inactive)
ROOT
HETATM    1  C1  UNL     1     -30.984  19.109   0.670  1.00 20.00     0.011 C 
HETATM    2  C2  UNL     1     -31.411  18.159  -0.447  1.00 20.00     0.017 C 
HETATM    3  C3  UNL     1     -31.797  18.935   1.946  1.00 20.00     0.074 C 
HETATM    4  C4  UNL     1     -33.849  18.100   0.303  1.00 20.00     0.089 C 
HETATM    5  C5  UNL     1     -32.874  18.345  -0.840  1.00 20.00     0.067 C 
HETATM    6  S6  UNL     1     -33.563  19.259   1.673  1.00 20.00    -0.168 SA
HETATM    7 BR7  UNL     1     -33.292  17.085  -2.287  1.00 20.00    -0.090 Br
ENDROOT
TORSDOF 0
ENDMDL
MODEL 9
REMARK VINA RESULT:      -2.9      2.386      2.794
REMARK  0 active torsions:
REMARK  status: ('A' for Active; 'I' for Inactive)
ROOT
HETATM    1  C1  UNL     1     -34.203   6.836   5.840  1.00 20.00     0.011 C 
HETATM    2  C2  UNL     1     -34.235   5.997   4.564  1.00 20.00     0.017 C 
HETATM    3  C3  UNL     1     -33.941   8.313   5.576  1.00 20.00     0.074 C 
HETATM    4  C4  UNL     1     -32.553   7.477   3.345  1.00 20.00     0.089 C 
HETATM    5  C5  UNL     1     -32.922   6.069   3.790  1.00 20.00     0.067 C 
HETATM    6  S6  UNL     1     -32.336   8.583   4.771  1.00 20.00    -0.168 SA
HETATM    7 BR7  UNL     1     -33.084   4.941   2.189  1.00 20.00    -0.090 Br
ENDROOT
TORSDOF 0
ENDMDL
