MODEL 1
REMARK VINA RESULT:      -6.1      0.000      0.000
REMARK  0 active torsions:
REMARK  status: ('A' for Active; 'I' for Inactive)
ROOT
HETATM    1  C1  UNL     1     -33.192   8.534   5.277  1.00 20.00     0.050 A 
HETATM    2  C2  UNL     1     -32.448   7.717   3.104  1.00 20.00     0.062 A 
HETATM    3  C3  UNL     1     -33.614   6.276   4.584  1.00 20.00     0.034 A 
HETATM    4  C4  UNL     1     -33.725   7.282   5.536  1.00 20.00    -0.040 A 
HETATM    5  C5  UNL     1     -32.550   8.749   4.052  1.00 20.00     0.118 A 
HETATM    6  C6  UNL     1     -32.986   6.457   3.366  1.00 20.00     0.028 A 
HETATM    7  C7  UNL     1     -34.255   5.081   5.110  1.00 20.00     0.161 A 
HETATM    8  C8  UNL     1     -34.447   6.839   6.767  1.00 20.00     0.047 A 
HETATM    9  C9  UNL     1     -34.801   5.369   6.487  1.00 20.00     0.088 A 
HETATM   10  O10 UNL     1     -34.342   4.009   4.539  1.00 20.00    -0.292 OA
HETATM   11  F11 UNL     1     -32.026   9.952   3.779  1.00 20.00    -0.206 F 
HETATM   12 BR12 UNL     1     -32.817   5.114   2.049  1.00 20.00    -0.050 Br
ENDROOT
TORSDOF 0
ENDMDL
MODEL 2
REMARK VINA RESULT:      -6.0      2.485      3.652
REMARK  0 active torsions:
REMARK  status: ('A' for Active; 'I' for Inactive)
ROOT
HETATM    1  C1  UNL     1     -34.234   6.855   6.341  1.00 20.00     0.050 A 
HETATM    2  C2  UNL     1     -34.362   4.939   4.839  1.00 20.00     0.062 A 
HETATM    3  C3  UNL     1     -33.210   6.902   4.172  1.00 20.00     0.034 A 
HETATM    4  C4  UNL     1     -33.500   7.528   5.378  1.00 20.00    -0.040 A 
HETATM    5  C5  UNL     1     -34.666   5.552   6.067  1.00 20.00     0.118 A 
HETATM    6  C6  UNL     1     -33.623   5.617   3.870  1.00 20.00     0.028 A 
HETATM    7  C7  UNL     1     -32.437   7.824   3.356  1.00 20.00     0.161 A 
HETATM    8  C8  UNL     1     -32.944   8.912   5.462  1.00 20.00     0.047 A 
HETATM    9  C9  UNL     1     -32.234   9.115   4.112  1.00 20.00     0.088 A 
HETATM   10  O10 UNL     1     -32.014   7.604   2.236  1.00 20.00    -0.292 OA
HETATM   11  F11 UNL     1     -35.377   4.882   6.983  1.00 20.00    -0.206 F 
HETATM   12 BR12 UNL     1     -33.247   4.736   2.243  1.00 20.00    -0.050 Br
ENDROOT
TORSDOF 0
ENDMDL
MODEL 3
REMARK VINA RESULT:      -5.1      2.699      3.324
REMARK  0 active torsions:
REMARK  status: ('A' for Active; 'I' for Inactive)
ROOT
HETATM    1  C1  UNL     1     -33.668   4.501   3.662  1.00 20.00     0.050 A 
HETATM    2  C2  UNL     1     -32.542   6.361   2.560  1.00 20.00     0.062 A 
HETATM    3  C3  UNL     1     -33.584   6.677   4.667  1.00 20.00     0.034 A 
HETATM    4  C4  UNL     1     -33.988   5.349   4.710  1.00 20.00    -0.040 A 
HETATM    5  C5  UNL     1     -32.940   5.013   2.582  1.00 20.00     0.118 A 
HETATM    6  C6  UNL     1     -32.865   7.214   3.615  1.00 20.00     0.028 A 
HETATM    7  C7  UNL     1     -34.047   7.332   5.880  1.00 20.00     0.161 A 
HETATM    8  C8  UNL     1     -34.750   5.013   5.950  1.00 20.00     0.047 A 
HETATM    9  C9  UNL     1     -34.793   6.336   6.734  1.00 20.00     0.088 A 
HETATM   10  O10 UNL     1     -33.870   8.501   6.173  1.00 20.00    -0.292 OA
HETATM   11  F11 UNL     1     -32.620   4.211   1.558  1.00 20.00    -0.206 F 
HETATM   12 BR12 UNL     1     -32.299   9.013   3.523  1.00 20.00    -0.050 Br
ENDROOT
TORSDOF 0
ENDMDL
MODEL 4
REMARK VINA RESULT:      -4.9      2.897      4.045
REMARK  0 active torsions:
REMARK  status: ('A' for Active; 'I' for Inactive)
ROOT
HETATM    1  C1  UNL     1     -34.648   5.073   5.320  1.00 20.00     0.050 A 
HETATM    2  C2  UNL     1     -34.037   7.291   6.124  1.00 20.00     0.062 A 
HETATM    3  C3  UNL     1     -33.255   6.529   4.018  1.00 20.00     0.034 A 
HETATM    4  C4  UNL     1     -33.911   5.314   4.172  1.00 20.00    -0.040 A 
HETATM    5  C5  UNL     1     -34.710   6.070   6.300  1.00 20.00     0.118 A 
HETATM    6  C6  UNL     1     -33.295   7.533   4.968  1.00 20.00     0.028 A 
HETATM    7  C7  UNL     1     -32.568   6.514   2.737  1.00 20.00     0.161 A 
HETATM    8  C8  UNL     1     -33.714   4.396   3.010  1.00 20.00     0.047 A 
HETATM    9  C9  UNL     1     -32.816   5.194   2.049  1.00 20.00     0.088 A 
HETATM   10  O10 UNL     1     -31.893   7.418   2.280  1.00 20.00    -0.292 OA
HETATM   11  F11 UNL     1     -35.416   5.858   7.419  1.00 20.00    -0.206 F 
HETATM   12 BR12 UNL     1     -32.418   9.196   4.792  1.00 20.00    -0.050 Br
ENDROOT
TORSDOF 0
ENDMDL
MODEL 5
REMARK VINA RESULT:      -4.9      1.828      2.936
REMARK  0 active torsions:
REMARK  status: ('A' for Active; 'I' for Inactive)
ROOT
HETATM    1  C1  UNL     1     -32.159   8.344   3.718  1.00 20.00     0.050 A 
HETATM    2  C2  UNL     1     -33.352   8.104   5.830  1.00 20.00     0.062 A 
HETATM    3  C3  UNL     1     -33.369   6.341   4.243  1.00 20.00     0.034 A 
HETATM    4  C4  UNL     1     -32.577   7.072   3.366  1.00 20.00    -0.040 A 
HETATM    5  C5  UNL     1     -32.550   8.861   4.958  1.00 20.00     0.118 A 
HETATM    6  C6  UNL     1     -33.773   6.823   5.475  1.00 20.00     0.028 A 
HETATM    7  C7  UNL     1     -33.659   5.055   3.630  1.00 20.00     0.161 A 
HETATM    8  C8  UNL     1     -32.278   6.333   2.102  1.00 20.00     0.047 A 
HETATM    9  C9  UNL     1     -33.000   4.986   2.274  1.00 20.00     0.088 A 
HETATM   10  O10 UNL     1     -34.328   4.165   4.121  1.00 20.00    -0.292 OA
HETATM   11  F11 UNL     1     -32.157  10.090   5.319  1.00 20.00    -0.206 F 
HETATM   12 BR12 UNL     1     -34.846   5.858   6.692  1.00 20.00    -0.050 Br
ENDROOT
TORSDOF 0
ENDMDL
MODEL 6
REMARK VINA RESULT:      -4.9      2.801      3.912
REMARK  0 active torsions:
REMARK  status: ('A' for Active; 'I' for Inactive)
ROOT
HETATM    1  C1  UNL     1     -32.418   6.326   2.426  1.00 20.00     0.050 A 
HETATM    2  C2  UNL     1     -33.763   4.738   3.696  1.00 20.00     0.062 A 
HETATM    3  C3  UNL     1     -33.371   6.918   4.547  1.00 20.00     0.034 A 
HETATM    4  C4  UNL     1     -32.612   7.257   3.434  1.00 20.00    -0.040 A 
HETATM    5  C5  UNL     1     -32.999   5.060   2.561  1.00 20.00     0.118 A 
HETATM    6  C6  UNL     1     -33.957   5.676   4.710  1.00 20.00     0.028 A 
HETATM    7  C7  UNL     1     -33.412   8.067   5.436  1.00 20.00     0.161 A 
HETATM    8  C8  UNL     1     -32.088   8.655   3.493  1.00 20.00     0.047 A 
HETATM    9  C9  UNL     1     -32.620   9.199   4.830  1.00 20.00     0.088 A 
HETATM   10  O10 UNL     1     -33.990   8.121   6.506  1.00 20.00    -0.292 OA
HETATM   11  F11 UNL     1     -32.825   4.144   1.599  1.00 20.00    -0.206 F 
HETATM   12 BR12 UNL     1     -34.996   5.181   6.207  1.00 20.00    -0.050 Br
ENDROOT
TORSDOF 0
ENDMDL
MODEL 7
REMARK VINA RESULT:      -4.6      2.392      2.952
REMARK  0 active torsions:
REMARK  status: ('A' for Active; 'I' for Inactive)
ROOT
HETATM    1  C1  UNL     1     -33.007   5.984   2.692  1.00 20.00     0.050 A 
HETATM    2  C2  UNL     1     -32.261   8.205   3.365  1.00 20.00     0.062 A 
HETATM    3  C3  UNL     1     -33.544   6.876   4.853  1.00 20.00     0.034 A 
HETATM    4  C4  UNL     1     -33.620   5.844   3.926  1.00 20.00    -0.040 A 
HETATM    5  C5  UNL     1     -32.325   7.174   2.412  1.00 20.00     0.118 A 
HETATM    6  C6  UNL     1     -32.878   8.063   4.607  1.00 20.00     0.028 A 
HETATM    7  C7  UNL     1     -34.264   6.467   6.048  1.00 20.00     0.161 A 
HETATM    8  C8  UNL     1     -34.393   4.669   4.428  1.00 20.00     0.047 A 
HETATM    9  C9  UNL     1     -34.827   5.082   5.846  1.00 20.00     0.088 A 
HETATM   10  O10 UNL     1     -34.400   7.130   7.061  1.00 20.00    -0.292 OA
HETATM   11  F11 UNL     1     -31.725   7.331   1.224  1.00 20.00    -0.206 F 
HETATM   12 BR12 UNL     1     -32.753   9.486   5.843  1.00 20.00    -0.050 Br
ENDROOT
TORSDOF 0
ENDMDL
MODEL 8
REMARK VINA RESULT:      -4.5      1.702      2.191
REMARK  0 active torsions:
REMARK  status: ('A' for Active; 'I' for Inactive)
ROOT
HETATM    1  C1  UNL     1     -34.270   7.398   6.135  1.00 20.00     0.050 A 
HETATM    2  C2  UNL     1     -33.116   8.784   4.494  1.00 20.00     0.062 A 
HETATM    3  C3  UNL     1     -33.421   6.466   4.093  1.00 20.00     0.034 A 
HETATM    4  C4  UNL     1     -34.082   6.305   5.305  1.00 20.00    -0.040 A 
HETATM    5  C5  UNL     1     -33.782   8.644   5.724  1.00 20.00     0.118 A 
HETATM    6  C6  UNL     1     -32.928   7.683   3.659  1.00 20.00     0.028 A 
HETATM    7  C7  UNL     1     -33.366   5.173   3.431  1.00 20.00     0.161 A 
HETATM    8  C8  UNL     1     -34.518   4.896   5.545  1.00 20.00     0.047 A 
HETATM    9  C9  UNL     1     -34.040   4.137   4.296  1.00 20.00     0.088 A 
HETATM   10  O10 UNL     1     -32.856   4.947   2.348  1.00 20.00    -0.292 OA
HETATM   11  F11 UNL     1     -33.952   9.715   6.511  1.00 20.00    -0.206 F 
HETATM   12 BR12 UNL     1     -32.026   7.939   2.020  1.00 20.00    -0.050 Br
ENDROOT
TORSDOF 0
ENDMDL
MODEL 9
REMARK VINA RESULT:      -4.3     12.806     13.680
REMARK  0 active torsions:
REMARK  status: ('A' for Active; 'I' for Inactive)
ROOT
HETATM    1  C1  UNL     1     -33.312  16.607  -2.289  1.00 20.00     0.050 A 
HETATM    2  C2  UNL     1     -34.772  18.539  -2.572  1.00 20.00     0.062 A 
HETATM    3  C3  UNL     1     -34.551  16.947  -4.316  1.00 20.00     0.034 A 
HETATM    4  C4  UNL     1     -33.660  16.191  -3.564  1.00 20.00    -0.040 A 
HETATM    5  C5  UNL     1     -33.873  17.790  -1.793  1.00 20.00     0.118 A 
HETATM    6  C6  UNL     1     -35.122  18.119  -3.855  1.00 20.00     0.028 A 
HETATM    7  C7  UNL     1     -34.737  16.287  -5.598  1.00 20.00     0.161 A 
HETATM    8  C8  UNL     1     -33.184  14.970  -4.282  1.00 20.00     0.047 A 
HETATM    9  C9  UNL     1     -33.901  15.031  -5.642  1.00 20.00     0.088 A 
HETATM   10  O10 UNL     1     -35.452  16.675  -6.503  1.00 20.00    -0.292 OA
HETATM   11  F11 UNL     1     -33.551  18.212  -0.563  1.00 20.00    -0.206 F 
HETATM   12 BR12 UNL     1     -36.335  19.171  -4.847  1.00 20.00    -0.050 Br
ENDROOT
TORSDOF 0
ENDMDL
