MODEL 1
REMARK VINA RESULT:      -4.5      0.000      0.000
REMARK  3 active torsions:
REMARK  status: ('A' for Active; 'I' for Inactive)
REMARK    1  A    between atoms: C5_5  and  C8_8 
REMARK    2  A    between atoms: C7_7  and  N9_9 
REMARK    3  A    between atoms: C8_8  and  N9_9 
ROOT
HETATM    1  C1  UNL     1     -33.106   5.070   2.640  1.00 20.00     0.013 C 
HETATM    2  C2  UNL     1     -32.576   6.148   2.668  1.00 20.00    -0.087 C 
HETATM    3  C7  UNL     1     -31.927   7.460   2.701  1.00 20.00     0.362 C 
ENDROOT
BRANCH   3   4
HETATM    4  N9  UNL     1     -32.748   8.425   3.433  1.00 20.00     0.094 N 
HETATM    5  H22 UNL     1     -32.431   9.370   3.189  1.00 20.00     0.317 HD
BRANCH   4   6
HETATM    6  C8  UNL     1     -32.662   8.225   4.854  1.00 20.00     0.275 C 
BRANCH   6   7
HETATM    7  C5  UNL     1     -33.902   7.594   5.385  1.00 20.00     0.018 A 
HETATM    8  C3  UNL     1     -34.153   7.551   6.869  1.00 20.00     0.011 A 
HETATM    9  C4  UNL     1     -33.826   6.283   6.125  1.00 20.00    -0.013 A 
HETATM   10  C6  UNL     1     -34.873   5.245   5.917  1.00 20.00     0.010 C 
ENDBRANCH   6   7
ENDBRANCH   4   6
ENDBRANCH   3   4
TORSDOF 3
ENDMDL
MODEL 2
REMARK VINA RESULT:      -4.5      0.960      3.585
REMARK  3 active torsions:
REMARK  status: ('A' for Active; 'I' for Inactive)
REMARK    1  A    between atoms: C5_5  and  C8_8 
REMARK    2  A    between atoms: C7_7  and  N9_9 
REMARK    3  A    between atoms: C8_8  and  N9_9 
ROOT
HETATM    1  C1  UNL     1     -34.493   5.305   6.314  1.00 20.00     0.013 C 
HETATM    2  C2  UNL     1     -34.249   6.473   6.177  1.00 20.00    -0.087 C 
HETATM    3  C7  UNL     1     -33.955   7.898   6.011  1.00 20.00     0.362 C 
ENDROOT
BRANCH   3   4
HETATM    4  N9  UNL     1     -32.557   8.097   5.627  1.00 20.00     0.094 N 
HETATM    5  H22 UNL     1     -32.143   8.788   6.261  1.00 20.00     0.317 HD
BRANCH   4   6
HETATM    6  C8  UNL     1     -32.440   8.541   4.265  1.00 20.00     0.275 C 
BRANCH   6   7
HETATM    7  C5  UNL     1     -32.010   7.430   3.370  1.00 20.00     0.018 A 
HETATM    8  C3  UNL     1     -32.224   7.530   1.883  1.00 20.00     0.011 A 
HETATM    9  C4  UNL     1     -33.039   6.560   2.696  1.00 20.00    -0.013 A 
HETATM   10  C6  UNL     1     -32.809   5.094   2.566  1.00 20.00     0.010 C 
ENDBRANCH   6   7
ENDBRANCH   4   6
ENDBRANCH   3   4
TORSDOF 3
ENDMDL
MODEL 3
REMARK VINA RESULT:      -4.4      1.733      4.339
REMARK  3 active torsions:
REMARK  status: ('A' for Active; 'I' for Inactive)
REMARK    1  A    between atoms: C5_5  and  C8_8 
REMARK    2  A    between atoms: C7_7  and  N9_9 
REMARK    3  A    between atoms: C8_8  and  N9_9 
ROOT
HETATM    1  C1  UNL     1     -33.608   8.133   5.969  1.00 20.00     0.013 C 
HETATM    2  C2  UNL     1     -34.087   7.057   6.204  1.00 20.00    -0.087 C 
HETATM    3  C7  UNL     1     -34.670   5.745   6.494  1.00 20.00     0.362 C 
ENDROOT
BRANCH   3   4
HETATM    4  N9  UNL     1     -35.151   5.110   5.267  1.00 20.00     0.094 N 
HETATM    5  H22 UNL     1     -35.783   4.344   5.526  1.00 20.00     0.317 HD
BRANCH   4   6
HETATM    6  C8  UNL     1     -34.066   4.608   4.469  1.00 20.00     0.275 C 
BRANCH   6   7
HETATM    7  C5  UNL     1     -33.815   5.482   3.289  1.00 20.00     0.018 A 
HETATM    8  C3  UNL     1     -32.942   4.999   2.161  1.00 20.00     0.011 A 
HETATM    9  C4  UNL     1     -32.454   6.092   3.076  1.00 20.00    -0.013 A 
HETATM   10  C6  UNL     1     -32.331   7.489   2.574  1.00 20.00     0.010 C 
ENDBRANCH   6   7
ENDBRANCH   4   6
ENDBRANCH   3   4
TORSDOF 3
ENDMDL
MODEL 4
REMARK VINA RESULT:      -4.3      1.651      3.376
REMARK  3 active torsions:
REMARK  status: ('A' for Active; 'I' for Inactive)
REMARK    1  A    between atoms: C5_5  and  C8_8 
REMARK    2  A    between atoms: C7_7  and  N9_9 
REMARK    3  A    between atoms: C8_8  and  N9_9 
ROOT
HETATM    1  C1  UNL     1     -33.987   4.587   3.724  1.00 20.00     0.013 C 
HETATM    2  C2  UNL     1     -34.415   4.965   4.781  1.00 20.00    -0.087 C 
HETATM    3  C7  UNL     1     -34.939   5.423   6.069  1.00 20.00     0.362 C 
ENDROOT
BRANCH   3   4
HETATM    4  N9  UNL     1     -34.034   6.397   6.680  1.00 20.00     0.094 N 
HETATM    5  H22 UNL     1     -34.332   6.552   7.649  1.00 20.00     0.317 HD
BRANCH   4   6
HETATM    6  C8  UNL     1     -34.027   7.640   5.958  1.00 20.00     0.275 C 
BRANCH   6   7
HETATM    7  C5  UNL     1     -32.797   7.777   5.130  1.00 20.00     0.018 A 
HETATM    8  C3  UNL     1     -32.287   9.142   4.752  1.00 20.00     0.011 A 
HETATM    9  C4  UNL     1     -32.895   8.249   3.702  1.00 20.00    -0.013 A 
HETATM   10  C6  UNL     1     -32.035   7.637   2.651  1.00 20.00     0.010 C 
ENDBRANCH   6   7
ENDBRANCH   4   6
ENDBRANCH   3   4
TORSDOF 3
ENDMDL
MODEL 5
REMARK VINA RESULT:      -4.3      1.407      1.967
REMARK  3 active torsions:
REMARK  status: ('A' for Active; 'I' for Inactive)
REMARK    1  A    between atoms: C5_5  and  C8_8 
REMARK    2  A    between atoms: C7_7  and  N9_9 
REMARK    3  A    between atoms: C8_8  and  N9_9 
ROOT
HETATM    1  C1  UNL     1     -32.573   9.032   0.070  1.00 20.00     0.013 C 
HETATM    2  C2  UNL     1     -32.408   8.514   1.141  1.00 20.00    -0.087 C 
HETATM    3  C7  UNL     1     -32.206   7.878   2.444  1.00 20.00     0.362 C 
ENDROOT
BRANCH   3   4
HETATM    4  N9  UNL     1     -32.525   8.807   3.528  1.00 20.00     0.094 N 
HETATM    5  H22 UNL     1     -31.844   9.574   3.509  1.00 20.00     0.317 HD
BRANCH   4   6
HETATM    6  C8  UNL     1     -32.502   8.156   4.810  1.00 20.00     0.275 C 
BRANCH   6   7
HETATM    7  C5  UNL     1     -33.850   7.640   5.177  1.00 20.00     0.018 A 
HETATM    8  C3  UNL     1     -34.049   6.894   6.470  1.00 20.00     0.011 A 
HETATM    9  C4  UNL     1     -34.124   6.158   5.158  1.00 20.00    -0.013 A 
HETATM   10  C6  UNL     1     -35.431   5.646   4.661  1.00 20.00     0.010 C 
ENDBRANCH   6   7
ENDBRANCH   4   6
ENDBRANCH   3   4
TORSDOF 3
ENDMDL
MODEL 6
REMARK VINA RESULT:      -4.2      1.195      2.098
REMARK  3 active torsions:
REMARK  status: ('A' for Active; 'I' for Inactive)
REMARK    1  A    between atoms: C5_5  and  C8_8 
REMARK    2  A    between atoms: C7_7  and  N9_9 
REMARK    3  A    between atoms: C8_8  and  N9_9 
ROOT
HETATM    1  C1  UNL     1     -32.166   7.233   2.610  1.00 20.00     0.013 C 
HETATM    2  C2  UNL     1     -32.243   7.923   3.590  1.00 20.00    -0.087 C 
HETATM    3  C7  UNL     1     -32.333   8.765   4.785  1.00 20.00     0.362 C 
ENDROOT
BRANCH   3   4
HETATM    4  N9  UNL     1     -33.656   8.653   5.399  1.00 20.00     0.094 N 
HETATM    5  H22 UNL     1     -33.834   9.505   5.942  1.00 20.00     0.317 HD
BRANCH   4   6
HETATM    6  C8  UNL     1     -33.752   7.496   6.246  1.00 20.00     0.275 C 
BRANCH   6   7
HETATM    7  C5  UNL     1     -34.508   6.399   5.579  1.00 20.00     0.018 A 
HETATM    8  C3  UNL     1     -34.924   5.182   6.360  1.00 20.00     0.011 A 
HETATM    9  C4  UNL     1     -33.843   5.072   5.317  1.00 20.00    -0.013 A 
HETATM   10  C6  UNL     1     -34.103   4.345   4.044  1.00 20.00     0.010 C 
ENDBRANCH   6   7
ENDBRANCH   4   6
ENDBRANCH   3   4
TORSDOF 3
ENDMDL
MODEL 7
REMARK VINA RESULT:      -4.2      1.605      3.975
REMARK  3 active torsions:
REMARK  status: ('A' for Active; 'I' for Inactive)
REMARK    1  A    between atoms: C5_5  and  C8_8 
REMARK    2  A    between atoms: C7_7  and  N9_9 
REMARK    3  A    between atoms: C8_8  and  N9_9 
ROOT
HETATM    1  C1  UNL     1     -34.421   6.510   6.713  1.00 20.00     0.013 C 
HETATM    2  C2  UNL     1     -34.611   5.998   5.643  1.00 20.00    -0.087 C 
HETATM    3  C7  UNL     1     -34.847   5.375   4.339  1.00 20.00     0.362 C 
ENDROOT
BRANCH   3   4
HETATM    4  N9  UNL     1     -33.674   4.614   3.909  1.00 20.00     0.094 N 
HETATM    5  H22 UNL     1     -33.065   4.471   4.723  1.00 20.00     0.317 HD
BRANCH   4   6
HETATM    6  C8  UNL     1     -32.955   5.292   2.866  1.00 20.00     0.275 C 
BRANCH   6   7
HETATM    7  C5  UNL     1     -33.086   6.770   2.993  1.00 20.00     0.018 A 
HETATM    8  C3  UNL     1     -32.239   7.681   2.144  1.00 20.00     0.011 A 
HETATM    9  C4  UNL     1     -31.980   7.576   3.624  1.00 20.00    -0.013 A 
HETATM   10  C6  UNL     1     -32.307   8.717   4.524  1.00 20.00     0.010 C 
ENDBRANCH   6   7
ENDBRANCH   4   6
ENDBRANCH   3   4
TORSDOF 3
ENDMDL
MODEL 8
REMARK VINA RESULT:      -4.1      1.218      3.905
REMARK  3 active torsions:
REMARK  status: ('A' for Active; 'I' for Inactive)
REMARK    1  A    between atoms: C5_5  and  C8_8 
REMARK    2  A    between atoms: C7_7  and  N9_9 
REMARK    3  A    between atoms: C8_8  and  N9_9 
ROOT
HETATM    1  C1  UNL     1     -34.797   5.013   5.234  1.00 20.00     0.013 C 
HETATM    2  C2  UNL     1     -34.441   6.007   5.807  1.00 20.00    -0.087 C 
HETATM    3  C7  UNL     1     -34.008   7.217   6.509  1.00 20.00     0.362 C 
ENDROOT
BRANCH   3   4
HETATM    4  N9  UNL     1     -33.785   8.312   5.564  1.00 20.00     0.094 N 
HETATM    5  H22 UNL     1     -34.611   8.393   4.962  1.00 20.00     0.317 HD
BRANCH   4   6
HETATM    6  C8  UNL     1     -32.610   8.092   4.765  1.00 20.00     0.275 C 
BRANCH   6   7
HETATM    7  C5  UNL     1     -32.965   7.828   3.343  1.00 20.00     0.018 A 
HETATM    8  C3  UNL     1     -32.510   6.560   2.671  1.00 20.00     0.011 A 
HETATM    9  C4  UNL     1     -31.902   7.880   2.276  1.00 20.00    -0.013 A 
HETATM   10  C6  UNL     1     -32.207   8.476   0.945  1.00 20.00     0.010 C 
ENDBRANCH   6   7
ENDBRANCH   4   6
ENDBRANCH   3   4
TORSDOF 3
ENDMDL
MODEL 9
REMARK VINA RESULT:      -4.0      1.648      2.847
REMARK  3 active torsions:
REMARK  status: ('A' for Active; 'I' for Inactive)
REMARK    1  A    between atoms: C5_5  and  C8_8 
REMARK    2  A    between atoms: C7_7  and  N9_9 
REMARK    3  A    between atoms: C8_8  and  N9_9 
ROOT
HETATM    1  C1  UNL     1     -32.805   5.324   2.379  1.00 20.00     0.013 C 
HETATM    2  C2  UNL     1     -33.443   4.940   3.322  1.00 20.00    -0.087 C 
HETATM    3  C7  UNL     1     -34.219   4.469   4.471  1.00 20.00     0.362 C 
ENDROOT
BRANCH   3   4
HETATM    4  N9  UNL     1     -35.175   5.488   4.903  1.00 20.00     0.094 N 
HETATM    5  H22 UNL     1     -35.196   6.232   4.198  1.00 20.00     0.317 HD
BRANCH   4   6
HETATM    6  C8  UNL     1     -34.827   6.032   6.188  1.00 20.00     0.275 C 
BRANCH   6   7
HETATM    7  C5  UNL     1     -33.679   6.974   6.081  1.00 20.00     0.018 A 
HETATM    8  C3  UNL     1     -33.837   8.411   6.502  1.00 20.00     0.011 A 
HETATM    9  C4  UNL     1     -33.690   8.066   5.043  1.00 20.00    -0.013 A 
HETATM   10  C6  UNL     1     -32.440   8.417   4.313  1.00 20.00     0.010 C 
ENDBRANCH   6   7
ENDBRANCH   4   6
ENDBRANCH   3   4
TORSDOF 3
ENDMDL
