MODEL 1
REMARK VINA RESULT:      -4.2      0.000      0.000
REMARK  1 active torsions:
REMARK  status: ('A' for Active; 'I' for Inactive)
REMARK    1  A    between atoms: C3_3  and  C5_5 
ROOT
HETATM    1  C1  UNL     1     -33.788   5.184   3.878  1.00 20.00     0.022 A 
HETATM    2  C2  UNL     1     -33.120   5.733   2.747  1.00 20.00     0.028 A 
HETATM    3  C3  UNL     1     -33.972   6.119   4.874  1.00 20.00     0.048 A 
HETATM    4  C4  UNL     1     -32.818   7.066   2.920  1.00 20.00     0.052 A 
HETATM    5  S8  UNL     1     -33.339   7.650   4.443  1.00 20.00    -0.082 SA
HETATM    6 BR9  UNL     1     -31.928   8.143   1.632  1.00 20.00    -0.043 Br
ENDROOT
BRANCH   3   7
HETATM    7  C5  UNL     1     -34.618   5.943   6.192  1.00 20.00     0.393 C 
HETATM    8  F6  UNL     1     -34.540   7.082   6.938  1.00 20.00    -0.208 F 
HETATM    9  F7  UNL     1     -33.999   4.973   6.923  1.00 20.00    -0.208 F 
ENDBRANCH   3   7
TORSDOF 1
ENDMDL
MODEL 2
REMARK VINA RESULT:      -4.1      1.372      1.929
REMARK  1 active torsions:
REMARK  status: ('A' for Active; 'I' for Inactive)
REMARK    1  A    between atoms: C3_3  and  C5_5 
ROOT
HETATM    1  C1  UNL     1     -33.294   7.827   5.598  1.00 20.00     0.022 A 
HETATM    2  C2  UNL     1     -32.637   8.442   4.494  1.00 20.00     0.028 A 
HETATM    3  C3  UNL     1     -33.863   6.620   5.253  1.00 20.00     0.048 A 
HETATM    4  C4  UNL     1     -32.728   7.683   3.348  1.00 20.00     0.052 A 
HETATM    5  S8  UNL     1     -33.605   6.235   3.605  1.00 20.00    -0.082 SA
HETATM    6 BR9  UNL     1     -31.978   8.171   1.673  1.00 20.00    -0.043 Br
ENDROOT
BRANCH   3   7
HETATM    7  C5  UNL     1     -34.626   5.686   6.108  1.00 20.00     0.393 C 
HETATM    8  F6  UNL     1     -33.806   5.020   6.970  1.00 20.00    -0.208 F 
HETATM    9  F7  UNL     1     -35.247   4.727   5.364  1.00 20.00    -0.208 F 
ENDBRANCH   3   7
TORSDOF 1
ENDMDL
MODEL 3
REMARK VINA RESULT:      -4.1      3.815      4.558
REMARK  1 active torsions:
REMARK  status: ('A' for Active; 'I' for Inactive)
REMARK    1  A    between atoms: C3_3  and  C5_5 
ROOT
HETATM    1  C1  UNL     1     -32.793   8.744   4.828  1.00 20.00     0.022 A 
HETATM    2  C2  UNL     1     -33.424   7.919   5.802  1.00 20.00     0.028 A 
HETATM    3  C3  UNL     1     -32.694   8.118   3.605  1.00 20.00     0.048 A 
HETATM    4  C4  UNL     1     -33.785   6.693   5.287  1.00 20.00     0.052 A 
HETATM    5  S8  UNL     1     -33.360   6.541   3.636  1.00 20.00    -0.082 SA
HETATM    6 BR9  UNL     1     -34.648   5.323   6.279  1.00 20.00    -0.043 Br
ENDROOT
BRANCH   3   7
HETATM    7  C5  UNL     1     -32.108   8.636   2.350  1.00 20.00     0.393 C 
HETATM    8  F6  UNL     1     -32.870   9.638   1.824  1.00 20.00    -0.208 F 
HETATM    9  F7  UNL     1     -32.050   7.667   1.393  1.00 20.00    -0.208 F 
ENDBRANCH   3   7
TORSDOF 1
ENDMDL
MODEL 4
REMARK VINA RESULT:      -4.0      3.618      4.281
REMARK  1 active torsions:
REMARK  status: ('A' for Active; 'I' for Inactive)
REMARK    1  A    between atoms: C3_3  and  C5_5 
ROOT
HETATM    1  C1  UNL     1     -32.898   5.992   2.642  1.00 20.00     0.022 A 
HETATM    2  C2  UNL     1     -33.567   5.295   3.689  1.00 20.00     0.028 A 
HETATM    3  C3  UNL     1     -32.665   7.311   2.966  1.00 20.00     0.048 A 
HETATM    4  C4  UNL     1     -33.820   6.107   4.773  1.00 20.00     0.052 A 
HETATM    5  S8  UNL     1     -33.253   7.703   4.525  1.00 20.00    -0.082 SA
HETATM    6 BR9  UNL     1     -34.696   5.539   6.360  1.00 20.00    -0.043 Br
ENDROOT
BRANCH   3   7
HETATM    7  C5  UNL     1     -32.002   8.354   2.154  1.00 20.00     0.393 C 
HETATM    8  F6  UNL     1     -32.770   9.478   2.068  1.00 20.00    -0.208 F 
HETATM    9  F7  UNL     1     -31.805   7.934   0.872  1.00 20.00    -0.208 F 
ENDBRANCH   3   7
TORSDOF 1
ENDMDL
MODEL 5
REMARK VINA RESULT:      -3.7     16.048     16.463
REMARK  1 active torsions:
REMARK  status: ('A' for Active; 'I' for Inactive)
REMARK    1  A    between atoms: C3_3  and  C5_5 
ROOT
HETATM    1  C1  UNL     1     -24.067  16.448  11.228  1.00 20.00     0.022 A 
HETATM    2  C2  UNL     1     -25.175  16.965  11.959  1.00 20.00     0.028 A 
HETATM    3  C3  UNL     1     -23.600  17.346  10.294  1.00 20.00     0.048 A 
HETATM    4  C4  UNL     1     -25.513  18.238  11.556  1.00 20.00     0.052 A 
HETATM    5  S8  UNL     1     -24.496  18.805  10.300  1.00 20.00    -0.082 SA
HETATM    6 BR9  UNL     1     -26.935  19.258  12.294  1.00 20.00    -0.043 Br
ENDROOT
BRANCH   3   7
HETATM    7  C5  UNL     1     -22.475  17.187   9.348  1.00 20.00     0.393 C 
HETATM    8  F6  UNL     1     -21.324  17.719   9.851  1.00 20.00    -0.208 F 
HETATM    9  F7  UNL     1     -22.714  17.847   8.179  1.00 20.00    -0.208 F 
ENDBRANCH   3   7
TORSDOF 1
ENDMDL
MODEL 6
REMARK VINA RESULT:      -3.5     12.688     13.340
REMARK  1 active torsions:
REMARK  status: ('A' for Active; 'I' for Inactive)
REMARK    1  A    between atoms: C3_3  and  C5_5 
ROOT
HETATM    1  C1  UNL     1     -33.297  15.217  -3.881  1.00 20.00     0.022 A 
HETATM    2  C2  UNL     1     -33.871  14.791  -5.113  1.00 20.00     0.028 A 
HETATM    3  C3  UNL     1     -33.647  16.512  -3.568  1.00 20.00     0.048 A 
HETATM    4  C4  UNL     1     -34.638  15.777  -5.695  1.00 20.00     0.052 A 
HETATM    5  S8  UNL     1     -34.662  17.209  -4.758  1.00 20.00    -0.082 SA
HETATM    6 BR9  UNL     1     -35.562  15.587  -7.344  1.00 20.00    -0.043 Br
ENDROOT
BRANCH   3   7
HETATM    7  C5  UNL     1     -33.258  17.310  -2.385  1.00 20.00     0.393 C 
HETATM    8  F6  UNL     1     -33.681  16.722  -1.230  1.00 20.00    -0.208 F 
HETATM    9  F7  UNL     1     -33.833  18.546  -2.409  1.00 20.00    -0.208 F 
ENDBRANCH   3   7
TORSDOF 1
ENDMDL
MODEL 7
REMARK VINA RESULT:      -3.5     13.210     13.859
REMARK  1 active torsions:
REMARK  status: ('A' for Active; 'I' for Inactive)
REMARK    1  A    between atoms: C3_3  and  C5_5 
ROOT
HETATM    1  C1  UNL     1     -33.614  15.434  -3.831  1.00 20.00     0.022 A 
HETATM    2  C2  UNL     1     -33.303  16.390  -2.822  1.00 20.00     0.028 A 
HETATM    3  C3  UNL     1     -34.199  16.019  -4.933  1.00 20.00     0.048 A 
HETATM    4  C4  UNL     1     -33.662  17.668  -3.190  1.00 20.00     0.052 A 
HETATM    5  S8  UNL     1     -34.372  17.712  -4.747  1.00 20.00    -0.082 SA
HETATM    6 BR9  UNL     1     -33.407  19.209  -2.110  1.00 20.00    -0.043 Br
ENDROOT
BRANCH   3   7
HETATM    7  C5  UNL     1     -34.664  15.372  -6.179  1.00 20.00     0.393 C 
HETATM    8  F6  UNL     1     -35.482  14.314  -5.914  1.00 20.00    -0.208 F 
HETATM    9  F7  UNL     1     -33.619  14.868  -6.896  1.00 20.00    -0.208 F 
ENDBRANCH   3   7
TORSDOF 1
ENDMDL
MODEL 8
REMARK VINA RESULT:      -3.4      1.887      2.206
REMARK  1 active torsions:
REMARK  status: ('A' for Active; 'I' for Inactive)
REMARK    1  A    between atoms: C3_3  and  C5_5 
ROOT
HETATM    1  C1  UNL     1     -32.960   6.261   3.280  1.00 20.00     0.022 A 
HETATM    2  C2  UNL     1     -32.282   7.512   3.347  1.00 20.00     0.028 A 
HETATM    3  C3  UNL     1     -33.753   6.043   4.386  1.00 20.00     0.048 A 
HETATM    4  C4  UNL     1     -32.583   8.204   4.500  1.00 20.00     0.052 A 
HETATM    5  S8  UNL     1     -33.677   7.344   5.497  1.00 20.00    -0.082 SA
HETATM    6 BR9  UNL     1     -31.875   9.909   4.947  1.00 20.00    -0.043 Br
ENDROOT
BRANCH   3   7
HETATM    7  C5  UNL     1     -34.607   4.875   4.690  1.00 20.00     0.393 C 
HETATM    8  F6  UNL     1     -34.872   4.789   6.025  1.00 20.00    -0.208 F 
HETATM    9  F7  UNL     1     -33.987   3.708   4.355  1.00 20.00    -0.208 F 
ENDBRANCH   3   7
TORSDOF 1
ENDMDL
MODEL 9
REMARK VINA RESULT:      -3.4      9.984     10.596
REMARK  1 active torsions:
REMARK  status: ('A' for Active; 'I' for Inactive)
REMARK    1  A    between atoms: C3_3  and  C5_5 
ROOT
HETATM    1  C1  UNL     1     -41.221  13.390   4.861  1.00 20.00     0.022 A 
HETATM    2  C2  UNL     1     -42.018  14.472   5.334  1.00 20.00     0.028 A 
HETATM    3  C3  UNL     1     -40.336  12.942   5.817  1.00 20.00     0.048 A 
HETATM    4  C4  UNL     1     -41.712  14.810   6.634  1.00 20.00     0.052 A 
HETATM    5  S8  UNL     1     -40.468  13.826   7.278  1.00 20.00    -0.082 SA
HETATM    6 BR9  UNL     1     -42.560  16.202   7.609  1.00 20.00    -0.043 Br
ENDROOT
BRANCH   3   7
HETATM    7  C5  UNL     1     -39.348  11.847   5.716  1.00 20.00     0.393 C 
HETATM    8  F6  UNL     1     -38.094  12.331   5.485  1.00 20.00    -0.208 F 
HETATM    9  F7  UNL     1     -39.630  11.020   4.670  1.00 20.00    -0.208 F 
ENDBRANCH   3   7
TORSDOF 1
ENDMDL
