MODEL 1
REMARK VINA RESULT:      -5.1      0.000      0.000
REMARK  0 active torsions:
REMARK  status: ('A' for Active; 'I' for Inactive)
ROOT
HETATM    1  C1  UNL     1     -33.379   5.897   3.313  1.00 20.00    -0.057 C 
HETATM    2  C2  UNL     1     -34.401   6.164   5.555  1.00 20.00    -0.057 C 
HETATM    3  C3  UNL     1     -32.792   4.965   2.549  1.00 20.00     0.016 C 
HETATM    4  C4  UNL     1     -34.667   5.454   6.662  1.00 20.00     0.016 C 
HETATM    5  C5  UNL     1     -34.586   5.599   4.168  1.00 20.00     0.070 C 
HETATM    6  C6  UNL     1     -32.868   7.319   3.402  1.00 20.00     0.306 C 
HETATM    7  C7  UNL     1     -33.870   7.580   5.603  1.00 20.00     0.306 C 
HETATM    8  C8  UNL     1     -32.140   9.094   4.867  1.00 20.00     0.310 C 
HETATM    9  N9  UNL     1     -32.639   7.721   4.803  1.00 20.00     0.091 N 
ENDROOT
TORSDOF 0
ENDMDL
MODEL 2
REMARK VINA RESULT:      -4.7      0.946      3.375
REMARK  0 active torsions:
REMARK  status: ('A' for Active; 'I' for Inactive)
ROOT
HETATM    1  C1  UNL     1     -34.399   6.177   5.439  1.00 20.00    -0.057 C 
HETATM    2  C2  UNL     1     -32.990   7.994   4.515  1.00 20.00    -0.057 C 
HETATM    3  C3  UNL     1     -34.655   5.555   6.599  1.00 20.00     0.016 C 
HETATM    4  C4  UNL     1     -32.069   8.888   4.904  1.00 20.00     0.016 C 
HETATM    5  C5  UNL     1     -34.206   7.671   5.348  1.00 20.00     0.070 C 
HETATM    6  C6  UNL     1     -34.260   5.433   4.128  1.00 20.00     0.306 C 
HETATM    7  C7  UNL     1     -32.875   7.216   3.222  1.00 20.00     0.306 C 
HETATM    8  C8  UNL     1     -32.871   5.031   2.195  1.00 20.00     0.310 C 
HETATM    9  N9  UNL     1     -32.990   5.764   3.455  1.00 20.00     0.091 N 
ENDROOT
TORSDOF 0
ENDMDL
MODEL 3
REMARK VINA RESULT:      -3.9      0.941      3.379
REMARK  0 active torsions:
REMARK  status: ('A' for Active; 'I' for Inactive)
ROOT
HETATM    1  C1  UNL     1     -33.030   7.951   4.573  1.00 20.00    -0.057 C 
HETATM    2  C2  UNL     1     -33.396   5.863   3.289  1.00 20.00    -0.057 C 
HETATM    3  C3  UNL     1     -32.069   8.849   4.835  1.00 20.00     0.016 C 
HETATM    4  C4  UNL     1     -32.740   5.018   2.481  1.00 20.00     0.016 C 
HETATM    5  C5  UNL     1     -33.231   7.361   3.199  1.00 20.00     0.070 C 
HETATM    6  C6  UNL     1     -33.978   7.438   5.635  1.00 20.00     0.306 C 
HETATM    7  C7  UNL     1     -34.337   5.388   4.375  1.00 20.00     0.306 C 
HETATM    8  C8  UNL     1     -34.897   5.488   6.721  1.00 20.00     0.310 C 
HETATM    9  N9  UNL     1     -33.980   5.964   5.686  1.00 20.00     0.091 N 
ENDROOT
TORSDOF 0
ENDMDL
MODEL 4
REMARK VINA RESULT:      -3.7      1.320      2.974
REMARK  0 active torsions:
REMARK  status: ('A' for Active; 'I' for Inactive)
ROOT
HETATM    1  C1  UNL     1     -32.342   7.431   3.005  1.00 20.00    -0.057 C 
HETATM    2  C2  UNL     1     -33.261   8.027   5.228  1.00 20.00    -0.057 C 
HETATM    3  C3  UNL     1     -32.191   7.947   1.776  1.00 20.00     0.016 C 
HETATM    4  C4  UNL     1     -33.877   9.041   5.855  1.00 20.00     0.016 C 
HETATM    5  C5  UNL     1     -32.127   8.247   4.256  1.00 20.00     0.070 C 
HETATM    6  C6  UNL     1     -32.762   5.997   3.241  1.00 20.00     0.306 C 
HETATM    7  C7  UNL     1     -33.666   6.582   5.423  1.00 20.00     0.306 C 
HETATM    8  C8  UNL     1     -34.330   4.528   4.342  1.00 20.00     0.310 C 
HETATM    9  N9  UNL     1     -33.936   5.920   4.132  1.00 20.00     0.091 N 
ENDROOT
TORSDOF 0
ENDMDL
MODEL 5
REMARK VINA RESULT:      -3.6     12.171     13.546
REMARK  0 active torsions:
REMARK  status: ('A' for Active; 'I' for Inactive)
ROOT
HETATM    1  C1  UNL     1     -33.690  17.426  -2.321  1.00 20.00    -0.057 C 
HETATM    2  C2  UNL     1     -33.930  15.738  -4.119  1.00 20.00    -0.057 C 
HETATM    3  C3  UNL     1     -33.694  17.520  -0.984  1.00 20.00     0.016 C 
HETATM    4  C4  UNL     1     -34.135  14.422  -4.282  1.00 20.00     0.016 C 
HETATM    5  C5  UNL     1     -33.019  16.288  -3.050  1.00 20.00     0.070 C 
HETATM    6  C6  UNL     1     -34.376  18.439  -3.212  1.00 20.00     0.306 C 
HETATM    7  C7  UNL     1     -34.613  16.781  -4.976  1.00 20.00     0.306 C 
HETATM    8  C8  UNL     1     -35.967  18.780  -4.996  1.00 20.00     0.310 C 
HETATM    9  N9  UNL     1     -35.309  17.785  -4.149  1.00 20.00     0.091 N 
ENDROOT
TORSDOF 0
ENDMDL
MODEL 6
REMARK VINA RESULT:      -3.5     12.279     13.541
REMARK  0 active torsions:
REMARK  status: ('A' for Active; 'I' for Inactive)
ROOT
HETATM    1  C1  UNL     1     -33.671  15.950  -3.746  1.00 20.00    -0.057 C 
HETATM    2  C2  UNL     1     -33.195  17.777  -2.141  1.00 20.00    -0.057 C 
HETATM    3  C3  UNL     1     -33.157  14.786  -4.171  1.00 20.00     0.016 C 
HETATM    4  C4  UNL     1     -32.282  18.139  -1.227  1.00 20.00     0.016 C 
HETATM    5  C5  UNL     1     -33.667  16.352  -2.292  1.00 20.00     0.070 C 
HETATM    6  C6  UNL     1     -34.276  16.966  -4.689  1.00 20.00     0.306 C 
HETATM    7  C7  UNL     1     -33.808  18.760  -3.114  1.00 20.00     0.306 C 
HETATM    8  C8  UNL     1     -34.260  19.263  -5.432  1.00 20.00     0.310 C 
HETATM    9  N9  UNL     1     -33.667  18.297  -4.508  1.00 20.00     0.091 N 
ENDROOT
TORSDOF 0
ENDMDL
MODEL 7
REMARK VINA RESULT:      -3.4      1.139      2.922
REMARK  0 active torsions:
REMARK  status: ('A' for Active; 'I' for Inactive)
ROOT
HETATM    1  C1  UNL     1     -33.013   5.604   2.994  1.00 20.00    -0.057 C 
HETATM    2  C2  UNL     1     -32.739   7.905   3.871  1.00 20.00    -0.057 C 
HETATM    3  C3  UNL     1     -33.276   4.958   1.848  1.00 20.00     0.016 C 
HETATM    4  C4  UNL     1     -32.772   9.181   3.457  1.00 20.00     0.016 C 
HETATM    5  C5  UNL     1     -32.104   6.806   3.054  1.00 20.00     0.070 C 
HETATM    6  C6  UNL     1     -33.624   5.197   4.317  1.00 20.00     0.306 C 
HETATM    7  C7  UNL     1     -33.355   7.456   5.178  1.00 20.00     0.306 C 
HETATM    8  C8  UNL     1     -34.882   5.921   6.246  1.00 20.00     0.310 C 
HETATM    9  N9  UNL     1     -34.293   6.336   4.973  1.00 20.00     0.091 N 
ENDROOT
TORSDOF 0
ENDMDL
MODEL 8
REMARK VINA RESULT:      -3.3     12.219     13.305
REMARK  0 active torsions:
REMARK  status: ('A' for Active; 'I' for Inactive)
ROOT
HETATM    1  C1  UNL     1     -33.501  16.804  -3.286  1.00 20.00    -0.057 C 
HETATM    2  C2  UNL     1     -35.289  18.507  -3.074  1.00 20.00    -0.057 C 
HETATM    3  C3  UNL     1     -33.293  15.580  -3.792  1.00 20.00     0.016 C 
HETATM    4  C4  UNL     1     -36.575  18.703  -3.404  1.00 20.00     0.016 C 
HETATM    5  C5  UNL     1     -34.304  17.854  -4.013  1.00 20.00     0.070 C 
HETATM    6  C6  UNL     1     -32.968  17.229  -1.935  1.00 20.00     0.306 C 
HETATM    7  C7  UNL     1     -34.724  18.899  -1.727  1.00 20.00     0.306 C 
HETATM    8  C8  UNL     1     -33.508  18.162   0.224  1.00 20.00     0.310 C 
HETATM    9  N9  UNL     1     -34.042  17.763  -1.077  1.00 20.00     0.091 N 
ENDROOT
TORSDOF 0
ENDMDL
MODEL 9
REMARK VINA RESULT:      -3.2     12.469     12.750
REMARK  0 active torsions:
REMARK  status: ('A' for Active; 'I' for Inactive)
ROOT
HETATM    1  C1  UNL     1     -32.764  18.299  -0.925  1.00 20.00    -0.057 C 
HETATM    2  C2  UNL     1     -33.945  19.095   1.102  1.00 20.00    -0.057 C 
HETATM    3  C3  UNL     1     -32.916  17.435  -1.939  1.00 20.00     0.016 C 
HETATM    4  C4  UNL     1     -35.085  18.894   1.781  1.00 20.00     0.016 C 
HETATM    5  C5  UNL     1     -33.900  19.144  -0.405  1.00 20.00     0.070 C 
HETATM    6  C6  UNL     1     -31.447  18.483  -0.203  1.00 20.00     0.306 C 
HETATM    7  C7  UNL     1     -32.607  19.263   1.788  1.00 20.00     0.306 C 
HETATM    8  C8  UNL     1     -30.323  18.494   1.934  1.00 20.00     0.310 C 
HETATM    9  N9  UNL     1     -31.606  18.319   1.255  1.00 20.00     0.091 N 
ENDROOT
TORSDOF 0
ENDMDL
