MODEL 1
REMARK VINA RESULT:      -4.0      0.000      0.000
REMARK  1 active torsions:
REMARK  status: ('A' for Active; 'I' for Inactive)
REMARK    1  A    between atoms: C4_4  and  C8_8 
ROOT
HETATM    1  C5  UNL     1     -33.577  17.084  -3.894  1.00 20.00     0.033 C 
HETATM    2  C6  UNL     1     -33.302  16.571  -2.487  1.00 20.00     0.042 C 
HETATM    3  C7  UNL     1     -34.813  17.944  -3.725  1.00 20.00     0.273 C 
HETATM    4  C8  UNL     1     -33.990  17.580  -1.549  1.00 20.00     0.256 C 
HETATM    5  C9  UNL     1     -35.733  19.263  -1.913  1.00 20.00     0.310 C 
HETATM    6  N10 UNL     1     -34.546  18.610  -2.450  1.00 20.00     0.093 N 
ENDROOT
BRANCH   4   7
HETATM    7  C4  UNL     1     -33.044  18.157  -0.518  1.00 20.00    -0.018 A 
HETATM    8  C1  UNL     1     -31.674  18.456  -0.774  1.00 20.00     0.017 A 
HETATM    9  C2  UNL     1     -31.040  18.970   0.335  1.00 20.00     0.050 A 
HETATM   10  S11 UNL     1     -32.094  19.093   1.679  1.00 20.00    -0.113 SA
HETATM   11  C3  UNL     1     -33.404  18.456   0.779  1.00 20.00     0.058 A 
ENDBRANCH   4   7
TORSDOF 1
ENDMDL
MODEL 2
REMARK VINA RESULT:      -3.9      2.474      4.241
REMARK  1 active torsions:
REMARK  status: ('A' for Active; 'I' for Inactive)
REMARK    1  A    between atoms: C4_4  and  C8_8 
ROOT
HETATM    1  C5  UNL     1     -31.096  18.296   1.258  1.00 20.00     0.033 C 
HETATM    2  C6  UNL     1     -31.110  18.870  -0.153  1.00 20.00     0.042 C 
HETATM    3  C7  UNL     1     -32.417  18.753   1.841  1.00 20.00     0.273 C 
HETATM    4  C8  UNL     1     -32.597  19.095  -0.482  1.00 20.00     0.256 C 
HETATM    5  C9  UNL     1     -34.600  19.261   0.919  1.00 20.00     0.310 C 
HETATM    6  N10 UNL     1     -33.323  18.593   0.702  1.00 20.00     0.093 N 
ENDROOT
BRANCH   4   7
HETATM    7  C4  UNL     1     -33.023  18.407  -1.761  1.00 20.00    -0.018 A 
HETATM    8  C1  UNL     1     -33.290  17.010  -1.861  1.00 20.00     0.017 A 
HETATM    9  C2  UNL     1     -33.658  16.643  -3.137  1.00 20.00     0.050 A 
HETATM   10  S11 UNL     1     -33.684  17.980  -4.208  1.00 20.00    -0.113 SA
HETATM   11  C3  UNL     1     -33.199  19.054  -2.965  1.00 20.00     0.058 A 
ENDBRANCH   4   7
TORSDOF 1
ENDMDL
MODEL 3
REMARK VINA RESULT:      -3.7      2.878      4.452
REMARK  1 active torsions:
REMARK  status: ('A' for Active; 'I' for Inactive)
REMARK    1  A    between atoms: C4_4  and  C8_8 
ROOT
HETATM    1  C5  UNL     1     -33.295  18.153  -0.401  1.00 20.00     0.033 C 
HETATM    2  C6  UNL     1     -32.626  17.958  -1.755  1.00 20.00     0.042 C 
HETATM    3  C7  UNL     1     -34.522  18.979  -0.726  1.00 20.00     0.273 C 
HETATM    4  C8  UNL     1     -33.748  18.155  -2.791  1.00 20.00     0.256 C 
HETATM    5  C9  UNL     1     -35.957  19.205  -2.665  1.00 20.00     0.310 C 
HETATM    6  N10 UNL     1     -34.965  18.382  -1.986  1.00 20.00     0.093 N 
ENDROOT
BRANCH   4   7
HETATM    7  C4  UNL     1     -33.885  16.979  -3.734  1.00 20.00    -0.018 A 
HETATM    8  C1  UNL     1     -33.490  15.649  -3.409  1.00 20.00     0.017 A 
HETATM    9  C2  UNL     1     -33.722  14.771  -4.446  1.00 20.00     0.050 A 
HETATM   10  S11 UNL     1     -34.416  15.551  -5.804  1.00 20.00    -0.113 SA
HETATM   11  C3  UNL     1     -34.405  17.067  -5.007  1.00 20.00     0.058 A 
ENDBRANCH   4   7
TORSDOF 1
ENDMDL
MODEL 4
REMARK VINA RESULT:      -3.6      3.429      5.345
REMARK  1 active torsions:
REMARK  status: ('A' for Active; 'I' for Inactive)
REMARK    1  A    between atoms: C4_4  and  C8_8 
ROOT
HETATM    1  C5  UNL     1     -33.582  17.396  -1.540  1.00 20.00     0.033 C 
HETATM    2  C6  UNL     1     -33.482  16.265  -2.556  1.00 20.00     0.042 C 
HETATM    3  C7  UNL     1     -33.059  18.601  -2.295  1.00 20.00     0.273 C 
HETATM    4  C8  UNL     1     -33.475  16.959  -3.931  1.00 20.00     0.256 C 
HETATM    5  C9  UNL     1     -33.019  19.263  -4.626  1.00 20.00     0.310 C 
HETATM    6  N10 UNL     1     -33.630  18.395  -3.627  1.00 20.00     0.093 N 
ENDROOT
BRANCH   4   7
HETATM    7  C4  UNL     1     -34.557  16.438  -4.853  1.00 20.00    -0.018 A 
HETATM    8  C1  UNL     1     -34.431  15.256  -5.639  1.00 20.00     0.017 A 
HETATM    9  C2  UNL     1     -35.560  15.010  -6.389  1.00 20.00     0.050 A 
HETATM   10  S11 UNL     1     -36.767  16.200  -6.143  1.00 20.00    -0.113 SA
HETATM   11  C3  UNL     1     -35.779  17.050  -5.031  1.00 20.00     0.058 A 
ENDBRANCH   4   7
TORSDOF 1
ENDMDL
MODEL 5
REMARK VINA RESULT:      -3.6      2.712      3.781
REMARK  1 active torsions:
REMARK  status: ('A' for Active; 'I' for Inactive)
REMARK    1  A    between atoms: C4_4  and  C8_8 
ROOT
HETATM    1  C5  UNL     1     -34.011  15.153  -6.792  1.00 20.00     0.033 C 
HETATM    2  C6  UNL     1     -33.667  15.005  -5.316  1.00 20.00     0.042 C 
HETATM    3  C7  UNL     1     -35.437  15.664  -6.776  1.00 20.00     0.273 C 
HETATM    4  C8  UNL     1     -34.637  15.946  -4.580  1.00 20.00     0.256 C 
HETATM    5  C9  UNL     1     -36.750  16.998  -5.237  1.00 20.00     0.310 C 
HETATM    6  N10 UNL     1     -35.411  16.602  -5.653  1.00 20.00     0.093 N 
ENDROOT
BRANCH   4   7
HETATM    7  C4  UNL     1     -33.923  16.939  -3.687  1.00 20.00    -0.018 A 
HETATM    8  C1  UNL     1     -33.492  16.648  -2.360  1.00 20.00     0.017 A 
HETATM    9  C2  UNL     1     -32.870  17.726  -1.770  1.00 20.00     0.050 A 
HETATM   10  S11 UNL     1     -32.805  19.082  -2.815  1.00 20.00    -0.113 SA
HETATM   11  C3  UNL     1     -33.612  18.229  -4.061  1.00 20.00     0.058 A 
ENDBRANCH   4   7
TORSDOF 1
ENDMDL
MODEL 6
REMARK VINA RESULT:      -3.4      3.114      4.465
REMARK  1 active torsions:
REMARK  status: ('A' for Active; 'I' for Inactive)
REMARK    1  A    between atoms: C4_4  and  C8_8 
ROOT
HETATM    1  C5  UNL     1     -35.748  16.733  -7.374  1.00 20.00     0.033 C 
HETATM    2  C6  UNL     1     -34.436  16.988  -6.644  1.00 20.00     0.042 C 
HETATM    3  C7  UNL     1     -36.130  15.332  -6.943  1.00 20.00     0.273 C 
HETATM    4  C8  UNL     1     -34.448  16.020  -5.446  1.00 20.00     0.256 C 
HETATM    5  C9  UNL     1     -35.739  13.996  -4.960  1.00 20.00     0.310 C 
HETATM    6  N10 UNL     1     -35.755  15.338  -5.529  1.00 20.00     0.093 N 
ENDROOT
BRANCH   4   7
HETATM    7  C4  UNL     1     -34.242  16.727  -4.123  1.00 20.00    -0.018 A 
HETATM    8  C1  UNL     1     -33.384  16.248  -3.091  1.00 20.00     0.017 A 
HETATM    9  C2  UNL     1     -33.380  17.080  -1.993  1.00 20.00     0.050 A 
HETATM   10  S11 UNL     1     -34.409  18.433  -2.208  1.00 20.00    -0.113 SA
HETATM   11  C3  UNL     1     -34.862  17.907  -3.774  1.00 20.00     0.058 A 
ENDBRANCH   4   7
TORSDOF 1
ENDMDL
MODEL 7
REMARK VINA RESULT:      -3.4      1.442      2.550
REMARK  1 active torsions:
REMARK  status: ('A' for Active; 'I' for Inactive)
REMARK    1  A    between atoms: C4_4  and  C8_8 
ROOT
HETATM    1  C5  UNL     1     -34.728  18.779  -4.857  1.00 20.00     0.033 C 
HETATM    2  C6  UNL     1     -33.561  19.263  -4.007  1.00 20.00     0.042 C 
HETATM    3  C7  UNL     1     -34.450  17.301  -5.036  1.00 20.00     0.273 C 
HETATM    4  C8  UNL     1     -33.037  18.006  -3.289  1.00 20.00     0.256 C 
HETATM    5  C9  UNL     1     -33.319  15.610  -3.719  1.00 20.00     0.310 C 
HETATM    6  N10 UNL     1     -33.949  16.924  -3.714  1.00 20.00     0.093 N 
ENDROOT
BRANCH   4   7
HETATM    7  C4  UNL     1     -32.987  18.169  -1.785  1.00 20.00    -0.018 A 
HETATM    8  C1  UNL     1     -34.088  17.902  -0.920  1.00 20.00     0.017 A 
HETATM    9  C2  UNL     1     -33.776  18.132   0.402  1.00 20.00     0.050 A 
HETATM   10  S11 UNL     1     -32.161  18.669   0.596  1.00 20.00    -0.113 SA
HETATM   11  C3  UNL     1     -31.875  18.594  -1.091  1.00 20.00     0.058 A 
ENDBRANCH   4   7
TORSDOF 1
ENDMDL
MODEL 8
REMARK VINA RESULT:      -3.4      2.388      3.758
REMARK  1 active torsions:
REMARK  status: ('A' for Active; 'I' for Inactive)
REMARK    1  A    between atoms: C4_4  and  C8_8 
ROOT
HETATM    1  C5  UNL     1     -36.283  16.166  -5.441  1.00 20.00     0.033 C 
HETATM    2  C6  UNL     1     -35.317  17.339  -5.332  1.00 20.00     0.042 C 
HETATM    3  C7  UNL     1     -35.372  14.955  -5.462  1.00 20.00     0.273 C 
HETATM    4  C8  UNL     1     -34.030  16.747  -4.730  1.00 20.00     0.256 C 
HETATM    5  C9  UNL     1     -33.186  14.454  -4.545  1.00 20.00     0.310 C 
HETATM    6  N10 UNL     1     -34.351  15.327  -4.481  1.00 20.00     0.093 N 
ENDROOT
BRANCH   4   7
HETATM    7  C4  UNL     1     -33.584  17.471  -3.477  1.00 20.00    -0.018 A 
HETATM    8  C1  UNL     1     -33.662  16.915  -2.168  1.00 20.00     0.017 A 
HETATM    9  C2  UNL     1     -33.192  17.783  -1.207  1.00 20.00     0.050 A 
HETATM   10  S11 UNL     1     -32.658  19.263  -1.886  1.00 20.00    -0.113 SA
HETATM   11  C3  UNL     1     -33.057  18.744  -3.468  1.00 20.00     0.058 A 
ENDBRANCH   4   7
TORSDOF 1
ENDMDL
MODEL 9
REMARK VINA RESULT:      -3.3     14.253     15.491
REMARK  1 active torsions:
REMARK  status: ('A' for Active; 'I' for Inactive)
REMARK    1  A    between atoms: C4_4  and  C8_8 
ROOT
HETATM    1  C5  UNL     1     -24.898  15.977  12.292  1.00 20.00     0.033 C 
HETATM    2  C6  UNL     1     -23.597  16.736  12.064  1.00 20.00     0.042 C 
HETATM    3  C7  UNL     1     -25.947  17.069  12.331  1.00 20.00     0.273 C 
HETATM    4  C8  UNL     1     -24.018  18.073  11.426  1.00 20.00     0.256 C 
HETATM    5  C9  UNL     1     -26.157  19.263  11.324  1.00 20.00     0.310 C 
HETATM    6  N10 UNL     1     -25.484  17.971  11.276  1.00 20.00     0.093 N 
ENDROOT
BRANCH   4   7
HETATM    7  C4  UNL     1     -23.315  18.339  10.112  1.00 20.00    -0.018 A 
HETATM    8  C1  UNL     1     -23.959  18.881   8.962  1.00 20.00     0.017 A 
HETATM    9  C2  UNL     1     -23.092  19.021   7.900  1.00 20.00     0.050 A 
HETATM   10  S11 UNL     1     -21.507  18.502   8.293  1.00 20.00    -0.113 SA
HETATM   11  C3  UNL     1     -21.979  18.086   9.885  1.00 20.00     0.058 A 
ENDBRANCH   4   7
TORSDOF 1
ENDMDL
