MODEL 1
REMARK VINA RESULT:      -4.7      0.000      0.000
REMARK  3 active torsions:
REMARK  status: ('A' for Active; 'I' for Inactive)
REMARK    1  A    between atoms: C5_5  and  C8_8 
REMARK    2  A    between atoms: C7_7  and  N9_9 
REMARK    3  A    between atoms: C8_8  and  N9_9 
ROOT
HETATM    1  C1  UNL     1     -32.190   7.256   2.589  1.00 20.00     0.013 C 
HETATM    2  C2  UNL     1     -32.319   7.879   3.607  1.00 20.00    -0.087 C 
HETATM    3  C7  UNL     1     -32.472   8.643   4.849  1.00 20.00     0.362 C 
ENDROOT
BRANCH   3   4
HETATM    4  N9  UNL     1     -33.669   8.215   5.574  1.00 20.00     0.094 N 
HETATM    5  H22 UNL     1     -33.844   8.885   6.331  1.00 20.00     0.317 HD
BRANCH   4   6
HETATM    6  C8  UNL     1     -33.521   6.888   6.107  1.00 20.00     0.275 C 
BRANCH   6   7
HETATM    7  C5  UNL     1     -34.762   6.088   5.913  1.00 20.00     0.018 A 
HETATM    8  C3  UNL     1     -35.480   6.108   4.588  1.00 20.00     0.011 A 
HETATM    9  C4  UNL     1     -34.799   4.846   5.051  1.00 20.00    -0.013 A 
HETATM   10  C6  UNL     1     -33.598   4.334   4.334  1.00 20.00     0.010 C 
ENDBRANCH   6   7
ENDBRANCH   4   6
ENDBRANCH   3   4
TORSDOF 3
ENDMDL
MODEL 2
REMARK VINA RESULT:      -4.5      1.230      2.043
REMARK  3 active torsions:
REMARK  status: ('A' for Active; 'I' for Inactive)
REMARK    1  A    between atoms: C5_5  and  C8_8 
REMARK    2  A    between atoms: C7_7  and  N9_9 
REMARK    3  A    between atoms: C8_8  and  N9_9 
ROOT
HETATM    1  C1  UNL     1     -32.860   5.125   2.523  1.00 20.00     0.013 C 
HETATM    2  C2  UNL     1     -32.563   6.282   2.644  1.00 20.00    -0.087 C 
HETATM    3  C7  UNL     1     -32.200   7.695   2.785  1.00 20.00     0.362 C 
ENDROOT
BRANCH   3   4
HETATM    4  N9  UNL     1     -32.106   8.064   4.198  1.00 20.00     0.094 N 
HETATM    5  H22 UNL     1     -31.449   7.422   4.656  1.00 20.00     0.317 HD
BRANCH   4   6
HETATM    6  C8  UNL     1     -33.387   8.012   4.847  1.00 20.00     0.275 C 
BRANCH   6   7
HETATM    7  C5  UNL     1     -33.408   6.973   5.915  1.00 20.00     0.018 A 
HETATM    8  C3  UNL     1     -34.538   6.928   6.909  1.00 20.00     0.011 A 
HETATM    9  C4  UNL     1     -34.382   5.818   5.903  1.00 20.00    -0.013 A 
HETATM   10  C6  UNL     1     -35.392   5.634   4.823  1.00 20.00     0.010 C 
ENDBRANCH   6   7
ENDBRANCH   4   6
ENDBRANCH   3   4
TORSDOF 3
ENDMDL
MODEL 3
REMARK VINA RESULT:      -4.4      1.025      3.505
REMARK  3 active torsions:
REMARK  status: ('A' for Active; 'I' for Inactive)
REMARK    1  A    between atoms: C5_5  and  C8_8 
REMARK    2  A    between atoms: C7_7  and  N9_9 
REMARK    3  A    between atoms: C8_8  and  N9_9 
ROOT
HETATM    1  C1  UNL     1     -34.054   4.493   3.910  1.00 20.00     0.013 C 
HETATM    2  C2  UNL     1     -34.371   4.865   5.006  1.00 20.00    -0.087 C 
HETATM    3  C7  UNL     1     -34.760   5.315   6.346  1.00 20.00     0.362 C 
ENDROOT
BRANCH   3   4
HETATM    4  N9  UNL     1     -34.514   6.750   6.500  1.00 20.00     0.094 N 
HETATM    5  H22 UNL     1     -35.270   7.258   6.028  1.00 20.00     0.317 HD
BRANCH   4   6
HETATM    6  C8  UNL     1     -33.241   7.132   5.954  1.00 20.00     0.275 C 
BRANCH   6   7
HETATM    7  C5  UNL     1     -33.359   8.365   5.127  1.00 20.00     0.018 A 
HETATM    8  C3  UNL     1     -32.143   9.209   4.843  1.00 20.00     0.011 A 
HETATM    9  C4  UNL     1     -32.809   8.454   3.722  1.00 20.00    -0.013 A 
HETATM   10  C6  UNL     1     -32.110   7.315   3.063  1.00 20.00     0.010 C 
ENDBRANCH   6   7
ENDBRANCH   4   6
ENDBRANCH   3   4
TORSDOF 3
ENDMDL
MODEL 4
REMARK VINA RESULT:      -4.2      1.276      2.035
REMARK  3 active torsions:
REMARK  status: ('A' for Active; 'I' for Inactive)
REMARK    1  A    between atoms: C5_5  and  C8_8 
REMARK    2  A    between atoms: C7_7  and  N9_9 
REMARK    3  A    between atoms: C8_8  and  N9_9 
ROOT
HETATM    1  C1  UNL     1     -32.226   8.669   0.655  1.00 20.00     0.013 C 
HETATM    2  C2  UNL     1     -32.238   8.092   1.707  1.00 20.00    -0.087 C 
HETATM    3  C7  UNL     1     -32.253   7.383   2.990  1.00 20.00     0.362 C 
ENDROOT
BRANCH   3   4
HETATM    4  N9  UNL     1     -32.283   8.332   4.104  1.00 20.00     0.094 N 
HETATM    5  H22 UNL     1     -31.457   8.166   4.690  1.00 20.00     0.317 HD
BRANCH   4   6
HETATM    6  C8  UNL     1     -33.482   8.197   4.884  1.00 20.00     0.275 C 
BRANCH   6   7
HETATM    7  C5  UNL     1     -33.408   7.013   5.785  1.00 20.00     0.018 A 
HETATM    8  C3  UNL     1     -34.501   6.751   6.789  1.00 20.00     0.011 A 
HETATM    9  C4  UNL     1     -34.314   5.813   5.625  1.00 20.00    -0.013 A 
HETATM   10  C6  UNL     1     -35.347   5.729   4.554  1.00 20.00     0.010 C 
ENDBRANCH   6   7
ENDBRANCH   4   6
ENDBRANCH   3   4
TORSDOF 3
ENDMDL
MODEL 5
REMARK VINA RESULT:      -4.1      0.995      3.804
REMARK  3 active torsions:
REMARK  status: ('A' for Active; 'I' for Inactive)
REMARK    1  A    between atoms: C5_5  and  C8_8 
REMARK    2  A    between atoms: C7_7  and  N9_9 
REMARK    3  A    between atoms: C8_8  and  N9_9 
ROOT
HETATM    1  C1  UNL     1     -34.798   4.923   4.896  1.00 20.00     0.013 C 
HETATM    2  C2  UNL     1     -34.512   5.887   5.552  1.00 20.00    -0.087 C 
HETATM    3  C7  UNL     1     -34.169   7.063   6.356  1.00 20.00     0.362 C 
ENDROOT
BRANCH   3   4
HETATM    4  N9  UNL     1     -32.900   7.641   5.908  1.00 20.00     0.094 N 
HETATM    5  H22 UNL     1     -32.593   8.324   6.609  1.00 20.00     0.317 HD
BRANCH   4   6
HETATM    6  C8  UNL     1     -33.029   8.271   4.622  1.00 20.00     0.275 C 
BRANCH   6   7
HETATM    7  C5  UNL     1     -32.045   7.716   3.651  1.00 20.00     0.018 A 
HETATM    8  C3  UNL     1     -32.500   6.796   2.549  1.00 20.00     0.011 A 
HETATM    9  C4  UNL     1     -31.984   8.169   2.210  1.00 20.00    -0.013 A 
HETATM   10  C6  UNL     1     -32.904   9.203   1.658  1.00 20.00     0.010 C 
ENDBRANCH   6   7
ENDBRANCH   4   6
ENDBRANCH   3   4
TORSDOF 3
ENDMDL
MODEL 6
REMARK VINA RESULT:      -3.9      1.535      4.126
REMARK  3 active torsions:
REMARK  status: ('A' for Active; 'I' for Inactive)
REMARK    1  A    between atoms: C5_5  and  C8_8 
REMARK    2  A    between atoms: C7_7  and  N9_9 
REMARK    3  A    between atoms: C8_8  and  N9_9 
ROOT
HETATM    1  C1  UNL     1     -34.321   6.861   6.706  1.00 20.00     0.013 C 
HETATM    2  C2  UNL     1     -34.485   5.919   5.980  1.00 20.00    -0.087 C 
HETATM    3  C7  UNL     1     -34.689   4.767   5.098  1.00 20.00     0.362 C 
ENDROOT
BRANCH   3   4
HETATM    4  N9  UNL     1     -33.770   4.820   3.959  1.00 20.00     0.094 N 
HETATM    5  H22 UNL     1     -32.824   4.617   4.300  1.00 20.00     0.317 HD
BRANCH   4   6
HETATM    6  C8  UNL     1     -33.801   6.102   3.311  1.00 20.00     0.275 C 
BRANCH   6   7
HETATM    7  C5  UNL     1     -32.434   6.536   2.911  1.00 20.00     0.018 A 
HETATM    8  C3  UNL     1     -32.247   7.741   2.026  1.00 20.00     0.011 A 
HETATM    9  C4  UNL     1     -31.787   7.788   3.459  1.00 20.00    -0.013 A 
HETATM   10  C6  UNL     1     -32.472   8.678   4.439  1.00 20.00     0.010 C 
ENDBRANCH   6   7
ENDBRANCH   4   6
ENDBRANCH   3   4
TORSDOF 3
ENDMDL
MODEL 7
REMARK VINA RESULT:      -3.8      1.607      4.198
REMARK  3 active torsions:
REMARK  status: ('A' for Active; 'I' for Inactive)
REMARK    1  A    between atoms: C5_5  and  C8_8 
REMARK    2  A    between atoms: C7_7  and  N9_9 
REMARK    3  A    between atoms: C8_8  and  N9_9 
ROOT
HETATM    1  C1  UNL     1     -34.777   5.538   6.375  1.00 20.00     0.013 C 
HETATM    2  C2  UNL     1     -34.472   5.017   5.337  1.00 20.00    -0.087 C 
HETATM    3  C7  UNL     1     -34.103   4.378   4.071  1.00 20.00     0.362 C 
ENDROOT
BRANCH   3   4
HETATM    4  N9  UNL     1     -32.970   5.069   3.454  1.00 20.00     0.094 N 
HETATM    5  H22 UNL     1     -32.211   5.122   4.144  1.00 20.00     0.317 HD
BRANCH   4   6
HETATM    6  C8  UNL     1     -33.330   6.388   3.010  1.00 20.00     0.275 C 
BRANCH   6   7
HETATM    7  C5  UNL     1     -32.223   7.357   3.245  1.00 20.00     0.018 A 
HETATM    8  C3  UNL     1     -32.404   8.814   2.909  1.00 20.00     0.011 A 
HETATM    9  C4  UNL     1     -32.270   8.389   4.348  1.00 20.00    -0.013 A 
HETATM   10  C6  UNL     1     -33.426   8.512   5.279  1.00 20.00     0.010 C 
ENDBRANCH   6   7
ENDBRANCH   4   6
ENDBRANCH   3   4
TORSDOF 3
ENDMDL
MODEL 8
REMARK VINA RESULT:      -3.7      1.740      2.342
REMARK  3 active torsions:
REMARK  status: ('A' for Active; 'I' for Inactive)
REMARK    1  A    between atoms: C5_5  and  C8_8 
REMARK    2  A    between atoms: C7_7  and  N9_9 
REMARK    3  A    between atoms: C8_8  and  N9_9 
ROOT
HETATM    1  C1  UNL     1     -32.720   9.530   0.211  1.00 20.00     0.013 C 
HETATM    2  C2  UNL     1     -32.463   8.814   1.139  1.00 20.00    -0.087 C 
HETATM    3  C7  UNL     1     -32.146   7.935   2.269  1.00 20.00     0.362 C 
ENDROOT
BRANCH   3   4
HETATM    4  N9  UNL     1     -32.713   8.466   3.510  1.00 20.00     0.094 N 
HETATM    5  H22 UNL     1     -32.047   9.137   3.907  1.00 20.00     0.317 HD
BRANCH   4   6
HETATM    6  C8  UNL     1     -32.990   7.421   4.457  1.00 20.00     0.275 C 
BRANCH   6   7
HETATM    7  C5  UNL     1     -34.218   6.665   4.079  1.00 20.00     0.018 A 
HETATM    8  C3  UNL     1     -34.188   5.161   3.996  1.00 20.00     0.011 A 
HETATM    9  C4  UNL     1     -34.996   5.834   5.074  1.00 20.00    -0.013 A 
HETATM   10  C6  UNL     1     -34.593   5.712   6.503  1.00 20.00     0.010 C 
ENDBRANCH   6   7
ENDBRANCH   4   6
ENDBRANCH   3   4
TORSDOF 3
ENDMDL
MODEL 9
REMARK VINA RESULT:      -3.6     11.858     12.852
REMARK  3 active torsions:
REMARK  status: ('A' for Active; 'I' for Inactive)
REMARK    1  A    between atoms: C5_5  and  C8_8 
REMARK    2  A    between atoms: C7_7  and  N9_9 
REMARK    3  A    between atoms: C8_8  and  N9_9 
ROOT
HETATM    1  C1  UNL     1     -31.374  18.509  -0.419  1.00 20.00     0.013 C 
HETATM    2  C2  UNL     1     -32.452  18.177  -0.828  1.00 20.00    -0.087 C 
HETATM    3  C7  UNL     1     -33.771  17.777  -1.326  1.00 20.00     0.362 C 
ENDROOT
BRANCH   3   4
HETATM    4  N9  UNL     1     -33.693  16.489  -2.018  1.00 20.00     0.094 N 
HETATM    5  H22 UNL     1     -33.012  15.901  -1.526  1.00 20.00     0.317 HD
BRANCH   4   6
HETATM    6  C8  UNL     1     -33.311  16.649  -3.394  1.00 20.00     0.275 C 
BRANCH   6   7
HETATM    7  C5  UNL     1     -33.134  15.328  -4.060  1.00 20.00     0.018 A 
HETATM    8  C3  UNL     1     -34.270  14.338  -4.101  1.00 20.00     0.011 A 
HETATM    9  C4  UNL     1     -33.796  14.987  -5.375  1.00 20.00    -0.013 A 
HETATM   10  C6  UNL     1     -34.674  15.948  -6.101  1.00 20.00     0.010 C 
ENDBRANCH   6   7
ENDBRANCH   4   6
ENDBRANCH   3   4
TORSDOF 3
ENDMDL
