MODEL 1
REMARK VINA RESULT:      -5.9      0.000      0.000
REMARK  0 active torsions:
REMARK  status: ('A' for Active; 'I' for Inactive)
ROOT
HETATM    1  C1  UNL     1     -33.800   6.995   5.155  1.00 20.00    -0.037 C 
HETATM    2  C2  UNL     1     -33.560   6.006   4.055  1.00 20.00     0.040 C 
HETATM    3  C3  UNL     1     -32.339   7.514   2.771  1.00 20.00     0.243 C 
HETATM    4  C4  UNL     1     -34.311   6.638   6.340  1.00 20.00    -0.022 C 
HETATM    5  C5  UNL     1     -33.388   8.399   4.838  1.00 20.00     0.049 C 
HETATM    6  C6  UNL     1     -32.126   8.377   3.996  1.00 20.00     0.110 C 
HETATM    7  C7  UNL     1     -34.108   4.602   4.191  1.00 20.00     0.071 C 
HETATM    8  C8  UNL     1     -34.693   5.242   6.695  1.00 20.00     0.036 C 
HETATM    9  N9  UNL     1     -32.896   6.269   2.970  1.00 20.00    -0.219 NA
HETATM   10  O10 UNL     1     -31.955   7.903   1.670  1.00 20.00    -0.271 OA
ENDROOT
TORSDOF 0
ENDMDL
MODEL 2
REMARK VINA RESULT:      -5.0      2.363      3.691
REMARK  0 active torsions:
REMARK  status: ('A' for Active; 'I' for Inactive)
ROOT
HETATM    1  C1  UNL     1     -32.854   7.424   4.095  1.00 20.00    -0.037 C 
HETATM    2  C2  UNL     1     -33.360   6.047   3.787  1.00 20.00     0.040 C 
HETATM    3  C3  UNL     1     -34.434   5.826   5.839  1.00 20.00     0.243 C 
HETATM    4  C4  UNL     1     -32.296   8.207   3.164  1.00 20.00    -0.022 C 
HETATM    5  C5  UNL     1     -33.059   7.865   5.512  1.00 20.00     0.049 C 
HETATM    6  C6  UNL     1     -34.384   7.328   6.021  1.00 20.00     0.110 C 
HETATM    7  C7  UNL     1     -33.039   5.426   2.445  1.00 20.00     0.071 C 
HETATM    8  C8  UNL     1     -32.117   7.808   1.739  1.00 20.00     0.036 C 
HETATM    9  N9  UNL     1     -34.073   5.332   4.604  1.00 20.00    -0.219 NA
HETATM   10  O10 UNL     1     -34.855   5.109   6.745  1.00 20.00    -0.271 OA
ENDROOT
TORSDOF 0
ENDMDL
MODEL 3
REMARK VINA RESULT:      -4.8      1.958      3.502
REMARK  0 active torsions:
REMARK  status: ('A' for Active; 'I' for Inactive)
ROOT
HETATM    1  C1  UNL     1     -33.173   7.621   5.074  1.00 20.00    -0.037 C 
HETATM    2  C2  UNL     1     -32.947   6.862   3.801  1.00 20.00     0.040 C 
HETATM    3  C3  UNL     1     -34.145   5.005   4.528  1.00 20.00     0.243 C 
HETATM    4  C4  UNL     1     -32.873   8.920   5.195  1.00 20.00    -0.022 C 
HETATM    5  C5  UNL     1     -33.794   6.823   6.178  1.00 20.00     0.049 C 
HETATM    6  C6  UNL     1     -34.804   5.853   5.594  1.00 20.00     0.110 C 
HETATM    7  C7  UNL     1     -32.157   7.510   2.685  1.00 20.00     0.071 C 
HETATM    8  C8  UNL     1     -32.292   9.747   4.100  1.00 20.00     0.036 C 
HETATM    9  N9  UNL     1     -33.394   5.664   3.578  1.00 20.00    -0.219 NA
HETATM   10  O10 UNL     1     -34.350   3.793   4.491  1.00 20.00    -0.271 OA
ENDROOT
TORSDOF 0
ENDMDL
MODEL 4
REMARK VINA RESULT:      -4.5     15.746     15.916
REMARK  0 active torsions:
REMARK  status: ('A' for Active; 'I' for Inactive)
ROOT
HETATM    1  C1  UNL     1     -24.669  18.679  10.031  1.00 20.00    -0.037 C 
HETATM    2  C2  UNL     1     -23.705  17.612  10.453  1.00 20.00     0.040 C 
HETATM    3  C3  UNL     1     -22.514  17.698   8.457  1.00 20.00     0.243 C 
HETATM    4  C4  UNL     1     -25.530  19.245  10.886  1.00 20.00    -0.022 C 
HETATM    5  C5  UNL     1     -24.565  19.085   8.594  1.00 20.00     0.049 C 
HETATM    6  C6  UNL     1     -23.110  19.058   8.165  1.00 20.00     0.110 C 
HETATM    7  C7  UNL     1     -23.846  16.991  11.826  1.00 20.00     0.071 C 
HETATM    8  C8  UNL     1     -25.626  18.888  12.330  1.00 20.00     0.036 C 
HETATM    9  N9  UNL     1     -22.733  17.173   9.713  1.00 20.00    -0.219 NA
HETATM   10  O10 UNL     1     -21.807  17.142   7.618  1.00 20.00    -0.271 OA
ENDROOT
TORSDOF 0
ENDMDL
MODEL 5
REMARK VINA RESULT:      -4.5     12.058     13.246
REMARK  0 active torsions:
REMARK  status: ('A' for Active; 'I' for Inactive)
ROOT
HETATM    1  C1  UNL     1     -33.879  15.851  -3.949  1.00 20.00    -0.037 C 
HETATM    2  C2  UNL     1     -34.502  16.690  -5.023  1.00 20.00     0.040 C 
HETATM    3  C3  UNL     1     -35.540  14.874  -6.040  1.00 20.00     0.243 C 
HETATM    4  C4  UNL     1     -33.283  16.387  -2.877  1.00 20.00    -0.022 C 
HETATM    5  C5  UNL     1     -34.013  14.373  -4.151  1.00 20.00     0.049 C 
HETATM    6  C6  UNL     1     -35.364  14.069  -4.771  1.00 20.00     0.110 C 
HETATM    7  C7  UNL     1     -34.265  18.185  -5.022  1.00 20.00     0.071 C 
HETATM    8  C8  UNL     1     -33.171  17.853  -2.631  1.00 20.00     0.036 C 
HETATM    9  N9  UNL     1     -35.250  16.220  -5.974  1.00 20.00    -0.219 NA
HETATM   10  O10 UNL     1     -35.994  14.340  -7.050  1.00 20.00    -0.271 OA
ENDROOT
TORSDOF 0
ENDMDL
MODEL 6
REMARK VINA RESULT:      -4.4     12.331     13.115
REMARK  0 active torsions:
REMARK  status: ('A' for Active; 'I' for Inactive)
ROOT
HETATM    1  C1  UNL     1     -33.579  16.436  -3.378  1.00 20.00    -0.037 C 
HETATM    2  C2  UNL     1     -34.543  17.088  -4.324  1.00 20.00     0.040 C 
HETATM    3  C3  UNL     1     -34.405  15.364  -5.879  1.00 20.00     0.243 C 
HETATM    4  C4  UNL     1     -33.388  16.882  -2.131  1.00 20.00    -0.022 C 
HETATM    5  C5  UNL     1     -32.881  15.230  -3.927  1.00 20.00     0.049 C 
HETATM    6  C6  UNL     1     -33.836  14.453  -4.813  1.00 20.00     0.110 C 
HETATM    7  C7  UNL     1     -35.161  18.417  -3.948  1.00 20.00     0.071 C 
HETATM    8  C8  UNL     1     -34.100  18.055  -1.547  1.00 20.00     0.036 C 
HETATM    9  N9  UNL     1     -34.898  16.583  -5.466  1.00 20.00    -0.219 NA
HETATM   10  O10 UNL     1     -34.479  14.977  -7.044  1.00 20.00    -0.271 OA
ENDROOT
TORSDOF 0
ENDMDL
MODEL 7
REMARK VINA RESULT:      -4.4      2.398      3.902
REMARK  0 active torsions:
REMARK  status: ('A' for Active; 'I' for Inactive)
ROOT
HETATM    1  C1  UNL     1     -33.942   5.584   4.005  1.00 20.00    -0.037 C 
HETATM    2  C2  UNL     1     -33.213   6.868   4.261  1.00 20.00     0.040 C 
HETATM    3  C3  UNL     1     -34.090   7.107   6.402  1.00 20.00     0.243 C 
HETATM    4  C4  UNL     1     -33.675   4.807   2.948  1.00 20.00    -0.022 C 
HETATM    5  C5  UNL     1     -34.959   5.223   5.043  1.00 20.00     0.049 C 
HETATM    6  C6  UNL     1     -34.454   5.638   6.412  1.00 20.00     0.110 C 
HETATM    7  C7  UNL     1     -32.302   7.425   3.189  1.00 20.00     0.071 C 
HETATM    8  C8  UNL     1     -32.640   5.122   1.923  1.00 20.00     0.036 C 
HETATM    9  N9  UNL     1     -33.303   7.551   5.361  1.00 20.00    -0.219 NA
HETATM   10  O10 UNL     1     -34.432   7.833   7.334  1.00 20.00    -0.271 OA
ENDROOT
TORSDOF 0
ENDMDL
MODEL 8
REMARK VINA RESULT:      -4.3     16.014     16.418
REMARK  0 active torsions:
REMARK  status: ('A' for Active; 'I' for Inactive)
ROOT
HETATM    1  C1  UNL     1     -23.336  17.706  10.067  1.00 20.00    -0.037 C 
HETATM    2  C2  UNL     1     -24.333  18.729   9.615  1.00 20.00     0.040 C 
HETATM    3  C3  UNL     1     -25.413  18.797  11.674  1.00 20.00     0.243 C 
HETATM    4  C4  UNL     1     -22.260  17.385   9.340  1.00 20.00    -0.022 C 
HETATM    5  C5  UNL     1     -23.620  17.105  11.409  1.00 20.00     0.049 C 
HETATM    6  C6  UNL     1     -24.202  18.165  12.325  1.00 20.00     0.110 C 
HETATM    7  C7  UNL     1     -24.253  19.263   8.201  1.00 20.00     0.071 C 
HETATM    8  C8  UNL     1     -21.933  17.997   8.020  1.00 20.00     0.036 C 
HETATM    9  N9  UNL     1     -25.279  19.207  10.364  1.00 20.00    -0.219 NA
HETATM   10  O10 UNL     1     -26.434  18.993  12.331  1.00 20.00    -0.271 OA
ENDROOT
TORSDOF 0
ENDMDL
MODEL 9
REMARK VINA RESULT:      -4.2      1.801      2.563
REMARK  0 active torsions:
REMARK  status: ('A' for Active; 'I' for Inactive)
ROOT
HETATM    1  C1  UNL     1     -33.272   6.466   4.074  1.00 20.00    -0.037 C 
HETATM    2  C2  UNL     1     -33.520   7.223   5.344  1.00 20.00     0.040 C 
HETATM    3  C3  UNL     1     -32.399   9.121   4.600  1.00 20.00     0.243 C 
HETATM    4  C4  UNL     1     -33.881   5.306   3.802  1.00 20.00    -0.022 C 
HETATM    5  C5  UNL     1     -32.324   7.129   3.124  1.00 20.00     0.049 C 
HETATM    6  C6  UNL     1     -32.527   8.632   3.174  1.00 20.00     0.110 C 
HETATM    7  C7  UNL     1     -34.308   6.563   6.454  1.00 20.00     0.071 C 
HETATM    8  C8  UNL     1     -34.859   4.644   4.713  1.00 20.00     0.036 C 
HETATM    9  N9  UNL     1     -33.103   8.433   5.565  1.00 20.00    -0.219 NA
HETATM   10  O10 UNL     1     -31.748  10.135   4.848  1.00 20.00    -0.271 OA
ENDROOT
TORSDOF 0
ENDMDL
