MODEL 1
REMARK VINA RESULT:      -4.1      0.000      0.000
REMARK  0 active torsions:
REMARK  status: ('A' for Active; 'I' for Inactive)
ROOT
HETATM    1  C1  UNL     1     -33.545   7.043   5.372  1.00 20.00     0.014 C 
HETATM    2  C2  UNL     1     -32.758   8.303   5.191  1.00 20.00     0.085 C 
HETATM    3  C3  UNL     1     -34.548   5.086   4.734  1.00 20.00     0.034 C 
HETATM    4  C4  UNL     1     -34.840   5.455   6.182  1.00 20.00     0.149 C 
HETATM    5  C5  UNL     1     -32.680   8.654   3.705  1.00 20.00     0.277 C 
HETATM    6  C6  UNL     1     -33.214   6.399   2.992  1.00 20.00     0.282 C 
HETATM    7  C7  UNL     1     -33.311   5.904   4.431  1.00 20.00     0.063 C 
HETATM    8  C8  UNL     1     -32.075   7.905   1.494  1.00 20.00     0.309 C 
HETATM    9  N9  UNL     1     -34.376   6.849   6.349  1.00 20.00    -0.298 NA
HETATM   10  N10 UNL     1     -32.241   7.503   2.892  1.00 20.00     0.085 N 
ENDROOT
TORSDOF 0
ENDMDL
MODEL 2
REMARK VINA RESULT:      -4.1     15.449     16.223
REMARK  0 active torsions:
REMARK  status: ('A' for Active; 'I' for Inactive)
ROOT
HETATM    1  C1  UNL     1     -23.127  17.552   9.995  1.00 20.00     0.014 C 
HETATM    2  C2  UNL     1     -23.584  16.979  11.299  1.00 20.00     0.085 C 
HETATM    3  C3  UNL     1     -23.192  18.943   8.177  1.00 20.00     0.034 C 
HETATM    4  C4  UNL     1     -22.100  17.887   8.074  1.00 20.00     0.149 C 
HETATM    5  C5  UNL     1     -25.032  17.393  11.567  1.00 20.00     0.277 C 
HETATM    6  C6  UNL     1     -24.942  19.253  10.014  1.00 20.00     0.282 C 
HETATM    7  C7  UNL     1     -23.487  18.965   9.661  1.00 20.00     0.063 C 
HETATM    8  C8  UNL     1     -26.592  19.220  11.771  1.00 20.00     0.309 C 
HETATM    9  N9  UNL     1     -22.369  16.916   9.156  1.00 20.00    -0.298 NA
HETATM   10  N10 UNL     1     -25.224  18.847  11.404  1.00 20.00     0.085 N 
ENDROOT
TORSDOF 0
ENDMDL
MODEL 3
REMARK VINA RESULT:      -4.0      1.298      2.156
REMARK  0 active torsions:
REMARK  status: ('A' for Active; 'I' for Inactive)
ROOT
HETATM    1  C1  UNL     1     -33.922   5.599   4.307  1.00 20.00     0.014 C 
HETATM    2  C2  UNL     1     -33.323   5.735   2.943  1.00 20.00     0.085 C 
HETATM    3  C3  UNL     1     -34.507   6.268   6.417  1.00 20.00     0.034 C 
HETATM    4  C4  UNL     1     -34.813   4.800   6.157  1.00 20.00     0.149 C 
HETATM    5  C5  UNL     1     -32.378   6.937   2.911  1.00 20.00     0.277 C 
HETATM    6  C6  UNL     1     -33.373   7.959   4.871  1.00 20.00     0.282 C 
HETATM    7  C7  UNL     1     -34.388   6.831   5.017  1.00 20.00     0.063 C 
HETATM    8  C8  UNL     1     -32.124   9.302   3.308  1.00 20.00     0.309 C 
HETATM    9  N9  UNL     1     -34.129   4.459   4.890  1.00 20.00    -0.298 NA
HETATM   10  N10 UNL     1     -33.018   8.151   3.453  1.00 20.00     0.085 N 
ENDROOT
TORSDOF 0
ENDMDL
MODEL 4
REMARK VINA RESULT:      -3.7     12.443     13.165
REMARK  0 active torsions:
REMARK  status: ('A' for Active; 'I' for Inactive)
ROOT
HETATM    1  C1  UNL     1     -32.119  18.364  -0.780  1.00 20.00     0.014 C 
HETATM    2  C2  UNL     1     -32.552  18.108  -2.189  1.00 20.00     0.085 C 
HETATM    3  C3  UNL     1     -32.351  19.032   1.398  1.00 20.00     0.034 C 
HETATM    4  C4  UNL     1     -30.920  18.653   1.046  1.00 20.00     0.149 C 
HETATM    5  C5  UNL     1     -33.851  18.862  -2.475  1.00 20.00     0.277 C 
HETATM    6  C6  UNL     1     -34.402  19.103  -0.127  1.00 20.00     0.282 C 
HETATM    7  C7  UNL     1     -33.148  18.351   0.306  1.00 20.00     0.063 C 
HETATM    8  C8  UNL     1     -36.130  19.263  -1.800  1.00 20.00     0.309 C 
HETATM    9  N9  UNL     1     -30.881  18.527  -0.427  1.00 20.00    -0.298 NA
HETATM   10  N10 UNL     1     -34.869  18.613  -1.437  1.00 20.00     0.085 N 
ENDROOT
TORSDOF 0
ENDMDL
MODEL 5
REMARK VINA RESULT:      -3.6      9.728     10.630
REMARK  0 active torsions:
REMARK  status: ('A' for Active; 'I' for Inactive)
ROOT
HETATM    1  C1  UNL     1     -40.816  13.129   5.016  1.00 20.00     0.014 C 
HETATM    2  C2  UNL     1     -41.966  14.078   4.894  1.00 20.00     0.085 C 
HETATM    3  C3  UNL     1     -39.094  12.043   6.063  1.00 20.00     0.034 C 
HETATM    4  C4  UNL     1     -39.173  11.727   4.577  1.00 20.00     0.149 C 
HETATM    5  C5  UNL     1     -41.942  15.070   6.057  1.00 20.00     0.277 C 
HETATM    6  C6  UNL     1     -40.535  13.653   7.430  1.00 20.00     0.282 C 
HETATM    7  C7  UNL     1     -40.483  12.567   6.361  1.00 20.00     0.063 C 
HETATM    8  C8  UNL     1     -41.901  15.356   8.451  1.00 20.00     0.309 C 
HETATM    9  N9  UNL     1     -40.126  12.702   4.003  1.00 20.00    -0.298 NA
HETATM   10  N10 UNL     1     -41.812  14.386   7.358  1.00 20.00     0.085 N 
ENDROOT
TORSDOF 0
ENDMDL
MODEL 6
REMARK VINA RESULT:      -3.5     12.308     13.300
REMARK  0 active torsions:
REMARK  status: ('A' for Active; 'I' for Inactive)
ROOT
HETATM    1  C1  UNL     1     -34.819  18.073  -3.254  1.00 20.00     0.014 C 
HETATM    2  C2  UNL     1     -35.551  18.252  -4.546  1.00 20.00     0.085 C 
HETATM    3  C3  UNL     1     -33.450  17.026  -1.746  1.00 20.00     0.034 C 
HETATM    4  C4  UNL     1     -34.115  18.270  -1.175  1.00 20.00     0.149 C 
HETATM    5  C5  UNL     1     -35.612  16.920  -5.295  1.00 20.00     0.277 C 
HETATM    6  C6  UNL     1     -33.759  15.969  -4.053  1.00 20.00     0.282 C 
HETATM    7  C7  UNL     1     -33.573  17.244  -3.239  1.00 20.00     0.063 C 
HETATM    8  C8  UNL     1     -34.361  15.072  -6.208  1.00 20.00     0.309 C 
HETATM    9  N9  UNL     1     -35.161  18.656  -2.147  1.00 20.00    -0.298 NA
HETATM   10  N10 UNL     1     -34.283  16.287  -5.395  1.00 20.00     0.085 N 
ENDROOT
TORSDOF 0
ENDMDL
MODEL 7
REMARK VINA RESULT:      -3.4     12.156     13.810
REMARK  0 active torsions:
REMARK  status: ('A' for Active; 'I' for Inactive)
ROOT
HETATM    1  C1  UNL     1     -34.573  15.383  -5.904  1.00 20.00     0.014 C 
HETATM    2  C2  UNL     1     -33.574  14.768  -4.976  1.00 20.00     0.085 C 
HETATM    3  C3  UNL     1     -36.013  16.988  -6.673  1.00 20.00     0.034 C 
HETATM    4  C4  UNL     1     -36.066  15.708  -7.493  1.00 20.00     0.149 C 
HETATM    5  C5  UNL     1     -33.588  15.509  -3.638  1.00 20.00     0.277 C 
HETATM    6  C6  UNL     1     -34.640  17.483  -4.574  1.00 20.00     0.282 C 
HETATM    7  C7  UNL     1     -34.677  16.873  -5.971  1.00 20.00     0.063 C 
HETATM    8  C8  UNL     1     -33.391  17.634  -2.518  1.00 20.00     0.309 C 
HETATM    9  N9  UNL     1     -35.315  14.696  -6.718  1.00 20.00    -0.298 NA
HETATM   10  N10 UNL     1     -33.481  16.969  -3.819  1.00 20.00     0.085 N 
ENDROOT
TORSDOF 0
ENDMDL
MODEL 8
REMARK VINA RESULT:      -3.4     12.084     13.160
REMARK  0 active torsions:
REMARK  status: ('A' for Active; 'I' for Inactive)
ROOT
HETATM    1  C1  UNL     1     -34.557  16.751  -4.562  1.00 20.00     0.014 C 
HETATM    2  C2  UNL     1     -35.202  18.037  -4.152  1.00 20.00     0.085 C 
HETATM    3  C3  UNL     1     -33.149  14.955  -4.371  1.00 20.00     0.034 C 
HETATM    4  C4  UNL     1     -33.873  14.998  -5.709  1.00 20.00     0.149 C 
HETATM    5  C5  UNL     1     -34.376  18.701  -3.050  1.00 20.00     0.277 C 
HETATM    6  C6  UNL     1     -33.247  16.640  -2.451  1.00 20.00     0.282 C 
HETATM    7  C7  UNL     1     -34.013  15.846  -3.503  1.00 20.00     0.063 C 
HETATM    8  C8  UNL     1     -33.371  18.457  -0.872  1.00 20.00     0.309 C 
HETATM    9  N9  UNL     1     -34.504  16.333  -5.790  1.00 20.00    -0.298 NA
HETATM   10  N10 UNL     1     -34.068  17.761  -1.955  1.00 20.00     0.085 N 
ENDROOT
TORSDOF 0
ENDMDL
MODEL 9
REMARK VINA RESULT:      -3.3      0.918      3.654
REMARK  0 active torsions:
REMARK  status: ('A' for Active; 'I' for Inactive)
ROOT
HETATM    1  C1  UNL     1     -33.071   7.593   4.114  1.00 20.00     0.014 C 
HETATM    2  C2  UNL     1     -33.558   8.179   5.402  1.00 20.00     0.085 C 
HETATM    3  C3  UNL     1     -32.701   5.949   2.564  1.00 20.00     0.034 C 
HETATM    4  C4  UNL     1     -32.056   7.275   2.184  1.00 20.00     0.149 C 
HETATM    5  C5  UNL     1     -33.837   7.059   6.405  1.00 20.00     0.277 C 
HETATM    6  C6  UNL     1     -33.998   5.357   4.686  1.00 20.00     0.282 C 
HETATM    7  C7  UNL     1     -33.745   6.371   3.576  1.00 20.00     0.063 C 
HETATM    8  C8  UNL     1     -35.017   5.002   6.841  1.00 20.00     0.309 C 
HETATM    9  N9  UNL     1     -32.137   8.128   3.390  1.00 20.00    -0.298 NA
HETATM   10  N10 UNL     1     -34.684   6.000   5.823  1.00 20.00     0.085 N 
ENDROOT
TORSDOF 0
ENDMDL
