MODEL 1
REMARK VINA RESULT:      -5.0      0.000      0.000
REMARK  1 active torsions:
REMARK  status: ('A' for Active; 'I' for Inactive)
REMARK    1  A    between atoms: C3_3  and  C4_4 
ROOT
HETATM    1  C1  UNL     1     -33.293   7.239   4.669  1.00 20.00     0.067 A 
HETATM    2  C2  UNL     1     -33.542   6.087   3.967  1.00 20.00     0.080 A 
HETATM    3  C3  UNL     1     -32.501   7.475   2.743  1.00 20.00     0.208 A 
HETATM    4  C5  UNL     1     -33.693   7.426   6.079  1.00 20.00     0.062 C 
HETATM    5  C6  UNL     1     -34.255   4.881   4.420  1.00 20.00     0.067 C 
HETATM    6  C7  UNL     1     -34.736   6.354   6.483  1.00 20.00     0.006 C 
HETATM    7  C8  UNL     1     -34.382   4.940   5.960  1.00 20.00     0.007 C 
HETATM    8  N9  UNL     1     -32.619   8.129   3.883  1.00 20.00    -0.224 NA
HETATM    9  O11 UNL     1     -33.043   6.218   2.713  1.00 20.00    -0.292 OA
ENDROOT
BRANCH   3  10
HETATM   10  C4  UNL     1     -31.866   7.977   1.575  1.00 20.00     0.316 C 
HETATM   11  O10 UNL     1     -32.421   8.714   0.729  1.00 20.00    -0.298 OA
ENDBRANCH   3  10
TORSDOF 1
ENDMDL
MODEL 2
REMARK VINA RESULT:      -4.9      0.975      1.861
REMARK  1 active torsions:
REMARK  status: ('A' for Active; 'I' for Inactive)
REMARK    1  A    between atoms: C3_3  and  C4_4 
ROOT
HETATM    1  C1  UNL     1     -33.537   6.012   3.933  1.00 20.00     0.067 A 
HETATM    2  C2  UNL     1     -33.335   7.167   4.644  1.00 20.00     0.080 A 
HETATM    3  C3  UNL     1     -32.510   7.356   2.696  1.00 20.00     0.208 A 
HETATM    4  C5  UNL     1     -34.252   4.842   4.483  1.00 20.00     0.062 C 
HETATM    5  C6  UNL     1     -33.720   7.459   6.035  1.00 20.00     0.067 C 
HETATM    6  C7  UNL     1     -34.361   4.960   6.024  1.00 20.00     0.006 C 
HETATM    7  C8  UNL     1     -34.735   6.388   6.495  1.00 20.00     0.007 C 
HETATM    8  N9  UNL     1     -33.011   6.136   2.679  1.00 20.00    -0.224 NA
HETATM    9  O11 UNL     1     -32.666   8.052   3.865  1.00 20.00    -0.292 OA
ENDROOT
BRANCH   3  10
HETATM   10  C4  UNL     1     -31.838   7.978   1.610  1.00 20.00     0.316 C 
HETATM   11  O10 UNL     1     -32.407   8.627   0.703  1.00 20.00    -0.298 OA
ENDBRANCH   3  10
TORSDOF 1
ENDMDL
MODEL 3
REMARK VINA RESULT:      -4.2     12.363     12.731
REMARK  1 active torsions:
REMARK  status: ('A' for Active; 'I' for Inactive)
REMARK    1  A    between atoms: C3_3  and  C4_4 
ROOT
HETATM    1  C1  UNL     1     -32.616  18.727   0.986  1.00 20.00     0.067 A 
HETATM    2  C2  UNL     1     -31.754  18.514  -0.059  1.00 20.00     0.080 A 
HETATM    3  C3  UNL     1     -30.663  19.003   1.696  1.00 20.00     0.208 A 
HETATM    4  C5  UNL     1     -34.082  18.600   0.860  1.00 20.00     0.062 C 
HETATM    5  C6  UNL     1     -32.081  18.178  -1.455  1.00 20.00     0.067 C 
HETATM    6  C7  UNL     1     -34.490  18.600  -0.634  1.00 20.00     0.006 C 
HETATM    7  C8  UNL     1     -33.559  17.729  -1.514  1.00 20.00     0.007 C 
HETATM    8  N9  UNL     1     -31.914  19.037   2.115  1.00 20.00    -0.224 NA
HETATM    9  O11 UNL     1     -30.482  18.693   0.375  1.00 20.00    -0.292 OA
ENDROOT
BRANCH   3  10
HETATM   10  C4  UNL     1     -29.523  19.262   2.504  1.00 20.00     0.316 C 
HETATM   11  O10 UNL     1     -29.013  18.434   3.293  1.00 20.00    -0.298 OA
ENDBRANCH   3  10
TORSDOF 1
ENDMDL
MODEL 4
REMARK VINA RESULT:      -4.0     11.804     13.113
REMARK  1 active torsions:
REMARK  status: ('A' for Active; 'I' for Inactive)
REMARK    1  A    between atoms: C3_3  and  C4_4 
ROOT
HETATM    1  C1  UNL     1     -33.929  17.432  -4.211  1.00 20.00     0.067 A 
HETATM    2  C2  UNL     1     -33.582  16.299  -3.520  1.00 20.00     0.080 A 
HETATM    3  C3  UNL     1     -33.043  18.024  -2.407  1.00 20.00     0.208 A 
HETATM    4  C5  UNL     1     -34.600  17.399  -5.527  1.00 20.00     0.062 C 
HETATM    5  C6  UNL     1     -33.750  14.895  -3.931  1.00 20.00     0.067 C 
HETATM    6  C7  UNL     1     -34.479  15.987  -6.151  1.00 20.00     0.006 C 
HETATM    7  C8  UNL     1     -34.727  14.851  -5.128  1.00 20.00     0.007 C 
HETATM    8  N9  UNL     1     -33.586  18.541  -3.493  1.00 20.00    -0.224 NA
HETATM    9  O11 UNL     1     -33.000  16.657  -2.349  1.00 20.00    -0.292 OA
ENDROOT
BRANCH   3  10
HETATM   10  C4  UNL     1     -32.512  18.775  -1.323  1.00 20.00     0.316 C 
HETATM   11  O10 UNL     1     -31.294  18.844  -1.040  1.00 20.00    -0.298 OA
ENDBRANCH   3  10
TORSDOF 1
ENDMDL
MODEL 5
REMARK VINA RESULT:      -4.0     12.295     13.424
REMARK  1 active torsions:
REMARK  status: ('A' for Active; 'I' for Inactive)
REMARK    1  A    between atoms: C3_3  and  C4_4 
ROOT
HETATM    1  C1  UNL     1     -34.114  16.236  -4.330  1.00 20.00     0.067 A 
HETATM    2  C2  UNL     1     -34.936  17.310  -4.557  1.00 20.00     0.080 A 
HETATM    3  C3  UNL     1     -35.063  15.939  -6.174  1.00 20.00     0.208 A 
HETATM    4  C5  UNL     1     -33.295  16.093  -3.108  1.00 20.00     0.062 C 
HETATM    5  C6  UNL     1     -35.137  18.498  -3.712  1.00 20.00     0.067 C 
HETATM    6  C7  UNL     1     -33.198  17.452  -2.370  1.00 20.00     0.006 C 
HETATM    7  C8  UNL     1     -34.550  18.205  -2.312  1.00 20.00     0.007 C 
HETATM    8  N9  UNL     1     -34.199  15.353  -5.367  1.00 20.00    -0.224 NA
HETATM    9  O11 UNL     1     -35.559  17.143  -5.750  1.00 20.00    -0.292 OA
ENDROOT
BRANCH   3  10
HETATM   10  C4  UNL     1     -35.501  15.416  -7.421  1.00 20.00     0.316 C 
HETATM   11  O10 UNL     1     -36.114  14.334  -7.558  1.00 20.00    -0.298 OA
ENDBRANCH   3  10
TORSDOF 1
ENDMDL
MODEL 6
REMARK VINA RESULT:      -4.0     12.241     13.332
REMARK  1 active torsions:
REMARK  status: ('A' for Active; 'I' for Inactive)
REMARK    1  A    between atoms: C3_3  and  C4_4 
ROOT
HETATM    1  C1  UNL     1     -34.974  17.419  -4.455  1.00 20.00     0.067 A 
HETATM    2  C2  UNL     1     -34.108  16.390  -4.186  1.00 20.00     0.080 A 
HETATM    3  C3  UNL     1     -35.077  16.059  -6.046  1.00 20.00     0.208 A 
HETATM    4  C5  UNL     1     -35.152  18.578  -3.557  1.00 20.00     0.062 C 
HETATM    5  C6  UNL     1     -33.255  16.204  -3.000  1.00 20.00     0.067 C 
HETATM    6  C7  UNL     1     -34.561  18.265  -2.160  1.00 20.00     0.006 C 
HETATM    7  C8  UNL     1     -33.191  17.545  -2.231  1.00 20.00     0.007 C 
HETATM    8  N9  UNL     1     -35.593  17.207  -5.653  1.00 20.00    -0.224 NA
HETATM    9  O11 UNL     1     -34.161  15.492  -5.200  1.00 20.00    -0.292 OA
ENDROOT
BRANCH   3  10
HETATM   10  C4  UNL     1     -35.402  15.388  -7.256  1.00 20.00     0.316 C 
HETATM   11  O10 UNL     1     -36.074  14.334  -7.322  1.00 20.00    -0.298 OA
ENDBRANCH   3  10
TORSDOF 1
ENDMDL
MODEL 7
REMARK VINA RESULT:      -3.9     16.148     16.657
REMARK  1 active torsions:
REMARK  status: ('A' for Active; 'I' for Inactive)
REMARK    1  A    between atoms: C3_3  and  C4_4 
ROOT
HETATM    1  C1  UNL     1     -23.434  18.280  10.428  1.00 20.00     0.067 A 
HETATM    2  C2  UNL     1     -24.233  18.893   9.497  1.00 20.00     0.080 A 
HETATM    3  C3  UNL     1     -25.215  18.840  11.379  1.00 20.00     0.208 A 
HETATM    4  C5  UNL     1     -22.083  17.768  10.118  1.00 20.00     0.062 C 
HETATM    5  C6  UNL     1     -23.958  19.121   8.068  1.00 20.00     0.067 C 
HETATM    6  C7  UNL     1     -21.893  17.662   8.584  1.00 20.00     0.006 C 
HETATM    7  C8  UNL     1     -22.449  18.890   7.821  1.00 20.00     0.007 C 
HETATM    8  N9  UNL     1     -24.064  18.250  11.638  1.00 20.00    -0.224 NA
HETATM    9  O11 UNL     1     -25.396  19.260  10.088  1.00 20.00    -0.292 OA
ENDROOT
BRANCH   3  10
HETATM   10  C4  UNL     1     -26.252  19.060  12.325  1.00 20.00     0.316 C 
HETATM   11  O10 UNL     1     -27.345  18.451  12.332  1.00 20.00    -0.298 OA
ENDBRANCH   3  10
TORSDOF 1
ENDMDL
MODEL 8
REMARK VINA RESULT:      -3.9     12.100     13.274
REMARK  1 active torsions:
REMARK  status: ('A' for Active; 'I' for Inactive)
REMARK    1  A    between atoms: C3_3  and  C4_4 
ROOT
HETATM    1  C1  UNL     1     -33.720  16.142  -3.748  1.00 20.00     0.067 A 
HETATM    2  C2  UNL     1     -34.013  17.281  -4.454  1.00 20.00     0.080 A 
HETATM    3  C3  UNL     1     -33.188  17.788  -2.565  1.00 20.00     0.208 A 
HETATM    4  C5  UNL     1     -33.945  14.783  -4.282  1.00 20.00     0.062 C 
HETATM    5  C6  UNL     1     -34.618  17.393  -5.792  1.00 20.00     0.067 C 
HETATM    6  C7  UNL     1     -34.888  14.842  -5.509  1.00 20.00     0.006 C 
HETATM    7  C8  UNL     1     -34.551  16.006  -6.474  1.00 20.00     0.007 C 
HETATM    8  N9  UNL     1     -33.185  16.469  -2.535  1.00 20.00    -0.224 NA
HETATM    9  O11 UNL     1     -33.682  18.361  -3.706  1.00 20.00    -0.292 OA
ENDROOT
BRANCH   3  10
HETATM   10  C4  UNL     1     -32.725  18.629  -1.517  1.00 20.00     0.316 C 
HETATM   11  O10 UNL     1     -31.645  19.263  -1.544  1.00 20.00    -0.298 OA
ENDBRANCH   3  10
TORSDOF 1
ENDMDL
MODEL 9
REMARK VINA RESULT:      -3.7     12.171     13.115
REMARK  1 active torsions:
REMARK  status: ('A' for Active; 'I' for Inactive)
REMARK    1  A    between atoms: C3_3  and  C4_4 
ROOT
HETATM    1  C1  UNL     1     -34.759  17.572  -3.946  1.00 20.00     0.067 A 
HETATM    2  C2  UNL     1     -33.802  16.820  -3.314  1.00 20.00     0.080 A 
HETATM    3  C3  UNL     1     -34.243  15.989  -5.218  1.00 20.00     0.208 A 
HETATM    4  C5  UNL     1     -35.349  18.789  -3.352  1.00 20.00     0.062 C 
HETATM    5  C6  UNL     1     -33.223  17.021  -1.975  1.00 20.00     0.067 C 
HETATM    6  C7  UNL     1     -35.045  18.842  -1.834  1.00 20.00     0.006 C 
HETATM    7  C8  UNL     1     -33.586  18.446  -1.497  1.00 20.00     0.007 C 
HETATM    8  N9  UNL     1     -35.039  17.040  -5.172  1.00 20.00    -0.224 NA
HETATM    9  O11 UNL     1     -33.455  15.784  -4.116  1.00 20.00    -0.292 OA
ENDROOT
BRANCH   3  10
HETATM   10  C4  UNL     1     -34.153  15.079  -6.306  1.00 20.00     0.316 C 
HETATM   11  O10 UNL     1     -35.112  14.764  -7.046  1.00 20.00    -0.298 OA
ENDBRANCH   3  10
TORSDOF 1
ENDMDL
