MODEL 1
REMARK VINA RESULT:      -3.6      0.000      0.000
REMARK  2 active torsions:
REMARK  status: ('A' for Active; 'I' for Inactive)
REMARK    1  A    between atoms: C1_1  and  C8_8 
REMARK    2  A    between atoms: C8_8  and  O9_9 
ROOT
HETATM    1  C1  UNL     1     -42.192   6.673   1.276  1.00 20.00     0.026 A 
HETATM    2  C2  UNL     1     -42.070   6.147  -0.147  1.00 20.00    -0.034 A 
HETATM    3  C3  UNL     1     -42.091   7.667   0.128  1.00 20.00    -0.034 A 
HETATM    4  C4  UNL     1     -40.764   5.481  -0.524  1.00 20.00     0.016 C 
HETATM    5  C5  UNL     1     -43.248   5.486  -0.827  1.00 20.00     0.016 C 
HETATM    6  C6  UNL     1     -43.289   8.494  -0.282  1.00 20.00     0.016 C 
HETATM    7  C7  UNL     1     -40.803   8.456   0.013  1.00 20.00     0.016 C 
ENDROOT
BRANCH   1   8
HETATM    8  C8  UNL     1     -43.417   6.506   2.108  1.00 20.00     0.170 C 
BRANCH   8   9
HETATM    9  O9  UNL     1     -43.296   5.340   2.923  1.00 20.00    -0.400 OA
HETATM   10  H25 UNL     1     -44.161   5.204   3.337  1.00 20.00     0.209 HD
ENDBRANCH   8   9
ENDBRANCH   1   8
TORSDOF 2
ENDMDL
MODEL 2
REMARK VINA RESULT:      -3.4      2.012      3.189
REMARK  2 active torsions:
REMARK  status: ('A' for Active; 'I' for Inactive)
REMARK    1  A    between atoms: C1_1  and  C8_8 
REMARK    2  A    between atoms: C8_8  and  O9_9 
ROOT
HETATM    1  C1  UNL     1     -43.194   5.835  -0.476  1.00 20.00     0.026 A 
HETATM    2  C2  UNL     1     -42.720   6.091   0.948  1.00 20.00    -0.034 A 
HETATM    3  C3  UNL     1     -41.824   6.460  -0.255  1.00 20.00    -0.034 A 
HETATM    4  C4  UNL     1     -43.417   7.194   1.717  1.00 20.00     0.016 C 
HETATM    5  C5  UNL     1     -42.338   4.940   1.850  1.00 20.00     0.016 C 
HETATM    6  C6  UNL     1     -40.565   5.668  -0.530  1.00 20.00     0.016 C 
HETATM    7  C7  UNL     1     -41.662   7.917  -0.637  1.00 20.00     0.016 C 
ENDROOT
BRANCH   1   8
HETATM    8  C8  UNL     1     -43.391   4.470  -1.040  1.00 20.00     0.170 C 
BRANCH   8   9
HETATM    9  O9  UNL     1     -42.937   4.433  -2.393  1.00 20.00    -0.400 OA
HETATM   10  H25 UNL     1     -43.435   3.725  -2.829  1.00 20.00     0.209 HD
ENDBRANCH   8   9
ENDBRANCH   1   8
TORSDOF 2
ENDMDL
MODEL 3
REMARK VINA RESULT:      -3.4     11.344     13.173
REMARK  2 active torsions:
REMARK  status: ('A' for Active; 'I' for Inactive)
REMARK    1  A    between atoms: C1_1  and  C8_8 
REMARK    2  A    between atoms: C8_8  and  O9_9 
ROOT
HETATM    1  C1  UNL     1     -35.449  15.492  -4.979  1.00 20.00     0.026 A 
HETATM    2  C2  UNL     1     -34.006  15.721  -4.552  1.00 20.00    -0.034 A 
HETATM    3  C3  UNL     1     -34.491  16.168  -5.949  1.00 20.00    -0.034 A 
HETATM    4  C4  UNL     1     -33.764  16.767  -3.484  1.00 20.00     0.016 C 
HETATM    5  C5  UNL     1     -33.048  14.559  -4.421  1.00 20.00     0.016 C 
HETATM    6  C6  UNL     1     -34.008  15.442  -7.185  1.00 20.00     0.016 C 
HETATM    7  C7  UNL     1     -34.711  17.642  -6.218  1.00 20.00     0.016 C 
ENDROOT
BRANCH   1   8
HETATM    8  C8  UNL     1     -36.029  14.138  -5.210  1.00 20.00     0.170 C 
BRANCH   8   9
HETATM    9  O9  UNL     1     -37.031  13.865  -4.231  1.00 20.00    -0.400 OA
HETATM   10  H25 UNL     1     -37.267  14.718  -3.837  1.00 20.00     0.209 HD
ENDBRANCH   8   9
ENDBRANCH   1   8
TORSDOF 2
ENDMDL
MODEL 4
REMARK VINA RESULT:      -3.4     12.556     13.808
REMARK  2 active torsions:
REMARK  status: ('A' for Active; 'I' for Inactive)
REMARK    1  A    between atoms: C1_1  and  C8_8 
REMARK    2  A    between atoms: C8_8  and  O9_9 
ROOT
HETATM    1  C1  UNL     1     -34.348  16.365  -6.025  1.00 20.00     0.026 A 
HETATM    2  C2  UNL     1     -35.578  16.594  -5.158  1.00 20.00    -0.034 A 
HETATM    3  C3  UNL     1     -34.359  15.826  -4.602  1.00 20.00    -0.034 A 
HETATM    4  C4  UNL     1     -35.836  18.012  -4.691  1.00 20.00     0.016 C 
HETATM    5  C5  UNL     1     -36.869  15.859  -5.443  1.00 20.00     0.016 C 
HETATM    6  C6  UNL     1     -34.456  14.339  -4.343  1.00 20.00     0.016 C 
HETATM    7  C7  UNL     1     -33.450  16.508  -3.601  1.00 20.00     0.016 C 
ENDROOT
BRANCH   1   8
HETATM    8  C8  UNL     1     -34.350  15.490  -7.232  1.00 20.00     0.170 C 
BRANCH   8   9
HETATM    9  O9  UNL     1     -33.060  14.906  -7.410  1.00 20.00    -0.400 OA
HETATM   10  H25 UNL     1     -32.909  14.860  -8.366  1.00 20.00     0.209 HD
ENDBRANCH   8   9
ENDBRANCH   1   8
TORSDOF 2
ENDMDL
MODEL 5
REMARK VINA RESULT:      -3.3     11.614     13.166
REMARK  2 active torsions:
REMARK  status: ('A' for Active; 'I' for Inactive)
REMARK    1  A    between atoms: C1_1  and  C8_8 
REMARK    2  A    between atoms: C8_8  and  O9_9 
ROOT
HETATM    1  C1  UNL     1     -35.812  14.998  -5.448  1.00 20.00     0.026 A 
HETATM    2  C2  UNL     1     -35.609  16.506  -5.494  1.00 20.00    -0.034 A 
HETATM    3  C3  UNL     1     -35.287  15.633  -6.728  1.00 20.00    -0.034 A 
HETATM    4  C4  UNL     1     -36.853  17.368  -5.502  1.00 20.00     0.016 C 
HETATM    5  C5  UNL     1     -34.487  17.155  -4.716  1.00 20.00     0.016 C 
HETATM    6  C6  UNL     1     -33.851  15.427  -7.155  1.00 20.00     0.016 C 
HETATM    7  C7  UNL     1     -36.225  15.661  -7.917  1.00 20.00     0.016 C 
ENDROOT
BRANCH   1   8
HETATM    8  C8  UNL     1     -35.000  14.089  -4.592  1.00 20.00     0.170 C 
BRANCH   8   9
HETATM    9  O9  UNL     1     -35.700  12.862  -4.385  1.00 20.00    -0.400 OA
HETATM   10  H25 UNL     1     -35.047  12.227  -4.055  1.00 20.00     0.209 HD
ENDBRANCH   8   9
ENDBRANCH   1   8
TORSDOF 2
ENDMDL
MODEL 6
REMARK VINA RESULT:      -3.2      8.758      9.909
REMARK  2 active torsions:
REMARK  status: ('A' for Active; 'I' for Inactive)
REMARK    1  A    between atoms: C1_1  and  C8_8 
REMARK    2  A    between atoms: C8_8  and  O9_9 
ROOT
HETATM    1  C1  UNL     1     -40.661  13.671   6.977  1.00 20.00     0.026 A 
HETATM    2  C2  UNL     1     -41.756  14.504   6.324  1.00 20.00    -0.034 A 
HETATM    3  C3  UNL     1     -42.105  13.460   7.408  1.00 20.00    -0.034 A 
HETATM    4  C4  UNL     1     -41.800  15.977   6.674  1.00 20.00     0.016 C 
HETATM    5  C5  UNL     1     -42.153  14.261   4.886  1.00 20.00     0.016 C 
HETATM    6  C6  UNL     1     -42.844  12.195   7.030  1.00 20.00     0.016 C 
HETATM    7  C7  UNL     1     -42.486  13.935   8.795  1.00 20.00     0.016 C 
ENDROOT
BRANCH   1   8
HETATM    8  C8  UNL     1     -39.867  12.645   6.244  1.00 20.00     0.170 C 
BRANCH   8   9
HETATM    9  O9  UNL     1     -38.859  12.107   7.100  1.00 20.00    -0.400 OA
HETATM   10  H25 UNL     1     -39.236  12.098   7.993  1.00 20.00     0.209 HD
ENDBRANCH   8   9
ENDBRANCH   1   8
TORSDOF 2
ENDMDL
MODEL 7
REMARK VINA RESULT:      -3.2      8.823      9.867
REMARK  2 active torsions:
REMARK  status: ('A' for Active; 'I' for Inactive)
REMARK    1  A    between atoms: C1_1  and  C8_8 
REMARK    2  A    between atoms: C8_8  and  O9_9 
ROOT
HETATM    1  C1  UNL     1     -40.299  13.522   6.118  1.00 20.00     0.026 A 
HETATM    2  C2  UNL     1     -41.780  13.612   6.457  1.00 20.00    -0.034 A 
HETATM    3  C3  UNL     1     -40.732  14.358   7.313  1.00 20.00    -0.034 A 
HETATM    4  C4  UNL     1     -42.657  14.400   5.508  1.00 20.00     0.016 C 
HETATM    5  C5  UNL     1     -42.511  12.419   7.030  1.00 20.00     0.016 C 
HETATM    6  C6  UNL     1     -40.438  13.895   8.723  1.00 20.00     0.016 C 
HETATM    7  C7  UNL     1     -40.608  15.862   7.183  1.00 20.00     0.016 C 
ENDROOT
BRANCH   1   8
HETATM    8  C8  UNL     1     -39.506  12.266   6.241  1.00 20.00     0.170 C 
BRANCH   8   9
HETATM    9  O9  UNL     1     -38.196  12.464   5.707  1.00 20.00    -0.400 OA
HETATM   10  H25 UNL     1     -37.728  13.035   6.335  1.00 20.00     0.209 HD
ENDBRANCH   8   9
ENDBRANCH   1   8
TORSDOF 2
ENDMDL
MODEL 8
REMARK VINA RESULT:      -3.1      2.039      3.575
REMARK  2 active torsions:
REMARK  status: ('A' for Active; 'I' for Inactive)
REMARK    1  A    between atoms: C1_1  and  C8_8 
REMARK    2  A    between atoms: C8_8  and  O9_9 
ROOT
HETATM    1  C1  UNL     1     -41.641   5.781   0.675  1.00 20.00     0.026 A 
HETATM    2  C2  UNL     1     -42.959   6.525   0.843  1.00 20.00    -0.034 A 
HETATM    3  C3  UNL     1     -42.941   5.069   0.326  1.00 20.00    -0.034 A 
HETATM    4  C4  UNL     1     -43.417   6.801   2.260  1.00 20.00     0.016 C 
HETATM    5  C5  UNL     1     -43.329   7.654  -0.092  1.00 20.00     0.016 C 
HETATM    6  C6  UNL     1     -43.293   4.774  -1.115  1.00 20.00     0.016 C 
HETATM    7  C7  UNL     1     -43.383   3.952   1.249  1.00 20.00     0.016 C 
ENDROOT
BRANCH   1   8
HETATM    8  C8  UNL     1     -40.614   6.154  -0.338  1.00 20.00     0.170 C 
BRANCH   8   9
HETATM    9  O9  UNL     1     -40.039   4.976  -0.904  1.00 20.00    -0.400 OA
HETATM   10  H25 UNL     1     -39.660   4.475  -0.166  1.00 20.00     0.209 HD
ENDBRANCH   8   9
ENDBRANCH   1   8
TORSDOF 2
ENDMDL
MODEL 9
REMARK VINA RESULT:      -3.1      8.489      9.444
REMARK  2 active torsions:
REMARK  status: ('A' for Active; 'I' for Inactive)
REMARK    1  A    between atoms: C1_1  and  C8_8 
REMARK    2  A    between atoms: C8_8  and  O9_9 
ROOT
HETATM    1  C1  UNL     1     -42.280  12.874   6.651  1.00 20.00     0.026 A 
HETATM    2  C2  UNL     1     -42.011  14.198   5.949  1.00 20.00    -0.034 A 
HETATM    3  C3  UNL     1     -40.884  13.475   6.719  1.00 20.00    -0.034 A 
HETATM    4  C4  UNL     1     -41.999  14.183   4.434  1.00 20.00     0.016 C 
HETATM    5  C5  UNL     1     -42.589  15.486   6.489  1.00 20.00     0.016 C 
HETATM    6  C6  UNL     1     -40.360  14.056   8.014  1.00 20.00     0.016 C 
HETATM    7  C7  UNL     1     -39.792  12.770   5.942  1.00 20.00     0.016 C 
ENDROOT
BRANCH   1   8
HETATM    8  C8  UNL     1     -43.175  12.744   7.835  1.00 20.00     0.170 C 
BRANCH   8   9
HETATM    9  O9  UNL     1     -43.323  11.367   8.183  1.00 20.00    -0.400 OA
HETATM   10  H25 UNL     1     -43.494  11.343   9.137  1.00 20.00     0.209 HD
ENDBRANCH   8   9
ENDBRANCH   1   8
TORSDOF 2
ENDMDL
