MODEL 1
REMARK VINA RESULT:      -4.3      0.000      0.000
REMARK  0 active torsions:
REMARK  status: ('A' for Active; 'I' for Inactive)
ROOT
HETATM    1  C1  UNL     1     -24.501  18.515  10.086  1.00 20.00     0.136 C 
HETATM    2  C2  UNL     1     -24.890  19.103  11.421  1.00 20.00     0.084 C 
HETATM    3  C3  UNL     1     -21.407  18.285   9.747  1.00 20.00     0.002 C 
HETATM    4  C4  UNL     1     -21.844  18.824  11.125  1.00 20.00     0.006 C 
HETATM    5  C5  UNL     1     -24.851  16.713  12.211  1.00 20.00     0.006 C 
HETATM    6  C6  UNL     1     -22.426  17.202   9.325  1.00 20.00     0.018 C 
HETATM    7  C7  UNL     1     -24.409  16.192  10.811  1.00 20.00     0.018 C 
HETATM    8  C8  UNL     1     -24.152  18.102  12.332  1.00 20.00    -0.002 C 
HETATM    9  C9  UNL     1     -22.844  17.790  11.610  1.00 20.00     0.006 C 
HETATM   10  C10 UNL     1     -23.542  17.346  10.323  1.00 20.00     0.024 C 
HETATM   11  O11 UNL     1     -24.909  18.899   9.001  1.00 20.00    -0.297 OA
ENDROOT
TORSDOF 0
ENDMDL
MODEL 2
REMARK VINA RESULT:      -4.2      1.541      3.163
REMARK  0 active torsions:
REMARK  status: ('A' for Active; 'I' for Inactive)
ROOT
HETATM    1  C1  UNL     1     -23.393  17.043   9.844  1.00 20.00     0.136 C 
HETATM    2  C2  UNL     1     -22.433  17.034   8.678  1.00 20.00     0.084 C 
HETATM    3  C3  UNL     1     -22.223  18.520  12.332  1.00 20.00     0.002 C 
HETATM    4  C4  UNL     1     -21.295  18.545  11.099  1.00 20.00     0.006 C 
HETATM    5  C5  UNL     1     -23.539  19.212   8.066  1.00 20.00     0.006 C 
HETATM    6  C6  UNL     1     -23.676  18.656  11.824  1.00 20.00     0.018 C 
HETATM    7  C7  UNL     1     -24.465  19.164   9.318  1.00 20.00     0.018 C 
HETATM    8  C8  UNL     1     -22.212  18.555   8.557  1.00 20.00    -0.002 C 
HETATM    9  C9  UNL     1     -22.190  19.073   9.992  1.00 20.00     0.006 C 
HETATM   10  C10 UNL     1     -23.559  18.482  10.335  1.00 20.00     0.024 C 
HETATM   11  O11 UNL     1     -23.958  16.060  10.298  1.00 20.00    -0.297 OA
ENDROOT
TORSDOF 0
ENDMDL
MODEL 3
REMARK VINA RESULT:      -4.1     22.744     24.117
REMARK  0 active torsions:
REMARK  status: ('A' for Active; 'I' for Inactive)
ROOT
HETATM    1  C1  UNL     1     -41.126   5.654  -0.465  1.00 20.00     0.136 C 
HETATM    2  C2  UNL     1     -42.379   5.291  -1.225  1.00 20.00     0.084 C 
HETATM    3  C3  UNL     1     -40.916   8.720   0.082  1.00 20.00     0.002 C 
HETATM    4  C4  UNL     1     -42.215   8.303  -0.639  1.00 20.00     0.006 C 
HETATM    5  C5  UNL     1     -43.415   5.086   1.061  1.00 20.00     0.006 C 
HETATM    6  C6  UNL     1     -40.576   7.613   1.106  1.00 20.00     0.018 C 
HETATM    7  C7  UNL     1     -42.092   5.509   1.766  1.00 20.00     0.018 C 
HETATM    8  C8  UNL     1     -43.413   5.910  -0.264  1.00 20.00    -0.002 C 
HETATM    9  C9  UNL     1     -42.772   7.199   0.242  1.00 20.00     0.006 C 
HETATM   10  C10 UNL     1     -41.515   6.492   0.755  1.00 20.00     0.024 C 
HETATM   11  O11 UNL     1     -39.994   5.310  -0.766  1.00 20.00    -0.297 OA
ENDROOT
TORSDOF 0
ENDMDL
MODEL 4
REMARK VINA RESULT:      -4.1     18.844     19.918
REMARK  0 active torsions:
REMARK  status: ('A' for Active; 'I' for Inactive)
ROOT
HETATM    1  C1  UNL     1     -34.314  15.638  -6.600  1.00 20.00     0.136 C 
HETATM    2  C2  UNL     1     -34.843  16.981  -7.046  1.00 20.00     0.084 C 
HETATM    3  C3  UNL     1     -33.128  15.729  -3.715  1.00 20.00     0.002 C 
HETATM    4  C4  UNL     1     -33.735  17.069  -4.182  1.00 20.00     0.006 C 
HETATM    5  C5  UNL     1     -36.997  16.209  -5.996  1.00 20.00     0.006 C 
HETATM    6  C6  UNL     1     -34.020  14.596  -4.269  1.00 20.00     0.018 C 
HETATM    7  C7  UNL     1     -36.362  14.863  -5.535  1.00 20.00     0.018 C 
HETATM    8  C8  UNL     1     -35.826  17.233  -5.886  1.00 20.00    -0.002 C 
HETATM    9  C9  UNL     1     -35.130  16.686  -4.643  1.00 20.00     0.006 C 
HETATM   10  C10 UNL     1     -34.930  15.292  -5.243  1.00 20.00     0.024 C 
HETATM   11  O11 UNL     1     -33.542  14.938  -7.236  1.00 20.00    -0.297 OA
ENDROOT
TORSDOF 0
ENDMDL
MODEL 5
REMARK VINA RESULT:      -4.1      1.581      2.772
REMARK  0 active torsions:
REMARK  status: ('A' for Active; 'I' for Inactive)
ROOT
HETATM    1  C1  UNL     1     -23.145  17.038   9.833  1.00 20.00     0.136 C 
HETATM    2  C2  UNL     1     -23.980  16.647  11.029  1.00 20.00     0.084 C 
HETATM    3  C3  UNL     1     -24.502  19.263   8.115  1.00 20.00     0.002 C 
HETATM    4  C4  UNL     1     -25.297  18.882   9.381  1.00 20.00     0.006 C 
HETATM    5  C5  UNL     1     -22.729  18.494  12.198  1.00 20.00     0.006 C 
HETATM    6  C6  UNL     1     -23.000  19.217   8.476  1.00 20.00     0.018 C 
HETATM    7  C7  UNL     1     -21.939  18.860  10.907  1.00 20.00     0.018 C 
HETATM    8  C8  UNL     1     -24.125  18.043  11.668  1.00 20.00    -0.002 C 
HETATM    9  C9  UNL     1     -24.273  19.008  10.495  1.00 20.00     0.006 C 
HETATM   10  C10 UNL     1     -22.971  18.558   9.828  1.00 20.00     0.024 C 
HETATM   11  O11 UNL     1     -22.669  16.260   9.021  1.00 20.00    -0.297 OA
ENDROOT
TORSDOF 0
ENDMDL
MODEL 6
REMARK VINA RESULT:      -3.7     23.048     24.492
REMARK  0 active torsions:
REMARK  status: ('A' for Active; 'I' for Inactive)
ROOT
HETATM    1  C1  UNL     1     -42.967   6.986   1.370  1.00 20.00     0.136 C 
HETATM    2  C2  UNL     1     -43.381   7.992   0.323  1.00 20.00     0.084 C 
HETATM    3  C3  UNL     1     -43.061   4.054   0.306  1.00 20.00     0.002 C 
HETATM    4  C4  UNL     1     -43.417   5.115  -0.757  1.00 20.00     0.006 C 
HETATM    5  C5  UNL     1     -40.938   7.997  -0.287  1.00 20.00     0.006 C 
HETATM    6  C6  UNL     1     -41.936   4.639   1.188  1.00 20.00     0.018 C 
HETATM    7  C7  UNL     1     -40.602   6.925   0.793  1.00 20.00     0.018 C 
HETATM    8  C8  UNL     1     -42.367   7.605  -0.773  1.00 20.00    -0.002 C 
HETATM    9  C9  UNL     1     -42.251   6.085  -0.695  1.00 20.00     0.006 C 
HETATM   10  C10 UNL     1     -41.874   6.088   0.788  1.00 20.00     0.024 C 
HETATM   11  O11 UNL     1     -43.417   6.924   2.504  1.00 20.00    -0.297 OA
ENDROOT
TORSDOF 0
ENDMDL
MODEL 7
REMARK VINA RESULT:      -3.6     18.708     19.846
REMARK  0 active torsions:
REMARK  status: ('A' for Active; 'I' for Inactive)
ROOT
HETATM    1  C1  UNL     1     -35.993  16.570  -5.116  1.00 20.00     0.136 C 
HETATM    2  C2  UNL     1     -36.468  15.248  -5.668  1.00 20.00     0.084 C 
HETATM    3  C3  UNL     1     -33.473  16.263  -3.301  1.00 20.00     0.002 C 
HETATM    4  C4  UNL     1     -33.950  14.939  -3.934  1.00 20.00     0.006 C 
HETATM    5  C5  UNL     1     -34.884  15.746  -7.561  1.00 20.00     0.006 C 
HETATM    6  C6  UNL     1     -33.677  17.381  -4.348  1.00 20.00     0.018 C 
HETATM    7  C7  UNL     1     -34.418  17.078  -6.902  1.00 20.00     0.018 C 
HETATM    8  C8  UNL     1     -35.158  14.804  -6.348  1.00 20.00    -0.002 C 
HETATM    9  C9  UNL     1     -34.043  15.266  -5.414  1.00 20.00     0.006 C 
HETATM   10  C10 UNL     1     -34.502  16.726  -5.423  1.00 20.00     0.024 C 
HETATM   11  O11 UNL     1     -36.696  17.388  -4.543  1.00 20.00    -0.297 OA
ENDROOT
TORSDOF 0
ENDMDL
MODEL 8
REMARK VINA RESULT:      -3.6     15.685     16.926
REMARK  0 active torsions:
REMARK  status: ('A' for Active; 'I' for Inactive)
ROOT
HETATM    1  C1  UNL     1     -35.316   6.505   4.345  1.00 20.00     0.136 C 
HETATM    2  C2  UNL     1     -34.953   7.949   4.593  1.00 20.00     0.084 C 
HETATM    3  C3  UNL     1     -33.124   4.991   2.719  1.00 20.00     0.002 C 
HETATM    4  C4  UNL     1     -32.759   6.455   3.046  1.00 20.00     0.006 C 
HETATM    5  C5  UNL     1     -33.843   7.060   6.670  1.00 20.00     0.006 C 
HETATM    6  C6  UNL     1     -33.876   4.415   3.940  1.00 20.00     0.018 C 
HETATM    7  C7  UNL     1     -34.223   5.590   6.319  1.00 20.00     0.018 C 
HETATM    8  C8  UNL     1     -33.592   7.724   5.281  1.00 20.00    -0.002 C 
HETATM    9  C9  UNL     1     -32.961   6.544   4.548  1.00 20.00     0.006 C 
HETATM   10  C10 UNL     1     -34.154   5.619   4.798  1.00 20.00     0.024 C 
HETATM   11  O11 UNL     1     -36.377   6.115   3.882  1.00 20.00    -0.297 OA
ENDROOT
TORSDOF 0
ENDMDL
MODEL 9
REMARK VINA RESULT:      -3.6     17.595     18.764
REMARK  0 active torsions:
REMARK  status: ('A' for Active; 'I' for Inactive)
ROOT
HETATM    1  C1  UNL     1     -40.640  13.205   6.802  1.00 20.00     0.136 C 
HETATM    2  C2  UNL     1     -41.112  13.577   5.417  1.00 20.00     0.084 C 
HETATM    3  C3  UNL     1     -40.322  15.695   8.656  1.00 20.00     0.002 C 
HETATM    4  C4  UNL     1     -40.865  16.030   7.251  1.00 20.00     0.006 C 
HETATM    5  C5  UNL     1     -43.416  13.303   6.395  1.00 20.00     0.006 C 
HETATM    6  C6  UNL     1     -40.942  14.346   9.085  1.00 20.00     0.018 C 
HETATM    7  C7  UNL     1     -42.846  12.968   7.805  1.00 20.00     0.018 C 
HETATM    8  C8  UNL     1     -42.397  14.331   5.813  1.00 20.00    -0.002 C 
HETATM    9  C9  UNL     1     -42.043  15.086   7.091  1.00 20.00     0.006 C 
HETATM   10  C10 UNL     1     -41.587  13.826   7.830  1.00 20.00     0.024 C 
HETATM   11  O11 UNL     1     -39.673  12.502   7.051  1.00 20.00    -0.297 OA
ENDROOT
TORSDOF 0
ENDMDL
