MODEL 1
REMARK VINA RESULT:      -4.6      0.000      0.000
REMARK  0 active torsions:
REMARK  status: ('A' for Active; 'I' for Inactive)
ROOT
HETATM    1  C1  UNL     1     -25.011  18.845  10.103  1.00 20.00     0.136 C 
HETATM    2  C2  UNL     1     -25.777  18.843  11.423  1.00 20.00     0.084 C 
HETATM    3  C3  UNL     1     -21.302  18.495  10.710  1.00 20.00     0.002 C 
HETATM    4  C4  UNL     1     -22.015  18.341  12.069  1.00 20.00     0.006 C 
HETATM    5  C5  UNL     1     -24.602  16.676  11.956  1.00 20.00     0.006 C 
HETATM    6  C6  UNL     1     -22.398  18.574   9.621  1.00 20.00     0.018 C 
HETATM    7  C7  UNL     1     -23.930  16.704  10.572  1.00 20.00     0.018 C 
HETATM    8  C8  UNL     1     -24.704  18.165  12.332  1.00 20.00    -0.002 C 
HETATM    9  C9  UNL     1     -23.431  18.777  11.756  1.00 20.00     0.006 C 
HETATM   10  C10 UNL     1     -23.662  18.207  10.348  1.00 20.00     0.024 C 
HETATM   11  O11 UNL     1     -25.429  19.263   9.037  1.00 20.00    -0.297 OA
ENDROOT
TORSDOF 0
ENDMDL
MODEL 2
REMARK VINA RESULT:      -4.5     15.250     16.605
REMARK  0 active torsions:
REMARK  status: ('A' for Active; 'I' for Inactive)
ROOT
HETATM    1  C1  UNL     1     -32.874   6.397   3.364  1.00 20.00     0.136 C 
HETATM    2  C2  UNL     1     -31.997   7.615   3.640  1.00 20.00     0.084 C 
HETATM    3  C3  UNL     1     -34.817   5.422   6.450  1.00 20.00     0.002 C 
HETATM    4  C4  UNL     1     -34.071   6.736   6.763  1.00 20.00     0.006 C 
HETATM    5  C5  UNL     1     -34.083   8.773   4.455  1.00 20.00     0.006 C 
HETATM    6  C6  UNL     1     -34.597   5.113   4.951  1.00 20.00     0.018 C 
HETATM    7  C7  UNL     1     -34.916   7.537   4.073  1.00 20.00     0.018 C 
HETATM    8  C8  UNL     1     -32.736   8.173   4.897  1.00 20.00    -0.002 C 
HETATM    9  C9  UNL     1     -33.124   6.871   5.588  1.00 20.00     0.006 C 
HETATM   10  C10 UNL     1     -33.968   6.366   4.408  1.00 20.00     0.024 C 
HETATM   11  O11 UNL     1     -32.729   5.607   2.447  1.00 20.00    -0.297 OA
ENDROOT
TORSDOF 0
ENDMDL
MODEL 3
REMARK VINA RESULT:      -4.5     15.656     16.923
REMARK  0 active torsions:
REMARK  status: ('A' for Active; 'I' for Inactive)
ROOT
HETATM    1  C1  UNL     1     -33.976   6.810   6.181  1.00 20.00     0.136 C 
HETATM    2  C2  UNL     1     -34.567   5.422   6.416  1.00 20.00     0.084 C 
HETATM    3  C3  UNL     1     -32.309   6.997   2.800  1.00 20.00     0.002 C 
HETATM    4  C4  UNL     1     -33.000   5.622   2.904  1.00 20.00     0.006 C 
HETATM    5  C5  UNL     1     -35.780   5.706   4.224  1.00 20.00     0.006 C 
HETATM    6  C6  UNL     1     -32.705   7.809   4.054  1.00 20.00     0.018 C 
HETATM    7  C7  UNL     1     -35.212   7.130   4.097  1.00 20.00     0.018 C 
HETATM    8  C8  UNL     1     -34.653   4.935   4.935  1.00 20.00    -0.002 C 
HETATM    9  C9  UNL     1     -33.377   5.547   4.369  1.00 20.00     0.006 C 
HETATM   10  C10 UNL     1     -33.795   6.990   4.690  1.00 20.00     0.024 C 
HETATM   11  O11 UNL     1     -33.724   7.633   7.043  1.00 20.00    -0.297 OA
ENDROOT
TORSDOF 0
ENDMDL
MODEL 4
REMARK VINA RESULT:      -3.9     18.695     20.037
REMARK  0 active torsions:
REMARK  status: ('A' for Active; 'I' for Inactive)
ROOT
HETATM    1  C1  UNL     1     -34.142  15.554  -7.090  1.00 20.00     0.136 C 
HETATM    2  C2  UNL     1     -35.039  16.679  -7.597  1.00 20.00     0.084 C 
HETATM    3  C3  UNL     1     -33.454  15.952  -3.400  1.00 20.00     0.002 C 
HETATM    4  C4  UNL     1     -34.475  17.036  -3.805  1.00 20.00     0.006 C 
HETATM    5  C5  UNL     1     -36.646  16.056  -5.756  1.00 20.00     0.006 C 
HETATM    6  C6  UNL     1     -33.240  15.039  -4.629  1.00 20.00     0.018 C 
HETATM    7  C7  UNL     1     -35.729  14.887  -5.355  1.00 20.00     0.018 C 
HETATM    8  C8  UNL     1     -35.658  17.134  -6.238  1.00 20.00    -0.002 C 
HETATM    9  C9  UNL     1     -34.454  16.966  -5.318  1.00 20.00     0.006 C 
HETATM   10  C10 UNL     1     -34.316  15.461  -5.590  1.00 20.00     0.024 C 
HETATM   11  O11 UNL     1     -33.433  14.841  -7.779  1.00 20.00    -0.297 OA
ENDROOT
TORSDOF 0
ENDMDL
MODEL 5
REMARK VINA RESULT:      -3.8     17.158     18.461
REMARK  0 active torsions:
REMARK  status: ('A' for Active; 'I' for Inactive)
ROOT
HETATM    1  C1  UNL     1     -40.210  12.862   6.543  1.00 20.00     0.136 C 
HETATM    2  C2  UNL     1     -40.804  13.073   5.153  1.00 20.00     0.084 C 
HETATM    3  C3  UNL     1     -40.899  15.839   8.758  1.00 20.00     0.002 C 
HETATM    4  C4  UNL     1     -41.648  16.063   7.428  1.00 20.00     0.006 C 
HETATM    5  C5  UNL     1     -43.001  13.536   6.303  1.00 20.00     0.006 C 
HETATM    6  C6  UNL     1     -40.295  14.417   8.714  1.00 20.00     0.018 C 
HETATM    7  C7  UNL     1     -42.351  13.227   7.663  1.00 20.00     0.018 C 
HETATM    8  C8  UNL     1     -41.854  14.176   5.498  1.00 20.00    -0.002 C 
HETATM    9  C9  UNL     1     -41.079  14.978   6.537  1.00 20.00     0.006 C 
HETATM   10  C10 UNL     1     -40.924  13.791   7.500  1.00 20.00     0.024 C 
HETATM   11  O11 UNL     1     -39.333  12.065   6.830  1.00 20.00    -0.297 OA
ENDROOT
TORSDOF 0
ENDMDL
MODEL 6
REMARK VINA RESULT:      -3.7     17.297     18.685
REMARK  0 active torsions:
REMARK  status: ('A' for Active; 'I' for Inactive)
ROOT
HETATM    1  C1  UNL     1     -41.898  14.223   4.931  1.00 20.00     0.136 C 
HETATM    2  C2  UNL     1     -42.247  15.300   5.954  1.00 20.00     0.084 C 
HETATM    3  C3  UNL     1     -39.151  11.984   6.228  1.00 20.00     0.002 C 
HETATM    4  C4  UNL     1     -39.544  12.949   7.366  1.00 20.00     0.006 C 
HETATM    5  C5  UNL     1     -42.574  13.433   7.618  1.00 20.00     0.006 C 
HETATM    6  C6  UNL     1     -40.143  12.213   5.065  1.00 20.00     0.018 C 
HETATM    7  C7  UNL     1     -42.293  12.402   6.511  1.00 20.00     0.018 C 
HETATM    8  C8  UNL     1     -41.670  14.620   7.236  1.00 20.00    -0.002 C 
HETATM    9  C9  UNL     1     -40.423  13.960   6.659  1.00 20.00     0.006 C 
HETATM   10  C10 UNL     1     -41.207  13.094   5.662  1.00 20.00     0.024 C 
HETATM   11  O11 UNL     1     -42.158  14.260   3.740  1.00 20.00    -0.297 OA
ENDROOT
TORSDOF 0
ENDMDL
MODEL 7
REMARK VINA RESULT:      -3.7     19.149     20.723
REMARK  0 active torsions:
REMARK  status: ('A' for Active; 'I' for Inactive)
ROOT
HETATM    1  C1  UNL     1     -25.859  -2.424  10.532  1.00 20.00     0.136 C 
HETATM    2  C2  UNL     1     -25.252  -1.728  11.747  1.00 20.00     0.084 C 
HETATM    3  C3  UNL     1     -29.579  -2.885  10.977  1.00 20.00     0.002 C 
HETATM    4  C4  UNL     1     -29.065  -2.053  12.170  1.00 20.00     0.006 C 
HETATM    5  C5  UNL     1     -26.978   0.080  11.414  1.00 20.00     0.006 C 
HETATM    6  C6  UNL     1     -28.397  -3.065   9.997  1.00 20.00     0.018 C 
HETATM    7  C7  UNL     1     -27.482  -0.638  10.150  1.00 20.00     0.018 C 
HETATM    8  C8  UNL     1     -26.545  -1.077  12.332  1.00 20.00    -0.002 C 
HETATM    9  C9  UNL     1     -27.561  -2.176  12.041  1.00 20.00     0.006 C 
HETATM   10  C10 UNL     1     -27.343  -2.129  10.521  1.00 20.00     0.024 C 
HETATM   11  O11 UNL     1     -25.248  -3.079   9.706  1.00 20.00    -0.297 OA
ENDROOT
TORSDOF 0
ENDMDL
MODEL 8
REMARK VINA RESULT:      -3.7     23.259     24.393
REMARK  0 active torsions:
REMARK  status: ('A' for Active; 'I' for Inactive)
ROOT
HETATM    1  C1  UNL     1     -40.935   6.153  -0.255  1.00 20.00     0.136 C 
HETATM    2  C2  UNL     1     -40.751   7.666  -0.183  1.00 20.00     0.084 C 
HETATM    3  C3  UNL     1     -43.417   4.984   2.337  1.00 20.00     0.002 C 
HETATM    4  C4  UNL     1     -43.393   6.526   2.375  1.00 20.00     0.006 C 
HETATM    5  C5  UNL     1     -43.256   7.854  -0.399  1.00 20.00     0.006 C 
HETATM    6  C6  UNL     1     -42.535   4.538   1.149  1.00 20.00     0.018 C 
HETATM    7  C7  UNL     1     -43.355   6.326  -0.549  1.00 20.00     0.018 C 
HETATM    8  C8  UNL     1     -42.070   8.042   0.563  1.00 20.00    -0.002 C 
HETATM    9  C9  UNL     1     -42.187   6.863   1.524  1.00 20.00     0.006 C 
HETATM   10  C10 UNL     1     -42.254   5.814   0.403  1.00 20.00     0.024 C 
HETATM   11  O11 UNL     1     -40.165   5.365  -0.776  1.00 20.00    -0.297 OA
ENDROOT
TORSDOF 0
ENDMDL
MODEL 9
REMARK VINA RESULT:      -3.7     19.280     20.808
REMARK  0 active torsions:
REMARK  status: ('A' for Active; 'I' for Inactive)
ROOT
HETATM    1  C1  UNL     1     -24.610  -1.752  11.580  1.00 20.00     0.136 C 
HETATM    2  C2  UNL     1     -24.099  -2.858  10.660  1.00 20.00     0.084 C 
HETATM    3  C3  UNL     1     -28.185  -0.869  10.751  1.00 20.00     0.002 C 
HETATM    4  C4  UNL     1     -27.790  -2.081   9.883  1.00 20.00     0.006 C 
HETATM    5  C5  UNL     1     -26.116  -4.199  11.363  1.00 20.00     0.006 C 
HETATM    6  C6  UNL     1     -27.015  -0.597  11.725  1.00 20.00     0.018 C 
HETATM    7  C7  UNL     1     -26.522  -3.074  12.332  1.00 20.00     0.018 C 
HETATM    8  C8  UNL     1     -25.469  -3.441  10.190  1.00 20.00    -0.002 C 
HETATM    9  C9  UNL     1     -26.291  -2.161  10.082  1.00 20.00     0.006 C 
HETATM   10  C10 UNL     1     -26.122  -1.797  11.565  1.00 20.00     0.024 C 
HETATM   11  O11 UNL     1     -23.917  -0.988  12.230  1.00 20.00    -0.297 OA
ENDROOT
TORSDOF 0
ENDMDL
