MODEL 1
REMARK VINA RESULT:      -4.1      0.000      0.000
REMARK  1 active torsions:
REMARK  status: ('A' for Active; 'I' for Inactive)
REMARK    1  A    between atoms: C3_3  and  C5_5 
ROOT
HETATM    1  C1  UNL     1     -23.251  18.551   8.883  1.00 20.00     0.221 A 
HETATM    2  C4  UNL     1     -22.774  17.309   9.658  1.00 20.00     0.138 A 
HETATM    3  C5  UNL     1     -23.195  18.090  10.935  1.00 20.00     0.060 A 
HETATM    4  C7  UNL     1     -22.066  18.558  11.837  1.00 20.00     0.044 C 
HETATM    5  N8  UNL     1     -23.627  19.162  10.038  1.00 20.00    -0.348 N 
HETATM    6  O9  UNL     1     -23.298  18.896   7.725  1.00 20.00    -0.273 OA
HETATM    7  H20 UNL     1     -24.031  20.076  10.190  1.00 20.00     0.163 HD
ENDROOT
BRANCH   3   8
HETATM    8  C3  UNL     1     -24.337  17.511  11.674  1.00 20.00    -0.065 C 
HETATM    9  C2  UNL     1     -24.503  16.185  11.799  1.00 20.00     0.016 C 
HETATM   10  C6  UNL     1     -25.301  18.490  12.277  1.00 20.00     0.045 C 
ENDBRANCH   3   8
TORSDOF 1
ENDMDL
MODEL 2
REMARK VINA RESULT:      -4.0     18.267     19.343
REMARK  1 active torsions:
REMARK  status: ('A' for Active; 'I' for Inactive)
REMARK    1  A    between atoms: C3_3  and  C5_5 
ROOT
HETATM    1  C1  UNL     1     -35.558  14.997  -6.326  1.00 20.00     0.221 A 
HETATM    2  C4  UNL     1     -34.402  16.013  -6.381  1.00 20.00     0.138 A 
HETATM    3  C5  UNL     1     -34.689  16.245  -4.871  1.00 20.00     0.060 A 
HETATM    4  C7  UNL     1     -35.287  17.592  -4.502  1.00 20.00     0.044 C 
HETATM    5  N8  UNL     1     -35.732  15.226  -4.997  1.00 20.00    -0.348 N 
HETATM    6  O9  UNL     1     -36.120  14.267  -7.108  1.00 20.00    -0.273 OA
HETATM    7  H20 UNL     1     -36.401  14.832  -4.349  1.00 20.00     0.163 HD
ENDROOT
BRANCH   3   8
HETATM    8  C3  UNL     1     -33.614  15.807  -3.955  1.00 20.00    -0.065 C 
HETATM    9  C2  UNL     1     -32.829  14.755  -4.235  1.00 20.00     0.016 C 
HETATM   10  C6  UNL     1     -33.451  16.605  -2.695  1.00 20.00     0.045 C 
ENDBRANCH   3   8
TORSDOF 1
ENDMDL
MODEL 3
REMARK VINA RESULT:      -3.9     15.792     16.849
REMARK  1 active torsions:
REMARK  status: ('A' for Active; 'I' for Inactive)
REMARK    1  A    between atoms: C3_3  and  C5_5 
ROOT
HETATM    1  C1  UNL     1     -34.542   5.711   5.990  1.00 20.00     0.221 A 
HETATM    2  C4  UNL     1     -35.119   6.297   4.687  1.00 20.00     0.138 A 
HETATM    3  C5  UNL     1     -33.745   7.009   4.538  1.00 20.00     0.060 A 
HETATM    4  C7  UNL     1     -33.749   8.518   4.714  1.00 20.00     0.044 C 
HETATM    5  N8  UNL     1     -33.354   6.338   5.778  1.00 20.00    -0.348 N 
HETATM    6  O9  UNL     1     -34.935   4.986   6.873  1.00 20.00    -0.273 OA
HETATM    7  H20 UNL     1     -32.513   6.346   6.338  1.00 20.00     0.163 HD
ENDROOT
BRANCH   3   8
HETATM    8  C3  UNL     1     -32.925   6.553   3.395  1.00 20.00    -0.065 C 
HETATM    9  C2  UNL     1     -33.007   5.300   2.919  1.00 20.00     0.016 C 
HETATM   10  C6  UNL     1     -31.995   7.568   2.799  1.00 20.00     0.045 C 
ENDBRANCH   3   8
TORSDOF 1
ENDMDL
MODEL 4
REMARK VINA RESULT:      -3.8     18.243     19.351
REMARK  1 active torsions:
REMARK  status: ('A' for Active; 'I' for Inactive)
REMARK    1  A    between atoms: C3_3  and  C5_5 
ROOT
HETATM    1  C1  UNL     1     -35.552  15.074  -6.277  1.00 20.00     0.221 A 
HETATM    2  C4  UNL     1     -34.428  16.127  -6.311  1.00 20.00     0.138 A 
HETATM    3  C5  UNL     1     -34.744  16.342  -4.804  1.00 20.00     0.060 A 
HETATM    4  C7  UNL     1     -35.390  17.667  -4.437  1.00 20.00     0.044 C 
HETATM    5  N8  UNL     1     -35.752  15.291  -4.949  1.00 20.00    -0.348 N 
HETATM    6  O9  UNL     1     -36.080  14.331  -7.070  1.00 20.00    -0.273 OA
HETATM    7  H20 UNL     1     -36.417  14.873  -4.314  1.00 20.00     0.163 HD
ENDROOT
BRANCH   3   8
HETATM    8  C3  UNL     1     -33.669  15.933  -3.875  1.00 20.00    -0.065 C 
HETATM    9  C2  UNL     1     -33.427  16.598  -2.734  1.00 20.00     0.016 C 
HETATM   10  C6  UNL     1     -32.864  14.734  -4.279  1.00 20.00     0.045 C 
ENDBRANCH   3   8
TORSDOF 1
ENDMDL
MODEL 5
REMARK VINA RESULT:      -3.7     14.770     15.803
REMARK  1 active torsions:
REMARK  status: ('A' for Active; 'I' for Inactive)
REMARK    1  A    between atoms: C3_3  and  C5_5 
ROOT
HETATM    1  C1  UNL     1     -32.486   8.878   4.745  1.00 20.00     0.221 A 
HETATM    2  C4  UNL     1     -33.802   8.463   4.062  1.00 20.00     0.138 A 
HETATM    3  C5  UNL     1     -33.343   7.002   4.329  1.00 20.00     0.060 A 
HETATM    4  C7  UNL     1     -32.952   6.188   3.107  1.00 20.00     0.044 C 
HETATM    5  N8  UNL     1     -32.163   7.577   4.975  1.00 20.00    -0.348 N 
HETATM    6  O9  UNL     1     -31.921   9.915   5.001  1.00 20.00    -0.273 OA
HETATM    7  H20 UNL     1     -31.346   7.176   5.415  1.00 20.00     0.163 HD
ENDROOT
BRANCH   3   8
HETATM    8  C3  UNL     1     -34.175   6.251   5.294  1.00 20.00    -0.065 C 
HETATM    9  C2  UNL     1     -34.370   6.685   6.549  1.00 20.00     0.016 C 
HETATM   10  C6  UNL     1     -34.787   4.977   4.792  1.00 20.00     0.045 C 
ENDBRANCH   3   8
TORSDOF 1
ENDMDL
MODEL 6
REMARK VINA RESULT:      -3.7     23.822     24.700
REMARK  1 active torsions:
REMARK  status: ('A' for Active; 'I' for Inactive)
REMARK    1  A    between atoms: C3_3  and  C5_5 
ROOT
HETATM    1  C1  UNL     1     -43.121   4.114   1.106  1.00 20.00     0.221 A 
HETATM    2  C4  UNL     1     -43.361   5.146  -0.012  1.00 20.00     0.138 A 
HETATM    3  C5  UNL     1     -42.566   6.132   0.890  1.00 20.00     0.060 A 
HETATM    4  C7  UNL     1     -43.366   7.261   1.517  1.00 20.00     0.044 C 
HETATM    5  N8  UNL     1     -42.407   5.020   1.827  1.00 20.00    -0.348 N 
HETATM    6  O9  UNL     1     -43.417   2.961   1.311  1.00 20.00    -0.273 OA
HETATM    7  H20 UNL     1     -41.962   4.929   2.730  1.00 20.00     0.163 HD
ENDROOT
BRANCH   3   8
HETATM    8  C3  UNL     1     -41.262   6.568   0.343  1.00 20.00    -0.065 C 
HETATM    9  C2  UNL     1     -40.511   5.763  -0.425  1.00 20.00     0.016 C 
HETATM   10  C6  UNL     1     -40.827   7.959   0.695  1.00 20.00     0.045 C 
ENDBRANCH   3   8
TORSDOF 1
ENDMDL
MODEL 7
REMARK VINA RESULT:      -3.7     15.146     16.114
REMARK  1 active torsions:
REMARK  status: ('A' for Active; 'I' for Inactive)
REMARK    1  A    between atoms: C3_3  and  C5_5 
ROOT
HETATM    1  C1  UNL     1     -32.894   8.739   3.363  1.00 20.00     0.221 A 
HETATM    2  C4  UNL     1     -32.031   7.673   4.064  1.00 20.00     0.138 A 
HETATM    3  C5  UNL     1     -33.377   7.106   4.599  1.00 20.00     0.060 A 
HETATM    4  C7  UNL     1     -33.627   7.267   6.088  1.00 20.00     0.044 C 
HETATM    5  N8  UNL     1     -34.033   8.170   3.839  1.00 20.00    -0.348 N 
HETATM    6  O9  UNL     1     -32.695   9.705   2.664  1.00 20.00    -0.273 OA
HETATM    7  H20 UNL     1     -34.999   8.445   3.720  1.00 20.00     0.163 HD
ENDROOT
BRANCH   3   8
HETATM    8  C3  UNL     1     -33.742   5.769   4.081  1.00 20.00    -0.065 C 
HETATM    9  C2  UNL     1     -33.198   5.270   2.960  1.00 20.00     0.016 C 
HETATM   10  C6  UNL     1     -34.754   5.003   4.880  1.00 20.00     0.045 C 
ENDBRANCH   3   8
TORSDOF 1
ENDMDL
MODEL 8
REMARK VINA RESULT:      -3.7     17.968     19.106
REMARK  1 active torsions:
REMARK  status: ('A' for Active; 'I' for Inactive)
REMARK    1  A    between atoms: C3_3  and  C5_5 
ROOT
HETATM    1  C1  UNL     1     -35.295  14.041  -4.570  1.00 20.00     0.221 A 
HETATM    2  C4  UNL     1     -33.861  14.578  -4.732  1.00 20.00     0.138 A 
HETATM    3  C5  UNL     1     -34.533  15.954  -5.002  1.00 20.00     0.060 A 
HETATM    4  C7  UNL     1     -34.434  16.481  -6.423  1.00 20.00     0.044 C 
HETATM    5  N8  UNL     1     -35.813  15.280  -4.781  1.00 20.00    -0.348 N 
HETATM    6  O9  UNL     1     -35.809  12.970  -4.344  1.00 20.00    -0.273 OA
HETATM    7  H20 UNL     1     -36.775  15.588  -4.810  1.00 20.00     0.163 HD
ENDROOT
BRANCH   3   8
HETATM    8  C3  UNL     1     -34.282  16.985  -3.972  1.00 20.00    -0.065 C 
HETATM    9  C2  UNL     1     -34.905  18.174  -3.992  1.00 20.00     0.016 C 
HETATM   10  C6  UNL     1     -33.291  16.628  -2.904  1.00 20.00     0.045 C 
ENDBRANCH   3   8
TORSDOF 1
ENDMDL
MODEL 9
REMARK VINA RESULT:      -3.6     15.288     16.494
REMARK  1 active torsions:
REMARK  status: ('A' for Active; 'I' for Inactive)
REMARK    1  A    between atoms: C3_3  and  C5_5 
ROOT
HETATM    1  C1  UNL     1     -32.065  18.562  -1.340  1.00 20.00     0.221 A 
HETATM    2  C4  UNL     1     -33.268  17.637  -1.074  1.00 20.00     0.138 A 
HETATM    3  C5  UNL     1     -33.828  18.175  -2.421  1.00 20.00     0.060 A 
HETATM    4  C7  UNL     1     -35.047  19.077  -2.328  1.00 20.00     0.044 C 
HETATM    5  N8  UNL     1     -32.600  18.962  -2.524  1.00 20.00    -0.348 N 
HETATM    6  O9  UNL     1     -31.039  18.850  -0.770  1.00 20.00    -0.273 OA
HETATM    7  H20 UNL     1     -32.252  19.622  -3.206  1.00 20.00     0.163 HD
ENDROOT
BRANCH   3   8
HETATM    8  C3  UNL     1     -33.920  17.173  -3.505  1.00 20.00    -0.065 C 
HETATM    9  C2  UNL     1     -33.349  15.962  -3.401  1.00 20.00     0.016 C 
HETATM   10  C6  UNL     1     -34.685  17.586  -4.727  1.00 20.00     0.045 C 
ENDBRANCH   3   8
TORSDOF 1
ENDMDL
