MODEL 1
REMARK VINA RESULT:      -4.3      0.000      0.000
REMARK  0 active torsions:
REMARK  status: ('A' for Active; 'I' for Inactive)
ROOT
HETATM    1  C1  UNL     1     -35.863  14.311  -5.290  1.00 20.00     0.272 A 
HETATM    2  C2  UNL     1     -34.246  14.987  -6.718  1.00 20.00     0.272 A 
HETATM    3  C3  UNL     1     -34.707  14.623  -4.426  1.00 20.00     0.109 A 
HETATM    4  C4  UNL     1     -33.626  15.076  -5.381  1.00 20.00     0.109 A 
HETATM    5  C5  UNL     1     -34.122  16.013  -4.303  1.00 20.00    -0.021 A 
HETATM    6  C6  UNL     1     -34.954  17.213  -4.678  1.00 20.00     0.016 C 
HETATM    7  C7  UNL     1     -33.199  16.268  -3.136  1.00 20.00     0.016 C 
HETATM    8  O8  UNL     1     -36.941  13.918  -4.875  1.00 20.00    -0.264 OA
HETATM    9  O9  UNL     1     -33.677  15.282  -7.756  1.00 20.00    -0.264 OA
HETATM   10  O10 UNL     1     -35.531  14.521  -6.605  1.00 20.00    -0.244 OA
ENDROOT
TORSDOF 0
ENDMDL
MODEL 2
REMARK VINA RESULT:      -4.2     18.678     20.081
REMARK  0 active torsions:
REMARK  status: ('A' for Active; 'I' for Inactive)
ROOT
HETATM    1  C1  UNL     1     -22.340  18.497  11.515  1.00 20.00     0.272 A 
HETATM    2  C2  UNL     1     -23.430  18.453   9.537  1.00 20.00     0.272 A 
HETATM    3  C3  UNL     1     -23.763  18.670  11.868  1.00 20.00     0.109 A 
HETATM    4  C4  UNL     1     -24.493  18.639  10.545  1.00 20.00     0.109 A 
HETATM    5  C5  UNL     1     -24.811  17.610  11.606  1.00 20.00    -0.021 A 
HETATM    6  C6  UNL     1     -24.394  16.175  11.409  1.00 20.00     0.016 C 
HETATM    7  C7  UNL     1     -26.128  17.754  12.330  1.00 20.00     0.016 C 
HETATM    8  O8  UNL     1     -21.433  18.461  12.331  1.00 20.00    -0.264 OA
HETATM    9  O9  UNL     1     -23.635  18.370   8.336  1.00 20.00    -0.264 OA
HETATM   10  O10 UNL     1     -22.208  18.397  10.154  1.00 20.00    -0.244 OA
ENDROOT
TORSDOF 0
ENDMDL
MODEL 3
REMARK VINA RESULT:      -4.2     18.592     20.130
REMARK  0 active torsions:
REMARK  status: ('A' for Active; 'I' for Inactive)
ROOT
HETATM    1  C1  UNL     1     -23.997  16.843  11.467  1.00 20.00     0.272 A 
HETATM    2  C2  UNL     1     -22.330  18.324  11.836  1.00 20.00     0.272 A 
HETATM    3  C3  UNL     1     -24.205  17.900  10.457  1.00 20.00     0.109 A 
HETATM    4  C4  UNL     1     -23.090  18.890  10.704  1.00 20.00     0.109 A 
HETATM    5  C5  UNL     1     -23.206  18.202   9.362  1.00 20.00    -0.021 A 
HETATM    6  C6  UNL     1     -22.192  17.159   8.964  1.00 20.00     0.016 C 
HETATM    7  C7  UNL     1     -23.690  19.036   8.202  1.00 20.00     0.016 C 
HETATM    8  O8  UNL     1     -24.704  15.855  11.577  1.00 20.00    -0.264 OA
HETATM    9  O9  UNL     1     -21.338  18.843  12.322  1.00 20.00    -0.264 OA
HETATM   10  O10 UNL     1     -22.912  17.152  12.247  1.00 20.00    -0.244 OA
ENDROOT
TORSDOF 0
ENDMDL
MODEL 4
REMARK VINA RESULT:      -4.1      0.913      2.695
REMARK  0 active torsions:
REMARK  status: ('A' for Active; 'I' for Inactive)
ROOT
HETATM    1  C1  UNL     1     -34.387  15.296  -7.022  1.00 20.00     0.272 A 
HETATM    2  C2  UNL     1     -36.222  15.141  -5.713  1.00 20.00     0.272 A 
HETATM    3  C3  UNL     1     -34.197  16.332  -5.987  1.00 20.00     0.109 A 
HETATM    4  C4  UNL     1     -35.424  16.228  -5.112  1.00 20.00     0.109 A 
HETATM    5  C5  UNL     1     -34.052  16.010  -4.516  1.00 20.00    -0.021 A 
HETATM    6  C6  UNL     1     -33.630  14.626  -4.090  1.00 20.00     0.016 C 
HETATM    7  C7  UNL     1     -33.508  17.100  -3.626  1.00 20.00     0.016 C 
HETATM    8  O8  UNL     1     -33.588  15.069  -7.916  1.00 20.00    -0.264 OA
HETATM    9  O9  UNL     1     -37.293  14.755  -5.273  1.00 20.00    -0.264 OA
HETATM   10  O10 UNL     1     -35.583  14.655  -6.824  1.00 20.00    -0.244 OA
ENDROOT
TORSDOF 0
ENDMDL
MODEL 5
REMARK VINA RESULT:      -4.0      4.939      6.314
REMARK  0 active torsions:
REMARK  status: ('A' for Active; 'I' for Inactive)
ROOT
HETATM    1  C1  UNL     1     -31.830  18.523  -0.636  1.00 20.00     0.272 A 
HETATM    2  C2  UNL     1     -34.067  18.790  -0.470  1.00 20.00     0.272 A 
HETATM    3  C3  UNL     1     -32.398  17.430  -1.450  1.00 20.00     0.109 A 
HETATM    4  C4  UNL     1     -33.895  17.609  -1.340  1.00 20.00     0.109 A 
HETATM    5  C5  UNL     1     -33.225  17.673  -2.694  1.00 20.00    -0.021 A 
HETATM    6  C6  UNL     1     -33.121  18.992  -3.417  1.00 20.00     0.016 C 
HETATM    7  C7  UNL     1     -33.433  16.500  -3.620  1.00 20.00     0.016 C 
HETATM    8  O8  UNL     1     -30.633  18.714  -0.489  1.00 20.00    -0.264 OA
HETATM    9  O9  UNL     1     -35.151  19.253  -0.154  1.00 20.00    -0.264 OA
HETATM   10  O10 UNL     1     -32.841  19.263  -0.079  1.00 20.00    -0.244 OA
ENDROOT
TORSDOF 0
ENDMDL
MODEL 6
REMARK VINA RESULT:      -4.0      5.405      6.452
REMARK  0 active torsions:
REMARK  status: ('A' for Active; 'I' for Inactive)
ROOT
HETATM    1  C1  UNL     1     -33.849  18.597   0.353  1.00 20.00     0.272 A 
HETATM    2  C2  UNL     1     -31.721  18.690  -0.402  1.00 20.00     0.272 A 
HETATM    3  C3  UNL     1     -33.966  19.081  -1.037  1.00 20.00     0.109 A 
HETATM    4  C4  UNL     1     -32.543  19.143  -1.542  1.00 20.00     0.109 A 
HETATM    5  C5  UNL     1     -33.552  18.255  -2.235  1.00 20.00    -0.021 A 
HETATM    6  C6  UNL     1     -33.443  16.756  -2.110  1.00 20.00     0.016 C 
HETATM    7  C7  UNL     1     -34.052  18.706  -3.585  1.00 20.00     0.016 C 
HETATM    8  O8  UNL     1     -34.800  18.409   1.094  1.00 20.00    -0.264 OA
HETATM    9  O9  UNL     1     -30.505  18.597  -0.432  1.00 20.00    -0.264 OA
HETATM   10  O10 UNL     1     -32.528  18.408   0.670  1.00 20.00    -0.244 OA
ENDROOT
TORSDOF 0
ENDMDL
MODEL 7
REMARK VINA RESULT:      -3.9     11.769     13.541
REMARK  0 active torsions:
REMARK  status: ('A' for Active; 'I' for Inactive)
ROOT
HETATM    1  C1  UNL     1     -43.132   5.224  -0.715  1.00 20.00     0.272 A 
HETATM    2  C2  UNL     1     -43.256   5.649   1.501  1.00 20.00     0.272 A 
HETATM    3  C3  UNL     1     -42.778   6.651  -0.588  1.00 20.00     0.109 A 
HETATM    4  C4  UNL     1     -42.861   6.935   0.894  1.00 20.00     0.109 A 
HETATM    5  C5  UNL     1     -41.554   7.133   0.160  1.00 20.00    -0.021 A 
HETATM    6  C6  UNL     1     -40.405   6.188   0.405  1.00 20.00     0.016 C 
HETATM    7  C7  UNL     1     -41.114   8.555  -0.089  1.00 20.00     0.016 C 
HETATM    8  O8  UNL     1     -43.167   4.620  -1.775  1.00 20.00    -0.264 OA
HETATM    9  O9  UNL     1     -43.417   5.478   2.698  1.00 20.00    -0.264 OA
HETATM   10  O10 UNL     1     -43.417   4.703   0.521  1.00 20.00    -0.244 OA
ENDROOT
TORSDOF 0
ENDMDL
MODEL 8
REMARK VINA RESULT:      -3.9     19.519     20.042
REMARK  0 active torsions:
REMARK  status: ('A' for Active; 'I' for Inactive)
ROOT
HETATM    1  C1  UNL     1     -24.566  16.356  11.541  1.00 20.00     0.272 A 
HETATM    2  C2  UNL     1     -25.518  18.380  11.859  1.00 20.00     0.272 A 
HETATM    3  C3  UNL     1     -23.951  17.223  10.517  1.00 20.00     0.109 A 
HETATM    4  C4  UNL     1     -24.588  18.577  10.730  1.00 20.00     0.109 A 
HETATM    5  C5  UNL     1     -23.090  18.418  10.859  1.00 20.00    -0.021 A 
HETATM    6  C6  UNL     1     -22.440  18.511  12.217  1.00 20.00     0.016 C 
HETATM    7  C7  UNL     1     -22.240  18.991   9.752  1.00 20.00     0.016 C 
HETATM    8  O8  UNL     1     -24.294  15.175  11.690  1.00 20.00    -0.264 OA
HETATM    9  O9  UNL     1     -26.216  19.263  12.332  1.00 20.00    -0.264 OA
HETATM   10  O10 UNL     1     -25.477  17.074  12.273  1.00 20.00    -0.244 OA
ENDROOT
TORSDOF 0
ENDMDL
MODEL 9
REMARK VINA RESULT:      -3.9     12.802     13.973
REMARK  0 active torsions:
REMARK  status: ('A' for Active; 'I' for Inactive)
ROOT
HETATM    1  C1  UNL     1     -40.249  13.596   7.732  1.00 20.00     0.272 A 
HETATM    2  C2  UNL     1     -40.024  12.271   5.915  1.00 20.00     0.272 A 
HETATM    3  C3  UNL     1     -41.172  14.171   6.733  1.00 20.00     0.109 A 
HETATM    4  C4  UNL     1     -41.022  13.284   5.518  1.00 20.00     0.109 A 
HETATM    5  C5  UNL     1     -42.369  13.421   6.191  1.00 20.00    -0.021 A 
HETATM    6  C6  UNL     1     -42.942  12.262   6.965  1.00 20.00     0.016 C 
HETATM    7  C7  UNL     1     -43.417  14.233   5.470  1.00 20.00     0.016 C 
HETATM    8  O8  UNL     1     -40.098  14.041   8.858  1.00 20.00    -0.264 OA
HETATM    9  O9  UNL     1     -39.643  11.366   5.191  1.00 20.00    -0.264 OA
HETATM   10  O10 UNL     1     -39.599  12.514   7.196  1.00 20.00    -0.244 OA
ENDROOT
TORSDOF 0
ENDMDL
