MODEL 1
REMARK VINA RESULT:      -3.6      0.000      0.000
REMARK  0 active torsions:
REMARK  status: ('A' for Active; 'I' for Inactive)
ROOT
HETATM    1  C1  UNL     1     -34.602   5.670   6.157  1.00 20.00    -0.019 C 
HETATM    2  C2  UNL     1     -34.124   6.887   6.430  1.00 20.00     0.080 C 
HETATM    3  C3  UNL     1     -34.718   5.122   4.774  1.00 20.00     0.037 C 
HETATM    4 CL4  UNL     1     -33.584   7.971   5.218  1.00 20.00    -0.097 Cl
ENDROOT
TORSDOF 0
ENDMDL
MODEL 2
REMARK VINA RESULT:      -3.5      1.824      2.394
REMARK  0 active torsions:
REMARK  status: ('A' for Active; 'I' for Inactive)
ROOT
HETATM    1  C1  UNL     1     -34.141   6.842   6.400  1.00 20.00    -0.019 C 
HETATM    2  C2  UNL     1     -34.567   5.594   6.193  1.00 20.00     0.080 C 
HETATM    3  C3  UNL     1     -33.557   7.702   5.329  1.00 20.00     0.037 C 
HETATM    4 CL4  UNL     1     -34.495   4.825   4.663  1.00 20.00    -0.097 Cl
ENDROOT
TORSDOF 0
ENDMDL
MODEL 3
REMARK VINA RESULT:      -3.4      1.502      2.312
REMARK  0 active torsions:
REMARK  status: ('A' for Active; 'I' for Inactive)
ROOT
HETATM    1  C1  UNL     1     -34.710   5.627   6.006  1.00 20.00    -0.019 C 
HETATM    2  C2  UNL     1     -34.620   4.969   4.847  1.00 20.00     0.080 C 
HETATM    3  C3  UNL     1     -33.965   6.888   6.298  1.00 20.00     0.037 C 
HETATM    4 CL4  UNL     1     -33.635   5.497   3.548  1.00 20.00    -0.097 Cl
ENDROOT
TORSDOF 0
ENDMDL
MODEL 4
REMARK VINA RESULT:      -3.3      1.075      1.398
REMARK  0 active torsions:
REMARK  status: ('A' for Active; 'I' for Inactive)
ROOT
HETATM    1  C1  UNL     1     -34.124   6.852   6.348  1.00 20.00    -0.019 C 
HETATM    2  C2  UNL     1     -33.419   7.627   5.520  1.00 20.00     0.080 C 
HETATM    3  C3  UNL     1     -34.619   5.492   5.984  1.00 20.00     0.037 C 
HETATM    4 CL4  UNL     1     -32.993   7.148   3.931  1.00 20.00    -0.097 Cl
ENDROOT
TORSDOF 0
ENDMDL
MODEL 5
REMARK VINA RESULT:      -3.2      1.104      1.444
REMARK  0 active torsions:
REMARK  status: ('A' for Active; 'I' for Inactive)
ROOT
HETATM    1  C1  UNL     1     -34.555   4.886   5.016  1.00 20.00    -0.019 C 
HETATM    2  C2  UNL     1     -34.661   5.519   6.187  1.00 20.00     0.080 C 
HETATM    3  C3  UNL     1     -33.917   5.488   3.808  1.00 20.00     0.037 C 
HETATM    4 CL4  UNL     1     -34.073   7.108   6.445  1.00 20.00    -0.097 Cl
ENDROOT
TORSDOF 0
ENDMDL
MODEL 6
REMARK VINA RESULT:      -3.2      2.031      2.384
REMARK  0 active torsions:
REMARK  status: ('A' for Active; 'I' for Inactive)
ROOT
HETATM    1  C1  UNL     1     -33.583   7.687   5.685  1.00 20.00    -0.019 C 
HETATM    2  C2  UNL     1     -34.226   6.749   6.387  1.00 20.00     0.080 C 
HETATM    3  C3  UNL     1     -33.132   7.497   4.275  1.00 20.00     0.037 C 
HETATM    4 CL4  UNL     1     -34.612   5.207   5.748  1.00 20.00    -0.097 Cl
ENDROOT
TORSDOF 0
ENDMDL
MODEL 7
REMARK VINA RESULT:      -3.1      2.301      2.786
REMARK  0 active torsions:
REMARK  status: ('A' for Active; 'I' for Inactive)
ROOT
HETATM    1  C1  UNL     1     -33.165   8.126   5.238  1.00 20.00    -0.019 C 
HETATM    2  C2  UNL     1     -32.527   8.053   4.067  1.00 20.00     0.080 C 
HETATM    3  C3  UNL     1     -33.949   6.999   5.821  1.00 20.00     0.037 C 
HETATM    4 CL4  UNL     1     -32.531   6.646   3.089  1.00 20.00    -0.097 Cl
ENDROOT
TORSDOF 0
ENDMDL
MODEL 8
REMARK VINA RESULT:      -3.1      1.044      1.481
REMARK  0 active torsions:
REMARK  status: ('A' for Active; 'I' for Inactive)
ROOT
HETATM    1  C1  UNL     1     -34.545   5.726   4.928  1.00 20.00    -0.019 C 
HETATM    2  C2  UNL     1     -33.882   6.759   4.400  1.00 20.00     0.080 C 
HETATM    3  C3  UNL     1     -34.624   5.460   6.394  1.00 20.00     0.037 C 
HETATM    4 CL4  UNL     1     -33.040   7.909   5.350  1.00 20.00    -0.097 Cl
ENDROOT
TORSDOF 0
ENDMDL
MODEL 9
REMARK VINA RESULT:      -3.0      2.558      2.829
REMARK  0 active torsions:
REMARK  status: ('A' for Active; 'I' for Inactive)
ROOT
HETATM    1  C1  UNL     1     -32.612   8.187   4.628  1.00 20.00    -0.019 C 
HETATM    2  C2  UNL     1     -33.549   7.727   5.461  1.00 20.00     0.080 C 
HETATM    3  C3  UNL     1     -32.258   7.522   3.339  1.00 20.00     0.037 C 
HETATM    4 CL4  UNL     1     -34.463   6.312   5.149  1.00 20.00    -0.097 Cl
ENDROOT
TORSDOF 0
ENDMDL
