MODEL 1
REMARK VINA RESULT:      -3.7      0.000      0.000
REMARK  1 active torsions:
REMARK  status: ('A' for Active; 'I' for Inactive)
REMARK    1  A    between atoms: C7_7  and  N9_9 
ROOT
HETATM    1  C1  UNL     1     -42.864  12.904   7.157  1.00 20.00     0.031 C 
HETATM    2  C4  UNL     1     -42.364  13.816   8.272  1.00 20.00     0.019 C 
HETATM    3  C5  UNL     1     -42.320  13.341   5.794  1.00 20.00     0.273 C 
HETATM    4  C6  UNL     1     -40.367  14.355   6.822  1.00 20.00     0.288 C 
HETATM    5  C8  UNL     1     -40.846  13.936   8.212  1.00 20.00     0.086 C 
HETATM    6  N9  UNL     1     -40.858  13.474   5.752  1.00 20.00     0.094 N 
HETATM    7 BR10 UNL     1     -40.251  15.256   9.525  1.00 20.00    -0.089 Br
ENDROOT
BRANCH   6   8
HETATM    8  C7  UNL     1     -40.154  12.169   5.702  1.00 20.00     0.223 A 
HETATM    9  C2  UNL     1     -39.361  11.779   4.485  1.00 20.00     0.038 A 
HETATM   10  C3  UNL     1     -38.653  12.107   5.767  1.00 20.00     0.038 A 
ENDBRANCH   6   8
TORSDOF 1
ENDMDL
MODEL 2
REMARK VINA RESULT:      -3.5     12.561     13.444
REMARK  1 active torsions:
REMARK  status: ('A' for Active; 'I' for Inactive)
REMARK    1  A    between atoms: C7_7  and  N9_9 
ROOT
HETATM    1  C1  UNL     1     -34.132  14.401  -4.296  1.00 20.00     0.031 C 
HETATM    2  C4  UNL     1     -35.103  15.024  -5.295  1.00 20.00     0.019 C 
HETATM    3  C5  UNL     1     -32.895  15.282  -4.099  1.00 20.00     0.273 C 
HETATM    4  C6  UNL     1     -34.139  17.281  -4.697  1.00 20.00     0.288 C 
HETATM    5  C8  UNL     1     -35.414  16.462  -4.898  1.00 20.00     0.086 C 
HETATM    6  N9  UNL     1     -33.206  16.671  -3.738  1.00 20.00     0.094 N 
HETATM    7 BR10 UNL     1     -36.503  17.293  -6.292  1.00 20.00    -0.089 Br
ENDROOT
BRANCH   6   8
HETATM    8  C7  UNL     1     -33.637  16.825  -2.327  1.00 20.00     0.223 A 
HETATM    9  C2  UNL     1     -32.866  17.712  -1.388  1.00 20.00     0.038 A 
HETATM   10  C3  UNL     1     -34.235  18.118  -1.847  1.00 20.00     0.038 A 
ENDBRANCH   6   8
TORSDOF 1
ENDMDL
MODEL 3
REMARK VINA RESULT:      -3.2     21.857     23.207
REMARK  1 active torsions:
REMARK  status: ('A' for Active; 'I' for Inactive)
REMARK    1  A    between atoms: C7_7  and  N9_9 
ROOT
HETATM    1  C1  UNL     1     -24.395  -1.448  12.140  1.00 20.00     0.031 C 
HETATM    2  C4  UNL     1     -25.879  -1.435  11.786  1.00 20.00     0.019 C 
HETATM    3  C5  UNL     1     -23.816  -2.863  12.058  1.00 20.00     0.273 C 
HETATM    4  C6  UNL     1     -25.486  -3.526  10.423  1.00 20.00     0.288 C 
HETATM    5  C8  UNL     1     -26.106  -2.128  10.448  1.00 20.00     0.086 C 
HETATM    6  N9  UNL     1     -24.058  -3.530  10.772  1.00 20.00     0.094 N 
HETATM    7 BR10 UNL     1     -28.027  -2.267  10.111  1.00 20.00    -0.089 Br
ENDROOT
BRANCH   6   8
HETATM    8  C7  UNL     1     -23.189  -3.027   9.680  1.00 20.00     0.223 A 
HETATM    9  C2  UNL     1     -22.339  -3.978   8.883  1.00 20.00     0.038 A 
HETATM   10  C3  UNL     1     -23.524  -3.315   8.242  1.00 20.00     0.038 A 
ENDBRANCH   6   8
TORSDOF 1
ENDMDL
MODEL 4
REMARK VINA RESULT:      -3.2     13.055     14.166
REMARK  1 active torsions:
REMARK  status: ('A' for Active; 'I' for Inactive)
REMARK    1  A    between atoms: C7_7  and  N9_9 
ROOT
HETATM    1  C1  UNL     1     -34.031  14.788  -5.190  1.00 20.00     0.031 C 
HETATM    2  C4  UNL     1     -33.615  15.271  -3.804  1.00 20.00     0.019 C 
HETATM    3  C5  UNL     1     -35.341  15.442  -5.637  1.00 20.00     0.273 C 
HETATM    4  C6  UNL     1     -34.928  17.385  -4.237  1.00 20.00     0.288 C 
HETATM    5  C8  UNL     1     -33.601  16.794  -3.761  1.00 20.00     0.086 C 
HETATM    6  N9  UNL     1     -35.325  16.910  -5.571  1.00 20.00     0.094 N 
HETATM    7 BR10 UNL     1     -33.252  17.383  -1.929  1.00 20.00    -0.089 Br
ENDROOT
BRANCH   6   8
HETATM    8  C7  UNL     1     -34.547  17.535  -6.669  1.00 20.00     0.223 A 
HETATM    9  C2  UNL     1     -35.232  18.403  -7.688  1.00 20.00     0.038 A 
HETATM   10  C3  UNL     1     -34.303  19.019  -6.683  1.00 20.00     0.038 A 
ENDBRANCH   6   8
TORSDOF 1
ENDMDL
MODEL 5
REMARK VINA RESULT:      -3.2     12.291     12.975
REMARK  1 active torsions:
REMARK  status: ('A' for Active; 'I' for Inactive)
REMARK    1  A    between atoms: C7_7  and  N9_9 
ROOT
HETATM    1  C1  UNL     1     -36.004  18.474  -3.481  1.00 20.00     0.031 C 
HETATM    2  C4  UNL     1     -35.120  18.763  -2.272  1.00 20.00     0.019 C 
HETATM    3  C5  UNL     1     -35.173  18.351  -4.761  1.00 20.00     0.273 C 
HETATM    4  C6  UNL     1     -33.214  17.654  -3.504  1.00 20.00     0.288 C 
HETATM    5  C8  UNL     1     -33.991  17.744  -2.190  1.00 20.00     0.086 C 
HETATM    6  N9  UNL     1     -34.074  17.381  -4.665  1.00 20.00     0.094 N 
HETATM    7 BR10 UNL     1     -32.769  18.250  -0.750  1.00 20.00    -0.089 Br
ENDROOT
BRANCH   6   8
HETATM    8  C7  UNL     1     -34.531  15.972  -4.734  1.00 20.00     0.223 A 
HETATM    9  C2  UNL     1     -34.053  15.070  -5.838  1.00 20.00     0.038 A 
HETATM   10  C3  UNL     1     -33.582  14.845  -4.431  1.00 20.00     0.038 A 
ENDBRANCH   6   8
TORSDOF 1
ENDMDL
MODEL 6
REMARK VINA RESULT:      -3.0     12.966     14.525
REMARK  1 active torsions:
REMARK  status: ('A' for Active; 'I' for Inactive)
REMARK    1  A    between atoms: C7_7  and  N9_9 
ROOT
HETATM    1  C1  UNL     1     -34.038  19.103  -6.242  1.00 20.00     0.031 C 
HETATM    2  C4  UNL     1     -34.699  18.093  -7.175  1.00 20.00     0.019 C 
HETATM    3  C5  UNL     1     -34.720  19.122  -4.871  1.00 20.00     0.273 C 
HETATM    4  C6  UNL     1     -35.456  16.821  -5.128  1.00 20.00     0.288 C 
HETATM    5  C8  UNL     1     -34.785  16.730  -6.499  1.00 20.00     0.086 C 
HETATM    6  N9  UNL     1     -34.817  17.801  -4.237  1.00 20.00     0.094 N 
HETATM    7 BR10 UNL     1     -35.804  15.509  -7.637  1.00 20.00    -0.089 Br
ENDROOT
BRANCH   6   8
HETATM    8  C7  UNL     1     -33.528  17.326  -3.677  1.00 20.00     0.223 A 
HETATM    9  C2  UNL     1     -33.425  16.938  -2.227  1.00 20.00     0.038 A 
HETATM   10  C3  UNL     1     -33.346  15.883  -3.292  1.00 20.00     0.038 A 
ENDBRANCH   6   8
TORSDOF 1
ENDMDL
MODEL 7
REMARK VINA RESULT:      -3.0     20.450     21.670
REMARK  1 active torsions:
REMARK  status: ('A' for Active; 'I' for Inactive)
REMARK    1  A    between atoms: C7_7  and  N9_9 
ROOT
HETATM    1  C1  UNL     1     -26.960  -0.554  11.961  1.00 20.00     0.031 C 
HETATM    2  C4  UNL     1     -25.515  -1.035  12.046  1.00 20.00     0.019 C 
HETATM    3  C5  UNL     1     -27.549  -0.803  10.570  1.00 20.00     0.273 C 
HETATM    4  C6  UNL     1     -26.036  -2.665  10.188  1.00 20.00     0.288 C 
HETATM    5  C8  UNL     1     -25.413  -2.479  11.571  1.00 20.00     0.086 C 
HETATM    6  N9  UNL     1     -27.427  -2.194  10.113  1.00 20.00     0.094 N 
HETATM    7 BR10 UNL     1     -23.530  -3.005  11.508  1.00 20.00    -0.089 Br
ENDROOT
BRANCH   6   8
HETATM    8  C7  UNL     1     -28.389  -3.112  10.770  1.00 20.00     0.223 A 
HETATM    9  C2  UNL     1     -29.281  -3.998   9.944  1.00 20.00     0.038 A 
HETATM   10  C3  UNL     1     -28.165  -4.599  10.748  1.00 20.00     0.038 A 
ENDBRANCH   6   8
TORSDOF 1
ENDMDL
MODEL 8
REMARK VINA RESULT:      -3.0      9.609     10.497
REMARK  1 active torsions:
REMARK  status: ('A' for Active; 'I' for Inactive)
REMARK    1  A    between atoms: C7_7  and  N9_9 
ROOT
HETATM    1  C1  UNL     1     -33.496   8.646   5.304  1.00 20.00     0.031 C 
HETATM    2  C4  UNL     1     -33.873   7.189   5.551  1.00 20.00     0.019 C 
HETATM    3  C5  UNL     1     -32.211   8.757   4.479  1.00 20.00     0.273 C 
HETATM    4  C6  UNL     1     -32.604   6.592   3.449  1.00 20.00     0.288 C 
HETATM    5  C8  UNL     1     -33.906   6.424   4.233  1.00 20.00     0.086 C 
HETATM    6  N9  UNL     1     -32.245   8.000   3.221  1.00 20.00     0.094 N 
HETATM    7 BR10 UNL     1     -34.201   4.526   4.597  1.00 20.00    -0.089 Br
ENDROOT
BRANCH   6   8
HETATM    8  C7  UNL     1     -33.068   8.648   2.171  1.00 20.00     0.223 A 
HETATM    9  C2  UNL     1     -32.653   9.971   1.588  1.00 20.00     0.038 A 
HETATM   10  C3  UNL     1     -32.574   8.727   0.752  1.00 20.00     0.038 A 
ENDBRANCH   6   8
TORSDOF 1
ENDMDL
MODEL 9
REMARK VINA RESULT:      -2.9      2.483      3.962
REMARK  1 active torsions:
REMARK  status: ('A' for Active; 'I' for Inactive)
REMARK    1  A    between atoms: C7_7  and  N9_9 
ROOT
HETATM    1  C1  UNL     1     -43.272  13.280   7.437  1.00 20.00     0.031 C 
HETATM    2  C4  UNL     1     -42.185  12.470   6.737  1.00 20.00     0.019 C 
HETATM    3  C5  UNL     1     -42.740  13.939   8.712  1.00 20.00     0.273 C 
HETATM    4  C6  UNL     1     -40.475  13.972   7.831  1.00 20.00     0.288 C 
HETATM    5  C8  UNL     1     -40.943  13.327   6.527  1.00 20.00     0.086 C 
HETATM    6  N9  UNL     1     -41.530  14.746   8.504  1.00 20.00     0.094 N 
HETATM    7 BR10 UNL     1     -39.507  12.215   5.805  1.00 20.00    -0.089 Br
ENDROOT
BRANCH   6   8
HETATM    8  C7  UNL     1     -41.803  16.050   7.850  1.00 20.00     0.223 A 
HETATM    9  C2  UNL     1     -41.583  17.336   8.597  1.00 20.00     0.038 A 
HETATM   10  C3  UNL     1     -40.673  16.963   7.464  1.00 20.00     0.038 A 
ENDBRANCH   6   8
TORSDOF 1
ENDMDL
