MODEL 1
REMARK VINA RESULT:      -3.9      0.000      0.000
REMARK  1 active torsions:
REMARK  status: ('A' for Active; 'I' for Inactive)
REMARK    1  A    between atoms: C5_5  and  O7_7 
ROOT
HETATM    1  C1  UNL     1     -33.047   5.103   2.763  1.00 20.00     0.015 C 
HETATM    2  C2  UNL     1     -33.753   5.471   3.661  1.00 20.00    -0.075 C 
HETATM    3  C3  UNL     1     -34.303   5.283   6.111  1.00 20.00     0.221 A 
HETATM    4  C4  UNL     1     -34.172   7.224   5.419  1.00 20.00     0.221 A 
HETATM    5  C5  UNL     1     -34.602   5.914   4.744  1.00 20.00     0.162 A 
HETATM    6  O6  UNL     1     -33.987   6.568   6.693  1.00 20.00    -0.383 OA
ENDROOT
BRANCH   5   7
HETATM    7  O7  UNL     1     -35.974   5.851   4.308  1.00 20.00    -0.373 OA
HETATM    8  H13 UNL     1     -36.319   6.748   4.401  1.00 20.00     0.212 HD
ENDBRANCH   5   7
TORSDOF 1
ENDMDL
MODEL 2
REMARK VINA RESULT:      -3.9     12.743     13.436
REMARK  1 active torsions:
REMARK  status: ('A' for Active; 'I' for Inactive)
REMARK    1  A    between atoms: C5_5  and  O7_7 
ROOT
HETATM    1  C1  UNL     1     -33.378  16.514  -2.850  1.00 20.00     0.015 C 
HETATM    2  C2  UNL     1     -33.602  15.678  -3.681  1.00 20.00    -0.075 C 
HETATM    3  C3  UNL     1     -35.341  14.236  -4.793  1.00 20.00     0.221 A 
HETATM    4  C4  UNL     1     -34.075  15.202  -6.107  1.00 20.00     0.221 A 
HETATM    5  C5  UNL     1     -33.873  14.670  -4.681  1.00 20.00     0.162 A 
HETATM    6  O6  UNL     1     -35.427  14.694  -6.161  1.00 20.00    -0.383 OA
ENDROOT
BRANCH   5   7
HETATM    7  O7  UNL     1     -32.911  13.607  -4.537  1.00 20.00    -0.373 OA
HETATM    8  H13 UNL     1     -33.102  13.196  -3.683  1.00 20.00     0.212 HD
ENDBRANCH   5   7
TORSDOF 1
ENDMDL
MODEL 3
REMARK VINA RESULT:      -3.6      1.355      2.467
REMARK  1 active torsions:
REMARK  status: ('A' for Active; 'I' for Inactive)
REMARK    1  A    between atoms: C5_5  and  O7_7 
ROOT
HETATM    1  C1  UNL     1     -33.440   8.198   5.184  1.00 20.00     0.015 C 
HETATM    2  C2  UNL     1     -34.005   7.162   4.963  1.00 20.00    -0.075 C 
HETATM    3  C3  UNL     1     -33.940   4.947   3.769  1.00 20.00     0.221 A 
HETATM    4  C4  UNL     1     -34.487   4.822   5.756  1.00 20.00     0.221 A 
HETATM    5  C5  UNL     1     -34.686   5.916   4.697  1.00 20.00     0.162 A 
HETATM    6  O6  UNL     1     -33.861   3.937   4.800  1.00 20.00    -0.383 OA
ENDROOT
BRANCH   5   7
HETATM    7  O7  UNL     1     -36.052   6.204   4.339  1.00 20.00    -0.373 OA
HETATM    8  H13 UNL     1     -36.537   6.246   5.174  1.00 20.00     0.212 HD
ENDBRANCH   5   7
TORSDOF 1
ENDMDL
MODEL 4
REMARK VINA RESULT:      -3.5      1.563      2.500
REMARK  1 active torsions:
REMARK  status: ('A' for Active; 'I' for Inactive)
REMARK    1  A    between atoms: C5_5  and  O7_7 
ROOT
HETATM    1  C1  UNL     1     -32.528   8.077   4.139  1.00 20.00     0.015 C 
HETATM    2  C2  UNL     1     -33.277   7.357   4.739  1.00 20.00    -0.075 C 
HETATM    3  C3  UNL     1     -35.373   5.965   4.651  1.00 20.00     0.221 A 
HETATM    4  C4  UNL     1     -33.760   5.013   5.521  1.00 20.00     0.221 A 
HETATM    5  C5  UNL     1     -34.179   6.489   5.462  1.00 20.00     0.162 A 
HETATM    6  O6  UNL     1     -34.951   4.593   4.818  1.00 20.00    -0.383 OA
ENDROOT
BRANCH   5   7
HETATM    7  O7  UNL     1     -34.497   7.104   6.726  1.00 20.00    -0.373 OA
HETATM    8  H13 UNL     1     -33.886   7.847   6.815  1.00 20.00     0.212 HD
ENDBRANCH   5   7
TORSDOF 1
ENDMDL
MODEL 5
REMARK VINA RESULT:      -3.5     17.122     17.809
REMARK  1 active torsions:
REMARK  status: ('A' for Active; 'I' for Inactive)
REMARK    1  A    between atoms: C5_5  and  O7_7 
ROOT
HETATM    1  C1  UNL     1     -25.868  18.913  12.326  1.00 20.00     0.015 C 
HETATM    2  C2  UNL     1     -24.822  18.362  12.121  1.00 20.00    -0.075 C 
HETATM    3  C3  UNL     1     -22.984  17.894  10.464  1.00 20.00     0.221 A 
HETATM    4  C4  UNL     1     -22.315  18.470  12.332  1.00 20.00     0.221 A 
HETATM    5  C5  UNL     1     -23.562  17.699  11.874  1.00 20.00     0.162 A 
HETATM    6  O6  UNL     1     -21.802  18.544  10.983  1.00 20.00    -0.383 OA
ENDROOT
BRANCH   5   7
HETATM    7  O7  UNL     1     -23.661  16.335  12.330  1.00 20.00    -0.373 OA
HETATM    8  H13 UNL     1     -22.952  16.224  12.976  1.00 20.00     0.212 HD
ENDBRANCH   5   7
TORSDOF 1
ENDMDL
MODEL 6
REMARK VINA RESULT:      -3.5      8.615      9.204
REMARK  1 active torsions:
REMARK  status: ('A' for Active; 'I' for Inactive)
REMARK    1  A    between atoms: C5_5  and  O7_7 
ROOT
HETATM    1  C1  UNL     1     -40.834   8.394  -0.053  1.00 20.00     0.015 C 
HETATM    2  C2  UNL     1     -41.086   7.223  -0.132  1.00 20.00    -0.075 C 
HETATM    3  C3  UNL     1     -41.923   5.170   1.062  1.00 20.00     0.221 A 
HETATM    4  C4  UNL     1     -42.776   5.479  -0.794  1.00 20.00     0.221 A 
HETATM    5  C5  UNL     1     -41.389   5.813  -0.226  1.00 20.00     0.162 A 
HETATM    6  O6  UNL     1     -43.176   4.822   0.430  1.00 20.00    -0.383 OA
ENDROOT
BRANCH   5   7
HETATM    7  O7  UNL     1     -40.276   5.143  -0.850  1.00 20.00    -0.373 OA
HETATM    8  H13 UNL     1     -39.548   5.203  -0.218  1.00 20.00     0.212 HD
ENDBRANCH   5   7
TORSDOF 1
ENDMDL
MODEL 7
REMARK VINA RESULT:      -3.4      9.056      9.922
REMARK  1 active torsions:
REMARK  status: ('A' for Active; 'I' for Inactive)
REMARK    1  A    between atoms: C5_5  and  O7_7 
ROOT
HETATM    1  C1  UNL     1     -39.239  11.751   4.541  1.00 20.00     0.015 C 
HETATM    2  C2  UNL     1     -40.060  12.265   5.250  1.00 20.00    -0.075 C 
HETATM    3  C3  UNL     1     -40.526  14.022   6.992  1.00 20.00     0.221 A 
HETATM    4  C4  UNL     1     -41.891  13.982   5.442  1.00 20.00     0.221 A 
HETATM    5  C5  UNL     1     -41.048  12.883   6.105  1.00 20.00     0.162 A 
HETATM    6  O6  UNL     1     -41.408  14.982   6.366  1.00 20.00    -0.383 OA
ENDROOT
BRANCH   5   7
HETATM    7  O7  UNL     1     -41.787  11.846   6.781  1.00 20.00    -0.373 OA
HETATM    8  H13 UNL     1     -42.187  12.270   7.551  1.00 20.00     0.212 HD
ENDBRANCH   5   7
TORSDOF 1
ENDMDL
MODEL 8
REMARK VINA RESULT:      -3.4     16.823     17.330
REMARK  1 active torsions:
REMARK  status: ('A' for Active; 'I' for Inactive)
REMARK    1  A    between atoms: C5_5  and  O7_7 
ROOT
HETATM    1  C1  UNL     1     -24.593  19.210   8.711  1.00 20.00     0.015 C 
HETATM    2  C2  UNL     1     -23.898  18.502   9.386  1.00 20.00    -0.075 C 
HETATM    3  C3  UNL     1     -22.157  18.382  11.201  1.00 20.00     0.221 A 
HETATM    4  C4  UNL     1     -23.737  17.075  11.454  1.00 20.00     0.221 A 
HETATM    5  C5  UNL     1     -23.062  17.649  10.200  1.00 20.00     0.162 A 
HETATM    6  O6  UNL     1     -22.796  17.739  12.328  1.00 20.00    -0.383 OA
ENDROOT
BRANCH   5   7
HETATM    7  O7  UNL     1     -22.408  16.692   9.344  1.00 20.00    -0.373 OA
HETATM    8  H13 UNL     1     -23.005  16.561   8.595  1.00 20.00     0.212 HD
ENDBRANCH   5   7
TORSDOF 1
ENDMDL
MODEL 9
REMARK VINA RESULT:      -3.3     15.932     16.982
REMARK  1 active torsions:
REMARK  status: ('A' for Active; 'I' for Inactive)
REMARK    1  A    between atoms: C5_5  and  O7_7 
ROOT
HETATM    1  C1  UNL     1     -22.403  17.559   8.940  1.00 20.00     0.015 C 
HETATM    2  C2  UNL     1     -22.877  17.515  10.041  1.00 20.00    -0.075 C 
HETATM    3  C3  UNL     1     -24.724  18.296  11.564  1.00 20.00     0.221 A 
HETATM    4  C4  UNL     1     -24.368  16.263  11.638  1.00 20.00     0.221 A 
HETATM    5  C5  UNL     1     -23.449  17.464  11.368  1.00 20.00     0.162 A 
HETATM    6  O6  UNL     1     -25.504  17.122  11.884  1.00 20.00    -0.383 OA
ENDROOT
BRANCH   5   7
HETATM    7  O7  UNL     1     -22.399  17.682  12.331  1.00 20.00    -0.373 OA
HETATM    8  H13 UNL     1     -21.742  18.229  11.881  1.00 20.00     0.212 HD
ENDBRANCH   5   7
TORSDOF 1
ENDMDL
