MODEL 1
REMARK VINA RESULT:      -4.2      0.000      0.000
REMARK  3 active torsions:
REMARK  status: ('A' for Active; 'I' for Inactive)
REMARK    1  A    between atoms: C1_1  and  C5_5 
REMARK    2  A    between atoms: C3_3  and  C4_4 
REMARK    3  A    between atoms: C3_3  and  C5_5 
ROOT
HETATM    1  C2  UNL     1     -34.713   5.481   6.641  1.00 20.00     0.017 C 
HETATM    2  C5  UNL     1     -34.561   6.321   5.376  1.00 20.00     0.044 C 
ENDROOT
BRANCH   2   3
HETATM    3  C1  UNL     1     -34.350   5.370   4.210  1.00 20.00     0.235 C 
HETATM    4  O6  UNL     1     -34.108   4.173   4.316  1.00 20.00    -0.306 OA
ENDBRANCH   2   3
BRANCH   2   5
HETATM    5  C3  UNL     1     -33.421   7.339   5.531  1.00 20.00     0.026 C 
BRANCH   5   6
HETATM    6  C4  UNL     1     -33.268   8.228   4.300  1.00 20.00     0.115 C 
HETATM    7 CL7  UNL     1     -31.928   7.648   3.283  1.00 20.00    -0.130 Cl
ENDBRANCH   5   6
ENDBRANCH   2   5
TORSDOF 3
ENDMDL
MODEL 2
REMARK VINA RESULT:      -4.0      2.312      3.251
REMARK  3 active torsions:
REMARK  status: ('A' for Active; 'I' for Inactive)
REMARK    1  A    between atoms: C1_1  and  C5_5 
REMARK    2  A    between atoms: C3_3  and  C4_4 
REMARK    3  A    between atoms: C3_3  and  C5_5 
ROOT
HETATM    1  C2  UNL     1     -32.181   9.182   4.781  1.00 20.00     0.017 C 
HETATM    2  C5  UNL     1     -32.647   7.731   4.688  1.00 20.00     0.044 C 
ENDROOT
BRANCH   2   3
HETATM    3  C1  UNL     1     -32.461   7.276   3.250  1.00 20.00     0.235 C 
HETATM    4  O6  UNL     1     -32.633   6.131   2.848  1.00 20.00    -0.306 OA
ENDBRANCH   2   3
BRANCH   2   5
HETATM    5  C3  UNL     1     -34.096   7.592   5.177  1.00 20.00     0.026 C 
BRANCH   5   6
HETATM    6  C4  UNL     1     -34.236   6.549   6.283  1.00 20.00     0.115 C 
HETATM    7 CL7  UNL     1     -34.589   4.951   5.584  1.00 20.00    -0.130 Cl
ENDBRANCH   5   6
ENDBRANCH   2   5
TORSDOF 3
ENDMDL
MODEL 3
REMARK VINA RESULT:      -3.9      1.115      1.199
REMARK  3 active torsions:
REMARK  status: ('A' for Active; 'I' for Inactive)
REMARK    1  A    between atoms: C1_1  and  C5_5 
REMARK    2  A    between atoms: C3_3  and  C4_4 
REMARK    3  A    between atoms: C3_3  and  C5_5 
ROOT
HETATM    1  C2  UNL     1     -34.018   6.962   6.385  1.00 20.00     0.017 C 
HETATM    2  C5  UNL     1     -34.353   6.636   4.931  1.00 20.00     0.044 C 
ENDROOT
BRANCH   2   3
HETATM    3  C1  UNL     1     -34.884   5.213   4.887  1.00 20.00     0.235 C 
HETATM    4  O6  UNL     1     -34.242   4.235   4.522  1.00 20.00    -0.306 OA
ENDBRANCH   2   3
BRANCH   2   5
HETATM    5  C3  UNL     1     -33.128   6.846   4.030  1.00 20.00     0.026 C 
BRANCH   5   6
HETATM    6  C4  UNL     1     -32.565   8.261   4.141  1.00 20.00     0.115 C 
HETATM    7 CL7  UNL     1     -32.621   9.074   2.558  1.00 20.00    -0.130 Cl
ENDBRANCH   5   6
ENDBRANCH   2   5
TORSDOF 3
ENDMDL
MODEL 4
REMARK VINA RESULT:      -3.8      2.169      2.889
REMARK  3 active torsions:
REMARK  status: ('A' for Active; 'I' for Inactive)
REMARK    1  A    between atoms: C1_1  and  C5_5 
REMARK    2  A    between atoms: C3_3  and  C4_4 
REMARK    3  A    between atoms: C3_3  and  C5_5 
ROOT
HETATM    1  C2  UNL     1     -34.337   6.978   6.766  1.00 20.00     0.017 C 
HETATM    2  C5  UNL     1     -33.744   6.721   5.382  1.00 20.00     0.044 C 
ENDROOT
BRANCH   2   3
HETATM    3  C1  UNL     1     -33.448   8.069   4.747  1.00 20.00     0.235 C 
HETATM    4  O6  UNL     1     -32.380   8.384   4.234  1.00 20.00    -0.306 OA
ENDBRANCH   2   3
BRANCH   2   5
HETATM    5  C3  UNL     1     -34.690   5.855   4.537  1.00 20.00     0.026 C 
BRANCH   5   6
HETATM    6  C4  UNL     1     -33.984   4.637   3.946  1.00 20.00     0.115 C 
HETATM    7 CL7  UNL     1     -32.915   5.130   2.611  1.00 20.00    -0.130 Cl
ENDBRANCH   5   6
ENDBRANCH   2   5
TORSDOF 3
ENDMDL
MODEL 5
REMARK VINA RESULT:      -3.6      2.899      3.878
REMARK  3 active torsions:
REMARK  status: ('A' for Active; 'I' for Inactive)
REMARK    1  A    between atoms: C1_1  and  C5_5 
REMARK    2  A    between atoms: C3_3  and  C4_4 
REMARK    3  A    between atoms: C3_3  and  C5_5 
ROOT
HETATM    1  C2  UNL     1     -32.120   7.375   2.815  1.00 20.00     0.017 C 
HETATM    2  C5  UNL     1     -33.314   7.299   3.765  1.00 20.00     0.044 C 
ENDROOT
BRANCH   2   3
HETATM    3  C1  UNL     1     -32.935   8.027   5.044  1.00 20.00     0.235 C 
HETATM    4  O6  UNL     1     -32.284   9.064   5.095  1.00 20.00    -0.306 OA
ENDBRANCH   2   3
BRANCH   2   5
HETATM    5  C3  UNL     1     -33.726   5.840   4.006  1.00 20.00     0.026 C 
BRANCH   5   6
HETATM    6  C4  UNL     1     -35.046   5.730   4.766  1.00 20.00     0.115 C 
HETATM    7 CL7  UNL     1     -34.741   5.385   6.485  1.00 20.00    -0.130 Cl
ENDBRANCH   5   6
ENDBRANCH   2   5
TORSDOF 3
ENDMDL
MODEL 6
REMARK VINA RESULT:      -3.6      1.344      1.778
REMARK  3 active torsions:
REMARK  status: ('A' for Active; 'I' for Inactive)
REMARK    1  A    between atoms: C1_1  and  C5_5 
REMARK    2  A    between atoms: C3_3  and  C4_4 
REMARK    3  A    between atoms: C3_3  and  C5_5 
ROOT
HETATM    1  C2  UNL     1     -35.336   6.099   4.257  1.00 20.00     0.017 C 
HETATM    2  C5  UNL     1     -34.046   6.533   4.950  1.00 20.00     0.044 C 
ENDROOT
BRANCH   2   3
HETATM    3  C1  UNL     1     -34.109   6.053   6.390  1.00 20.00     0.235 C 
HETATM    4  O6  UNL     1     -34.862   5.180   6.807  1.00 20.00    -0.306 OA
ENDBRANCH   2   3
BRANCH   2   5
HETATM    5  C3  UNL     1     -33.852   8.052   4.834  1.00 20.00     0.026 C 
BRANCH   5   6
HETATM    6  C4  UNL     1     -32.490   8.417   4.247  1.00 20.00     0.115 C 
HETATM    7 CL7  UNL     1     -32.107   7.356   2.871  1.00 20.00    -0.130 Cl
ENDBRANCH   5   6
ENDBRANCH   2   5
TORSDOF 3
ENDMDL
MODEL 7
REMARK VINA RESULT:      -3.4      2.006      2.783
REMARK  3 active torsions:
REMARK  status: ('A' for Active; 'I' for Inactive)
REMARK    1  A    between atoms: C1_1  and  C5_5 
REMARK    2  A    between atoms: C3_3  and  C4_4 
REMARK    3  A    between atoms: C3_3  and  C5_5 
ROOT
HETATM    1  C2  UNL     1     -32.500   8.408   4.897  1.00 20.00     0.017 C 
HETATM    2  C5  UNL     1     -33.854   7.712   5.020  1.00 20.00     0.044 C 
ENDROOT
BRANCH   2   3
HETATM    3  C1  UNL     1     -33.944   7.118   6.415  1.00 20.00     0.235 C 
HETATM    4  O6  UNL     1     -34.453   6.036   6.687  1.00 20.00    -0.306 OA
ENDBRANCH   2   3
BRANCH   2   5
HETATM    5  C3  UNL     1     -34.029   6.664   3.911  1.00 20.00     0.026 C 
BRANCH   5   6
HETATM    6  C4  UNL     1     -32.740   6.431   3.127  1.00 20.00     0.115 C 
HETATM    7 CL7  UNL     1     -32.759   4.818   2.374  1.00 20.00    -0.130 Cl
ENDBRANCH   5   6
ENDBRANCH   2   5
TORSDOF 3
ENDMDL
MODEL 8
REMARK VINA RESULT:      -3.4      1.586      1.678
REMARK  3 active torsions:
REMARK  status: ('A' for Active; 'I' for Inactive)
REMARK    1  A    between atoms: C1_1  and  C5_5 
REMARK    2  A    between atoms: C3_3  and  C4_4 
REMARK    3  A    between atoms: C3_3  and  C5_5 
ROOT
HETATM    1  C2  UNL     1     -34.003   6.983   6.470  1.00 20.00     0.017 C 
HETATM    2  C5  UNL     1     -34.166   7.001   4.952  1.00 20.00     0.044 C 
ENDROOT
BRANCH   2   3
HETATM    3  C1  UNL     1     -34.896   5.731   4.549  1.00 20.00     0.235 C 
HETATM    4  O6  UNL     1     -34.803   4.654   5.127  1.00 20.00    -0.306 OA
ENDBRANCH   2   3
BRANCH   2   5
HETATM    5  C3  UNL     1     -32.804   7.155   4.260  1.00 20.00     0.026 C 
BRANCH   5   6
HETATM    6  C4  UNL     1     -32.875   6.838   2.768  1.00 20.00     0.115 C 
HETATM    7 CL7  UNL     1     -32.691   5.089   2.500  1.00 20.00    -0.130 Cl
ENDBRANCH   5   6
ENDBRANCH   2   5
TORSDOF 3
ENDMDL
MODEL 9
REMARK VINA RESULT:      -3.4      2.037      2.541
REMARK  3 active torsions:
REMARK  status: ('A' for Active; 'I' for Inactive)
REMARK    1  A    between atoms: C1_1  and  C5_5 
REMARK    2  A    between atoms: C3_3  and  C4_4 
REMARK    3  A    between atoms: C3_3  and  C5_5 
ROOT
HETATM    1  C2  UNL     1     -35.715   6.000   4.296  1.00 20.00     0.017 C 
HETATM    2  C5  UNL     1     -34.791   5.227   5.235  1.00 20.00     0.044 C 
ENDROOT
BRANCH   2   3
HETATM    3  C1  UNL     1     -34.405   6.157   6.373  1.00 20.00     0.235 C 
HETATM    4  O6  UNL     1     -33.418   6.884   6.382  1.00 20.00    -0.306 OA
ENDBRANCH   2   3
BRANCH   2   5
HETATM    5  C3  UNL     1     -33.577   4.676   4.474  1.00 20.00     0.026 C 
BRANCH   5   6
HETATM    6  C4  UNL     1     -33.462   5.262   3.068  1.00 20.00     0.115 C 
HETATM    7 CL7  UNL     1     -32.422   6.706   3.085  1.00 20.00    -0.130 Cl
ENDBRANCH   5   6
ENDBRANCH   2   5
TORSDOF 3
ENDMDL
