MODEL 1
REMARK VINA RESULT:      -3.6      0.000      0.000
REMARK  1 active torsions:
REMARK  status: ('A' for Active; 'I' for Inactive)
REMARK    1  A    between atoms: C1_1  and  C5_5 
ROOT
HETATM    1  C2  UNL     1     -23.109  18.840   9.129  1.00 20.00     0.029 C 
HETATM    2  C3  UNL     1     -22.844  17.558   9.883  1.00 20.00     0.047 C 
HETATM    3  C4  UNL     1     -24.584  19.056   9.384  1.00 20.00     0.169 C 
HETATM    4  C5  UNL     1     -23.762  17.697  11.091  1.00 20.00     0.110 C 
HETATM    5  C6  UNL     1     -24.293  16.367  11.598  1.00 20.00     0.053 C 
HETATM    6  O8  UNL     1     -24.853  18.539  10.696  1.00 20.00    -0.373 OA
ENDROOT
BRANCH   4   7
HETATM    7  C1  UNL     1     -23.083  18.414  12.225  1.00 20.00     0.268 C 
HETATM    8  O7  UNL     1     -21.865  18.509  12.332  1.00 20.00    -0.304 OA
ENDBRANCH   4   7
TORSDOF 1
ENDMDL
MODEL 2
REMARK VINA RESULT:      -3.4      1.404      3.156
REMARK  1 active torsions:
REMARK  status: ('A' for Active; 'I' for Inactive)
REMARK    1  A    between atoms: C1_1  and  C5_5 
ROOT
HETATM    1  C2  UNL     1     -24.235  17.720  11.898  1.00 20.00     0.029 C 
HETATM    2  C3  UNL     1     -23.975  16.988  10.602  1.00 20.00     0.047 C 
HETATM    3  C4  UNL     1     -22.903  18.391  12.152  1.00 20.00     0.169 C 
HETATM    4  C5  UNL     1     -23.049  17.949   9.867  1.00 20.00     0.110 C 
HETATM    5  C6  UNL     1     -22.051  17.245   8.962  1.00 20.00     0.053 C 
HETATM    6  O8  UNL     1     -22.351  18.705  10.865  1.00 20.00    -0.373 OA
ENDROOT
BRANCH   4   7
HETATM    7  C1  UNL     1     -23.819  18.953   9.057  1.00 20.00     0.268 C 
HETATM    8  O7  UNL     1     -23.863  18.941   7.832  1.00 20.00    -0.304 OA
ENDBRANCH   4   7
TORSDOF 1
ENDMDL
MODEL 3
REMARK VINA RESULT:      -3.4      1.674      2.444
REMARK  1 active torsions:
REMARK  status: ('A' for Active; 'I' for Inactive)
REMARK    1  A    between atoms: C1_1  and  C5_5 
ROOT
HETATM    1  C2  UNL     1     -22.930  18.204   9.808  1.00 20.00     0.029 C 
HETATM    2  C3  UNL     1     -24.356  18.610  10.100  1.00 20.00     0.047 C 
HETATM    3  C4  UNL     1     -22.245  18.495  11.125  1.00 20.00     0.169 C 
HETATM    4  C5  UNL     1     -24.517  18.202  11.559  1.00 20.00     0.110 C 
HETATM    5  C6  UNL     1     -25.468  19.101  12.332  1.00 20.00     0.053 C 
HETATM    6  O8  UNL     1     -23.213  18.248  12.154  1.00 20.00    -0.373 OA
ENDROOT
BRANCH   4   7
HETATM    7  C1  UNL     1     -24.977  16.778  11.691  1.00 20.00     0.268 C 
HETATM    8  O7  UNL     1     -24.283  15.885  12.165  1.00 20.00    -0.304 OA
ENDBRANCH   4   7
TORSDOF 1
ENDMDL
MODEL 4
REMARK VINA RESULT:      -3.4     17.714     18.837
REMARK  1 active torsions:
REMARK  status: ('A' for Active; 'I' for Inactive)
REMARK    1  A    between atoms: C1_1  and  C5_5 
ROOT
HETATM    1  C2  UNL     1     -39.867  11.900   5.003  1.00 20.00     0.029 C 
HETATM    2  C3  UNL     1     -40.758  13.120   5.003  1.00 20.00     0.047 C 
HETATM    3  C4  UNL     1     -39.121  12.057   6.309  1.00 20.00     0.169 C 
HETATM    4  C5  UNL     1     -41.106  13.268   6.479  1.00 20.00     0.110 C 
HETATM    5  C6  UNL     1     -41.315  14.712   6.905  1.00 20.00     0.053 C 
HETATM    6  O8  UNL     1     -40.026  12.691   7.225  1.00 20.00    -0.373 OA
ENDROOT
BRANCH   4   7
HETATM    7  C1  UNL     1     -42.327  12.471   6.845  1.00 20.00     0.268 C 
HETATM    8  O7  UNL     1     -42.694  12.289   8.000  1.00 20.00    -0.304 OA
ENDBRANCH   4   7
TORSDOF 1
ENDMDL
MODEL 5
REMARK VINA RESULT:      -3.4     17.977     19.315
REMARK  1 active torsions:
REMARK  status: ('A' for Active; 'I' for Inactive)
REMARK    1  A    between atoms: C1_1  and  C5_5 
ROOT
HETATM    1  C2  UNL     1     -33.537  15.923  -3.167  1.00 20.00     0.029 C 
HETATM    2  C3  UNL     1     -33.230  14.996  -4.320  1.00 20.00     0.047 C 
HETATM    3  C4  UNL     1     -34.159  17.107  -3.874  1.00 20.00     0.169 C 
HETATM    4  C5  UNL     1     -34.401  15.249  -5.261  1.00 20.00     0.110 C 
HETATM    5  C6  UNL     1     -34.036  15.093  -6.728  1.00 20.00     0.053 C 
HETATM    6  O8  UNL     1     -34.860  16.583  -5.012  1.00 20.00    -0.373 OA
ENDROOT
BRANCH   4   7
HETATM    7  C1  UNL     1     -35.567  14.352  -4.951  1.00 20.00     0.268 C 
HETATM    8  O7  UNL     1     -35.455  13.271  -4.383  1.00 20.00    -0.304 OA
ENDBRANCH   4   7
TORSDOF 1
ENDMDL
MODEL 6
REMARK VINA RESULT:      -3.3     24.181     25.199
REMARK  1 active torsions:
REMARK  status: ('A' for Active; 'I' for Inactive)
REMARK    1  A    between atoms: C1_1  and  C5_5 
ROOT
HETATM    1  C2  UNL     1     -43.417   5.522   2.185  1.00 20.00     0.029 C 
HETATM    2  C3  UNL     1     -42.244   4.899   1.465  1.00 20.00     0.047 C 
HETATM    3  C4  UNL     1     -43.324   6.966   1.747  1.00 20.00     0.169 C 
HETATM    4  C5  UNL     1     -42.223   5.671   0.151  1.00 20.00     0.110 C 
HETATM    5  C6  UNL     1     -40.826   5.840  -0.423  1.00 20.00     0.053 C 
HETATM    6  O8  UNL     1     -42.802   6.957   0.410  1.00 20.00    -0.373 OA
ENDROOT
BRANCH   4   7
HETATM    7  C1  UNL     1     -43.102   5.029  -0.885  1.00 20.00     0.268 C 
HETATM    8  O7  UNL     1     -42.683   4.605  -1.957  1.00 20.00    -0.304 OA
ENDBRANCH   4   7
TORSDOF 1
ENDMDL
MODEL 7
REMARK VINA RESULT:      -3.3      1.550      2.276
REMARK  1 active torsions:
REMARK  status: ('A' for Active; 'I' for Inactive)
REMARK    1  A    between atoms: C1_1  and  C5_5 
ROOT
HETATM    1  C2  UNL     1     -21.985  18.554  10.831  1.00 20.00     0.029 C 
HETATM    2  C3  UNL     1     -22.741  17.969  12.001  1.00 20.00     0.047 C 
HETATM    3  C4  UNL     1     -22.408  17.646   9.698  1.00 20.00     0.169 C 
HETATM    4  C5  UNL     1     -24.045  17.521  11.354  1.00 20.00     0.110 C 
HETATM    5  C6  UNL     1     -24.651  16.293  12.012  1.00 20.00     0.053 C 
HETATM    6  O8  UNL     1     -23.758  17.244   9.977  1.00 20.00    -0.373 OA
ENDROOT
BRANCH   4   7
HETATM    7  C1  UNL     1     -25.068  18.623  11.343  1.00 20.00     0.268 C 
HETATM    8  O7  UNL     1     -25.406  19.221  10.328  1.00 20.00    -0.304 OA
ENDBRANCH   4   7
TORSDOF 1
ENDMDL
MODEL 8
REMARK VINA RESULT:      -3.3     19.005     20.300
REMARK  1 active torsions:
REMARK  status: ('A' for Active; 'I' for Inactive)
REMARK    1  A    between atoms: C1_1  and  C5_5 
ROOT
HETATM    1  C2  UNL     1     -35.273  16.792  -6.739  1.00 20.00     0.029 C 
HETATM    2  C3  UNL     1     -35.066  16.514  -5.268  1.00 20.00     0.047 C 
HETATM    3  C4  UNL     1     -34.234  15.897  -7.377  1.00 20.00     0.169 C 
HETATM    4  C5  UNL     1     -34.712  15.032  -5.265  1.00 20.00     0.110 C 
HETATM    5  C6  UNL     1     -33.756  14.646  -4.148  1.00 20.00     0.053 C 
HETATM    6  O8  UNL     1     -34.119  14.739  -6.537  1.00 20.00    -0.373 OA
ENDROOT
BRANCH   4   7
HETATM    7  C1  UNL     1     -35.938  14.167  -5.177  1.00 20.00     0.268 C 
HETATM    8  O7  UNL     1     -36.021  13.184  -4.449  1.00 20.00    -0.304 OA
ENDBRANCH   4   7
TORSDOF 1
ENDMDL
MODEL 9
REMARK VINA RESULT:      -3.3     23.570     24.540
REMARK  1 active torsions:
REMARK  status: ('A' for Active; 'I' for Inactive)
REMARK    1  A    between atoms: C1_1  and  C5_5 
ROOT
HETATM    1  C2  UNL     1     -40.937   7.854   0.058  1.00 20.00     0.029 C 
HETATM    2  C3  UNL     1     -40.944   6.379  -0.268  1.00 20.00     0.047 C 
HETATM    3  C4  UNL     1     -42.278   8.301  -0.483  1.00 20.00     0.169 C 
HETATM    4  C5  UNL     1     -42.409   6.010  -0.071  1.00 20.00     0.110 C 
HETATM    5  C6  UNL     1     -42.877   4.895  -0.993  1.00 20.00     0.053 C 
HETATM    6  O8  UNL     1     -43.177   7.196  -0.312  1.00 20.00    -0.373 OA
ENDROOT
BRANCH   4   7
HETATM    7  C1  UNL     1     -42.698   5.619   1.351  1.00 20.00     0.268 C 
HETATM    8  O7  UNL     1     -43.412   6.275   2.101  1.00 20.00    -0.304 OA
ENDBRANCH   4   7
TORSDOF 1
ENDMDL
