MODEL 1
REMARK VINA RESULT:      -3.2      0.000      0.000
REMARK  2 active torsions:
REMARK  status: ('A' for Active; 'I' for Inactive)
REMARK    1  A    between atoms: C3_3  and  C4_4 
REMARK    2  A    between atoms: C3_3  and  O6_6 
ROOT
HETATM    1  C1  UNL     1     -32.894   7.034   3.575  1.00 20.00     0.081 C 
HETATM    2  C4  UNL     1     -33.399   7.966   4.590  1.00 20.00     0.212 C 
HETATM    3  N5  UNL     1     -32.499   6.297   2.770  1.00 20.00    -0.196 NA
HETATM    4 CL7  UNL     1     -32.131   9.179   4.913  1.00 20.00    -0.107 Cl
ENDROOT
BRANCH   2   5
HETATM    5  C3  UNL     1     -33.807   7.252   5.875  1.00 20.00     0.202 C 
BRANCH   5   6
HETATM    6  O6  UNL     1     -34.830   6.295   5.626  1.00 20.00    -0.394 OA
HETATM    7  C2  UNL     1     -34.497   5.024   6.168  1.00 20.00     0.201 C 
ENDBRANCH   5   6
ENDBRANCH   2   5
TORSDOF 2
ENDMDL
MODEL 2
REMARK VINA RESULT:      -3.1      2.629      3.058
REMARK  2 active torsions:
REMARK  status: ('A' for Active; 'I' for Inactive)
REMARK    1  A    between atoms: C3_3  and  C4_4 
REMARK    2  A    between atoms: C3_3  and  O6_6 
ROOT
HETATM    1  C1  UNL     1     -33.498   7.532   5.233  1.00 20.00     0.081 C 
HETATM    2  C4  UNL     1     -34.547   6.518   5.387  1.00 20.00     0.212 C 
HETATM    3  N5  UNL     1     -32.670   8.337   5.110  1.00 20.00    -0.196 NA
HETATM    4 CL7  UNL     1     -34.065   5.412   6.701  1.00 20.00    -0.107 Cl
ENDROOT
BRANCH   2   5
HETATM    5  C3  UNL     1     -34.799   5.748   4.094  1.00 20.00     0.202 C 
BRANCH   5   6
HETATM    6  O6  UNL     1     -33.756   4.815   3.843  1.00 20.00    -0.394 OA
HETATM    7  C2  UNL     1     -33.004   5.172   2.691  1.00 20.00     0.201 C 
ENDBRANCH   5   6
ENDBRANCH   2   5
TORSDOF 2
ENDMDL
MODEL 3
REMARK VINA RESULT:      -3.1      2.287      2.398
REMARK  2 active torsions:
REMARK  status: ('A' for Active; 'I' for Inactive)
REMARK    1  A    between atoms: C3_3  and  C4_4 
REMARK    2  A    between atoms: C3_3  and  O6_6 
ROOT
HETATM    1  C1  UNL     1     -32.934   7.464   3.970  1.00 20.00     0.081 C 
HETATM    2  C4  UNL     1     -33.339   6.054   4.024  1.00 20.00     0.212 C 
HETATM    3  N5  UNL     1     -32.614   8.579   3.932  1.00 20.00    -0.196 NA
HETATM    4 CL7  UNL     1     -32.875   5.282   2.484  1.00 20.00    -0.107 Cl
ENDROOT
BRANCH   2   5
HETATM    5  C3  UNL     1     -34.833   5.893   4.284  1.00 20.00     0.202 C 
BRANCH   5   6
HETATM    6  O6  UNL     1     -35.075   4.910   5.284  1.00 20.00    -0.394 OA
HETATM    7  C2  UNL     1     -34.492   5.278   6.526  1.00 20.00     0.201 C 
ENDBRANCH   5   6
ENDBRANCH   2   5
TORSDOF 2
ENDMDL
MODEL 4
REMARK VINA RESULT:      -3.0      2.385      2.961
REMARK  2 active torsions:
REMARK  status: ('A' for Active; 'I' for Inactive)
REMARK    1  A    between atoms: C3_3  and  C4_4 
REMARK    2  A    between atoms: C3_3  and  O6_6 
ROOT
HETATM    1  C1  UNL     1     -33.527   5.447   3.575  1.00 20.00     0.081 C 
HETATM    2  C4  UNL     1     -34.340   5.768   4.753  1.00 20.00     0.212 C 
HETATM    3  N5  UNL     1     -32.881   5.190   2.645  1.00 20.00    -0.196 NA
HETATM    4 CL7  UNL     1     -36.022   6.026   4.216  1.00 20.00    -0.107 Cl
ENDROOT
BRANCH   2   5
HETATM    5  C3  UNL     1     -33.815   6.990   5.500  1.00 20.00     0.202 C 
BRANCH   5   6
HETATM    6  O6  UNL     1     -33.678   8.104   4.627  1.00 20.00    -0.394 OA
HETATM    7  C2  UNL     1     -32.384   8.683   4.721  1.00 20.00     0.201 C 
ENDBRANCH   5   6
ENDBRANCH   2   5
TORSDOF 2
ENDMDL
MODEL 5
REMARK VINA RESULT:      -3.0     12.350     12.687
REMARK  2 active torsions:
REMARK  status: ('A' for Active; 'I' for Inactive)
REMARK    1  A    between atoms: C3_3  and  C4_4 
REMARK    2  A    between atoms: C3_3  and  O6_6 
ROOT
HETATM    1  C1  UNL     1     -31.850  18.663  -0.611  1.00 20.00     0.081 C 
HETATM    2  C4  UNL     1     -33.300  18.792  -0.792  1.00 20.00     0.212 C 
HETATM    3  N5  UNL     1     -30.702  18.563  -0.470  1.00 20.00    -0.196 NA
HETATM    4 CL7  UNL     1     -34.102  18.197   0.687  1.00 20.00    -0.107 Cl
ENDROOT
BRANCH   2   5
HETATM    5  C3  UNL     1     -33.798  18.037  -2.020  1.00 20.00     0.202 C 
BRANCH   5   6
HETATM    6  O6  UNL     1     -33.398  16.673  -1.979  1.00 20.00    -0.394 OA
HETATM    7  C2  UNL     1     -33.371  16.099  -3.278  1.00 20.00     0.201 C 
ENDBRANCH   5   6
ENDBRANCH   2   5
TORSDOF 2
ENDMDL
MODEL 6
REMARK VINA RESULT:      -3.0      2.203      2.529
REMARK  2 active torsions:
REMARK  status: ('A' for Active; 'I' for Inactive)
REMARK    1  A    between atoms: C3_3  and  C4_4 
REMARK    2  A    between atoms: C3_3  and  O6_6 
ROOT
HETATM    1  C1  UNL     1     -32.259   7.982   1.871  1.00 20.00     0.081 C 
HETATM    2  C4  UNL     1     -32.227   7.230   3.131  1.00 20.00     0.212 C 
HETATM    3  N5  UNL     1     -32.281   8.579   0.876  1.00 20.00    -0.196 NA
HETATM    4 CL7  UNL     1     -32.941   5.621   2.838  1.00 20.00    -0.107 Cl
ENDROOT
BRANCH   2   5
HETATM    5  C3  UNL     1     -32.963   7.955   4.254  1.00 20.00     0.202 C 
BRANCH   5   6
HETATM    6  O6  UNL     1     -34.043   7.171   4.747  1.00 20.00    -0.394 OA
HETATM    7  C2  UNL     1     -33.939   6.966   6.149  1.00 20.00     0.201 C 
ENDBRANCH   5   6
ENDBRANCH   2   5
TORSDOF 2
ENDMDL
MODEL 7
REMARK VINA RESULT:      -2.9      2.945      3.699
REMARK  2 active torsions:
REMARK  status: ('A' for Active; 'I' for Inactive)
REMARK    1  A    between atoms: C3_3  and  C4_4 
REMARK    2  A    between atoms: C3_3  and  O6_6 
ROOT
HETATM    1  C1  UNL     1     -34.453   5.901   5.696  1.00 20.00     0.081 C 
HETATM    2  C4  UNL     1     -34.049   6.618   4.481  1.00 20.00     0.212 C 
HETATM    3  N5  UNL     1     -34.776   5.338   6.659  1.00 20.00    -0.196 NA
HETATM    4 CL7  UNL     1     -33.417   5.424   3.315  1.00 20.00    -0.107 Cl
ENDROOT
BRANCH   2   5
HETATM    5  C3  UNL     1     -33.012   7.699   4.768  1.00 20.00     0.202 C 
BRANCH   5   6
HETATM    6  O6  UNL     1     -32.095   7.827   3.688  1.00 20.00    -0.394 OA
HETATM    7  C2  UNL     1     -32.483   8.862   2.795  1.00 20.00     0.201 C 
ENDBRANCH   5   6
ENDBRANCH   2   5
TORSDOF 2
ENDMDL
MODEL 8
REMARK VINA RESULT:      -2.8     12.322     12.753
REMARK  2 active torsions:
REMARK  status: ('A' for Active; 'I' for Inactive)
REMARK    1  A    between atoms: C3_3  and  C4_4 
REMARK    2  A    between atoms: C3_3  and  O6_6 
ROOT
HETATM    1  C1  UNL     1     -35.204  14.048  -4.643  1.00 20.00     0.081 C 
HETATM    2  C4  UNL     1     -34.379  15.225  -4.940  1.00 20.00     0.212 C 
HETATM    3  N5  UNL     1     -35.858  13.120  -4.405  1.00 20.00    -0.196 NA
HETATM    4 CL7  UNL     1     -33.959  15.188  -6.673  1.00 20.00    -0.107 Cl
ENDROOT
BRANCH   2   5
HETATM    5  C3  UNL     1     -33.121  15.280  -4.078  1.00 20.00     0.202 C 
BRANCH   5   6
HETATM    6  O6  UNL     1     -33.283  16.190  -2.996  1.00 20.00    -0.394 OA
HETATM    7  C2  UNL     1     -33.384  17.531  -3.455  1.00 20.00     0.201 C 
ENDBRANCH   5   6
ENDBRANCH   2   5
TORSDOF 2
ENDMDL
MODEL 9
REMARK VINA RESULT:      -2.8      2.410      3.182
REMARK  2 active torsions:
REMARK  status: ('A' for Active; 'I' for Inactive)
REMARK    1  A    between atoms: C3_3  and  C4_4 
REMARK    2  A    between atoms: C3_3  and  O6_6 
ROOT
HETATM    1  C1  UNL     1     -34.272   5.617   4.999  1.00 20.00     0.081 C 
HETATM    2  C4  UNL     1     -33.584   6.825   5.470  1.00 20.00     0.212 C 
HETATM    3  N5  UNL     1     -34.813   4.661   4.623  1.00 20.00    -0.196 NA
HETATM    4 CL7  UNL     1     -34.351   7.344   6.995  1.00 20.00    -0.107 Cl
ENDROOT
BRANCH   2   5
HETATM    5  C3  UNL     1     -33.616   7.947   4.437  1.00 20.00     0.202 C 
BRANCH   5   6
HETATM    6  O6  UNL     1     -32.323   8.171   3.887  1.00 20.00    -0.394 OA
HETATM    7  C2  UNL     1     -32.124   7.412   2.702  1.00 20.00     0.201 C 
ENDBRANCH   5   6
ENDBRANCH   2   5
TORSDOF 2
ENDMDL
