MODEL 1
REMARK VINA RESULT:      -4.6      0.000      0.000
REMARK  2 active torsions:
REMARK  status: ('A' for Active; 'I' for Inactive)
REMARK    1  A    between atoms: C1_1  and  C7_7 
REMARK    2  A    between atoms: C2_2  and  C3_3 
ROOT
HETATM    1  C1  UNL     1     -33.734   7.252   5.307  1.00 20.00    -0.013 C 
HETATM    2  C3  UNL     1     -32.815   7.879   4.552  1.00 20.00    -0.028 C 
HETATM    3  C4  UNL     1     -32.216   9.232   4.771  1.00 20.00     0.051 C 
ENDROOT
BRANCH   1   4
HETATM    4  C7  UNL     1     -34.336   5.887   5.071  1.00 20.00     0.000 C 
HETATM    5  C5  UNL     1     -34.535   5.165   6.404  1.00 20.00     0.013 C 
HETATM    6  C6  UNL     1     -35.667   6.023   4.331  1.00 20.00     0.013 C 
ENDBRANCH   1   4
BRANCH   2   7
HETATM    7  C2  UNL     1     -32.346   7.131   3.351  1.00 20.00     0.265 C 
HETATM    8  O8  UNL     1     -32.199   7.656   2.254  1.00 20.00    -0.302 OA
ENDBRANCH   2   7
TORSDOF 2
ENDMDL
MODEL 2
REMARK VINA RESULT:      -4.0      1.702      3.679
REMARK  2 active torsions:
REMARK  status: ('A' for Active; 'I' for Inactive)
REMARK    1  A    between atoms: C1_1  and  C7_7 
REMARK    2  A    between atoms: C2_2  and  C3_3 
ROOT
HETATM    1  C1  UNL     1     -33.398   7.212   5.505  1.00 20.00    -0.013 C 
HETATM    2  C3  UNL     1     -34.274   6.192   5.527  1.00 20.00    -0.028 C 
HETATM    3  C4  UNL     1     -34.621   5.305   6.681  1.00 20.00     0.051 C 
ENDROOT
BRANCH   1   4
HETATM    4  C7  UNL     1     -33.052   8.096   4.330  1.00 20.00     0.000 C 
HETATM    5  C5  UNL     1     -32.234   9.299   4.803  1.00 20.00     0.013 C 
HETATM    6  C6  UNL     1     -32.273   7.297   3.285  1.00 20.00     0.013 C 
ENDBRANCH   1   4
BRANCH   2   7
HETATM    7  C2  UNL     1     -34.975   5.915   4.241  1.00 20.00     0.265 C 
HETATM    8  O8  UNL     1     -36.187   6.041   4.103  1.00 20.00    -0.302 OA
ENDBRANCH   2   7
TORSDOF 2
ENDMDL
MODEL 3
REMARK VINA RESULT:      -3.9      2.097      3.506
REMARK  2 active torsions:
REMARK  status: ('A' for Active; 'I' for Inactive)
REMARK    1  A    between atoms: C1_1  and  C7_7 
REMARK    2  A    between atoms: C2_2  and  C3_3 
ROOT
HETATM    1  C1  UNL     1     -32.829   7.048   3.852  1.00 20.00    -0.013 C 
HETATM    2  C3  UNL     1     -33.387   5.872   3.515  1.00 20.00    -0.028 C 
HETATM    3  C4  UNL     1     -32.907   4.887   2.497  1.00 20.00     0.051 C 
ENDROOT
BRANCH   1   4
HETATM    4  C7  UNL     1     -33.329   8.038   4.879  1.00 20.00     0.000 C 
HETATM    5  C5  UNL     1     -33.476   7.353   6.238  1.00 20.00     0.013 C 
HETATM    6  C6  UNL     1     -32.366   9.222   4.976  1.00 20.00     0.013 C 
ENDBRANCH   1   4
BRANCH   2   7
HETATM    7  C2  UNL     1     -34.638   5.518   4.245  1.00 20.00     0.265 C 
HETATM    8  O8  UNL     1     -34.771   4.473   4.872  1.00 20.00    -0.302 OA
ENDBRANCH   2   7
TORSDOF 2
ENDMDL
MODEL 4
REMARK VINA RESULT:      -3.8     12.016     12.712
REMARK  2 active torsions:
REMARK  status: ('A' for Active; 'I' for Inactive)
REMARK    1  A    between atoms: C1_1  and  C7_7 
REMARK    2  A    between atoms: C2_2  and  C3_3 
ROOT
HETATM    1  C1  UNL     1     -33.727  17.311  -1.688  1.00 20.00    -0.013 C 
HETATM    2  C3  UNL     1     -33.176  18.072  -0.726  1.00 20.00    -0.028 C 
HETATM    3  C4  UNL     1     -33.656  18.264   0.678  1.00 20.00     0.051 C 
ENDROOT
BRANCH   1   4
HETATM    4  C7  UNL     1     -33.235  17.131  -3.106  1.00 20.00     0.000 C 
HETATM    5  C5  UNL     1     -33.434  15.681  -3.548  1.00 20.00     0.013 C 
HETATM    6  C6  UNL     1     -33.979  18.084  -4.042  1.00 20.00     0.013 C 
ENDBRANCH   1   4
BRANCH   2   7
HETATM    7  C2  UNL     1     -31.944  18.814  -1.115  1.00 20.00     0.265 C 
HETATM    8  O8  UNL     1     -30.855  18.621  -0.586  1.00 20.00    -0.302 OA
ENDBRANCH   2   7
TORSDOF 2
ENDMDL
MODEL 5
REMARK VINA RESULT:      -3.8      0.668      1.416
REMARK  2 active torsions:
REMARK  status: ('A' for Active; 'I' for Inactive)
REMARK    1  A    between atoms: C1_1  and  C7_7 
REMARK    2  A    between atoms: C2_2  and  C3_3 
ROOT
HETATM    1  C1  UNL     1     -33.934   7.406   5.875  1.00 20.00    -0.013 C 
HETATM    2  C3  UNL     1     -33.081   7.768   4.901  1.00 20.00    -0.028 C 
HETATM    3  C4  UNL     1     -32.259   9.016   4.819  1.00 20.00     0.051 C 
ENDROOT
BRANCH   1   4
HETATM    4  C7  UNL     1     -34.763   6.145   5.942  1.00 20.00     0.000 C 
HETATM    5  C5  UNL     1     -35.371   5.844   4.572  1.00 20.00     0.013 C 
HETATM    6  C6  UNL     1     -33.899   4.975   6.414  1.00 20.00     0.013 C 
ENDBRANCH   1   4
BRANCH   2   7
HETATM    7  C2  UNL     1     -32.948   6.809   3.768  1.00 20.00     0.265 C 
HETATM    8  O8  UNL     1     -32.261   7.037   2.779  1.00 20.00    -0.302 OA
ENDBRANCH   2   7
TORSDOF 2
ENDMDL
MODEL 6
REMARK VINA RESULT:      -3.6      1.433      3.591
REMARK  2 active torsions:
REMARK  status: ('A' for Active; 'I' for Inactive)
REMARK    1  A    between atoms: C1_1  and  C7_7 
REMARK    2  A    between atoms: C2_2  and  C3_3 
ROOT
HETATM    1  C1  UNL     1     -33.736   7.417   4.555  1.00 20.00    -0.013 C 
HETATM    2  C3  UNL     1     -34.103   6.137   4.372  1.00 20.00    -0.028 C 
HETATM    3  C4  UNL     1     -35.355   5.466   4.841  1.00 20.00     0.051 C 
ENDROOT
BRANCH   1   4
HETATM    4  C7  UNL     1     -32.464   8.082   4.081  1.00 20.00     0.000 C 
HETATM    5  C5  UNL     1     -32.672   8.678   2.689  1.00 20.00     0.013 C 
HETATM    6  C6  UNL     1     -32.041   9.167   5.072  1.00 20.00     0.013 C 
ENDBRANCH   1   4
BRANCH   2   7
HETATM    7  C2  UNL     1     -33.138   5.290   3.615  1.00 20.00     0.265 C 
HETATM    8  O8  UNL     1     -33.177   5.162   2.396  1.00 20.00    -0.302 OA
ENDBRANCH   2   7
TORSDOF 2
ENDMDL
MODEL 7
REMARK VINA RESULT:      -3.5      9.368     10.179
REMARK  2 active torsions:
REMARK  status: ('A' for Active; 'I' for Inactive)
REMARK    1  A    between atoms: C1_1  and  C7_7 
REMARK    2  A    between atoms: C2_2  and  C3_3 
ROOT
HETATM    1  C1  UNL     1     -40.724  13.167   5.236  1.00 20.00    -0.013 C 
HETATM    2  C3  UNL     1     -41.878  13.458   5.861  1.00 20.00    -0.028 C 
HETATM    3  C4  UNL     1     -42.700  14.702   5.739  1.00 20.00     0.051 C 
ENDROOT
BRANCH   1   4
HETATM    4  C7  UNL     1     -39.900  11.908   5.373  1.00 20.00     0.000 C 
HETATM    5  C5  UNL     1     -39.171  11.614   4.062  1.00 20.00     0.013 C 
HETATM    6  C6  UNL     1     -38.900  12.060   6.520  1.00 20.00     0.013 C 
ENDBRANCH   1   4
BRANCH   2   7
HETATM    7  C2  UNL     1     -42.391  12.411   6.790  1.00 20.00     0.265 C 
HETATM    8  O8  UNL     1     -42.401  12.548   8.008  1.00 20.00    -0.302 OA
ENDBRANCH   2   7
TORSDOF 2
ENDMDL
MODEL 8
REMARK VINA RESULT:      -3.5      1.413      2.192
REMARK  2 active torsions:
REMARK  status: ('A' for Active; 'I' for Inactive)
REMARK    1  A    between atoms: C1_1  and  C7_7 
REMARK    2  A    between atoms: C2_2  and  C3_3 
ROOT
HETATM    1  C1  UNL     1     -33.577   6.280   4.063  1.00 20.00    -0.013 C 
HETATM    2  C3  UNL     1     -32.807   7.356   3.822  1.00 20.00    -0.028 C 
HETATM    3  C4  UNL     1     -31.695   7.485   2.831  1.00 20.00     0.051 C 
ENDROOT
BRANCH   1   4
HETATM    4  C7  UNL     1     -34.694   6.162   5.074  1.00 20.00     0.000 C 
HETATM    5  C5  UNL     1     -35.999   5.790   4.369  1.00 20.00     0.013 C 
HETATM    6  C6  UNL     1     -34.336   5.114   6.128  1.00 20.00     0.013 C 
ENDBRANCH   1   4
BRANCH   2   7
HETATM    7  C2  UNL     1     -33.101   8.560   4.651  1.00 20.00     0.265 C 
HETATM    8  O8  UNL     1     -32.225   9.242   5.170  1.00 20.00    -0.302 OA
ENDBRANCH   2   7
TORSDOF 2
ENDMDL
MODEL 9
REMARK VINA RESULT:      -3.5     12.224     12.897
REMARK  2 active torsions:
REMARK  status: ('A' for Active; 'I' for Inactive)
REMARK    1  A    between atoms: C1_1  and  C7_7 
REMARK    2  A    between atoms: C2_2  and  C3_3 
ROOT
HETATM    1  C1  UNL     1     -33.307  16.977  -1.698  1.00 20.00    -0.013 C 
HETATM    2  C3  UNL     1     -33.408  16.849  -3.032  1.00 20.00    -0.028 C 
HETATM    3  C4  UNL     1     -33.570  15.590  -3.823  1.00 20.00     0.051 C 
ENDROOT
BRANCH   1   4
HETATM    4  C7  UNL     1     -33.136  18.255  -0.911  1.00 20.00     0.000 C 
HETATM    5  C5  UNL     1     -33.925  18.174   0.397  1.00 20.00     0.013 C 
HETATM    6  C6  UNL     1     -31.654  18.501  -0.628  1.00 20.00     0.013 C 
ENDBRANCH   1   4
BRANCH   2   7
HETATM    7  C2  UNL     1     -33.344  18.119  -3.809  1.00 20.00     0.265 C 
HETATM    8  O8  UNL     1     -34.059  18.343  -4.780  1.00 20.00    -0.302 OA
ENDBRANCH   2   7
TORSDOF 2
ENDMDL
