MODEL 1
REMARK VINA RESULT:      -3.4      0.000      0.000
REMARK  2 active torsions:
REMARK  status: ('A' for Active; 'I' for Inactive)
REMARK    1  A    between atoms: C3_3  and  C4_4 
REMARK    2  A    between atoms: C3_3  and  O6_6 
ROOT
HETATM    1  C1  UNL     1     -33.723   5.586   3.737  1.00 20.00     0.081 C 
HETATM    2  C4  UNL     1     -34.481   6.123   4.872  1.00 20.00     0.212 C 
HETATM    3  N5  UNL     1     -33.127   5.158   2.838  1.00 20.00    -0.196 NA
HETATM    4 CL7  UNL     1     -34.556   4.867   6.138  1.00 20.00    -0.107 Cl
ENDROOT
BRANCH   2   5
HETATM    5  C3  UNL     1     -33.867   7.407   5.421  1.00 20.00     0.202 C 
BRANCH   5   6
HETATM    6  O6  UNL     1     -33.477   8.280   4.367  1.00 20.00    -0.394 OA
HETATM    7  C2  UNL     1     -32.187   8.829   4.597  1.00 20.00     0.201 C 
ENDBRANCH   5   6
ENDBRANCH   2   5
TORSDOF 2
ENDMDL
MODEL 2
REMARK VINA RESULT:      -3.3      1.871      1.884
REMARK  2 active torsions:
REMARK  status: ('A' for Active; 'I' for Inactive)
REMARK    1  A    between atoms: C3_3  and  C4_4 
REMARK    2  A    between atoms: C3_3  and  O6_6 
ROOT
HETATM    1  C1  UNL     1     -34.218   5.390   4.588  1.00 20.00     0.081 C 
HETATM    2  C4  UNL     1     -34.219   6.827   4.882  1.00 20.00     0.212 C 
HETATM    3  N5  UNL     1     -34.222   4.253   4.357  1.00 20.00    -0.196 NA
HETATM    4 CL7  UNL     1     -34.288   7.036   6.652  1.00 20.00    -0.107 Cl
ENDROOT
BRANCH   2   5
HETATM    5  C3  UNL     1     -32.998   7.536   4.302  1.00 20.00     0.202 C 
BRANCH   5   6
HETATM    6  O6  UNL     1     -32.496   6.844   3.165  1.00 20.00    -0.394 OA
HETATM    7  C2  UNL     1     -32.190   7.739   2.104  1.00 20.00     0.201 C 
ENDBRANCH   5   6
ENDBRANCH   2   5
TORSDOF 2
ENDMDL
MODEL 3
REMARK VINA RESULT:      -3.2      2.529      2.979
REMARK  2 active torsions:
REMARK  status: ('A' for Active; 'I' for Inactive)
REMARK    1  A    between atoms: C3_3  and  C4_4 
REMARK    2  A    between atoms: C3_3  and  O6_6 
ROOT
HETATM    1  C1  UNL     1     -32.722   6.396   3.156  1.00 20.00     0.081 C 
HETATM    2  C4  UNL     1     -32.521   7.694   3.810  1.00 20.00     0.212 C 
HETATM    3  N5  UNL     1     -32.877   5.370   2.637  1.00 20.00    -0.196 NA
HETATM    4 CL7  UNL     1     -32.590   8.965   2.560  1.00 20.00    -0.107 Cl
ENDROOT
BRANCH   2   5
HETATM    5  C3  UNL     1     -33.551   7.955   4.904  1.00 20.00     0.202 C 
BRANCH   5   6
HETATM    6  O6  UNL     1     -33.289   7.161   6.055  1.00 20.00    -0.394 OA
HETATM    7  C2  UNL     1     -34.400   6.340   6.386  1.00 20.00     0.201 C 
ENDBRANCH   5   6
ENDBRANCH   2   5
TORSDOF 2
ENDMDL
MODEL 4
REMARK VINA RESULT:      -3.1     16.183     16.661
REMARK  2 active torsions:
REMARK  status: ('A' for Active; 'I' for Inactive)
REMARK    1  A    between atoms: C3_3  and  C4_4 
REMARK    2  A    between atoms: C3_3  and  O6_6 
ROOT
HETATM    1  C1  UNL     1     -22.237  17.528   8.743  1.00 20.00     0.081 C 
HETATM    2  C4  UNL     1     -22.956  18.147   9.862  1.00 20.00     0.212 C 
HETATM    3  N5  UNL     1     -21.667  17.043   7.857  1.00 20.00    -0.196 NA
HETATM    4 CL7  UNL     1     -24.178  19.262   9.193  1.00 20.00    -0.107 Cl
ENDROOT
BRANCH   2   5
HETATM    5  C3  UNL     1     -23.610  17.111  10.772  1.00 20.00     0.202 C 
BRANCH   5   6
HETATM    6  O6  UNL     1     -23.515  17.496  12.138  1.00 20.00    -0.394 OA
HETATM    7  C2  UNL     1     -22.516  18.488  12.331  1.00 20.00     0.201 C 
ENDBRANCH   5   6
ENDBRANCH   2   5
TORSDOF 2
ENDMDL
MODEL 5
REMARK VINA RESULT:      -3.0      2.886      3.542
REMARK  2 active torsions:
REMARK  status: ('A' for Active; 'I' for Inactive)
REMARK    1  A    between atoms: C3_3  and  C4_4 
REMARK    2  A    between atoms: C3_3  and  O6_6 
ROOT
HETATM    1  C1  UNL     1     -33.870   7.302   5.684  1.00 20.00     0.081 C 
HETATM    2  C4  UNL     1     -33.339   8.004   4.511  1.00 20.00     0.212 C 
HETATM    3  N5  UNL     1     -34.292   6.750   6.614  1.00 20.00    -0.196 NA
HETATM    4 CL7  UNL     1     -32.144   9.204   5.071  1.00 20.00    -0.107 Cl
ENDROOT
BRANCH   2   5
HETATM    5  C3  UNL     1     -32.711   7.047   3.501  1.00 20.00     0.202 C 
BRANCH   5   6
HETATM    6  O6  UNL     1     -33.429   5.820   3.442  1.00 20.00    -0.394 OA
HETATM    7  C2  UNL     1     -32.888   4.948   2.459  1.00 20.00     0.201 C 
ENDBRANCH   5   6
ENDBRANCH   2   5
TORSDOF 2
ENDMDL
MODEL 6
REMARK VINA RESULT:      -3.0      2.604      3.195
REMARK  2 active torsions:
REMARK  status: ('A' for Active; 'I' for Inactive)
REMARK    1  A    between atoms: C3_3  and  C4_4 
REMARK    2  A    between atoms: C3_3  and  O6_6 
ROOT
HETATM    1  C1  UNL     1     -32.354   7.569   3.085  1.00 20.00     0.081 C 
HETATM    2  C4  UNL     1     -32.637   7.604   4.524  1.00 20.00     0.212 C 
HETATM    3  N5  UNL     1     -32.127   7.543   1.948  1.00 20.00    -0.196 NA
HETATM    4 CL7  UNL     1     -32.293   9.250   5.122  1.00 20.00    -0.107 Cl
ENDROOT
BRANCH   2   5
HETATM    5  C3  UNL     1     -34.076   7.204   4.840  1.00 20.00     0.202 C 
BRANCH   5   6
HETATM    6  O6  UNL     1     -34.208   6.797   6.196  1.00 20.00    -0.394 OA
HETATM    7  C2  UNL     1     -34.573   5.427   6.295  1.00 20.00     0.201 C 
ENDBRANCH   5   6
ENDBRANCH   2   5
TORSDOF 2
ENDMDL
MODEL 7
REMARK VINA RESULT:      -3.0      2.358      3.041
REMARK  2 active torsions:
REMARK  status: ('A' for Active; 'I' for Inactive)
REMARK    1  A    between atoms: C3_3  and  C4_4 
REMARK    2  A    between atoms: C3_3  and  O6_6 
ROOT
HETATM    1  C1  UNL     1     -32.875   7.948   4.786  1.00 20.00     0.081 C 
HETATM    2  C4  UNL     1     -33.479   6.715   5.302  1.00 20.00     0.212 C 
HETATM    3  N5  UNL     1     -32.394   8.924   4.382  1.00 20.00    -0.196 NA
HETATM    4 CL7  UNL     1     -34.380   7.114   6.789  1.00 20.00    -0.107 Cl
ENDROOT
BRANCH   2   5
HETATM    5  C3  UNL     1     -34.394   6.048   4.278  1.00 20.00     0.202 C 
BRANCH   5   6
HETATM    6  O6  UNL     1     -33.793   4.878   3.739  1.00 20.00    -0.394 OA
HETATM    7  C2  UNL     1     -32.948   5.186   2.638  1.00 20.00     0.201 C 
ENDBRANCH   5   6
ENDBRANCH   2   5
TORSDOF 2
ENDMDL
MODEL 8
REMARK VINA RESULT:      -2.9     12.590     13.020
REMARK  2 active torsions:
REMARK  status: ('A' for Active; 'I' for Inactive)
REMARK    1  A    between atoms: C3_3  and  C4_4 
REMARK    2  A    between atoms: C3_3  and  O6_6 
ROOT
HETATM    1  C1  UNL     1     -34.135  15.161  -6.515  1.00 20.00     0.081 C 
HETATM    2  C4  UNL     1     -34.735  15.209  -5.177  1.00 20.00     0.212 C 
HETATM    3  N5  UNL     1     -33.664  15.125  -7.575  1.00 20.00    -0.196 NA
HETATM    4 CL7  UNL     1     -36.138  14.107  -5.155  1.00 20.00    -0.107 Cl
ENDROOT
BRANCH   2   5
HETATM    5  C3  UNL     1     -33.738  14.837  -4.083  1.00 20.00     0.202 C 
BRANCH   5   6
HETATM    6  O6  UNL     1     -32.932  15.952  -3.724  1.00 20.00    -0.394 OA
HETATM    7  C2  UNL     1     -33.406  16.577  -2.540  1.00 20.00     0.201 C 
ENDBRANCH   5   6
ENDBRANCH   2   5
TORSDOF 2
ENDMDL
MODEL 9
REMARK VINA RESULT:      -2.9     12.880     13.269
REMARK  2 active torsions:
REMARK  status: ('A' for Active; 'I' for Inactive)
REMARK    1  A    between atoms: C3_3  and  C4_4 
REMARK    2  A    between atoms: C3_3  and  O6_6 
ROOT
HETATM    1  C1  UNL     1     -31.546  18.397  -0.636  1.00 20.00     0.081 C 
HETATM    2  C4  UNL     1     -32.769  17.832  -1.214  1.00 20.00     0.212 C 
HETATM    3  N5  UNL     1     -30.578  18.841  -0.174  1.00 20.00    -0.196 NA
HETATM    4 CL7  UNL     1     -34.085  18.011  -0.023  1.00 20.00    -0.107 Cl
ENDROOT
BRANCH   2   5
HETATM    5  C3  UNL     1     -33.143  18.496  -2.536  1.00 20.00     0.202 C 
BRANCH   5   6
HETATM    6  O6  UNL     1     -33.072  17.570  -3.613  1.00 20.00    -0.394 OA
HETATM    7  C2  UNL     1     -33.330  16.243  -3.176  1.00 20.00     0.201 C 
ENDBRANCH   5   6
ENDBRANCH   2   5
TORSDOF 2
ENDMDL
