MODEL 1
REMARK VINA RESULT:      -4.2      0.000      0.000
REMARK  1 active torsions:
REMARK  status: ('A' for Active; 'I' for Inactive)
REMARK    1  A    between atoms: C6_6  and  C8_8 
ROOT
HETATM    1  C1  UNL     1     -22.156  17.474   8.580  1.00 20.00     0.069 C 
HETATM    2  C2  UNL     1     -23.754  17.513  12.009  1.00 20.00     0.002 C 
HETATM    3  C3  UNL     1     -22.511  18.374  12.238  1.00 20.00     0.002 C 
HETATM    4  C4  UNL     1     -23.675  17.026  10.563  1.00 20.00     0.024 C 
HETATM    5  C5  UNL     1     -21.740  18.366  10.918  1.00 20.00     0.024 C 
HETATM    6  C6  UNL     1     -22.788  18.051   9.845  1.00 20.00     0.049 C 
HETATM    7  N9  UNL     1     -21.676  17.035   7.620  1.00 20.00    -0.196 NA
ENDROOT
BRANCH   6   8
HETATM    8  C8  UNL     1     -23.562  19.262   9.494  1.00 20.00     0.020 C 
HETATM    9  C7  UNL     1     -24.697  18.945   8.578  1.00 20.00     0.007 C 
ENDBRANCH   6   8
TORSDOF 1
ENDMDL
MODEL 2
REMARK VINA RESULT:      -3.8      2.007      3.527
REMARK  1 active torsions:
REMARK  status: ('A' for Active; 'I' for Inactive)
REMARK    1  A    between atoms: C6_6  and  C8_8 
ROOT
HETATM    1  C1  UNL     1     -24.143  16.764  11.296  1.00 20.00     0.069 C 
HETATM    2  C2  UNL     1     -22.401  18.522   8.435  1.00 20.00     0.002 C 
HETATM    3  C3  UNL     1     -23.738  19.263   8.484  1.00 20.00     0.002 C 
HETATM    4  C4  UNL     1     -22.482  17.425   9.495  1.00 20.00     0.024 C 
HETATM    5  C5  UNL     1     -24.564  18.577   9.572  1.00 20.00     0.024 C 
HETATM    6  C6  UNL     1     -23.535  17.915  10.496  1.00 20.00     0.049 C 
HETATM    7  N9  UNL     1     -24.604  15.890  11.903  1.00 20.00    -0.196 NA
ENDROOT
BRANCH   6   8
HETATM    8  C8  UNL     1     -22.953  18.904  11.430  1.00 20.00     0.020 C 
HETATM    9  C7  UNL     1     -21.927  18.285  12.320  1.00 20.00     0.007 C 
ENDBRANCH   6   8
TORSDOF 1
ENDMDL
MODEL 3
REMARK VINA RESULT:      -3.7     13.957     15.827
REMARK  1 active torsions:
REMARK  status: ('A' for Active; 'I' for Inactive)
REMARK    1  A    between atoms: C6_6  and  C8_8 
ROOT
HETATM    1  C1  UNL     1     -31.637  18.508  -0.901  1.00 20.00     0.069 C 
HETATM    2  C2  UNL     1     -33.822  18.477  -3.989  1.00 20.00     0.002 C 
HETATM    3  C3  UNL     1     -33.960  17.035  -3.499  1.00 20.00     0.002 C 
HETATM    4  C4  UNL     1     -32.834  19.156  -3.042  1.00 20.00     0.024 C 
HETATM    5  C5  UNL     1     -33.047  16.911  -2.280  1.00 20.00     0.024 C 
HETATM    6  C6  UNL     1     -32.899  18.341  -1.746  1.00 20.00     0.049 C 
HETATM    7  N9  UNL     1     -30.679  18.635  -0.260  1.00 20.00    -0.196 NA
ENDROOT
BRANCH   6   8
HETATM    8  C8  UNL     1     -34.079  18.726  -0.941  1.00 20.00     0.020 C 
HETATM    9  C7  UNL     1     -34.055  18.093   0.411  1.00 20.00     0.007 C 
ENDBRANCH   6   8
TORSDOF 1
ENDMDL
MODEL 4
REMARK VINA RESULT:      -3.7     14.238     15.951
REMARK  1 active torsions:
REMARK  status: ('A' for Active; 'I' for Inactive)
REMARK    1  A    between atoms: C6_6  and  C8_8 
ROOT
HETATM    1  C1  UNL     1     -34.977  18.551  -2.415  1.00 20.00     0.069 C 
HETATM    2  C2  UNL     1     -31.608  18.766  -0.708  1.00 20.00     0.002 C 
HETATM    3  C3  UNL     1     -32.509  18.321   0.444  1.00 20.00     0.002 C 
HETATM    4  C4  UNL     1     -32.524  18.964  -1.915  1.00 20.00     0.024 C 
HETATM    5  C5  UNL     1     -33.929  18.272  -0.121  1.00 20.00     0.024 C 
HETATM    6  C6  UNL     1     -33.750  18.087  -1.633  1.00 20.00     0.049 C 
HETATM    7  N9  UNL     1     -35.909  18.904  -3.009  1.00 20.00    -0.196 NA
ENDROOT
BRANCH   6   8
HETATM    8  C8  UNL     1     -33.470  16.672  -1.959  1.00 20.00     0.020 C 
HETATM    9  C7  UNL     1     -33.300  16.468  -3.428  1.00 20.00     0.007 C 
ENDBRANCH   6   8
TORSDOF 1
ENDMDL
MODEL 5
REMARK VINA RESULT:      -3.6     23.284     24.628
REMARK  1 active torsions:
REMARK  status: ('A' for Active; 'I' for Inactive)
REMARK    1  A    between atoms: C6_6  and  C8_8 
ROOT
HETATM    1  C1  UNL     1     -42.993   5.366  -0.795  1.00 20.00     0.069 C 
HETATM    2  C2  UNL     1     -40.415   7.537   0.923  1.00 20.00     0.002 C 
HETATM    3  C3  UNL     1     -41.147   8.558   0.052  1.00 20.00     0.002 C 
HETATM    4  C4  UNL     1     -41.038   6.179   0.603  1.00 20.00     0.024 C 
HETATM    5  C5  UNL     1     -42.178   7.768  -0.755  1.00 20.00     0.024 C 
HETATM    6  C6  UNL     1     -42.438   6.499   0.066  1.00 20.00     0.049 C 
HETATM    7  N9  UNL     1     -43.414   4.505  -1.449  1.00 20.00    -0.196 NA
ENDROOT
BRANCH   6   8
HETATM    8  C8  UNL     1     -43.378   6.774   1.175  1.00 20.00     0.020 C 
HETATM    9  C7  UNL     1     -43.417   5.649   2.155  1.00 20.00     0.007 C 
ENDBRANCH   6   8
TORSDOF 1
ENDMDL
MODEL 6
REMARK VINA RESULT:      -3.5     23.169     24.543
REMARK  1 active torsions:
REMARK  status: ('A' for Active; 'I' for Inactive)
REMARK    1  A    between atoms: C6_6  and  C8_8 
ROOT
HETATM    1  C1  UNL     1     -42.890   5.760   1.716  1.00 20.00     0.069 C 
HETATM    2  C2  UNL     1     -42.151   8.582  -0.692  1.00 20.00     0.002 C 
HETATM    3  C3  UNL     1     -40.807   8.424   0.021  1.00 20.00     0.002 C 
HETATM    4  C4  UNL     1     -43.105   7.591  -0.028  1.00 20.00     0.024 C 
HETATM    5  C5  UNL     1     -41.013   7.345   1.083  1.00 20.00     0.024 C 
HETATM    6  C6  UNL     1     -42.200   6.513   0.581  1.00 20.00     0.049 C 
HETATM    7  N9  UNL     1     -43.415   5.188   2.578  1.00 20.00    -0.196 NA
ENDROOT
BRANCH   6   8
HETATM    8  C8  UNL     1     -41.765   5.547  -0.452  1.00 20.00     0.020 C 
HETATM    9  C7  UNL     1     -42.929   4.944  -1.166  1.00 20.00     0.007 C 
ENDBRANCH   6   8
TORSDOF 1
ENDMDL
MODEL 7
REMARK VINA RESULT:      -3.5     13.680     15.245
REMARK  1 active torsions:
REMARK  status: ('A' for Active; 'I' for Inactive)
REMARK    1  A    between atoms: C6_6  and  C8_8 
ROOT
HETATM    1  C1  UNL     1     -33.286  16.927  -2.348  1.00 20.00     0.069 C 
HETATM    2  C2  UNL     1     -33.164  18.689   0.998  1.00 20.00     0.002 C 
HETATM    3  C3  UNL     1     -31.854  19.150   0.357  1.00 20.00     0.002 C 
HETATM    4  C4  UNL     1     -33.801  17.713   0.009  1.00 20.00     0.024 C 
HETATM    5  C5  UNL     1     -31.762  18.431  -0.988  1.00 20.00     0.024 C 
HETATM    6  C6  UNL     1     -33.210  18.086  -1.356  1.00 20.00     0.049 C 
HETATM    7  N9  UNL     1     -33.345  16.046  -3.101  1.00 20.00    -0.196 NA
ENDROOT
BRANCH   6   8
HETATM    8  C8  UNL     1     -33.903  19.262  -1.926  1.00 20.00     0.020 C 
HETATM    9  C7  UNL     1     -35.364  19.011  -2.099  1.00 20.00     0.007 C 
ENDBRANCH   6   8
TORSDOF 1
ENDMDL
MODEL 8
REMARK VINA RESULT:      -3.4     15.501     16.486
REMARK  1 active torsions:
REMARK  status: ('A' for Active; 'I' for Inactive)
REMARK    1  A    between atoms: C6_6  and  C8_8 
ROOT
HETATM    1  C1  UNL     1     -32.754   8.341   4.855  1.00 20.00     0.069 C 
HETATM    2  C2  UNL     1     -34.639   5.172   5.702  1.00 20.00     0.002 C 
HETATM    3  C3  UNL     1     -35.556   5.807   4.656  1.00 20.00     0.002 C 
HETATM    4  C4  UNL     1     -33.493   6.159   5.919  1.00 20.00     0.024 C 
HETATM    5  C5  UNL     1     -34.921   7.148   4.291  1.00 20.00     0.024 C 
HETATM    6  C6  UNL     1     -33.435   6.992   4.633  1.00 20.00     0.049 C 
HETATM    7  N9  UNL     1     -32.237   9.366   5.024  1.00 20.00    -0.196 NA
ENDROOT
BRANCH   6   8
HETATM    8  C8  UNL     1     -32.724   6.258   3.563  1.00 20.00     0.020 C 
HETATM    9  C7  UNL     1     -32.245   7.176   2.489  1.00 20.00     0.007 C 
ENDBRANCH   6   8
TORSDOF 1
ENDMDL
MODEL 9
REMARK VINA RESULT:      -3.4     23.671     24.919
REMARK  1 active torsions:
REMARK  status: ('A' for Active; 'I' for Inactive)
REMARK    1  A    between atoms: C6_6  and  C8_8 
ROOT
HETATM    1  C1  UNL     1     -43.126   8.067  -0.038  1.00 20.00     0.069 C 
HETATM    2  C2  UNL     1     -43.417   5.056   2.234  1.00 20.00     0.002 C 
HETATM    3  C3  UNL     1     -43.332   4.397   0.857  1.00 20.00     0.002 C 
HETATM    4  C4  UNL     1     -43.416   6.564   1.986  1.00 20.00     0.024 C 
HETATM    5  C5  UNL     1     -43.285   5.538  -0.159  1.00 20.00     0.024 C 
HETATM    6  C6  UNL     1     -42.743   6.742   0.620  1.00 20.00     0.049 C 
HETATM    7  N9  UNL     1     -43.417   9.073  -0.537  1.00 20.00    -0.196 NA
ENDROOT
BRANCH   6   8
HETATM    8  C8  UNL     1     -41.271   6.668   0.745  1.00 20.00     0.020 C 
HETATM    9  C7  UNL     1     -40.652   5.976  -0.423  1.00 20.00     0.007 C 
ENDBRANCH   6   8
TORSDOF 1
ENDMDL
