MODEL 1
REMARK VINA RESULT:      -3.8      0.000      0.000
REMARK  2 active torsions:
REMARK  status: ('A' for Active; 'I' for Inactive)
REMARK    1  A    between atoms: C3_3  and  C4_4 
REMARK    2  A    between atoms: C5_5  and  C6_6 
ROOT
HETATM    1  C1  UNL     1     -31.041  18.930   0.223  1.00 20.00     0.087 C 
HETATM    2  C2  UNL     1     -31.778  18.525  -0.922  1.00 20.00     0.093 C 
HETATM    3  C3  UNL     1     -32.922  17.836  -0.812  1.00 20.00     0.011 C 
HETATM    4  N7  UNL     1     -30.436  19.262   1.157  1.00 20.00    -0.192 NA
ENDROOT
BRANCH   3   5
HETATM    5  C4  UNL     1     -33.696  17.408  -1.956  1.00 20.00    -0.002 C 
HETATM    6  C5  UNL     1     -33.212  16.597  -2.909  1.00 20.00    -0.012 C 
BRANCH   6   7
HETATM    7  C6  UNL     1     -34.009  16.144  -4.088  1.00 20.00     0.141 C 
HETATM    8 CL8  UNL     1     -34.150  14.373  -4.080  1.00 20.00    -0.126 Cl
ENDBRANCH   6   7
ENDBRANCH   3   5
TORSDOF 2
ENDMDL
MODEL 2
REMARK VINA RESULT:      -3.8      4.251      5.592
REMARK  2 active torsions:
REMARK  status: ('A' for Active; 'I' for Inactive)
REMARK    1  A    between atoms: C3_3  and  C4_4 
REMARK    2  A    between atoms: C5_5  and  C6_6 
ROOT
HETATM    1  C1  UNL     1     -33.953  15.066  -5.542  1.00 20.00     0.087 C 
HETATM    2  C2  UNL     1     -33.590  15.278  -4.185  1.00 20.00     0.093 C 
HETATM    3  C3  UNL     1     -33.677  16.488  -3.617  1.00 20.00     0.011 C 
HETATM    4  N7  UNL     1     -34.248  14.890  -6.651  1.00 20.00    -0.192 NA
ENDROOT
BRANCH   3   5
HETATM    5  C4  UNL     1     -33.316  16.739  -2.239  1.00 20.00    -0.002 C 
HETATM    6  C5  UNL     1     -33.542  17.908  -1.621  1.00 20.00    -0.012 C 
BRANCH   6   7
HETATM    7  C6  UNL     1     -33.180  18.170  -0.196  1.00 20.00     0.141 C 
HETATM    8 CL8  UNL     1     -31.429  18.439  -0.055  1.00 20.00    -0.126 Cl
ENDBRANCH   6   7
ENDBRANCH   3   5
TORSDOF 2
ENDMDL
MODEL 3
REMARK VINA RESULT:      -3.7     11.293     11.746
REMARK  2 active torsions:
REMARK  status: ('A' for Active; 'I' for Inactive)
REMARK    1  A    between atoms: C3_3  and  C4_4 
REMARK    2  A    between atoms: C5_5  and  C6_6 
ROOT
HETATM    1  C1  UNL     1     -32.483   8.828   1.053  1.00 20.00     0.087 C 
HETATM    2  C2  UNL     1     -32.532   8.097   2.270  1.00 20.00     0.093 C 
HETATM    3  C3  UNL     1     -32.640   8.714   3.454  1.00 20.00     0.011 C 
HETATM    4  N7  UNL     1     -32.442   9.422   0.056  1.00 20.00    -0.192 NA
ENDROOT
BRANCH   3   5
HETATM    5  C4  UNL     1     -32.692   8.001   4.711  1.00 20.00    -0.002 C 
HETATM    6  C5  UNL     1     -33.826   7.508   5.230  1.00 20.00    -0.012 C 
BRANCH   6   7
HETATM    7  C6  UNL     1     -33.886   6.763   6.523  1.00 20.00     0.141 C 
HETATM    8 CL8  UNL     1     -34.639   5.173   6.273  1.00 20.00    -0.126 Cl
ENDBRANCH   6   7
ENDBRANCH   3   5
TORSDOF 2
ENDMDL
MODEL 4
REMARK VINA RESULT:      -3.7      2.085      2.940
REMARK  2 active torsions:
REMARK  status: ('A' for Active; 'I' for Inactive)
REMARK    1  A    between atoms: C3_3  and  C4_4 
REMARK    2  A    between atoms: C5_5  and  C6_6 
ROOT
HETATM    1  C1  UNL     1     -29.823  18.636   2.767  1.00 20.00     0.087 C 
HETATM    2  C2  UNL     1     -30.753  18.249   1.765  1.00 20.00     0.093 C 
HETATM    3  C3  UNL     1     -30.837  18.904   0.598  1.00 20.00     0.011 C 
HETATM    4  N7  UNL     1     -29.065  18.948   3.589  1.00 20.00    -0.192 NA
ENDROOT
BRANCH   3   5
HETATM    5  C4  UNL     1     -31.771  18.538  -0.443  1.00 20.00    -0.002 C 
HETATM    6  C5  UNL     1     -33.073  18.310  -0.215  1.00 20.00    -0.012 C 
BRANCH   6   7
HETATM    7  C6  UNL     1     -34.045  17.941  -1.288  1.00 20.00     0.141 C 
HETATM    8 CL8  UNL     1     -33.406  16.587  -2.245  1.00 20.00    -0.126 Cl
ENDBRANCH   6   7
ENDBRANCH   3   5
TORSDOF 2
ENDMDL
MODEL 5
REMARK VINA RESULT:      -3.7      2.682      3.749
REMARK  2 active torsions:
REMARK  status: ('A' for Active; 'I' for Inactive)
REMARK    1  A    between atoms: C3_3  and  C4_4 
REMARK    2  A    between atoms: C5_5  and  C6_6 
ROOT
HETATM    1  C1  UNL     1     -28.831  18.874   3.332  1.00 20.00     0.087 C 
HETATM    2  C2  UNL     1     -29.794  19.164   2.329  1.00 20.00     0.093 C 
HETATM    3  C3  UNL     1     -30.641  18.228   1.879  1.00 20.00     0.011 C 
HETATM    4  N7  UNL     1     -28.043  18.641   4.152  1.00 20.00    -0.192 NA
ENDROOT
BRANCH   3   5
HETATM    5  C4  UNL     1     -31.633  18.488   0.859  1.00 20.00    -0.002 C 
HETATM    6  C5  UNL     1     -31.366  18.437  -0.455  1.00 20.00    -0.012 C 
BRANCH   6   7
HETATM    7  C6  UNL     1     -32.387  18.696  -1.513  1.00 20.00     0.141 C 
HETATM    8 CL8  UNL     1     -33.221  17.184  -1.933  1.00 20.00    -0.126 Cl
ENDBRANCH   6   7
ENDBRANCH   3   5
TORSDOF 2
ENDMDL
MODEL 6
REMARK VINA RESULT:      -3.7      3.958      5.188
REMARK  2 active torsions:
REMARK  status: ('A' for Active; 'I' for Inactive)
REMARK    1  A    between atoms: C3_3  and  C4_4 
REMARK    2  A    between atoms: C5_5  and  C6_6 
ROOT
HETATM    1  C1  UNL     1     -33.604  15.680  -3.857  1.00 20.00     0.087 C 
HETATM    2  C2  UNL     1     -33.027  16.562  -2.904  1.00 20.00     0.093 C 
HETATM    3  C3  UNL     1     -33.721  16.998  -1.844  1.00 20.00     0.011 C 
HETATM    4  N7  UNL     1     -34.072  14.960  -4.638  1.00 20.00    -0.192 NA
ENDROOT
BRANCH   3   5
HETATM    5  C4  UNL     1     -33.166  17.896  -0.855  1.00 20.00    -0.002 C 
HETATM    6  C5  UNL     1     -31.876  18.265  -0.840  1.00 20.00    -0.012 C 
BRANCH   6   7
HETATM    7  C6  UNL     1     -31.299  19.199   0.172  1.00 20.00     0.141 C 
HETATM    8 CL8  UNL     1     -30.705  18.281   1.573  1.00 20.00    -0.126 Cl
ENDBRANCH   6   7
ENDBRANCH   3   5
TORSDOF 2
ENDMDL
MODEL 7
REMARK VINA RESULT:      -3.7     11.557     11.850
REMARK  2 active torsions:
REMARK  status: ('A' for Active; 'I' for Inactive)
REMARK    1  A    between atoms: C3_3  and  C4_4 
REMARK    2  A    between atoms: C5_5  and  C6_6 
ROOT
HETATM    1  C1  UNL     1     -34.444   5.973   5.742  1.00 20.00     0.087 C 
HETATM    2  C2  UNL     1     -34.000   6.626   4.561  1.00 20.00     0.093 C 
HETATM    3  C3  UNL     1     -33.017   7.535   4.591  1.00 20.00     0.011 C 
HETATM    4  N7  UNL     1     -34.810   5.438   6.706  1.00 20.00    -0.192 NA
ENDROOT
BRANCH   3   5
HETATM    5  C4  UNL     1     -32.540   8.218   3.408  1.00 20.00    -0.002 C 
HETATM    6  C5  UNL     1     -32.344   7.602   2.233  1.00 20.00    -0.012 C 
BRANCH   6   7
HETATM    7  C6  UNL     1     -31.861   8.303   1.006  1.00 20.00     0.141 C 
HETATM    8 CL8  UNL     1     -32.862   9.738   0.695  1.00 20.00    -0.126 Cl
ENDBRANCH   6   7
ENDBRANCH   3   5
TORSDOF 2
ENDMDL
MODEL 8
REMARK VINA RESULT:      -3.6      4.433      5.930
REMARK  2 active torsions:
REMARK  status: ('A' for Active; 'I' for Inactive)
REMARK    1  A    between atoms: C3_3  and  C4_4 
REMARK    2  A    between atoms: C5_5  and  C6_6 
ROOT
HETATM    1  C1  UNL     1     -27.418  18.527   4.906  1.00 20.00     0.087 C 
HETATM    2  C2  UNL     1     -28.131  18.548   3.677  1.00 20.00     0.093 C 
HETATM    3  C3  UNL     1     -29.402  18.967   3.612  1.00 20.00     0.011 C 
HETATM    4  N7  UNL     1     -26.833  18.508   5.908  1.00 20.00    -0.192 NA
ENDROOT
BRANCH   3   5
HETATM    5  C4  UNL     1     -30.157  19.001   2.379  1.00 20.00    -0.002 C 
HETATM    6  C5  UNL     1     -31.423  18.567   2.280  1.00 20.00    -0.012 C 
BRANCH   6   7
HETATM    7  C6  UNL     1     -32.211  18.608   1.012  1.00 20.00     0.141 C 
HETATM    8 CL8  UNL     1     -31.127  18.407  -0.382  1.00 20.00    -0.126 Cl
ENDBRANCH   6   7
ENDBRANCH   3   5
TORSDOF 2
ENDMDL
MODEL 9
REMARK VINA RESULT:      -3.6      4.518      6.095
REMARK  2 active torsions:
REMARK  status: ('A' for Active; 'I' for Inactive)
REMARK    1  A    between atoms: C3_3  and  C4_4 
REMARK    2  A    between atoms: C5_5  and  C6_6 
ROOT
HETATM    1  C1  UNL     1     -35.524  14.942  -6.271  1.00 20.00     0.087 C 
HETATM    2  C2  UNL     1     -34.952  15.657  -5.186  1.00 20.00     0.093 C 
HETATM    3  C3  UNL     1     -33.949  15.145  -4.460  1.00 20.00     0.011 C 
HETATM    4  N7  UNL     1     -35.995  14.360  -7.159  1.00 20.00    -0.192 NA
ENDROOT
BRANCH   3   5
HETATM    5  C4  UNL     1     -33.344  15.845  -3.348  1.00 20.00    -0.002 C 
HETATM    6  C5  UNL     1     -33.462  17.168  -3.162  1.00 20.00    -0.012 C 
BRANCH   6   7
HETATM    7  C6  UNL     1     -32.848  17.896  -2.012  1.00 20.00     0.141 C 
HETATM    8 CL8  UNL     1     -33.804  17.620  -0.540  1.00 20.00    -0.126 Cl
ENDBRANCH   6   7
ENDBRANCH   3   5
TORSDOF 2
ENDMDL
