MODEL 1
REMARK VINA RESULT:      -4.6      0.000      0.000
REMARK  2 active torsions:
REMARK  status: ('A' for Active; 'I' for Inactive)
REMARK    1  A    between atoms: C1_1  and  C2_2 
REMARK    2  A    between atoms: C3_3  and  C7_7 
ROOT
HETATM    1  C1  UNL     1     -33.207   7.888   5.169  1.00 20.00     0.061 C 
HETATM    2  C3  UNL     1     -33.446   6.765   4.467  1.00 20.00     0.022 C 
HETATM    3 CL9  UNL     1     -32.586   6.457   2.973  1.00 20.00    -0.088 Cl
ENDROOT
BRANCH   2   4
HETATM    4  C7  UNL     1     -34.451   5.667   4.868  1.00 20.00    -0.013 C 
HETATM    5  C4  UNL     1     -33.983   4.293   4.341  1.00 20.00     0.020 C 
HETATM    6  C5  UNL     1     -34.622   5.527   6.401  1.00 20.00     0.020 C 
HETATM    7  C6  UNL     1     -35.848   5.984   4.290  1.00 20.00     0.020 C 
ENDBRANCH   2   4
BRANCH   1   8
HETATM    8  C2  UNL     1     -32.243   8.950   4.792  1.00 20.00     0.260 C 
HETATM    9  O8  UNL     1     -32.339   9.559   3.733  1.00 20.00    -0.302 OA
ENDBRANCH   1   8
TORSDOF 2
ENDMDL
MODEL 2
REMARK VINA RESULT:      -4.6      0.056      1.434
REMARK  2 active torsions:
REMARK  status: ('A' for Active; 'I' for Inactive)
REMARK    1  A    between atoms: C1_1  and  C2_2 
REMARK    2  A    between atoms: C3_3  and  C7_7 
ROOT
HETATM    1  C1  UNL     1     -33.192   7.916   5.187  1.00 20.00     0.061 C 
HETATM    2  C3  UNL     1     -33.440   6.799   4.479  1.00 20.00     0.022 C 
HETATM    3 CL9  UNL     1     -32.600   6.504   2.971  1.00 20.00    -0.088 Cl
ENDROOT
BRANCH   2   4
HETATM    4  C7  UNL     1     -34.440   5.698   4.884  1.00 20.00    -0.013 C 
HETATM    5  C4  UNL     1     -35.830   5.987   4.276  1.00 20.00     0.020 C 
HETATM    6  C5  UNL     1     -34.023   4.287   4.402  1.00 20.00     0.020 C 
HETATM    7  C6  UNL     1     -34.564   5.627   6.421  1.00 20.00     0.020 C 
ENDBRANCH   2   4
BRANCH   1   8
HETATM    8  C2  UNL     1     -32.232   8.981   4.807  1.00 20.00     0.260 C 
HETATM    9  O8  UNL     1     -32.334   9.590   3.747  1.00 20.00    -0.302 OA
ENDBRANCH   1   8
TORSDOF 2
ENDMDL
MODEL 3
REMARK VINA RESULT:      -4.3      1.716      2.300
REMARK  2 active torsions:
REMARK  status: ('A' for Active; 'I' for Inactive)
REMARK    1  A    between atoms: C1_1  and  C2_2 
REMARK    2  A    between atoms: C3_3  and  C7_7 
ROOT
HETATM    1  C1  UNL     1     -32.816   6.714   3.112  1.00 20.00     0.061 C 
HETATM    2  C3  UNL     1     -33.485   6.858   4.270  1.00 20.00     0.022 C 
HETATM    3 CL9  UNL     1     -33.348   8.341   5.192  1.00 20.00    -0.088 Cl
ENDROOT
BRANCH   2   4
HETATM    4  C7  UNL     1     -34.407   5.794   4.898  1.00 20.00    -0.013 C 
HETATM    5  C4  UNL     1     -35.845   5.942   4.354  1.00 20.00     0.020 C 
HETATM    6  C5  UNL     1     -33.959   4.344   4.596  1.00 20.00     0.020 C 
HETATM    7  C6  UNL     1     -34.429   5.945   6.435  1.00 20.00     0.020 C 
ENDBRANCH   2   4
BRANCH   1   8
HETATM    8  C2  UNL     1     -31.926   7.731   2.500  1.00 20.00     0.260 C 
HETATM    9  O8  UNL     1     -32.062   8.085   1.334  1.00 20.00    -0.302 OA
ENDBRANCH   1   8
TORSDOF 2
ENDMDL
MODEL 4
REMARK VINA RESULT:      -4.3      1.708      1.820
REMARK  2 active torsions:
REMARK  status: ('A' for Active; 'I' for Inactive)
REMARK    1  A    between atoms: C1_1  and  C2_2 
REMARK    2  A    between atoms: C3_3  and  C7_7 
ROOT
HETATM    1  C1  UNL     1     -32.818   6.705   3.107  1.00 20.00     0.061 C 
HETATM    2  C3  UNL     1     -33.484   6.840   4.269  1.00 20.00     0.022 C 
HETATM    3 CL9  UNL     1     -33.335   8.312   5.206  1.00 20.00    -0.088 Cl
ENDROOT
BRANCH   2   4
HETATM    4  C7  UNL     1     -34.410   5.774   4.888  1.00 20.00    -0.013 C 
HETATM    5  C4  UNL     1     -33.910   4.358   4.532  1.00 20.00     0.020 C 
HETATM    6  C5  UNL     1     -34.481   5.851   6.432  1.00 20.00     0.020 C 
HETATM    7  C6  UNL     1     -35.852   5.950   4.364  1.00 20.00     0.020 C 
ENDBRANCH   2   4
BRANCH   1   8
HETATM    8  C2  UNL     1     -31.925   7.723   2.504  1.00 20.00     0.260 C 
HETATM    9  O8  UNL     1     -32.062   8.091   1.342  1.00 20.00    -0.302 OA
ENDBRANCH   1   8
TORSDOF 2
ENDMDL
MODEL 5
REMARK VINA RESULT:      -4.3      1.719      2.343
REMARK  2 active torsions:
REMARK  status: ('A' for Active; 'I' for Inactive)
REMARK    1  A    between atoms: C1_1  and  C2_2 
REMARK    2  A    between atoms: C3_3  and  C7_7 
ROOT
HETATM    1  C1  UNL     1     -32.799   6.686   3.095  1.00 20.00     0.061 C 
HETATM    2  C3  UNL     1     -33.465   6.846   4.253  1.00 20.00     0.022 C 
HETATM    3 CL9  UNL     1     -33.302   8.329   5.169  1.00 20.00    -0.088 Cl
ENDROOT
BRANCH   2   4
HETATM    4  C7  UNL     1     -34.405   5.800   4.886  1.00 20.00    -0.013 C 
HETATM    5  C4  UNL     1     -34.446   5.974   6.419  1.00 20.00     0.020 C 
HETATM    6  C5  UNL     1     -35.864   5.907   4.382  1.00 20.00     0.020 C 
HETATM    7  C6  UNL     1     -33.920   4.373   4.550  1.00 20.00     0.020 C 
ENDBRANCH   2   4
BRANCH   1   8
HETATM    8  C2  UNL     1     -31.893   7.685   2.478  1.00 20.00     0.260 C 
HETATM    9  O8  UNL     1     -32.067   8.091   1.335  1.00 20.00    -0.302 OA
ENDBRANCH   1   8
TORSDOF 2
ENDMDL
MODEL 6
REMARK VINA RESULT:      -3.6     15.634     16.679
REMARK  2 active torsions:
REMARK  status: ('A' for Active; 'I' for Inactive)
REMARK    1  A    between atoms: C1_1  and  C2_2 
REMARK    2  A    between atoms: C3_3  and  C7_7 
ROOT
HETATM    1  C1  UNL     1     -24.131  17.009  10.690  1.00 20.00     0.061 C 
HETATM    2  C3  UNL     1     -23.128  17.893  10.540  1.00 20.00     0.022 C 
HETATM    3 CL9  UNL     1     -22.413  18.663  11.940  1.00 20.00    -0.088 Cl
ENDROOT
BRANCH   2   4
HETATM    4  C7  UNL     1     -22.515  18.316   9.190  1.00 20.00    -0.013 C 
HETATM    5  C4  UNL     1     -23.558  19.074   8.341  1.00 20.00     0.020 C 
HETATM    6  C5  UNL     1     -21.293  19.253   9.342  1.00 20.00     0.020 C 
HETATM    7  C6  UNL     1     -22.031  17.074   8.410  1.00 20.00     0.020 C 
ENDBRANCH   2   4
BRANCH   1   8
HETATM    8  C2  UNL     1     -24.729  16.596  11.983  1.00 20.00     0.260 C 
HETATM    9  O8  UNL     1     -25.842  16.978  12.328  1.00 20.00    -0.302 OA
ENDBRANCH   1   8
TORSDOF 2
ENDMDL
MODEL 7
REMARK VINA RESULT:      -3.6     12.426     13.076
REMARK  2 active torsions:
REMARK  status: ('A' for Active; 'I' for Inactive)
REMARK    1  A    between atoms: C1_1  and  C2_2 
REMARK    2  A    between atoms: C3_3  and  C7_7 
ROOT
HETATM    1  C1  UNL     1     -31.555  18.529  -0.271  1.00 20.00     0.061 C 
HETATM    2  C3  UNL     1     -32.847  18.276  -0.552  1.00 20.00     0.022 C 
HETATM    3 CL9  UNL     1     -34.015  18.105   0.741  1.00 20.00    -0.088 Cl
ENDROOT
BRANCH   2   4
HETATM    4  C7  UNL     1     -33.429  18.115  -1.970  1.00 20.00    -0.013 C 
HETATM    5  C4  UNL     1     -32.661  19.007  -2.970  1.00 20.00     0.020 C 
HETATM    6  C5  UNL     1     -33.342  16.664  -2.504  1.00 20.00     0.020 C 
HETATM    7  C6  UNL     1     -34.922  18.507  -1.983  1.00 20.00     0.020 C 
ENDBRANCH   2   4
BRANCH   1   8
HETATM    8  C2  UNL     1     -30.984  18.685   1.089  1.00 20.00     0.260 C 
HETATM    9  O8  UNL     1     -29.919  19.263   1.276  1.00 20.00    -0.302 OA
ENDBRANCH   1   8
TORSDOF 2
ENDMDL
MODEL 8
REMARK VINA RESULT:      -3.4     12.387     13.334
REMARK  2 active torsions:
REMARK  status: ('A' for Active; 'I' for Inactive)
REMARK    1  A    between atoms: C1_1  and  C2_2 
REMARK    2  A    between atoms: C3_3  and  C7_7 
ROOT
HETATM    1  C1  UNL     1     -33.298  16.057  -3.277  1.00 20.00     0.061 C 
HETATM    2  C3  UNL     1     -34.005  17.201  -3.249  1.00 20.00     0.022 C 
HETATM    3 CL9  UNL     1     -35.155  17.560  -4.520  1.00 20.00    -0.088 Cl
ENDROOT
BRANCH   2   4
HETATM    4  C7  UNL     1     -33.898  18.282  -2.155  1.00 20.00    -0.013 C 
HETATM    5  C4  UNL     1     -35.188  19.128  -2.109  1.00 20.00     0.020 C 
HETATM    6  C5  UNL     1     -33.694  17.696  -0.737  1.00 20.00     0.020 C 
HETATM    7  C6  UNL     1     -32.693  19.208  -2.434  1.00 20.00     0.020 C 
ENDBRANCH   2   4
BRANCH   1   8
HETATM    8  C2  UNL     1     -33.393  15.011  -4.324  1.00 20.00     0.260 C 
HETATM    9  O8  UNL     1     -34.015  13.971  -4.139  1.00 20.00    -0.302 OA
ENDBRANCH   1   8
TORSDOF 2
ENDMDL
MODEL 9
REMARK VINA RESULT:      -3.4     12.566     13.734
REMARK  2 active torsions:
REMARK  status: ('A' for Active; 'I' for Inactive)
REMARK    1  A    between atoms: C1_1  and  C2_2 
REMARK    2  A    between atoms: C3_3  and  C7_7 
ROOT
HETATM    1  C1  UNL     1     -34.898  16.214  -5.515  1.00 20.00     0.061 C 
HETATM    2  C3  UNL     1     -34.064  16.323  -4.464  1.00 20.00     0.022 C 
HETATM    3 CL9  UNL     1     -32.895  15.063  -4.130  1.00 20.00    -0.088 Cl
ENDROOT
BRANCH   2   4
HETATM    4  C7  UNL     1     -34.034  17.507  -3.477  1.00 20.00    -0.013 C 
HETATM    5  C4  UNL     1     -33.575  17.030  -2.082  1.00 20.00     0.020 C 
HETATM    6  C5  UNL     1     -33.066  18.636  -3.907  1.00 20.00     0.020 C 
HETATM    7  C6  UNL     1     -35.437  18.142  -3.360  1.00 20.00     0.020 C 
ENDBRANCH   2   4
BRANCH   1   8
HETATM    8  C2  UNL     1     -34.936  15.081  -6.470  1.00 20.00     0.260 C 
HETATM    9  O8  UNL     1     -35.932  14.376  -6.591  1.00 20.00    -0.302 OA
ENDBRANCH   1   8
TORSDOF 2
ENDMDL
