MODEL 1
REMARK VINA RESULT:      -4.1      0.000      0.000
REMARK  3 active torsions:
REMARK  status: ('A' for Active; 'I' for Inactive)
REMARK    1  A    between atoms: C6_6  and  C7_7 
REMARK    2  A    between atoms: C7_7  and  C8_8 
REMARK    3  A    between atoms: C8_8  and  C9_9 
ROOT
HETATM    1  C1  UNL     1     -35.252  14.047  -4.640  1.00 20.00     0.069 C 
HETATM    2  C2  UNL     1     -35.050  15.516  -7.327  1.00 20.00     0.002 C 
HETATM    3  C3  UNL     1     -35.998  16.377  -6.493  1.00 20.00     0.002 C 
HETATM    4  C4  UNL     1     -33.892  15.140  -6.404  1.00 20.00     0.024 C 
HETATM    5  C5  UNL     1     -35.369  16.481  -5.104  1.00 20.00     0.024 C 
HETATM    6  C6  UNL     1     -34.463  15.251  -4.985  1.00 20.00     0.049 C 
HETATM    7  N10 UNL     1     -35.871  13.105  -4.370  1.00 20.00    -0.196 NA
ENDROOT
BRANCH   6   8
HETATM    8  C7  UNL     1     -33.365  15.448  -3.940  1.00 20.00     0.026 C 
BRANCH   8   9
HETATM    9  C8  UNL     1     -33.340  16.886  -3.430  1.00 20.00     0.017 C 
BRANCH   9  10
HETATM   10  C9  UNL     1     -33.479  16.925  -1.914  1.00 20.00     0.114 C 
HETATM   11 CL11 UNL     1     -32.293  18.049  -1.210  1.00 20.00    -0.130 Cl
ENDBRANCH   9  10
ENDBRANCH   8   9
ENDBRANCH   6   8
TORSDOF 3
ENDMDL
MODEL 2
REMARK VINA RESULT:      -3.9     11.634     13.045
REMARK  3 active torsions:
REMARK  status: ('A' for Active; 'I' for Inactive)
REMARK    1  A    between atoms: C6_6  and  C7_7 
REMARK    2  A    between atoms: C7_7  and  C8_8 
REMARK    3  A    between atoms: C8_8  and  C9_9 
ROOT
HETATM    1  C1  UNL     1     -41.727  13.899   4.717  1.00 20.00     0.069 C 
HETATM    2  C2  UNL     1     -41.714  15.285   7.455  1.00 20.00     0.002 C 
HETATM    3  C3  UNL     1     -43.030  14.508   7.428  1.00 20.00     0.002 C 
HETATM    4  C4  UNL     1     -40.648  14.337   6.907  1.00 20.00     0.024 C 
HETATM    5  C5  UNL     1     -42.698  13.126   6.864  1.00 20.00     0.024 C 
HETATM    6  C6  UNL     1     -41.417  13.328   6.047  1.00 20.00     0.049 C 
HETATM    7  N10 UNL     1     -41.970  14.346   3.675  1.00 20.00    -0.196 NA
ENDROOT
BRANCH   6   8
HETATM    8  C7  UNL     1     -40.643  12.023   5.866  1.00 20.00     0.026 C 
BRANCH   8   9
HETATM    9  C8  UNL     1     -39.223  12.144   6.411  1.00 20.00     0.017 C 
BRANCH   9  10
HETATM   10  C9  UNL     1     -38.199  11.962   5.298  1.00 20.00     0.114 C 
HETATM   11 CL11 UNL     1     -39.016  11.703   3.739  1.00 20.00    -0.130 Cl
ENDBRANCH   9  10
ENDBRANCH   8   9
ENDBRANCH   6   8
TORSDOF 3
ENDMDL
MODEL 3
REMARK VINA RESULT:      -3.9     11.951     13.292
REMARK  3 active torsions:
REMARK  status: ('A' for Active; 'I' for Inactive)
REMARK    1  A    between atoms: C6_6  and  C7_7 
REMARK    2  A    between atoms: C7_7  and  C8_8 
REMARK    3  A    between atoms: C8_8  and  C9_9 
ROOT
HETATM    1  C1  UNL     1     -42.458  12.638   7.294  1.00 20.00     0.069 C 
HETATM    2  C2  UNL     1     -42.437  15.439   6.042  1.00 20.00     0.002 C 
HETATM    3  C3  UNL     1     -41.423  15.525   7.182  1.00 20.00     0.002 C 
HETATM    4  C4  UNL     1     -42.164  14.118   5.325  1.00 20.00     0.024 C 
HETATM    5  C5  UNL     1     -40.583  14.250   7.102  1.00 20.00     0.024 C 
HETATM    6  C6  UNL     1     -41.470  13.236   6.369  1.00 20.00     0.049 C 
HETATM    7  N10 UNL     1     -43.232  12.169   8.019  1.00 20.00    -0.196 NA
ENDROOT
BRANCH   6   8
HETATM    8  C7  UNL     1     -40.648  12.121   5.721  1.00 20.00     0.026 C 
BRANCH   8   9
HETATM    9  C8  UNL     1     -39.252  12.038   6.332  1.00 20.00     0.017 C 
BRANCH   9  10
HETATM   10  C9  UNL     1     -38.192  11.932   5.245  1.00 20.00     0.114 C 
HETATM   11 CL11 UNL     1     -38.954  11.717   3.651  1.00 20.00    -0.130 Cl
ENDBRANCH   9  10
ENDBRANCH   8   9
ENDBRANCH   6   8
TORSDOF 3
ENDMDL
MODEL 4
REMARK VINA RESULT:      -3.8      3.168      5.029
REMARK  3 active torsions:
REMARK  status: ('A' for Active; 'I' for Inactive)
REMARK    1  A    between atoms: C6_6  and  C7_7 
REMARK    2  A    between atoms: C7_7  and  C8_8 
REMARK    3  A    between atoms: C8_8  and  C9_9 
ROOT
HETATM    1  C1  UNL     1     -35.210  18.593  -2.539  1.00 20.00     0.069 C 
HETATM    2  C2  UNL     1     -32.427  19.261  -1.434  1.00 20.00     0.002 C 
HETATM    3  C3  UNL     1     -32.938  18.142  -0.527  1.00 20.00     0.002 C 
HETATM    4  C4  UNL     1     -32.763  18.840  -2.863  1.00 20.00     0.024 C 
HETATM    5  C5  UNL     1     -33.560  17.095  -1.451  1.00 20.00     0.024 C 
HETATM    6  C6  UNL     1     -33.937  17.862  -2.724  1.00 20.00     0.049 C 
HETATM    7  N10 UNL     1     -36.208  19.166  -2.395  1.00 20.00    -0.196 NA
ENDROOT
BRANCH   6   8
HETATM    8  C7  UNL     1     -34.058  16.938  -3.934  1.00 20.00     0.026 C 
BRANCH   8   9
HETATM    9  C8  UNL     1     -33.249  15.659  -3.736  1.00 20.00     0.017 C 
BRANCH   9  10
HETATM   10  C9  UNL     1     -33.971  14.462  -4.338  1.00 20.00     0.114 C 
HETATM   11 CL11 UNL     1     -35.365  14.999  -5.304  1.00 20.00    -0.130 Cl
ENDBRANCH   9  10
ENDBRANCH   8   9
ENDBRANCH   6   8
TORSDOF 3
ENDMDL
MODEL 5
REMARK VINA RESULT:      -3.7     12.195     13.716
REMARK  3 active torsions:
REMARK  status: ('A' for Active; 'I' for Inactive)
REMARK    1  A    between atoms: C6_6  and  C7_7 
REMARK    2  A    between atoms: C7_7  and  C8_8 
REMARK    3  A    between atoms: C8_8  and  C9_9 
ROOT
HETATM    1  C1  UNL     1     -42.340  13.238   7.647  1.00 20.00     0.069 C 
HETATM    2  C2  UNL     1     -42.271  16.302   7.495  1.00 20.00     0.002 C 
HETATM    3  C3  UNL     1     -41.004  15.931   8.265  1.00 20.00     0.002 C 
HETATM    4  C4  UNL     1     -42.354  15.332   6.318  1.00 20.00     0.024 C 
HETATM    5  C5  UNL     1     -40.380  14.752   7.517  1.00 20.00     0.024 C 
HETATM    6  C6  UNL     1     -41.542  14.107   6.753  1.00 20.00     0.049 C 
HETATM    7  N10 UNL     1     -42.965  12.557   8.347  1.00 20.00    -0.196 NA
ENDROOT
BRANCH   6   8
HETATM    8  C7  UNL     1     -41.056  13.288   5.558  1.00 20.00     0.026 C 
BRANCH   8   9
HETATM    9  C8  UNL     1     -40.260  12.068   6.012  1.00 20.00     0.017 C 
BRANCH   9  10
HETATM   10  C9  UNL     1     -38.854  12.090   5.428  1.00 20.00     0.114 C 
HETATM   11 CL11 UNL     1     -38.887  11.621   3.712  1.00 20.00    -0.130 Cl
ENDBRANCH   9  10
ENDBRANCH   8   9
ENDBRANCH   6   8
TORSDOF 3
ENDMDL
MODEL 6
REMARK VINA RESULT:      -3.7     11.586     12.861
REMARK  3 active torsions:
REMARK  status: ('A' for Active; 'I' for Inactive)
REMARK    1  A    between atoms: C6_6  and  C7_7 
REMARK    2  A    between atoms: C7_7  and  C8_8 
REMARK    3  A    between atoms: C8_8  and  C9_9 
ROOT
HETATM    1  C1  UNL     1     -33.167   6.047   3.581  1.00 20.00     0.069 C 
HETATM    2  C2  UNL     1     -35.262   5.147   5.635  1.00 20.00     0.002 C 
HETATM    3  C3  UNL     1     -33.975   5.296   6.445  1.00 20.00     0.002 C 
HETATM    4  C4  UNL     1     -35.341   6.375   4.729  1.00 20.00     0.024 C 
HETATM    5  C5  UNL     1     -33.335   6.607   5.991  1.00 20.00     0.024 C 
HETATM    6  C6  UNL     1     -33.893   6.856   4.585  1.00 20.00     0.049 C 
HETATM    7  N10 UNL     1     -32.598   5.413   2.795  1.00 20.00    -0.196 NA
ENDROOT
BRANCH   6   8
HETATM    8  C7  UNL     1     -33.816   8.332   4.193  1.00 20.00     0.026 C 
BRANCH   8   9
HETATM    9  C8  UNL     1     -32.521   8.638   3.447  1.00 20.00     0.017 C 
BRANCH   9  10
HETATM   10  C9  UNL     1     -32.807   9.383   2.150  1.00 20.00     0.114 C 
HETATM   11 CL11 UNL     1     -32.187   8.466   0.757  1.00 20.00    -0.130 Cl
ENDBRANCH   9  10
ENDBRANCH   8   9
ENDBRANCH   6   8
TORSDOF 3
ENDMDL
MODEL 7
REMARK VINA RESULT:      -3.6     12.353     13.528
REMARK  3 active torsions:
REMARK  status: ('A' for Active; 'I' for Inactive)
REMARK    1  A    between atoms: C6_6  and  C7_7 
REMARK    2  A    between atoms: C7_7  and  C8_8 
REMARK    3  A    between atoms: C8_8  and  C9_9 
ROOT
HETATM    1  C1  UNL     1     -42.201  12.549   6.935  1.00 20.00     0.069 C 
HETATM    2  C2  UNL     1     -39.274  11.999   6.197  1.00 20.00     0.002 C 
HETATM    3  C3  UNL     1     -39.990  12.113   4.852  1.00 20.00     0.002 C 
HETATM    4  C4  UNL     1     -39.797  13.147   7.059  1.00 20.00     0.024 C 
HETATM    5  C5  UNL     1     -40.914  13.326   4.963  1.00 20.00     0.024 C 
HETATM    6  C6  UNL     1     -41.167  13.497   6.465  1.00 20.00     0.049 C 
HETATM    7  N10 UNL     1     -43.012  11.806   7.303  1.00 20.00    -0.196 NA
ENDROOT
BRANCH   6   8
HETATM    8  C7  UNL     1     -41.595  14.922   6.814  1.00 20.00     0.026 C 
BRANCH   8   9
HETATM    9  C8  UNL     1     -40.454  15.697   7.467  1.00 20.00     0.017 C 
BRANCH   9  10
HETATM   10  C9  UNL     1     -40.858  16.193   8.849  1.00 20.00     0.114 C 
HETATM   11 CL11 UNL     1     -40.085  15.209  10.113  1.00 20.00    -0.130 Cl
ENDBRANCH   9  10
ENDBRANCH   8   9
ENDBRANCH   6   8
TORSDOF 3
ENDMDL
MODEL 8
REMARK VINA RESULT:      -3.6      1.591      2.038
REMARK  3 active torsions:
REMARK  status: ('A' for Active; 'I' for Inactive)
REMARK    1  A    between atoms: C6_6  and  C7_7 
REMARK    2  A    between atoms: C7_7  and  C8_8 
REMARK    3  A    between atoms: C8_8  and  C9_9 
ROOT
HETATM    1  C1  UNL     1     -34.122  15.391  -6.691  1.00 20.00     0.069 C 
HETATM    2  C2  UNL     1     -36.263  17.553  -6.296  1.00 20.00     0.002 C 
HETATM    3  C3  UNL     1     -37.039  16.238  -6.253  1.00 20.00     0.002 C 
HETATM    4  C4  UNL     1     -35.014  17.340  -5.443  1.00 20.00     0.024 C 
HETATM    5  C5  UNL     1     -36.222  15.289  -5.376  1.00 20.00     0.024 C 
HETATM    6  C6  UNL     1     -34.787  15.824  -5.442  1.00 20.00     0.049 C 
HETATM    7  N10 UNL     1     -33.601  15.051  -7.670  1.00 20.00    -0.196 NA
ENDROOT
BRANCH   6   8
HETATM    8  C7  UNL     1     -33.953  15.371  -4.245  1.00 20.00     0.026 C 
BRANCH   8   9
HETATM    9  C8  UNL     1     -33.208  16.545  -3.614  1.00 20.00     0.017 C 
BRANCH   9  10
HETATM   10  C9  UNL     1     -33.581  16.696  -2.146  1.00 20.00     0.114 C 
HETATM   11 CL11 UNL     1     -32.546  17.915  -1.365  1.00 20.00    -0.130 Cl
ENDBRANCH   9  10
ENDBRANCH   8   9
ENDBRANCH   6   8
TORSDOF 3
ENDMDL
MODEL 9
REMARK VINA RESULT:      -3.5      2.715      3.567
REMARK  3 active torsions:
REMARK  status: ('A' for Active; 'I' for Inactive)
REMARK    1  A    between atoms: C6_6  and  C7_7 
REMARK    2  A    between atoms: C7_7  and  C8_8 
REMARK    3  A    between atoms: C8_8  and  C9_9 
ROOT
HETATM    1  C1  UNL     1     -33.384  16.385  -3.469  1.00 20.00     0.069 C 
HETATM    2  C2  UNL     1     -33.235  19.262  -4.526  1.00 20.00     0.002 C 
HETATM    3  C3  UNL     1     -34.719  18.903  -4.607  1.00 20.00     0.002 C 
HETATM    4  C4  UNL     1     -32.749  18.764  -3.166  1.00 20.00     0.024 C 
HETATM    5  C5  UNL     1     -35.060  18.204  -3.291  1.00 20.00     0.024 C 
HETATM    6  C6  UNL     1     -33.727  17.648  -2.779  1.00 20.00     0.049 C 
HETATM    7  N10 UNL     1     -33.115  15.395  -4.010  1.00 20.00    -0.196 NA
ENDROOT
BRANCH   6   8
HETATM    8  C7  UNL     1     -33.751  17.407  -1.270  1.00 20.00     0.026 C 
BRANCH   8   9
HETATM    9  C8  UNL     1     -33.587  18.713  -0.499  1.00 20.00     0.017 C 
BRANCH   9  10
HETATM   10  C9  UNL     1     -32.755  18.499   0.759  1.00 20.00     0.114 C 
HETATM   11 CL11 UNL     1     -31.023  18.450   0.357  1.00 20.00    -0.130 Cl
ENDBRANCH   9  10
ENDBRANCH   8   9
ENDBRANCH   6   8
TORSDOF 3
ENDMDL
