MODEL 1
REMARK VINA RESULT:      -4.5      0.000      0.000
REMARK  0 active torsions:
REMARK  status: ('A' for Active; 'I' for Inactive)
ROOT
HETATM    1  C1  UNL     1     -33.477   5.412   3.216  1.00 20.00     0.069 C 
HETATM    2  C2  UNL     1     -34.613   5.625   6.819  1.00 20.00     0.002 C 
HETATM    3  C3  UNL     1     -34.238   7.077   6.527  1.00 20.00     0.002 C 
HETATM    4  C4  UNL     1     -34.272   4.835   5.555  1.00 20.00     0.024 C 
HETATM    5  C5  UNL     1     -33.688   7.098   5.100  1.00 20.00     0.024 C 
HETATM    6  C6  UNL     1     -34.299   5.867   4.420  1.00 20.00     0.045 C 
HETATM    7  C7  UNL     1     -35.688   6.138   3.990  1.00 20.00     0.031 C 
HETATM    8  N8  UNL     1     -32.853   5.068   2.300  1.00 20.00    -0.196 NA
ENDROOT
TORSDOF 0
ENDMDL
MODEL 2
REMARK VINA RESULT:      -4.1     16.335     17.290
REMARK  0 active torsions:
REMARK  status: ('A' for Active; 'I' for Inactive)
ROOT
HETATM    1  C1  UNL     1     -22.282  17.459   8.637  1.00 20.00     0.069 C 
HETATM    2  C2  UNL     1     -23.971  17.443  12.023  1.00 20.00     0.002 C 
HETATM    3  C3  UNL     1     -22.821  18.420  12.257  1.00 20.00     0.002 C 
HETATM    4  C4  UNL     1     -23.808  16.926  10.593  1.00 20.00     0.024 C 
HETATM    5  C5  UNL     1     -22.015  18.451  10.958  1.00 20.00     0.024 C 
HETATM    6  C6  UNL     1     -23.000  18.011   9.868  1.00 20.00     0.045 C 
HETATM    7  C7  UNL     1     -23.874  19.133   9.464  1.00 20.00     0.031 C 
HETATM    8  N8  UNL     1     -21.737  17.043   7.702  1.00 20.00    -0.196 NA
ENDROOT
TORSDOF 0
ENDMDL
MODEL 3
REMARK VINA RESULT:      -3.9      1.256      1.601
REMARK  0 active torsions:
REMARK  status: ('A' for Active; 'I' for Inactive)
ROOT
HETATM    1  C1  UNL     1     -33.989   4.530   4.403  1.00 20.00     0.069 C 
HETATM    2  C2  UNL     1     -34.078   7.664   6.520  1.00 20.00     0.002 C 
HETATM    3  C3  UNL     1     -33.506   8.195   5.207  1.00 20.00     0.002 C 
HETATM    4  C4  UNL     1     -34.246   6.156   6.333  1.00 20.00     0.024 C 
HETATM    5  C5  UNL     1     -33.355   6.984   4.286  1.00 20.00     0.024 C 
HETATM    6  C6  UNL     1     -34.359   5.953   4.817  1.00 20.00     0.045 C 
HETATM    7  C7  UNL     1     -35.727   6.260   4.346  1.00 20.00     0.031 C 
HETATM    8  N8  UNL     1     -33.710   3.450   4.087  1.00 20.00    -0.196 NA
ENDROOT
TORSDOF 0
ENDMDL
MODEL 4
REMARK VINA RESULT:      -3.9      1.844      2.458
REMARK  0 active torsions:
REMARK  status: ('A' for Active; 'I' for Inactive)
ROOT
HETATM    1  C1  UNL     1     -32.722   8.101   4.654  1.00 20.00     0.069 C 
HETATM    2  C2  UNL     1     -34.505   4.769   4.835  1.00 20.00     0.002 C 
HETATM    3  C3  UNL     1     -34.708   5.305   6.251  1.00 20.00     0.002 C 
HETATM    4  C4  UNL     1     -33.639   5.799   4.109  1.00 20.00     0.024 C 
HETATM    5  C5  UNL     1     -33.956   6.634   6.316  1.00 20.00     0.024 C 
HETATM    6  C6  UNL     1     -33.870   7.115   4.863  1.00 20.00     0.045 C 
HETATM    7  C7  UNL     1     -35.139   7.746   4.441  1.00 20.00     0.031 C 
HETATM    8  N8  UNL     1     -31.851   8.851   4.496  1.00 20.00    -0.196 NA
ENDROOT
TORSDOF 0
ENDMDL
MODEL 5
REMARK VINA RESULT:      -3.8     16.283     17.249
REMARK  0 active torsions:
REMARK  status: ('A' for Active; 'I' for Inactive)
ROOT
HETATM    1  C1  UNL     1     -23.992  16.755  11.266  1.00 20.00     0.069 C 
HETATM    2  C2  UNL     1     -22.315  18.244   8.218  1.00 20.00     0.002 C 
HETATM    3  C3  UNL     1     -23.421  19.262   8.490  1.00 20.00     0.002 C 
HETATM    4  C4  UNL     1     -22.497  17.131   9.250  1.00 20.00     0.024 C 
HETATM    5  C5  UNL     1     -24.221  18.718   9.674  1.00 20.00     0.024 C 
HETATM    6  C6  UNL     1     -23.253  17.786  10.413  1.00 20.00     0.045 C 
HETATM    7  C7  UNL     1     -22.330  18.559  11.271  1.00 20.00     0.031 C 
HETATM    8  N8  UNL     1     -24.552  15.974  11.914  1.00 20.00    -0.196 NA
ENDROOT
TORSDOF 0
ENDMDL
MODEL 6
REMARK VINA RESULT:      -3.6     13.502     14.493
REMARK  0 active torsions:
REMARK  status: ('A' for Active; 'I' for Inactive)
ROOT
HETATM    1  C1  UNL     1     -31.714  18.474  -0.923  1.00 20.00     0.069 C 
HETATM    2  C2  UNL     1     -33.848  18.452  -4.048  1.00 20.00     0.002 C 
HETATM    3  C3  UNL     1     -33.980  17.005  -3.573  1.00 20.00     0.002 C 
HETATM    4  C4  UNL     1     -32.881  19.132  -3.078  1.00 20.00     0.024 C 
HETATM    5  C5  UNL     1     -33.087  16.878  -2.339  1.00 20.00     0.024 C 
HETATM    6  C6  UNL     1     -32.961  18.303  -1.790  1.00 20.00     0.045 C 
HETATM    7  C7  UNL     1     -34.158  18.671  -1.002  1.00 20.00     0.031 C 
HETATM    8  N8  UNL     1     -30.768  18.603  -0.265  1.00 20.00    -0.196 NA
ENDROOT
TORSDOF 0
ENDMDL
MODEL 7
REMARK VINA RESULT:      -3.5     12.840     13.537
REMARK  0 active torsions:
REMARK  status: ('A' for Active; 'I' for Inactive)
ROOT
HETATM    1  C1  UNL     1     -33.305  16.867  -2.330  1.00 20.00     0.069 C 
HETATM    2  C2  UNL     1     -33.144  18.733   0.957  1.00 20.00     0.002 C 
HETATM    3  C3  UNL     1     -31.779  19.055   0.352  1.00 20.00     0.002 C 
HETATM    4  C4  UNL     1     -33.830  17.781  -0.022  1.00 20.00     0.024 C 
HETATM    5  C5  UNL     1     -31.702  18.283  -0.965  1.00 20.00     0.024 C 
HETATM    6  C6  UNL     1     -33.161  18.051  -1.376  1.00 20.00     0.045 C 
HETATM    7  C7  UNL     1     -33.727  19.262  -2.009  1.00 20.00     0.031 C 
HETATM    8  N8  UNL     1     -33.414  15.969  -3.056  1.00 20.00    -0.196 NA
ENDROOT
TORSDOF 0
ENDMDL
MODEL 8
REMARK VINA RESULT:      -3.5      8.559      9.689
REMARK  0 active torsions:
REMARK  status: ('A' for Active; 'I' for Inactive)
ROOT
HETATM    1  C1  UNL     1     -42.936   4.670  -1.180  1.00 20.00     0.069 C 
HETATM    2  C2  UNL     1     -40.430   7.149   0.197  1.00 20.00     0.002 C 
HETATM    3  C3  UNL     1     -41.715   7.975   0.200  1.00 20.00     0.002 C 
HETATM    4  C4  UNL     1     -40.794   5.797  -0.419  1.00 20.00     0.024 C 
HETATM    5  C5  UNL     1     -42.796   7.085  -0.413  1.00 20.00     0.024 C 
HETATM    6  C6  UNL     1     -42.304   5.650  -0.192  1.00 20.00     0.045 C 
HETATM    7  C7  UNL     1     -42.587   5.203   1.189  1.00 20.00     0.031 C 
HETATM    8  N8  UNL     1     -43.417   3.927  -1.929  1.00 20.00    -0.196 NA
ENDROOT
TORSDOF 0
ENDMDL
MODEL 9
REMARK VINA RESULT:      -3.5      8.246      9.269
REMARK  0 active torsions:
REMARK  status: ('A' for Active; 'I' for Inactive)
ROOT
HETATM    1  C1  UNL     1     -42.350   5.238   1.173  1.00 20.00     0.069 C 
HETATM    2  C2  UNL     1     -41.926   8.443  -0.794  1.00 20.00     0.002 C 
HETATM    3  C3  UNL     1     -40.788   8.549   0.219  1.00 20.00     0.002 C 
HETATM    4  C4  UNL     1     -42.683   7.159  -0.451  1.00 20.00     0.024 C 
HETATM    5  C5  UNL     1     -40.907   7.326   1.127  1.00 20.00     0.024 C 
HETATM    6  C6  UNL     1     -41.666   6.285   0.295  1.00 20.00     0.045 C 
HETATM    7  C7  UNL     1     -40.758   5.608  -0.656  1.00 20.00     0.031 C 
HETATM    8  N8  UNL     1     -42.867   4.443   1.840  1.00 20.00    -0.196 NA
ENDROOT
TORSDOF 0
ENDMDL
