MODEL 1
REMARK VINA RESULT:      -3.9      0.000      0.000
REMARK  0 active torsions:
REMARK  status: ('A' for Active; 'I' for Inactive)
ROOT
HETATM    1  C1  UNL     1     -35.767  14.467  -5.347  1.00 20.00     0.095 C 
HETATM    2  C2  UNL     1     -34.090  16.947  -4.101  1.00 20.00    -0.026 C 
HETATM    3  C3  UNL     1     -33.277  16.017  -3.582  1.00 20.00    -0.001 C 
HETATM    4  C4  UNL     1     -34.765  16.752  -5.429  1.00 20.00     0.077 C 
HETATM    5  C5  UNL     1     -32.963  14.740  -4.304  1.00 20.00     0.298 C 
HETATM    6  C6  UNL     1     -34.701  15.299  -5.938  1.00 20.00     0.329 C 
HETATM    7  N7  UNL     1     -36.605  13.814  -4.881  1.00 20.00    -0.195 NA
HETATM    8  N8  UNL     1     -33.371  14.711  -5.717  1.00 20.00     0.105 N 
HETATM    9  H16 UNL     1     -32.672  15.217  -6.271  1.00 20.00     0.318 HD
ENDROOT
TORSDOF 0
ENDMDL
MODEL 2
REMARK VINA RESULT:      -3.9      1.308      2.538
REMARK  0 active torsions:
REMARK  status: ('A' for Active; 'I' for Inactive)
ROOT
HETATM    1  C1  UNL     1     -34.257  15.096  -6.518  1.00 20.00     0.095 C 
HETATM    2  C2  UNL     1     -33.222  15.863  -3.542  1.00 20.00    -0.026 C 
HETATM    3  C3  UNL     1     -33.682  17.095  -3.800  1.00 20.00    -0.001 C 
HETATM    4  C4  UNL     1     -33.899  14.639  -4.090  1.00 20.00     0.077 C 
HETATM    5  C5  UNL     1     -34.915  17.330  -4.621  1.00 20.00     0.298 C 
HETATM    6  C6  UNL     1     -34.916  14.951  -5.205  1.00 20.00     0.329 C 
HETATM    7  N7  UNL     1     -33.739  15.209  -7.549  1.00 20.00    -0.195 NA
HETATM    8  N8  UNL     1     -35.729  16.132  -4.874  1.00 20.00     0.105 N 
HETATM    9  H16 UNL     1     -36.297  15.939  -4.043  1.00 20.00     0.318 HD
ENDROOT
TORSDOF 0
ENDMDL
MODEL 3
REMARK VINA RESULT:      -3.8     18.740     19.764
REMARK  0 active torsions:
REMARK  status: ('A' for Active; 'I' for Inactive)
ROOT
HETATM    1  C1  UNL     1     -25.067  18.286  11.356  1.00 20.00     0.095 C 
HETATM    2  C2  UNL     1     -22.199  18.153   9.849  1.00 20.00    -0.026 C 
HETATM    3  C3  UNL     1     -21.683  18.642  10.984  1.00 20.00    -0.001 C 
HETATM    4  C4  UNL     1     -23.379  17.223   9.856  1.00 20.00     0.077 C 
HETATM    5  C5  UNL     1     -22.226  18.270  12.332  1.00 20.00     0.298 C 
HETATM    6  C6  UNL     1     -24.109  17.173  11.212  1.00 20.00     0.329 C 
HETATM    7  N7  UNL     1     -25.820  19.162  11.469  1.00 20.00    -0.195 NA
HETATM    8  N8  UNL     1     -23.157  17.130  12.332  1.00 20.00     0.105 N 
HETATM    9  H16 UNL     1     -22.613  16.263  12.291  1.00 20.00     0.318 HD
ENDROOT
TORSDOF 0
ENDMDL
MODEL 4
REMARK VINA RESULT:      -3.8     19.113     19.861
REMARK  0 active torsions:
REMARK  status: ('A' for Active; 'I' for Inactive)
ROOT
HETATM    1  C1  UNL     1     -22.796  17.658  10.254  1.00 20.00     0.095 C 
HETATM    2  C2  UNL     1     -25.159  18.464  12.323  1.00 20.00    -0.026 C 
HETATM    3  C3  UNL     1     -25.557  17.189  12.222  1.00 20.00    -0.001 C 
HETATM    4  C4  UNL     1     -23.708  18.845  12.252  1.00 20.00     0.077 C 
HETATM    5  C5  UNL     1     -24.582  16.060  12.064  1.00 20.00     0.298 C 
HETATM    6  C6  UNL     1     -22.805  17.712  11.729  1.00 20.00     0.329 C 
HETATM    7  N7  UNL     1     -22.789  17.617   9.095  1.00 20.00    -0.195 NA
HETATM    8  N8  UNL     1     -23.177  16.415  12.315  1.00 20.00     0.105 N 
HETATM    9  H16 UNL     1     -23.020  16.434  13.328  1.00 20.00     0.318 HD
ENDROOT
TORSDOF 0
ENDMDL
MODEL 5
REMARK VINA RESULT:      -3.8     12.651     13.461
REMARK  0 active torsions:
REMARK  status: ('A' for Active; 'I' for Inactive)
ROOT
HETATM    1  C1  UNL     1     -33.536   5.601   3.287  1.00 20.00     0.095 C 
HETATM    2  C2  UNL     1     -34.415   5.698   6.406  1.00 20.00    -0.026 C 
HETATM    3  C3  UNL     1     -33.492   6.659   6.542  1.00 20.00    -0.001 C 
HETATM    4  C4  UNL     1     -35.207   5.539   5.139  1.00 20.00     0.077 C 
HETATM    5  C5  UNL     1     -33.212   7.655   5.455  1.00 20.00     0.298 C 
HETATM    6  C6  UNL     1     -34.628   6.335   3.954  1.00 20.00     0.329 C 
HETATM    7  N7  UNL     1     -32.677   5.023   2.763  1.00 20.00    -0.195 NA
HETATM    8  N8  UNL     1     -34.203   7.680   4.368  1.00 20.00     0.105 N 
HETATM    9  H16 UNL     1     -35.016   8.221   4.678  1.00 20.00     0.318 HD
ENDROOT
TORSDOF 0
ENDMDL
MODEL 6
REMARK VINA RESULT:      -3.7      1.585      3.133
REMARK  0 active torsions:
REMARK  status: ('A' for Active; 'I' for Inactive)
ROOT
HETATM    1  C1  UNL     1     -33.559  15.983  -3.930  1.00 20.00     0.095 C 
HETATM    2  C2  UNL     1     -36.029  14.444  -5.361  1.00 20.00    -0.026 C 
HETATM    3  C3  UNL     1     -35.707  15.141  -6.459  1.00 20.00    -0.001 C 
HETATM    4  C4  UNL     1     -34.983  13.984  -4.384  1.00 20.00     0.077 C 
HETATM    5  C5  UNL     1     -34.286  15.478  -6.800  1.00 20.00     0.298 C 
HETATM    6  C6  UNL     1     -33.616  14.664  -4.589  1.00 20.00     0.329 C 
HETATM    7  N7  UNL     1     -33.516  17.020  -3.411  1.00 20.00    -0.195 NA
HETATM    8  N8  UNL     1     -33.272  14.757  -6.016  1.00 20.00     0.105 N 
HETATM    9  H16 UNL     1     -33.162  13.817  -6.408  1.00 20.00     0.318 HD
ENDROOT
TORSDOF 0
ENDMDL
MODEL 7
REMARK VINA RESULT:      -3.7     18.571     19.484
REMARK  0 active torsions:
REMARK  status: ('A' for Active; 'I' for Inactive)
ROOT
HETATM    1  C1  UNL     1     -22.611  18.103  10.808  1.00 20.00     0.095 C 
HETATM    2  C2  UNL     1     -25.161  16.802  12.331  1.00 20.00    -0.026 C 
HETATM    3  C3  UNL     1     -25.675  18.039  12.332  1.00 20.00    -0.001 C 
HETATM    4  C4  UNL     1     -24.299  16.307  11.204  1.00 20.00     0.077 C 
HETATM    5  C5  UNL     1     -25.452  18.995  11.198  1.00 20.00     0.298 C 
HETATM    6  C6  UNL     1     -23.811  17.431  10.271  1.00 20.00     0.329 C 
HETATM    7  N7  UNL     1     -21.668  18.630  11.230  1.00 20.00    -0.195 NA
HETATM    8  N8  UNL     1     -24.885  18.393   9.982  1.00 20.00     0.105 N 
HETATM    9  H16 UNL     1     -25.638  17.927   9.465  1.00 20.00     0.318 HD
ENDROOT
TORSDOF 0
ENDMDL
MODEL 8
REMARK VINA RESULT:      -3.6     12.633     13.548
REMARK  0 active torsions:
REMARK  status: ('A' for Active; 'I' for Inactive)
ROOT
HETATM    1  C1  UNL     1     -32.993   7.369   3.847  1.00 20.00     0.095 C 
HETATM    2  C2  UNL     1     -34.754   5.030   5.241  1.00 20.00    -0.026 C 
HETATM    3  C3  UNL     1     -34.037   5.276   6.346  1.00 20.00    -0.001 C 
HETATM    4  C4  UNL     1     -35.113   6.123   4.275  1.00 20.00     0.077 C 
HETATM    5  C5  UNL     1     -33.577   6.657   6.707  1.00 20.00     0.298 C 
HETATM    6  C6  UNL     1     -34.316   7.422   4.500  1.00 20.00     0.329 C 
HETATM    7  N7  UNL     1     -31.954   7.327   3.334  1.00 20.00    -0.195 NA
HETATM    8  N8  UNL     1     -34.201   7.740   5.931  1.00 20.00     0.105 N 
HETATM    9  H16 UNL     1     -35.131   7.929   6.320  1.00 20.00     0.318 HD
ENDROOT
TORSDOF 0
ENDMDL
MODEL 9
REMARK VINA RESULT:      -3.5     17.900     18.803
REMARK  0 active torsions:
REMARK  status: ('A' for Active; 'I' for Inactive)
ROOT
HETATM    1  C1  UNL     1     -22.022  17.917   8.209  1.00 20.00     0.095 C 
HETATM    2  C2  UNL     1     -24.770  18.361   9.873  1.00 20.00    -0.026 C 
HETATM    3  C3  UNL     1     -24.178  17.671  10.857  1.00 20.00    -0.001 C 
HETATM    4  C4  UNL     1     -23.987  19.261   8.960  1.00 20.00     0.077 C 
HETATM    5  C5  UNL     1     -22.707  17.776  11.131  1.00 20.00     0.298 C 
HETATM    6  C6  UNL     1     -22.464  19.046   9.050  1.00 20.00     0.329 C 
HETATM    7  N7  UNL     1     -21.676  17.029   7.548  1.00 20.00    -0.195 NA
HETATM    8  N8  UNL     1     -22.027  18.886  10.445  1.00 20.00     0.105 N 
HETATM    9  H16 UNL     1     -22.204  19.751  10.965  1.00 20.00     0.318 HD
ENDROOT
TORSDOF 0
ENDMDL
