MODEL 1
REMARK VINA RESULT:      -3.8      0.000      0.000
REMARK  1 active torsions:
REMARK  status: ('A' for Active; 'I' for Inactive)
REMARK    1  A    between atoms: C5_5  and  C6_6 
ROOT
HETATM    1  C1  UNL     1     -33.856  15.182  -3.847  1.00 20.00     0.100 C 
HETATM    2  C2  UNL     1     -33.264  16.859  -2.047  1.00 20.00     0.038 A 
HETATM    3  C3  UNL     1     -33.548  17.597  -4.233  1.00 20.00     0.072 A 
HETATM    4  C4  UNL     1     -33.566  16.504  -3.395  1.00 20.00     0.052 A 
HETATM    5  C5  UNL     1     -33.027  18.208  -1.908  1.00 20.00    -0.002 A 
HETATM    6  N7  UNL     1     -34.091  14.107  -4.216  1.00 20.00    -0.191 NA
HETATM    7  S8  UNL     1     -33.168  19.042  -3.396  1.00 20.00    -0.104 SA
ENDROOT
BRANCH   5   8
HETATM    8  C6  UNL     1     -32.685  18.961  -0.682  1.00 20.00     0.160 C 
HETATM    9 CL9  UNL     1     -31.071  18.506  -0.078  1.00 20.00    -0.125 Cl
ENDBRANCH   5   8
TORSDOF 1
ENDMDL
MODEL 2
REMARK VINA RESULT:      -3.7      4.194      5.583
REMARK  1 active torsions:
REMARK  status: ('A' for Active; 'I' for Inactive)
REMARK    1  A    between atoms: C5_5  and  C6_6 
ROOT
HETATM    1  C1  UNL     1     -30.084  18.841   2.249  1.00 20.00     0.100 C 
HETATM    2  C2  UNL     1     -31.137  18.474  -0.022  1.00 20.00     0.038 A 
HETATM    3  C3  UNL     1     -32.481  19.140   1.754  1.00 20.00     0.072 A 
HETATM    4  C4  UNL     1     -31.200  18.821   1.359  1.00 20.00     0.052 A 
HETATM    5  C5  UNL     1     -32.371  18.542  -0.630  1.00 20.00    -0.002 A 
HETATM    6  N7  UNL     1     -29.178  18.857   2.973  1.00 20.00    -0.191 NA
HETATM    7  S8  UNL     1     -33.599  19.023   0.462  1.00 20.00    -0.104 SA
ENDROOT
BRANCH   5   8
HETATM    8  C6  UNL     1     -32.720  18.262  -2.039  1.00 20.00     0.160 C 
HETATM    9 CL9  UNL     1     -33.453  16.646  -2.210  1.00 20.00    -0.125 Cl
ENDBRANCH   5   8
TORSDOF 1
ENDMDL
MODEL 3
REMARK VINA RESULT:      -3.5      3.294      4.214
REMARK  1 active torsions:
REMARK  status: ('A' for Active; 'I' for Inactive)
REMARK    1  A    between atoms: C5_5  and  C6_6 
ROOT
HETATM    1  C1  UNL     1     -31.717  18.454  -1.006  1.00 20.00     0.100 C 
HETATM    2  C2  UNL     1     -32.871  17.075  -2.787  1.00 20.00     0.038 A 
HETATM    3  C3  UNL     1     -33.885  19.026  -2.032  1.00 20.00     0.072 A 
HETATM    4  C4  UNL     1     -32.791  18.197  -1.911  1.00 20.00     0.052 A 
HETATM    5  C5  UNL     1     -34.022  17.089  -3.542  1.00 20.00    -0.002 A 
HETATM    6  N7  UNL     1     -30.845  18.662  -0.270  1.00 20.00    -0.191 NA
HETATM    7  S8  UNL     1     -35.001  18.451  -3.197  1.00 20.00    -0.104 SA
ENDROOT
BRANCH   5   8
HETATM    8  C6  UNL     1     -34.469  16.112  -4.558  1.00 20.00     0.160 C 
HETATM    9 CL9  UNL     1     -34.012  14.452  -4.097  1.00 20.00    -0.125 Cl
ENDBRANCH   5   8
TORSDOF 1
ENDMDL
MODEL 4
REMARK VINA RESULT:      -3.4      3.562      4.421
REMARK  1 active torsions:
REMARK  status: ('A' for Active; 'I' for Inactive)
REMARK    1  A    between atoms: C5_5  and  C6_6 
ROOT
HETATM    1  C1  UNL     1     -33.386  17.914  -1.015  1.00 20.00     0.100 C 
HETATM    2  C2  UNL     1     -33.376  16.198  -2.874  1.00 20.00     0.038 A 
HETATM    3  C3  UNL     1     -34.517  18.199  -3.187  1.00 20.00     0.072 A 
HETATM    4  C4  UNL     1     -33.750  17.456  -2.317  1.00 20.00     0.052 A 
HETATM    5  C5  UNL     1     -33.870  16.029  -4.148  1.00 20.00    -0.002 A 
HETATM    6  N7  UNL     1     -33.093  18.287   0.044  1.00 20.00    -0.191 NA
HETATM    7  S8  UNL     1     -34.782  17.381  -4.668  1.00 20.00    -0.104 SA
ENDROOT
BRANCH   5   8
HETATM    8  C6  UNL     1     -33.704  14.871  -5.054  1.00 20.00     0.160 C 
HETATM    9 CL9  UNL     1     -34.089  15.314  -6.737  1.00 20.00    -0.125 Cl
ENDBRANCH   5   8
TORSDOF 1
ENDMDL
MODEL 5
REMARK VINA RESULT:      -3.4      2.747      3.344
REMARK  1 active torsions:
REMARK  status: ('A' for Active; 'I' for Inactive)
REMARK    1  A    between atoms: C5_5  and  C6_6 
ROOT
HETATM    1  C1  UNL     1     -35.639  15.052  -6.938  1.00 20.00     0.100 C 
HETATM    2  C2  UNL     1     -35.194  16.693  -5.064  1.00 20.00     0.038 A 
HETATM    3  C3  UNL     1     -33.863  14.796  -5.247  1.00 20.00     0.072 A 
HETATM    4  C4  UNL     1     -34.919  15.496  -5.788  1.00 20.00     0.052 A 
HETATM    5  C5  UNL     1     -34.338  16.862  -3.999  1.00 20.00    -0.002 A 
HETATM    6  N7  UNL     1     -36.224  14.690  -7.872  1.00 20.00    -0.191 NA
HETATM    7  S8  UNL     1     -33.208  15.582  -3.874  1.00 20.00    -0.104 SA
ENDROOT
BRANCH   5   8
HETATM    8  C6  UNL     1     -34.297  17.966  -3.016  1.00 20.00     0.160 C 
HETATM    9 CL9  UNL     1     -33.724  17.392  -1.429  1.00 20.00    -0.125 Cl
ENDBRANCH   5   8
TORSDOF 1
ENDMDL
MODEL 6
REMARK VINA RESULT:      -3.4     11.604     12.280
REMARK  1 active torsions:
REMARK  status: ('A' for Active; 'I' for Inactive)
REMARK    1  A    between atoms: C5_5  and  C6_6 
ROOT
HETATM    1  C1  UNL     1     -34.351   5.935   5.720  1.00 20.00     0.100 C 
HETATM    2  C2  UNL     1     -33.261   6.675   3.560  1.00 20.00     0.038 A 
HETATM    3  C3  UNL     1     -33.222   8.102   5.395  1.00 20.00     0.072 A 
HETATM    4  C4  UNL     1     -33.635   6.876   4.921  1.00 20.00     0.052 A 
HETATM    5  C5  UNL     1     -32.578   7.755   3.046  1.00 20.00    -0.002 A 
HETATM    6  N7  UNL     1     -34.935   5.171   6.370  1.00 20.00    -0.191 NA
HETATM    7  S8  UNL     1     -32.388   9.004   4.201  1.00 20.00    -0.104 SA
ENDROOT
BRANCH   5   8
HETATM    8  C6  UNL     1     -32.026   7.933   1.685  1.00 20.00     0.160 C 
HETATM    9 CL9  UNL     1     -32.689   9.394   0.910  1.00 20.00    -0.125 Cl
ENDBRANCH   5   8
TORSDOF 1
ENDMDL
MODEL 7
REMARK VINA RESULT:      -3.3      2.227      2.835
REMARK  1 active torsions:
REMARK  status: ('A' for Active; 'I' for Inactive)
REMARK    1  A    between atoms: C5_5  and  C6_6 
ROOT
HETATM    1  C1  UNL     1     -33.437  17.119  -2.767  1.00 20.00     0.100 C 
HETATM    2  C2  UNL     1     -31.857  18.137  -1.073  1.00 20.00     0.038 A 
HETATM    3  C3  UNL     1     -34.134  18.082  -0.607  1.00 20.00     0.072 A 
HETATM    4  C4  UNL     1     -33.156  17.758  -1.522  1.00 20.00     0.052 A 
HETATM    5  C5  UNL     1     -31.892  18.735   0.167  1.00 20.00    -0.002 A 
HETATM    6  N7  UNL     1     -33.666  16.600  -3.779  1.00 20.00    -0.191 NA
HETATM    7  S8  UNL     1     -33.485  18.838   0.786  1.00 20.00    -0.104 SA
ENDROOT
BRANCH   5   8
HETATM    8  C6  UNL     1     -30.766  19.263   0.967  1.00 20.00     0.160 C 
HETATM    9 CL9  UNL     1     -30.693  18.480   2.566  1.00 20.00    -0.125 Cl
ENDBRANCH   5   8
TORSDOF 1
ENDMDL
MODEL 8
REMARK VINA RESULT:      -3.3      1.686      1.790
REMARK  1 active torsions:
REMARK  status: ('A' for Active; 'I' for Inactive)
REMARK    1  A    between atoms: C5_5  and  C6_6 
ROOT
HETATM    1  C1  UNL     1     -34.329  15.646  -5.564  1.00 20.00     0.100 C 
HETATM    2  C2  UNL     1     -33.333  16.532  -3.413  1.00 20.00     0.038 A 
HETATM    3  C3  UNL     1     -35.123  17.658  -4.379  1.00 20.00     0.072 A 
HETATM    4  C4  UNL     1     -34.267  16.583  -4.489  1.00 20.00     0.052 A 
HETATM    5  C5  UNL     1     -33.510  17.568  -2.523  1.00 20.00    -0.002 A 
HETATM    6  N7  UNL     1     -34.379  14.886  -6.439  1.00 20.00    -0.191 NA
HETATM    7  S8  UNL     1     -34.799  18.597  -2.984  1.00 20.00    -0.104 SA
ENDROOT
BRANCH   5   8
HETATM    8  C6  UNL     1     -32.751  17.862  -1.289  1.00 20.00     0.160 C 
HETATM    9 CL9  UNL     1     -33.825  17.897   0.133  1.00 20.00    -0.125 Cl
ENDBRANCH   5   8
TORSDOF 1
ENDMDL
MODEL 9
REMARK VINA RESULT:      -3.2     11.807     12.513
REMARK  1 active torsions:
REMARK  status: ('A' for Active; 'I' for Inactive)
REMARK    1  A    between atoms: C5_5  and  C6_6 
ROOT
HETATM    1  C1  UNL     1     -32.089   8.012   1.590  1.00 20.00     0.100 C 
HETATM    2  C2  UNL     1     -33.260   6.317   3.059  1.00 20.00     0.038 A 
HETATM    3  C3  UNL     1     -32.620   8.357   3.972  1.00 20.00     0.072 A 
HETATM    4  C4  UNL     1     -32.638   7.580   2.835  1.00 20.00     0.052 A 
HETATM    5  C5  UNL     1     -33.694   6.178   4.358  1.00 20.00    -0.002 A 
HETATM    6  N7  UNL     1     -31.642   8.364   0.578  1.00 20.00    -0.191 NA
HETATM    7  S8  UNL     1     -33.352   7.564   5.302  1.00 20.00    -0.104 SA
ENDROOT
BRANCH   5   8
HETATM    8  C6  UNL     1     -34.383   5.026   4.980  1.00 20.00     0.160 C 
HETATM    9 CL9  UNL     1     -34.823   5.379   6.671  1.00 20.00    -0.125 Cl
ENDBRANCH   5   8
TORSDOF 1
ENDMDL
