MODEL 1
REMARK VINA RESULT:      -4.0      0.000      0.000
REMARK  2 active torsions:
REMARK  status: ('A' for Active; 'I' for Inactive)
REMARK    1  A    between atoms: C6_6  and  C7_7 
REMARK    2  A    between atoms: C7_7  and  C8_8 
ROOT
HETATM    1  C1  UNL     1     -21.719  17.786   8.392  1.00 20.00     0.059 C 
HETATM    2  C6  UNL     1     -21.770  18.679   9.562  1.00 20.00     0.129 C 
HETATM    3  N9  UNL     1     -21.677  17.080   7.471  1.00 20.00    -0.197 NA
ENDROOT
BRANCH   2   4
HETATM    4  C7  UNL     1     -23.222  19.048   9.954  1.00 20.00     0.002 C 
HETATM    5  C2  UNL     1     -24.126  18.951   8.708  1.00 20.00     0.011 C 
BRANCH   4   6
HETATM    6  C8  UNL     1     -23.760  18.212  11.179  1.00 20.00    -0.047 C 
HETATM    7  C3  UNL     1     -24.063  16.750  10.801  1.00 20.00     0.015 C 
HETATM    8  C4  UNL     1     -25.055  18.848  11.734  1.00 20.00     0.015 C 
HETATM    9  C5  UNL     1     -22.731  18.209  12.331  1.00 20.00     0.015 C 
ENDBRANCH   4   6
ENDBRANCH   2   4
TORSDOF 2
ENDMDL
MODEL 2
REMARK VINA RESULT:      -4.0     15.499     16.720
REMARK  2 active torsions:
REMARK  status: ('A' for Active; 'I' for Inactive)
REMARK    1  A    between atoms: C6_6  and  C7_7 
REMARK    2  A    between atoms: C7_7  and  C8_8 
ROOT
HETATM    1  C1  UNL     1     -32.622   8.166   2.729  1.00 20.00     0.059 C 
HETATM    2  C6  UNL     1     -32.614   6.830   3.349  1.00 20.00     0.129 C 
HETATM    3  N9  UNL     1     -32.629   9.219   2.238  1.00 20.00    -0.197 NA
ENDROOT
BRANCH   2   4
HETATM    4  C7  UNL     1     -33.230   6.841   4.770  1.00 20.00     0.002 C 
HETATM    5  C2  UNL     1     -33.702   8.268   5.110  1.00 20.00     0.011 C 
BRANCH   4   6
HETATM    6  C8  UNL     1     -34.355   5.752   4.961  1.00 20.00    -0.047 C 
HETATM    7  C3  UNL     1     -35.685   6.164   4.303  1.00 20.00     0.015 C 
HETATM    8  C4  UNL     1     -34.613   5.507   6.465  1.00 20.00     0.015 C 
HETATM    9  C5  UNL     1     -33.915   4.401   4.354  1.00 20.00     0.015 C 
ENDBRANCH   4   6
ENDBRANCH   2   4
TORSDOF 2
ENDMDL
MODEL 3
REMARK VINA RESULT:      -3.9     15.509     16.701
REMARK  2 active torsions:
REMARK  status: ('A' for Active; 'I' for Inactive)
REMARK    1  A    between atoms: C6_6  and  C7_7 
REMARK    2  A    between atoms: C7_7  and  C8_8 
ROOT
HETATM    1  C1  UNL     1     -32.622   8.163   2.722  1.00 20.00     0.059 C 
HETATM    2  C6  UNL     1     -32.628   6.823   3.333  1.00 20.00     0.129 C 
HETATM    3  N9  UNL     1     -32.617   9.218   2.237  1.00 20.00    -0.197 NA
ENDROOT
BRANCH   2   4
HETATM    4  C7  UNL     1     -33.236   6.833   4.758  1.00 20.00     0.002 C 
HETATM    5  C2  UNL     1     -33.731   8.255   5.090  1.00 20.00     0.011 C 
BRANCH   4   6
HETATM    6  C8  UNL     1     -34.341   5.726   4.964  1.00 20.00    -0.047 C 
HETATM    7  C3  UNL     1     -33.937   4.375   4.345  1.00 20.00     0.015 C 
HETATM    8  C4  UNL     1     -35.673   6.175   4.321  1.00 20.00     0.015 C 
HETATM    9  C5  UNL     1     -34.619   5.505   6.467  1.00 20.00     0.015 C 
ENDBRANCH   4   6
ENDBRANCH   2   4
TORSDOF 2
ENDMDL
MODEL 4
REMARK VINA RESULT:      -3.9     15.514     16.763
REMARK  2 active torsions:
REMARK  status: ('A' for Active; 'I' for Inactive)
REMARK    1  A    between atoms: C6_6  and  C7_7 
REMARK    2  A    between atoms: C7_7  and  C8_8 
ROOT
HETATM    1  C1  UNL     1     -32.622   8.119   2.676  1.00 20.00     0.059 C 
HETATM    2  C6  UNL     1     -32.599   6.807   3.346  1.00 20.00     0.129 C 
HETATM    3  N9  UNL     1     -32.640   9.151   2.144  1.00 20.00    -0.197 NA
ENDROOT
BRANCH   2   4
HETATM    4  C7  UNL     1     -33.236   6.861   4.757  1.00 20.00     0.002 C 
HETATM    5  C2  UNL     1     -33.742   8.290   5.033  1.00 20.00     0.011 C 
BRANCH   4   6
HETATM    6  C8  UNL     1     -34.341   5.756   4.975  1.00 20.00    -0.047 C 
HETATM    7  C3  UNL     1     -34.622   5.498   6.467  1.00 20.00     0.015 C 
HETATM    8  C4  UNL     1     -33.901   4.424   4.327  1.00 20.00     0.015 C 
HETATM    9  C5  UNL     1     -35.666   6.170   4.299  1.00 20.00     0.015 C 
ENDBRANCH   4   6
ENDBRANCH   2   4
TORSDOF 2
ENDMDL
MODEL 5
REMARK VINA RESULT:      -3.9     15.890     17.013
REMARK  2 active torsions:
REMARK  status: ('A' for Active; 'I' for Inactive)
REMARK    1  A    between atoms: C6_6  and  C7_7 
REMARK    2  A    between atoms: C7_7  and  C8_8 
ROOT
HETATM    1  C1  UNL     1     -32.200   7.928   1.960  1.00 20.00     0.059 C 
HETATM    2  C6  UNL     1     -32.400   7.293   3.273  1.00 20.00     0.129 C 
HETATM    3  N9  UNL     1     -32.039   8.429   0.925  1.00 20.00    -0.197 NA
ENDROOT
BRANCH   2   4
HETATM    4  C7  UNL     1     -33.471   6.174   3.224  1.00 20.00     0.002 C 
HETATM    5  C2  UNL     1     -32.816   4.863   2.745  1.00 20.00     0.011 C 
BRANCH   4   6
HETATM    6  C8  UNL     1     -34.258   6.017   4.583  1.00 20.00    -0.047 C 
HETATM    7  C3  UNL     1     -33.829   7.060   5.631  1.00 20.00     0.015 C 
HETATM    8  C4  UNL     1     -34.025   4.608   5.175  1.00 20.00     0.015 C 
HETATM    9  C5  UNL     1     -35.779   6.161   4.351  1.00 20.00     0.015 C 
ENDBRANCH   4   6
ENDBRANCH   2   4
TORSDOF 2
ENDMDL
MODEL 6
REMARK VINA RESULT:      -3.8     15.316     16.575
REMARK  2 active torsions:
REMARK  status: ('A' for Active; 'I' for Inactive)
REMARK    1  A    between atoms: C6_6  and  C7_7 
REMARK    2  A    between atoms: C7_7  and  C8_8 
ROOT
HETATM    1  C1  UNL     1     -32.434   8.913   5.148  1.00 20.00     0.059 C 
HETATM    2  C6  UNL     1     -33.201   7.720   5.547  1.00 20.00     0.129 C 
HETATM    3  N9  UNL     1     -31.827   9.852   4.836  1.00 20.00    -0.197 NA
ENDROOT
BRANCH   2   4
HETATM    4  C7  UNL     1     -33.750   6.942   4.325  1.00 20.00     0.002 C 
HETATM    5  C2  UNL     1     -32.595   6.651   3.347  1.00 20.00     0.011 C 
BRANCH   4   6
HETATM    6  C8  UNL     1     -34.562   5.652   4.731  1.00 20.00    -0.047 C 
HETATM    7  C3  UNL     1     -33.946   4.366   4.149  1.00 20.00     0.015 C 
HETATM    8  C4  UNL     1     -36.021   5.759   4.233  1.00 20.00     0.015 C 
HETATM    9  C5  UNL     1     -34.620   5.507   6.268  1.00 20.00     0.015 C 
ENDBRANCH   4   6
ENDBRANCH   2   4
TORSDOF 2
ENDMDL
MODEL 7
REMARK VINA RESULT:      -3.7     13.017     14.736
REMARK  2 active torsions:
REMARK  status: ('A' for Active; 'I' for Inactive)
REMARK    1  A    between atoms: C6_6  and  C7_7 
REMARK    2  A    between atoms: C7_7  and  C8_8 
ROOT
HETATM    1  C1  UNL     1     -30.923  18.457   1.040  1.00 20.00     0.059 C 
HETATM    2  C6  UNL     1     -31.473  18.602  -0.319  1.00 20.00     0.129 C 
HETATM    3  N9  UNL     1     -30.488  18.345   2.110  1.00 20.00    -0.197 NA
ENDROOT
BRANCH   2   4
HETATM    4  C7  UNL     1     -32.932  18.091  -0.418  1.00 20.00     0.002 C 
HETATM    5  C2  UNL     1     -33.823  18.907   0.539  1.00 20.00     0.011 C 
BRANCH   4   6
HETATM    6  C8  UNL     1     -33.474  18.060  -1.898  1.00 20.00    -0.047 C 
HETATM    7  C3  UNL     1     -33.379  16.658  -2.527  1.00 20.00     0.015 C 
HETATM    8  C4  UNL     1     -32.673  19.044  -2.782  1.00 20.00     0.015 C 
HETATM    9  C5  UNL     1     -34.951  18.512  -1.948  1.00 20.00     0.015 C 
ENDBRANCH   4   6
ENDBRANCH   2   4
TORSDOF 2
ENDMDL
MODEL 8
REMARK VINA RESULT:      -3.6     15.281     16.995
REMARK  2 active torsions:
REMARK  status: ('A' for Active; 'I' for Inactive)
REMARK    1  A    between atoms: C6_6  and  C7_7 
REMARK    2  A    between atoms: C7_7  and  C8_8 
ROOT
HETATM    1  C1  UNL     1     -32.151  18.199  -1.150  1.00 20.00     0.059 C 
HETATM    2  C6  UNL     1     -33.325  17.437  -1.608  1.00 20.00     0.129 C 
HETATM    3  N9  UNL     1     -31.224  18.797  -0.787  1.00 20.00    -0.197 NA
ENDROOT
BRANCH   2   4
HETATM    4  C7  UNL     1     -33.330  17.237  -3.144  1.00 20.00     0.002 C 
HETATM    5  C2  UNL     1     -33.434  15.732  -3.461  1.00 20.00     0.011 C 
BRANCH   4   6
HETATM    6  C8  UNL     1     -34.428  18.104  -3.874  1.00 20.00    -0.047 C 
HETATM    7  C3  UNL     1     -35.448  18.704  -2.890  1.00 20.00     0.015 C 
HETATM    8  C4  UNL     1     -35.195  17.240  -4.902  1.00 20.00     0.015 C 
HETATM    9  C5  UNL     1     -33.774  19.262  -4.659  1.00 20.00     0.015 C 
ENDBRANCH   4   6
ENDBRANCH   2   4
TORSDOF 2
ENDMDL
MODEL 9
REMARK VINA RESULT:      -3.4     16.967     18.522
REMARK  2 active torsions:
REMARK  status: ('A' for Active; 'I' for Inactive)
REMARK    1  A    between atoms: C6_6  and  C7_7 
REMARK    2  A    between atoms: C7_7  and  C8_8 
ROOT
HETATM    1  C1  UNL     1     -35.336  15.322  -6.263  1.00 20.00     0.059 C 
HETATM    2  C6  UNL     1     -34.612  16.448  -5.649  1.00 20.00     0.129 C 
HETATM    3  N9  UNL     1     -35.906  14.435  -6.749  1.00 20.00    -0.197 NA
ENDROOT
BRANCH   2   4
HETATM    4  C7  UNL     1     -34.256  16.176  -4.166  1.00 20.00     0.002 C 
HETATM    5  C2  UNL     1     -33.038  15.234  -4.099  1.00 20.00     0.011 C 
BRANCH   4   6
HETATM    6  C8  UNL     1     -34.067  17.497  -3.326  1.00 20.00    -0.047 C 
HETATM    7  C3  UNL     1     -33.074  18.472  -3.986  1.00 20.00     0.015 C 
HETATM    8  C4  UNL     1     -33.548  17.162  -1.909  1.00 20.00     0.015 C 
HETATM    9  C5  UNL     1     -35.416  18.229  -3.149  1.00 20.00     0.015 C 
ENDBRANCH   4   6
ENDBRANCH   2   4
TORSDOF 2
ENDMDL
