MODEL 1
REMARK VINA RESULT:      -4.3      0.000      0.000
REMARK  5 active torsions:
REMARK  status: ('A' for Active; 'I' for Inactive)
REMARK    1  A    between atoms: C1_1  and  C3_3 
REMARK    2  A    between atoms: C3_3  and  C7_7 
REMARK    3  A    between atoms: C4_4  and  C5_5 
REMARK    4  A    between atoms: C4_4  and  C6_6 
REMARK    5  A    between atoms: C5_5  and  C7_7 
ROOT
HETATM    1  C2  UNL     1     -32.918   5.019   2.249  1.00 20.00     0.010 C 
HETATM    2  C7  UNL     1     -32.897   5.976   3.446  1.00 20.00    -0.012 C 
ENDROOT
BRANCH   2   3
HETATM    3  C3  UNL     1     -32.242   7.302   3.024  1.00 20.00     0.073 C 
BRANCH   3   4
HETATM    4  C1  UNL     1     -32.687   8.495   3.839  1.00 20.00     0.231 C 
HETATM    5  O8  UNL     1     -32.147   8.886   4.868  1.00 20.00    -0.307 OA
ENDBRANCH   3   4
ENDBRANCH   2   3
BRANCH   2   6
HETATM    6  C5  UNL     1     -34.320   6.223   3.996  1.00 20.00     0.005 C 
BRANCH   6   7
HETATM    7  C4  UNL     1     -34.818   5.100   4.915  1.00 20.00     0.015 C 
BRANCH   7   8
HETATM    8  C6  UNL     1     -34.500   5.344   6.388  1.00 20.00     0.114 C 
HETATM    9 CL9  UNL     1     -34.281   7.073   6.745  1.00 20.00    -0.130 Cl
ENDBRANCH   7   8
ENDBRANCH   6   7
ENDBRANCH   2   6
TORSDOF 5
ENDMDL
MODEL 2
REMARK VINA RESULT:      -4.3      2.050      2.889
REMARK  5 active torsions:
REMARK  status: ('A' for Active; 'I' for Inactive)
REMARK    1  A    between atoms: C1_1  and  C3_3 
REMARK    2  A    between atoms: C3_3  and  C7_7 
REMARK    3  A    between atoms: C4_4  and  C5_5 
REMARK    4  A    between atoms: C4_4  and  C6_6 
REMARK    5  A    between atoms: C5_5  and  C7_7 
ROOT
HETATM    1  C2  UNL     1     -32.118   9.069   5.028  1.00 20.00     0.010 C 
HETATM    2  C7  UNL     1     -32.983   8.301   4.021  1.00 20.00    -0.012 C 
ENDROOT
BRANCH   2   3
HETATM    3  C3  UNL     1     -32.103   7.291   3.264  1.00 20.00     0.073 C 
BRANCH   3   4
HETATM    4  C1  UNL     1     -32.883   6.199   2.566  1.00 20.00     0.231 C 
HETATM    5  O8  UNL     1     -32.638   5.000   2.644  1.00 20.00    -0.307 OA
ENDBRANCH   3   4
ENDBRANCH   2   3
BRANCH   2   6
HETATM    6  C5  UNL     1     -34.159   7.582   4.720  1.00 20.00     0.005 C 
BRANCH   6   7
HETATM    7  C4  UNL     1     -33.825   7.117   6.144  1.00 20.00     0.015 C 
BRANCH   7   8
HETATM    8  C6  UNL     1     -34.351   5.719   6.457  1.00 20.00     0.114 C 
HETATM    9 CL9  UNL     1     -35.003   4.912   5.012  1.00 20.00    -0.130 Cl
ENDBRANCH   7   8
ENDBRANCH   6   7
ENDBRANCH   2   6
TORSDOF 5
ENDMDL
MODEL 3
REMARK VINA RESULT:      -4.3      2.337      3.504
REMARK  5 active torsions:
REMARK  status: ('A' for Active; 'I' for Inactive)
REMARK    1  A    between atoms: C1_1  and  C3_3 
REMARK    2  A    between atoms: C3_3  and  C7_7 
REMARK    3  A    between atoms: C4_4  and  C5_5 
REMARK    4  A    between atoms: C4_4  and  C6_6 
REMARK    5  A    between atoms: C5_5  and  C7_7 
ROOT
HETATM    1  C2  UNL     1     -35.770   6.142   4.357  1.00 20.00     0.010 C 
HETATM    2  C7  UNL     1     -34.848   5.408   5.338  1.00 20.00    -0.012 C 
ENDROOT
BRANCH   2   3
HETATM    3  C3  UNL     1     -33.871   4.520   4.547  1.00 20.00     0.073 C 
BRANCH   3   4
HETATM    4  C1  UNL     1     -33.632   4.982   3.127  1.00 20.00     0.231 C 
HETATM    5  O8  UNL     1     -32.530   5.129   2.610  1.00 20.00    -0.307 OA
ENDBRANCH   3   4
ENDBRANCH   2   3
BRANCH   2   6
HETATM    6  C5  UNL     1     -34.076   6.400   6.237  1.00 20.00     0.005 C 
BRANCH   6   7
HETATM    7  C4  UNL     1     -33.963   7.805   5.631  1.00 20.00     0.015 C 
BRANCH   7   8
HETATM    8  C6  UNL     1     -32.589   8.091   5.031  1.00 20.00     0.114 C 
HETATM    9 CL9  UNL     1     -32.688   8.504   3.304  1.00 20.00    -0.130 Cl
ENDBRANCH   7   8
ENDBRANCH   6   7
ENDBRANCH   2   6
TORSDOF 5
ENDMDL
MODEL 4
REMARK VINA RESULT:      -4.2      1.932      3.085
REMARK  5 active torsions:
REMARK  status: ('A' for Active; 'I' for Inactive)
REMARK    1  A    between atoms: C1_1  and  C3_3 
REMARK    2  A    between atoms: C3_3  and  C7_7 
REMARK    3  A    between atoms: C4_4  and  C5_5 
REMARK    4  A    between atoms: C4_4  and  C6_6 
REMARK    5  A    between atoms: C5_5  and  C7_7 
ROOT
HETATM    1  C2  UNL     1     -34.399   4.962   6.527  1.00 20.00     0.010 C 
HETATM    2  C7  UNL     1     -34.704   6.275   5.798  1.00 20.00    -0.012 C 
ENDROOT
BRANCH   2   3
HETATM    3  C3  UNL     1     -33.722   7.360   6.273  1.00 20.00     0.073 C 
BRANCH   3   4
HETATM    4  C1  UNL     1     -33.431   8.422   5.238  1.00 20.00     0.231 C 
HETATM    5  O8  UNL     1     -32.334   8.934   5.044  1.00 20.00    -0.307 OA
ENDBRANCH   3   4
ENDBRANCH   2   3
BRANCH   2   6
HETATM    6  C5  UNL     1     -34.622   6.101   4.264  1.00 20.00     0.005 C 
BRANCH   6   7
HETATM    7  C4  UNL     1     -33.839   4.853   3.836  1.00 20.00     0.015 C 
BRANCH   7   8
HETATM    8  C6  UNL     1     -32.990   5.076   2.588  1.00 20.00     0.114 C 
HETATM    9 CL9  UNL     1     -32.306   6.717   2.530  1.00 20.00    -0.130 Cl
ENDBRANCH   7   8
ENDBRANCH   6   7
ENDBRANCH   2   6
TORSDOF 5
ENDMDL
MODEL 5
REMARK VINA RESULT:      -4.0      2.249      2.692
REMARK  5 active torsions:
REMARK  status: ('A' for Active; 'I' for Inactive)
REMARK    1  A    between atoms: C1_1  and  C3_3 
REMARK    2  A    between atoms: C3_3  and  C7_7 
REMARK    3  A    between atoms: C4_4  and  C5_5 
REMARK    4  A    between atoms: C4_4  and  C6_6 
REMARK    5  A    between atoms: C5_5  and  C7_7 
ROOT
HETATM    1  C2  UNL     1     -32.634   6.480   2.925  1.00 20.00     0.010 C 
HETATM    2  C7  UNL     1     -32.120   7.861   3.349  1.00 20.00    -0.012 C 
ENDROOT
BRANCH   2   3
HETATM    3  C3  UNL     1     -32.664   8.924   2.379  1.00 20.00     0.073 C 
BRANCH   3   4
HETATM    4  C1  UNL     1     -32.355   8.644   0.925  1.00 20.00     0.231 C 
HETATM    5  O8  UNL     1     -32.897   9.194  -0.027  1.00 20.00    -0.307 OA
ENDBRANCH   3   4
ENDBRANCH   2   3
BRANCH   2   6
HETATM    6  C5  UNL     1     -32.527   8.192   4.804  1.00 20.00     0.005 C 
BRANCH   6   7
HETATM    7  C4  UNL     1     -33.948   7.732   5.155  1.00 20.00     0.015 C 
BRANCH   7   8
HETATM    8  C6  UNL     1     -34.006   6.872   6.414  1.00 20.00     0.114 C 
HETATM    9 CL9  UNL     1     -34.705   5.268   6.096  1.00 20.00    -0.130 Cl
ENDBRANCH   7   8
ENDBRANCH   6   7
ENDBRANCH   2   6
TORSDOF 5
ENDMDL
MODEL 6
REMARK VINA RESULT:      -3.9      3.005      4.455
REMARK  5 active torsions:
REMARK  status: ('A' for Active; 'I' for Inactive)
REMARK    1  A    between atoms: C1_1  and  C3_3 
REMARK    2  A    between atoms: C3_3  and  C7_7 
REMARK    3  A    between atoms: C4_4  and  C5_5 
REMARK    4  A    between atoms: C4_4  and  C6_6 
REMARK    5  A    between atoms: C5_5  and  C7_7 
ROOT
HETATM    1  C2  UNL     1     -34.041   7.256   6.790  1.00 20.00     0.010 C 
HETATM    2  C7  UNL     1     -33.707   7.102   5.302  1.00 20.00    -0.012 C 
ENDROOT
BRANCH   2   3
HETATM    3  C3  UNL     1     -34.802   6.263   4.621  1.00 20.00     0.073 C 
BRANCH   3   4
HETATM    4  C1  UNL     1     -34.730   4.786   4.937  1.00 20.00     0.231 C 
HETATM    5  O8  UNL     1     -34.031   3.972   4.344  1.00 20.00    -0.307 OA
ENDBRANCH   3   4
ENDBRANCH   2   3
BRANCH   2   6
HETATM    6  C5  UNL     1     -33.566   8.478   4.610  1.00 20.00     0.005 C 
BRANCH   6   7
HETATM    7  C4  UNL     1     -32.278   8.612   3.787  1.00 20.00     0.015 C 
BRANCH   7   8
HETATM    8  C6  UNL     1     -32.181   7.595   2.654  1.00 20.00     0.114 C 
HETATM    9 CL9  UNL     1     -32.159   8.376   1.056  1.00 20.00    -0.130 Cl
ENDBRANCH   7   8
ENDBRANCH   6   7
ENDBRANCH   2   6
TORSDOF 5
ENDMDL
MODEL 7
REMARK VINA RESULT:      -3.9      2.518      3.980
REMARK  5 active torsions:
REMARK  status: ('A' for Active; 'I' for Inactive)
REMARK    1  A    between atoms: C1_1  and  C3_3 
REMARK    2  A    between atoms: C3_3  and  C7_7 
REMARK    3  A    between atoms: C4_4  and  C5_5 
REMARK    4  A    between atoms: C4_4  and  C6_6 
REMARK    5  A    between atoms: C5_5  and  C7_7 
ROOT
HETATM    1  C2  UNL     1     -34.760   6.098   6.669  1.00 20.00     0.010 C 
HETATM    2  C7  UNL     1     -33.993   6.500   5.405  1.00 20.00    -0.012 C 
ENDROOT
BRANCH   2   3
HETATM    3  C3  UNL     1     -34.607   5.783   4.190  1.00 20.00     0.073 C 
BRANCH   3   4
HETATM    4  C1  UNL     1     -33.668   4.815   3.506  1.00 20.00     0.231 C 
HETATM    5  O8  UNL     1     -32.940   5.091   2.559  1.00 20.00    -0.307 OA
ENDBRANCH   3   4
ENDBRANCH   2   3
BRANCH   2   6
HETATM    6  C5  UNL     1     -34.007   8.031   5.197  1.00 20.00     0.005 C 
BRANCH   6   7
HETATM    7  C4  UNL     1     -32.606   8.631   5.018  1.00 20.00     0.015 C 
BRANCH   7   8
HETATM    8  C6  UNL     1     -31.879   8.098   3.787  1.00 20.00     0.114 C 
HETATM    9 CL9  UNL     1     -32.590   8.706   2.275  1.00 20.00    -0.130 Cl
ENDBRANCH   7   8
ENDBRANCH   6   7
ENDBRANCH   2   6
TORSDOF 5
ENDMDL
MODEL 8
REMARK VINA RESULT:      -3.9      3.084      4.578
REMARK  5 active torsions:
REMARK  status: ('A' for Active; 'I' for Inactive)
REMARK    1  A    between atoms: C1_1  and  C3_3 
REMARK    2  A    between atoms: C3_3  and  C7_7 
REMARK    3  A    between atoms: C4_4  and  C5_5 
REMARK    4  A    between atoms: C4_4  and  C6_6 
REMARK    5  A    between atoms: C5_5  and  C7_7 
ROOT
HETATM    1  C2  UNL     1     -33.686   8.770   5.672  1.00 20.00     0.010 C 
HETATM    2  C7  UNL     1     -33.268   7.315   5.433  1.00 20.00    -0.012 C 
ENDROOT
BRANCH   2   3
HETATM    3  C3  UNL     1     -34.414   6.381   5.859  1.00 20.00     0.073 C 
BRANCH   3   4
HETATM    4  C1  UNL     1     -34.830   5.391   4.794  1.00 20.00     0.231 C 
HETATM    5  O8  UNL     1     -34.404   4.246   4.694  1.00 20.00    -0.307 OA
ENDBRANCH   3   4
ENDBRANCH   2   3
BRANCH   2   6
HETATM    6  C5  UNL     1     -32.888   7.071   3.955  1.00 20.00     0.005 C 
BRANCH   6   7
HETATM    7  C4  UNL     1     -32.521   8.357   3.204  1.00 20.00     0.015 C 
BRANCH   7   8
HETATM    8  C6  UNL     1     -32.175   8.117   1.737  1.00 20.00     0.114 C 
HETATM    9 CL9  UNL     1     -32.726   9.449   0.695  1.00 20.00    -0.130 Cl
ENDBRANCH   7   8
ENDBRANCH   6   7
ENDBRANCH   2   6
TORSDOF 5
ENDMDL
MODEL 9
REMARK VINA RESULT:      -3.9      2.040      2.916
REMARK  5 active torsions:
REMARK  status: ('A' for Active; 'I' for Inactive)
REMARK    1  A    between atoms: C1_1  and  C3_3 
REMARK    2  A    between atoms: C3_3  and  C7_7 
REMARK    3  A    between atoms: C4_4  and  C5_5 
REMARK    4  A    between atoms: C4_4  and  C6_6 
REMARK    5  A    between atoms: C5_5  and  C7_7 
ROOT
HETATM    1  C2  UNL     1     -34.044   9.136   5.634  1.00 20.00     0.010 C 
HETATM    2  C7  UNL     1     -33.585   7.783   5.078  1.00 20.00    -0.012 C 
ENDROOT
BRANCH   2   3
HETATM    3  C3  UNL     1     -32.255   7.968   4.327  1.00 20.00     0.073 C 
BRANCH   3   4
HETATM    4  C1  UNL     1     -32.187   7.235   3.006  1.00 20.00     0.231 C 
HETATM    5  O8  UNL     1     -32.159   7.772   1.904  1.00 20.00    -0.307 OA
ENDBRANCH   3   4
ENDBRANCH   2   3
BRANCH   2   6
HETATM    6  C5  UNL     1     -33.433   6.733   6.203  1.00 20.00     0.005 C 
BRANCH   6   7
HETATM    7  C4  UNL     1     -34.621   5.767   6.294  1.00 20.00     0.015 C 
BRANCH   7   8
HETATM    8  C6  UNL     1     -35.108   5.286   4.931  1.00 20.00     0.114 C 
HETATM    9 CL9  UNL     1     -33.903   4.265   4.113  1.00 20.00    -0.130 Cl
ENDBRANCH   7   8
ENDBRANCH   6   7
ENDBRANCH   2   6
TORSDOF 5
ENDMDL
