MODEL 1
REMARK VINA RESULT:      -5.0      0.000      0.000
REMARK  3 active torsions:
REMARK  status: ('A' for Active; 'I' for Inactive)
REMARK    1  A    between atoms: C3_3  and  C8_8 
REMARK    2  A    between atoms: C3_3  and  O10_10 
REMARK    3  A    between atoms: C6_6  and  C8_8 
ROOT
HETATM    1  C1  UNL     1     -32.182   8.945   4.779  1.00 20.00    -0.026 C 
HETATM    2  C2  UNL     1     -33.159   8.469   5.556  1.00 20.00    -0.025 C 
HETATM    3  C4  UNL     1     -32.991   6.998   3.714  1.00 20.00     0.017 C 
HETATM    4  C5  UNL     1     -32.111   8.233   3.463  1.00 20.00     0.004 C 
HETATM    5  C6  UNL     1     -33.916   7.365   4.885  1.00 20.00     0.018 C 
HETATM    6  C7  UNL     1     -32.628   9.102   2.322  1.00 20.00     0.014 C 
ENDROOT
BRANCH   5   7
HETATM    7  C8  UNL     1     -34.185   6.180   5.802  1.00 20.00     0.118 C 
BRANCH   7   8
HETATM    8  C3  UNL     1     -34.623   4.963   5.032  1.00 20.00     0.140 C 
HETATM    9  O9  UNL     1     -33.971   3.944   4.856  1.00 20.00    -0.650 OA
BRANCH   8  10
HETATM   10  O10 UNL     1     -35.876   5.149   4.542  1.00 20.00    -0.776 OA
HETATM   11  H22 UNL     1     -36.557   4.734   5.114  1.00 20.00     0.167 HD
ENDBRANCH   8  10
ENDBRANCH   7   8
ENDBRANCH   5   7
TORSDOF 3
ENDMDL
MODEL 2
REMARK VINA RESULT:      -4.5     11.717     12.713
REMARK  3 active torsions:
REMARK  status: ('A' for Active; 'I' for Inactive)
REMARK    1  A    between atoms: C3_3  and  C8_8 
REMARK    2  A    between atoms: C3_3  and  O10_10 
REMARK    3  A    between atoms: C6_6  and  C8_8 
ROOT
HETATM    1  C1  UNL     1     -33.285  19.263  -2.485  1.00 20.00    -0.026 C 
HETATM    2  C2  UNL     1     -33.292  18.561  -3.622  1.00 20.00    -0.025 C 
HETATM    3  C4  UNL     1     -33.412  16.988  -1.863  1.00 20.00     0.017 C 
HETATM    4  C5  UNL     1     -33.137  18.384  -1.281  1.00 20.00     0.004 C 
HETATM    5  C6  UNL     1     -33.138  17.092  -3.372  1.00 20.00     0.018 C 
HETATM    6  C7  UNL     1     -31.748  18.501  -0.664  1.00 20.00     0.014 C 
ENDROOT
BRANCH   5   7
HETATM    7  C8  UNL     1     -34.095  16.241  -4.193  1.00 20.00     0.118 C 
BRANCH   7   8
HETATM    8  C3  UNL     1     -33.648  14.804  -4.263  1.00 20.00     0.140 C 
HETATM    9  O9  UNL     1     -34.347  13.820  -4.073  1.00 20.00    -0.650 OA
BRANCH   8  10
HETATM   10  O10 UNL     1     -32.328  14.744  -4.575  1.00 20.00    -0.776 OA
HETATM   11  H22 UNL     1     -32.186  14.529  -5.522  1.00 20.00     0.167 HD
ENDBRANCH   8  10
ENDBRANCH   7   8
ENDBRANCH   5   7
TORSDOF 3
ENDMDL
MODEL 3
REMARK VINA RESULT:      -4.4     15.361     16.561
REMARK  3 active torsions:
REMARK  status: ('A' for Active; 'I' for Inactive)
REMARK    1  A    between atoms: C3_3  and  C8_8 
REMARK    2  A    between atoms: C3_3  and  O10_10 
REMARK    3  A    between atoms: C6_6  and  C8_8 
ROOT
HETATM    1  C1  UNL     1     -23.556  18.324  12.332  1.00 20.00    -0.026 C 
HETATM    2  C2  UNL     1     -22.436  18.535  11.635  1.00 20.00    -0.025 C 
HETATM    3  C4  UNL     1     -23.979  17.550  10.140  1.00 20.00     0.017 C 
HETATM    4  C5  UNL     1     -24.549  17.503  11.567  1.00 20.00     0.004 C 
HETATM    5  C6  UNL     1     -22.485  17.881  10.289  1.00 20.00     0.018 C 
HETATM    6  C7  UNL     1     -24.650  16.084  12.114  1.00 20.00     0.014 C 
ENDROOT
BRANCH   5   7
HETATM    7  C8  UNL     1     -21.978  18.776   9.168  1.00 20.00     0.118 C 
BRANCH   7   8
HETATM    8  C3  UNL     1     -22.155  18.138   7.816  1.00 20.00     0.140 C 
HETATM    9  O9  UNL     1     -21.629  17.106   7.428  1.00 20.00    -0.650 OA
BRANCH   8  10
HETATM   10  O10 UNL     1     -23.002  18.883   7.060  1.00 20.00    -0.776 OA
HETATM   11  H22 UNL     1     -22.773  19.837   7.087  1.00 20.00     0.167 HD
ENDBRANCH   8  10
ENDBRANCH   7   8
ENDBRANCH   5   7
TORSDOF 3
ENDMDL
MODEL 4
REMARK VINA RESULT:      -4.4      2.650      4.063
REMARK  3 active torsions:
REMARK  status: ('A' for Active; 'I' for Inactive)
REMARK    1  A    between atoms: C3_3  and  C8_8 
REMARK    2  A    between atoms: C3_3  and  O10_10 
REMARK    3  A    between atoms: C6_6  and  C8_8 
ROOT
HETATM    1  C1  UNL     1     -34.280   6.923   6.406  1.00 20.00    -0.026 C 
HETATM    2  C2  UNL     1     -33.260   7.690   6.012  1.00 20.00    -0.025 C 
HETATM    3  C4  UNL     1     -34.216   6.787   4.048  1.00 20.00     0.017 C 
HETATM    4  C5  UNL     1     -34.845   6.114   5.278  1.00 20.00     0.004 C 
HETATM    5  C6  UNL     1     -32.959   7.513   4.555  1.00 20.00     0.018 C 
HETATM    6  C7  UNL     1     -34.471   4.641   5.399  1.00 20.00     0.014 C 
ENDROOT
BRANCH   5   7
HETATM    7  C8  UNL     1     -32.720   8.829   3.829  1.00 20.00     0.118 C 
BRANCH   7   8
HETATM    8  C3  UNL     1     -32.511   8.625   2.352  1.00 20.00     0.140 C 
HETATM    9  O9  UNL     1     -32.016   7.642   1.820  1.00 20.00    -0.650 OA
BRANCH   8  10
HETATM   10  O10 UNL     1     -32.958   9.708   1.666  1.00 20.00    -0.776 OA
HETATM   11  H22 UNL     1     -32.352   9.953   0.934  1.00 20.00     0.167 HD
ENDBRANCH   8  10
ENDBRANCH   7   8
ENDBRANCH   5   7
TORSDOF 3
ENDMDL
MODEL 5
REMARK VINA RESULT:      -4.3      2.731      4.292
REMARK  3 active torsions:
REMARK  status: ('A' for Active; 'I' for Inactive)
REMARK    1  A    between atoms: C3_3  and  C8_8 
REMARK    2  A    between atoms: C3_3  and  O10_10 
REMARK    3  A    between atoms: C6_6  and  C8_8 
ROOT
HETATM    1  C1  UNL     1     -34.952   5.259   6.064  1.00 20.00    -0.026 C 
HETATM    2  C2  UNL     1     -34.344   6.368   6.495  1.00 20.00    -0.025 C 
HETATM    3  C4  UNL     1     -33.948   6.248   4.168  1.00 20.00     0.017 C 
HETATM    4  C5  UNL     1     -34.601   4.940   4.643  1.00 20.00     0.004 C 
HETATM    5  C6  UNL     1     -33.472   6.972   5.438  1.00 20.00     0.018 C 
HETATM    6  C7  UNL     1     -33.661   3.744   4.548  1.00 20.00     0.014 C 
ENDROOT
BRANCH   5   7
HETATM    7  C8  UNL     1     -33.621   8.483   5.331  1.00 20.00     0.118 C 
BRANCH   7   8
HETATM    8  C3  UNL     1     -32.499   9.102   4.539  1.00 20.00     0.140 C 
HETATM    9  O9  UNL     1     -32.454   9.226   3.324  1.00 20.00    -0.650 OA
BRANCH   8  10
HETATM   10  O10 UNL     1     -31.515   9.518   5.376  1.00 20.00    -0.776 OA
HETATM   11  H22 UNL     1     -31.271  10.456   5.217  1.00 20.00     0.167 HD
ENDBRANCH   8  10
ENDBRANCH   7   8
ENDBRANCH   5   7
TORSDOF 3
ENDMDL
MODEL 6
REMARK VINA RESULT:      -4.1     12.107     13.022
REMARK  3 active torsions:
REMARK  status: ('A' for Active; 'I' for Inactive)
REMARK    1  A    between atoms: C3_3  and  C8_8 
REMARK    2  A    between atoms: C3_3  and  O10_10 
REMARK    3  A    between atoms: C6_6  and  C8_8 
ROOT
HETATM    1  C1  UNL     1     -34.536  18.325  -3.315  1.00 20.00    -0.026 C 
HETATM    2  C2  UNL     1     -34.355  17.380  -4.242  1.00 20.00    -0.025 C 
HETATM    3  C4  UNL     1     -33.406  16.548  -2.243  1.00 20.00     0.017 C 
HETATM    4  C5  UNL     1     -33.791  18.024  -2.050  1.00 20.00     0.004 C 
HETATM    5  C6  UNL     1     -33.446  16.291  -3.758  1.00 20.00     0.018 C 
HETATM    6  C7  UNL     1     -32.577  18.931  -1.881  1.00 20.00     0.014 C 
ENDROOT
BRANCH   5   7
HETATM    7  C8  UNL     1     -33.951  14.896  -4.094  1.00 20.00     0.118 C 
BRANCH   7   8
HETATM    8  C3  UNL     1     -34.341  14.774  -5.544  1.00 20.00     0.140 C 
HETATM    9  O9  UNL     1     -35.477  14.670  -5.981  1.00 20.00    -0.650 OA
BRANCH   8  10
HETATM   10  O10 UNL     1     -33.231  14.795  -6.325  1.00 20.00    -0.776 OA
HETATM   11  H22 UNL     1     -33.327  14.216  -7.112  1.00 20.00     0.167 HD
ENDBRANCH   8  10
ENDBRANCH   7   8
ENDBRANCH   5   7
TORSDOF 3
ENDMDL
MODEL 7
REMARK VINA RESULT:      -4.0     12.419     13.601
REMARK  3 active torsions:
REMARK  status: ('A' for Active; 'I' for Inactive)
REMARK    1  A    between atoms: C3_3  and  C8_8 
REMARK    2  A    between atoms: C3_3  and  O10_10 
REMARK    3  A    between atoms: C6_6  and  C8_8 
ROOT
HETATM    1  C1  UNL     1     -33.175  16.231  -2.997  1.00 20.00    -0.026 C 
HETATM    2  C2  UNL     1     -33.859  15.741  -4.034  1.00 20.00    -0.025 C 
HETATM    3  C4  UNL     1     -33.995  18.095  -4.195  1.00 20.00     0.017 C 
HETATM    4  C5  UNL     1     -33.359  17.711  -2.849  1.00 20.00     0.004 C 
HETATM    5  C6  UNL     1     -34.627  16.808  -4.750  1.00 20.00     0.018 C 
HETATM    6  C7  UNL     1     -34.248  18.053  -1.659  1.00 20.00     0.014 C 
ENDROOT
BRANCH   5   7
HETATM    7  C8  UNL     1     -34.513  16.716  -6.265  1.00 20.00     0.118 C 
BRANCH   7   8
HETATM    8  C3  UNL     1     -34.506  15.287  -6.741  1.00 20.00     0.140 C 
HETATM    9  O9  UNL     1     -35.456  14.519  -6.738  1.00 20.00    -0.650 OA
BRANCH   8  10
HETATM   10  O10 UNL     1     -33.268  14.954  -7.188  1.00 20.00    -0.776 OA
HETATM   11  H22 UNL     1     -33.307  14.437  -8.021  1.00 20.00     0.167 HD
ENDBRANCH   8  10
ENDBRANCH   7   8
ENDBRANCH   5   7
TORSDOF 3
ENDMDL
MODEL 8
REMARK VINA RESULT:      -3.9      9.291     10.149
REMARK  3 active torsions:
REMARK  status: ('A' for Active; 'I' for Inactive)
REMARK    1  A    between atoms: C3_3  and  C8_8 
REMARK    2  A    between atoms: C3_3  and  O10_10 
REMARK    3  A    between atoms: C6_6  and  C8_8 
ROOT
HETATM    1  C1  UNL     1     -42.706  13.597   7.506  1.00 20.00    -0.026 C 
HETATM    2  C2  UNL     1     -42.320  12.626   6.674  1.00 20.00    -0.025 C 
HETATM    3  C4  UNL     1     -40.483  14.099   6.884  1.00 20.00     0.017 C 
HETATM    4  C5  UNL     1     -41.715  14.719   7.562  1.00 20.00     0.004 C 
HETATM    5  C6  UNL     1     -41.009  12.941   6.020  1.00 20.00     0.018 C 
HETATM    6  C7  UNL     1     -42.225  15.959   6.835  1.00 20.00     0.014 C 
ENDROOT
BRANCH   5   7
HETATM    7  C8  UNL     1     -40.053  11.758   5.996  1.00 20.00     0.118 C 
BRANCH   7   8
HETATM    8  C3  UNL     1     -38.960  11.941   4.976  1.00 20.00     0.140 C 
HETATM    9  O9  UNL     1     -39.060  11.774   3.770  1.00 20.00    -0.650 OA
BRANCH   8  10
HETATM   10  O10 UNL     1     -37.813  12.328   5.591  1.00 20.00    -0.776 OA
HETATM   11  H22 UNL     1     -37.162  11.595   5.646  1.00 20.00     0.167 HD
ENDBRANCH   8  10
ENDBRANCH   7   8
ENDBRANCH   5   7
TORSDOF 3
ENDMDL
MODEL 9
REMARK VINA RESULT:      -3.9     12.396     13.561
REMARK  3 active torsions:
REMARK  status: ('A' for Active; 'I' for Inactive)
REMARK    1  A    between atoms: C3_3  and  C8_8 
REMARK    2  A    between atoms: C3_3  and  O10_10 
REMARK    3  A    between atoms: C6_6  and  C8_8 
ROOT
HETATM    1  C1  UNL     1     -33.030  15.480  -3.786  1.00 20.00    -0.026 C 
HETATM    2  C2  UNL     1     -34.005  15.166  -4.643  1.00 20.00    -0.025 C 
HETATM    3  C4  UNL     1     -34.131  17.503  -4.314  1.00 20.00     0.017 C 
HETATM    4  C5  UNL     1     -33.128  16.900  -3.317  1.00 20.00     0.004 C 
HETATM    5  C6  UNL     1     -34.930  16.319  -4.884  1.00 20.00     0.018 C 
HETATM    6  C7  UNL     1     -33.610  16.986  -1.873  1.00 20.00     0.014 C 
ENDROOT
BRANCH   5   7
HETATM    7  C8  UNL     1     -35.278  16.511  -6.352  1.00 20.00     0.118 C 
BRANCH   7   8
HETATM    8  C3  UNL     1     -34.962  15.286  -7.169  1.00 20.00     0.140 C 
HETATM    9  O9  UNL     1     -33.926  15.071  -7.780  1.00 20.00    -0.650 OA
BRANCH   8  10
HETATM   10  O10 UNL     1     -36.011  14.424  -7.137  1.00 20.00    -0.776 OA
HETATM   11  H22 UNL     1     -35.715  13.490  -7.093  1.00 20.00     0.167 HD
ENDBRANCH   8  10
ENDBRANCH   7   8
ENDBRANCH   5   7
TORSDOF 3
ENDMDL
