MODEL 1
REMARK VINA RESULT:      -4.6      0.000      0.000
REMARK  0 active torsions:
REMARK  status: ('A' for Active; 'I' for Inactive)
ROOT
HETATM    1  C1  UNL     1     -34.984  13.878  -4.598  1.00 20.00     0.068 C 
HETATM    2  C2  UNL     1     -34.577  18.378  -4.567  1.00 20.00     0.009 A 
HETATM    3  C3  UNL     1     -34.224  18.643  -3.243  1.00 20.00     0.019 A 
HETATM    4  C4  UNL     1     -33.573  16.324  -2.903  1.00 20.00     0.028 A 
HETATM    5  C5  UNL     1     -34.412  17.089  -5.045  1.00 20.00    -0.050 A 
HETATM    6  C6  UNL     1     -33.920  16.069  -4.221  1.00 20.00    -0.033 A 
HETATM    7  C7  UNL     1     -33.725  17.624  -2.417  1.00 20.00     0.011 A 
HETATM    8  C8  UNL     1     -34.747  16.563  -6.404  1.00 20.00     0.041 C 
HETATM    9  C9  UNL     1     -33.960  15.241  -6.416  1.00 20.00     0.028 C 
HETATM   10  C10 UNL     1     -33.865  14.758  -4.953  1.00 20.00     0.126 C 
HETATM   11  N11 UNL     1     -35.870  13.182  -4.317  1.00 20.00    -0.197 NA
HETATM   12 BR12 UNL     1     -33.263  18.016  -0.624  1.00 20.00    -0.051 Br
ENDROOT
TORSDOF 0
ENDMDL
MODEL 2
REMARK VINA RESULT:      -4.4      2.987      4.622
REMARK  0 active torsions:
REMARK  status: ('A' for Active; 'I' for Inactive)
ROOT
HETATM    1  C1  UNL     1     -35.670  18.887  -2.758  1.00 20.00     0.068 C 
HETATM    2  C2  UNL     1     -33.478  15.137  -4.006  1.00 20.00     0.009 A 
HETATM    3  C3  UNL     1     -33.893  14.968  -5.328  1.00 20.00     0.019 A 
HETATM    4  C4  UNL     1     -34.635  17.281  -5.442  1.00 20.00     0.028 A 
HETATM    5  C5  UNL     1     -33.638  16.383  -3.423  1.00 20.00    -0.050 A 
HETATM    6  C6  UNL     1     -34.216  17.445  -4.131  1.00 20.00    -0.033 A 
HETATM    7  C7  UNL     1     -34.466  16.031  -6.041  1.00 20.00     0.011 A 
HETATM    8  C8  UNL     1     -33.302  16.793  -2.024  1.00 20.00     0.041 C 
HETATM    9  C9  UNL     1     -33.318  18.326  -2.150  1.00 20.00     0.028 C 
HETATM   10  C10 UNL     1     -34.313  18.677  -3.277  1.00 20.00     0.126 C 
HETATM   11  N11 UNL     1     -36.743  19.052  -2.347  1.00 20.00    -0.197 NA
HETATM   12 BR12 UNL     1     -35.025  15.766  -7.829  1.00 20.00    -0.051 Br
ENDROOT
TORSDOF 0
ENDMDL
MODEL 3
REMARK VINA RESULT:      -4.3      2.517      4.031
REMARK  0 active torsions:
REMARK  status: ('A' for Active; 'I' for Inactive)
ROOT
HETATM    1  C1  UNL     1     -33.312  16.701  -3.389  1.00 20.00     0.068 C 
HETATM    2  C2  UNL     1     -34.539  19.105   0.235  1.00 20.00     0.009 A 
HETATM    3  C3  UNL     1     -33.429  18.980   1.073  1.00 20.00     0.019 A 
HETATM    4  C4  UNL     1     -32.038  18.281  -0.795  1.00 20.00     0.028 A 
HETATM    5  C5  UNL     1     -34.379  18.826  -1.112  1.00 20.00    -0.050 A 
HETATM    6  C6  UNL     1     -33.142  18.412  -1.623  1.00 20.00    -0.033 A 
HETATM    7  C7  UNL     1     -32.188  18.572   0.562  1.00 20.00     0.011 A 
HETATM    8  C8  UNL     1     -35.418  18.857  -2.186  1.00 20.00     0.041 C 
HETATM    9  C9  UNL     1     -34.541  18.869  -3.450  1.00 20.00     0.028 C 
HETATM   10  C10 UNL     1     -33.229  18.137  -3.097  1.00 20.00     0.126 C 
HETATM   11  N11 UNL     1     -33.379  15.565  -3.620  1.00 20.00    -0.197 NA
HETATM   12 BR12 UNL     1     -30.706  18.406   1.727  1.00 20.00    -0.051 Br
ENDROOT
TORSDOF 0
ENDMDL
MODEL 4
REMARK VINA RESULT:      -4.3     24.136     25.390
REMARK  0 active torsions:
REMARK  status: ('A' for Active; 'I' for Inactive)
ROOT
HETATM    1  C1  UNL     1     -28.574  -3.056  10.237  1.00 20.00     0.068 C 
HETATM    2  C2  UNL     1     -24.983  -1.285  12.332  1.00 20.00     0.009 A 
HETATM    3  C3  UNL     1     -23.951  -2.141  11.943  1.00 20.00     0.019 A 
HETATM    4  C4  UNL     1     -25.284  -2.984  10.091  1.00 20.00     0.028 A 
HETATM    5  C5  UNL     1     -26.150  -1.284  11.586  1.00 20.00    -0.050 A 
HETATM    6  C6  UNL     1     -26.303  -2.128  10.479  1.00 20.00    -0.033 A 
HETATM    7  C7  UNL     1     -24.100  -2.983  10.831  1.00 20.00     0.011 A 
HETATM    8  C8  UNL     1     -27.392  -0.486  11.826  1.00 20.00     0.041 C 
HETATM    9  C9  UNL     1     -28.100  -0.620  10.467  1.00 20.00     0.028 C 
HETATM   10  C10 UNL     1     -27.663  -1.969   9.859  1.00 20.00     0.126 C 
HETATM   11  N11 UNL     1     -29.295  -3.916  10.536  1.00 20.00    -0.197 NA
HETATM   12 BR12 UNL     1     -22.684  -4.136  10.334  1.00 20.00    -0.051 Br
ENDROOT
TORSDOF 0
ENDMDL
MODEL 5
REMARK VINA RESULT:      -4.2      1.380      2.084
REMARK  0 active torsions:
REMARK  status: ('A' for Active; 'I' for Inactive)
ROOT
HETATM    1  C1  UNL     1     -33.826  15.151  -4.024  1.00 20.00     0.068 C 
HETATM    2  C2  UNL     1     -35.444  18.928  -2.144  1.00 20.00     0.009 A 
HETATM    3  C3  UNL     1     -34.697  19.027  -0.968  1.00 20.00     0.019 A 
HETATM    4  C4  UNL     1     -33.029  17.487  -1.843  1.00 20.00     0.028 A 
HETATM    5  C5  UNL     1     -34.966  18.115  -3.158  1.00 20.00    -0.050 A 
HETATM    6  C6  UNL     1     -33.773  17.397  -3.009  1.00 20.00    -0.033 A 
HETATM    7  C7  UNL     1     -33.498  18.313  -0.820  1.00 20.00     0.011 A 
HETATM    8  C8  UNL     1     -35.602  17.828  -4.481  1.00 20.00     0.041 C 
HETATM    9  C9  UNL     1     -34.416  17.234  -5.260  1.00 20.00     0.028 C 
HETATM   10  C10 UNL     1     -33.485  16.564  -4.227  1.00 20.00     0.126 C 
HETATM   11  N11 UNL     1     -34.096  14.033  -3.865  1.00 20.00    -0.197 NA
HETATM   12 BR12 UNL     1     -32.513  18.465   0.789  1.00 20.00    -0.051 Br
ENDROOT
TORSDOF 0
ENDMDL
MODEL 6
REMARK VINA RESULT:      -4.1      2.909      3.931
REMARK  0 active torsions:
REMARK  status: ('A' for Active; 'I' for Inactive)
ROOT
HETATM    1  C1  UNL     1     -33.504  16.908  -2.419  1.00 20.00     0.068 C 
HETATM    2  C2  UNL     1     -36.202  15.220  -5.627  1.00 20.00     0.009 A 
HETATM    3  C3  UNL     1     -36.877  16.354  -6.084  1.00 20.00     0.019 A 
HETATM    4  C4  UNL     1     -35.199  17.810  -5.095  1.00 20.00     0.028 A 
HETATM    5  C5  UNL     1     -35.026  15.399  -4.917  1.00 20.00    -0.050 A 
HETATM    6  C6  UNL     1     -34.531  16.681  -4.648  1.00 20.00    -0.033 A 
HETATM    7  C7  UNL     1     -36.379  17.639  -5.821  1.00 20.00     0.011 A 
HETATM    8  C8  UNL     1     -34.155  14.349  -4.305  1.00 20.00     0.041 C 
HETATM    9  C9  UNL     1     -32.860  15.143  -4.057  1.00 20.00     0.028 C 
HETATM   10  C10 UNL     1     -33.267  16.615  -3.838  1.00 20.00     0.126 C 
HETATM   11  N11 UNL     1     -33.691  17.139  -1.297  1.00 20.00    -0.197 NA
HETATM   12 BR12 UNL     1     -37.322  19.154  -6.450  1.00 20.00    -0.051 Br
ENDROOT
TORSDOF 0
ENDMDL
MODEL 7
REMARK VINA RESULT:      -4.0      2.207      3.063
REMARK  0 active torsions:
REMARK  status: ('A' for Active; 'I' for Inactive)
ROOT
HETATM    1  C1  UNL     1     -34.523  18.059  -7.092  1.00 20.00     0.068 C 
HETATM    2  C2  UNL     1     -33.366  15.745  -3.387  1.00 20.00     0.009 A 
HETATM    3  C3  UNL     1     -33.470  16.709  -2.382  1.00 20.00     0.019 A 
HETATM    4  C4  UNL     1     -34.834  18.125  -3.814  1.00 20.00     0.028 A 
HETATM    5  C5  UNL     1     -34.009  15.982  -4.591  1.00 20.00    -0.050 A 
HETATM    6  C6  UNL     1     -34.732  17.162  -4.806  1.00 20.00    -0.033 A 
HETATM    7  C7  UNL     1     -34.199  17.889  -2.593  1.00 20.00     0.011 A 
HETATM    8  C8  UNL     1     -34.015  15.121  -5.814  1.00 20.00     0.041 C 
HETATM    9  C9  UNL     1     -35.202  15.714  -6.591  1.00 20.00     0.028 C 
HETATM   10  C10 UNL     1     -35.305  17.202  -6.195  1.00 20.00     0.126 C 
HETATM   11  N11 UNL     1     -33.903  18.737  -7.803  1.00 20.00    -0.197 NA
HETATM   12 BR12 UNL     1     -34.314  19.177  -1.212  1.00 20.00    -0.051 Br
ENDROOT
TORSDOF 0
ENDMDL
MODEL 8
REMARK VINA RESULT:      -4.0      2.531      3.141
REMARK  0 active torsions:
REMARK  status: ('A' for Active; 'I' for Inactive)
ROOT
HETATM    1  C1  UNL     1     -34.098  15.102  -6.669  1.00 20.00     0.068 C 
HETATM    2  C2  UNL     1     -34.426  17.932  -3.162  1.00 20.00     0.009 A 
HETATM    3  C3  UNL     1     -35.560  18.680  -3.480  1.00 20.00     0.019 A 
HETATM    4  C4  UNL     1     -36.275  17.002  -5.089  1.00 20.00     0.028 A 
HETATM    5  C5  UNL     1     -34.237  16.720  -3.806  1.00 20.00    -0.050 A 
HETATM    6  C6  UNL     1     -35.149  16.261  -4.765  1.00 20.00    -0.033 A 
HETATM    7  C7  UNL     1     -36.478  18.219  -4.435  1.00 20.00     0.011 A 
HETATM    8  C8  UNL     1     -33.093  15.769  -3.657  1.00 20.00     0.041 C 
HETATM    9  C9  UNL     1     -33.680  14.494  -4.288  1.00 20.00     0.028 C 
HETATM   10  C10 UNL     1     -34.710  14.946  -5.345  1.00 20.00     0.126 C 
HETATM   11  N11 UNL     1     -33.612  15.225  -7.717  1.00 20.00    -0.197 NA
HETATM   12 BR12 UNL     1     -38.002  19.262  -4.848  1.00 20.00    -0.051 Br
ENDROOT
TORSDOF 0
ENDMDL
MODEL 9
REMARK VINA RESULT:      -3.9     11.634     13.031
REMARK  0 active torsions:
REMARK  status: ('A' for Active; 'I' for Inactive)
ROOT
HETATM    1  C1  UNL     1     -34.163   4.536   4.589  1.00 20.00     0.068 C 
HETATM    2  C2  UNL     1     -32.403   8.656   5.177  1.00 20.00     0.009 A 
HETATM    3  C3  UNL     1     -32.177   9.080   3.866  1.00 20.00     0.019 A 
HETATM    4  C4  UNL     1     -33.695   7.387   3.006  1.00 20.00     0.028 A 
HETATM    5  C5  UNL     1     -33.282   7.607   5.384  1.00 20.00    -0.050 A 
HETATM    6  C6  UNL     1     -33.919   6.973   4.310  1.00 20.00    -0.033 A 
HETATM    7  C7  UNL     1     -32.818   8.451   2.789  1.00 20.00     0.011 A 
HETATM    8  C8  UNL     1     -33.655   6.962   6.682  1.00 20.00     0.041 C 
HETATM    9  C9  UNL     1     -34.928   6.198   6.281  1.00 20.00     0.028 C 
HETATM   10  C10 UNL     1     -34.793   5.847   4.785  1.00 20.00     0.126 C 
HETATM   11  N11 UNL     1     -33.664   3.499   4.434  1.00 20.00    -0.197 NA
HETATM   12 BR12 UNL     1     -32.485   9.047   1.025  1.00 20.00    -0.051 Br
ENDROOT
TORSDOF 0
ENDMDL
