MODEL 1
REMARK VINA RESULT:      -6.0      0.000      0.000
REMARK  2 active torsions:
REMARK  status: ('A' for Active; 'I' for Inactive)
REMARK    1  A    between atoms: C5_5  and  C6_6 
REMARK    2  A    between atoms: C6_6  and  C7_7 
ROOT
HETATM    1  C1  UNL     1     -34.387   5.317   5.026  1.00 20.00     0.131 C 
HETATM    2  C2  UNL     1     -34.482   5.461   6.525  1.00 20.00     0.079 C 
HETATM    3  C3  UNL     1     -34.350   6.968   6.706  1.00 20.00     0.008 C 
HETATM    4  C4  UNL     1     -33.452   7.411   5.558  1.00 20.00     0.013 C 
HETATM    5  C5  UNL     1     -33.957   6.607   4.358  1.00 20.00     0.064 C 
HETATM    6  O8  UNL     1     -34.628   4.276   4.429  1.00 20.00    -0.298 OA
ENDROOT
BRANCH   5   7
HETATM    7  C6  UNL     1     -32.896   6.399   3.296  1.00 20.00     0.129 C 
BRANCH   7   8
HETATM    8  C7  UNL     1     -32.217   7.692   2.930  1.00 20.00     0.388 C 
HETATM    9  F9  UNL     1     -33.018   8.756   3.150  1.00 20.00    -0.171 F 
HETATM   10  F10 UNL     1     -31.898   7.684   1.617  1.00 20.00    -0.171 F 
HETATM   11  F11 UNL     1     -31.076   7.874   3.628  1.00 20.00    -0.171 F 
ENDBRANCH   7   8
ENDBRANCH   5   7
TORSDOF 2
ENDMDL
MODEL 2
REMARK VINA RESULT:      -5.8      1.588      2.404
REMARK  2 active torsions:
REMARK  status: ('A' for Active; 'I' for Inactive)
REMARK    1  A    between atoms: C5_5  and  C6_6 
REMARK    2  A    between atoms: C6_6  and  C7_7 
ROOT
HETATM    1  C1  UNL     1     -34.293   6.472   6.100  1.00 20.00     0.131 C 
HETATM    2  C2  UNL     1     -34.962   5.124   5.990  1.00 20.00     0.079 C 
HETATM    3  C3  UNL     1     -34.301   4.544   4.745  1.00 20.00     0.008 C 
HETATM    4  C4  UNL     1     -33.999   5.758   3.876  1.00 20.00     0.013 C 
HETATM    5  C5  UNL     1     -33.483   6.806   4.864  1.00 20.00     0.064 C 
HETATM    6  O8  UNL     1     -34.400   7.204   7.075  1.00 20.00    -0.298 OA
ENDROOT
BRANCH   5   7
HETATM    7  C6  UNL     1     -33.694   8.228   4.383  1.00 20.00     0.129 C 
BRANCH   7   8
HETATM    8  C7  UNL     1     -32.463   8.775   3.713  1.00 20.00     0.388 C 
HETATM    9  F9  UNL     1     -31.482   7.850   3.635  1.00 20.00    -0.171 F 
HETATM   10  F10 UNL     1     -31.984   9.821   4.421  1.00 20.00    -0.171 F 
HETATM   11  F11 UNL     1     -32.725   9.213   2.464  1.00 20.00    -0.171 F 
ENDBRANCH   7   8
ENDBRANCH   5   7
TORSDOF 2
ENDMDL
MODEL 3
REMARK VINA RESULT:      -5.7      2.861      4.079
REMARK  2 active torsions:
REMARK  status: ('A' for Active; 'I' for Inactive)
REMARK    1  A    between atoms: C5_5  and  C6_6 
REMARK    2  A    between atoms: C6_6  and  C7_7 
ROOT
HETATM    1  C1  UNL     1     -32.753   6.453   3.052  1.00 20.00     0.131 C 
HETATM    2  C2  UNL     1     -32.309   7.671   2.281  1.00 20.00     0.079 C 
HETATM    3  C3  UNL     1     -32.238   8.729   3.374  1.00 20.00     0.008 C 
HETATM    4  C4  UNL     1     -33.319   8.322   4.367  1.00 20.00     0.013 C 
HETATM    5  C5  UNL     1     -33.184   6.801   4.462  1.00 20.00     0.064 C 
HETATM    6  O8  UNL     1     -32.763   5.321   2.585  1.00 20.00    -0.298 OA
ENDROOT
BRANCH   5   7
HETATM    7  C6  UNL     1     -34.473   6.117   4.873  1.00 20.00     0.129 C 
BRANCH   7   8
HETATM    8  C7  UNL     1     -34.524   5.877   6.358  1.00 20.00     0.388 C 
HETATM    9  F9  UNL     1     -34.676   7.029   7.046  1.00 20.00    -0.171 F 
HETATM   10  F10 UNL     1     -33.371   5.304   6.768  1.00 20.00    -0.171 F 
HETATM   11  F11 UNL     1     -35.535   5.049   6.697  1.00 20.00    -0.171 F 
ENDBRANCH   7   8
ENDBRANCH   5   7
TORSDOF 2
ENDMDL
MODEL 4
REMARK VINA RESULT:      -5.7      2.878      4.125
REMARK  2 active torsions:
REMARK  status: ('A' for Active; 'I' for Inactive)
REMARK    1  A    between atoms: C5_5  and  C6_6 
REMARK    2  A    between atoms: C6_6  and  C7_7 
ROOT
HETATM    1  C1  UNL     1     -32.750   6.453   3.051  1.00 20.00     0.131 C 
HETATM    2  C2  UNL     1     -32.313   7.671   2.275  1.00 20.00     0.079 C 
HETATM    3  C3  UNL     1     -32.242   8.732   3.367  1.00 20.00     0.008 C 
HETATM    4  C4  UNL     1     -33.318   8.323   4.363  1.00 20.00     0.013 C 
HETATM    5  C5  UNL     1     -33.178   6.802   4.461  1.00 20.00     0.064 C 
HETATM    6  O8  UNL     1     -32.757   5.321   2.586  1.00 20.00    -0.298 OA
ENDROOT
BRANCH   5   7
HETATM    7  C6  UNL     1     -34.463   6.115   4.878  1.00 20.00     0.129 C 
BRANCH   7   8
HETATM    8  C7  UNL     1     -34.506   5.872   6.363  1.00 20.00     0.388 C 
HETATM    9  F9  UNL     1     -33.381   5.270   6.804  1.00 20.00    -0.171 F 
HETATM   10  F10 UNL     1     -35.547   5.066   6.664  1.00 20.00    -0.171 F 
HETATM   11  F11 UNL     1     -34.665   7.020   7.054  1.00 20.00    -0.171 F 
ENDBRANCH   7   8
ENDBRANCH   5   7
TORSDOF 2
ENDMDL
MODEL 5
REMARK VINA RESULT:      -5.6      1.182      1.721
REMARK  2 active torsions:
REMARK  status: ('A' for Active; 'I' for Inactive)
REMARK    1  A    between atoms: C5_5  and  C6_6 
REMARK    2  A    between atoms: C6_6  and  C7_7 
ROOT
HETATM    1  C1  UNL     1     -33.872   5.754   4.267  1.00 20.00     0.131 C 
HETATM    2  C2  UNL     1     -34.408   4.688   5.190  1.00 20.00     0.079 C 
HETATM    3  C3  UNL     1     -34.955   5.517   6.346  1.00 20.00     0.008 C 
HETATM    4  C4  UNL     1     -34.048   6.740   6.398  1.00 20.00     0.013 C 
HETATM    5  C5  UNL     1     -33.846   7.117   4.928  1.00 20.00     0.064 C 
HETATM    6  O8  UNL     1     -33.501   5.534   3.121  1.00 20.00    -0.298 OA
ENDROOT
BRANCH   5   7
HETATM    7  C6  UNL     1     -32.553   7.869   4.683  1.00 20.00     0.129 C 
BRANCH   7   8
HETATM    8  C7  UNL     1     -32.663   8.787   3.496  1.00 20.00     0.388 C 
HETATM    9  F9  UNL     1     -32.085   9.984   3.733  1.00 20.00    -0.171 F 
HETATM   10  F10 UNL     1     -33.965   9.011   3.210  1.00 20.00    -0.171 F 
HETATM   11  F11 UNL     1     -32.088   8.255   2.396  1.00 20.00    -0.171 F 
ENDBRANCH   7   8
ENDBRANCH   5   7
TORSDOF 2
ENDMDL
MODEL 6
REMARK VINA RESULT:      -5.5      3.202      4.432
REMARK  2 active torsions:
REMARK  status: ('A' for Active; 'I' for Inactive)
REMARK    1  A    between atoms: C5_5  and  C6_6 
REMARK    2  A    between atoms: C6_6  and  C7_7 
ROOT
HETATM    1  C1  UNL     1     -32.489   8.315   4.439  1.00 20.00     0.131 C 
HETATM    2  C2  UNL     1     -31.565   8.142   3.260  1.00 20.00     0.079 C 
HETATM    3  C3  UNL     1     -32.316   7.118   2.417  1.00 20.00     0.008 C 
HETATM    4  C4  UNL     1     -33.064   6.265   3.433  1.00 20.00     0.013 C 
HETATM    5  C5  UNL     1     -33.593   7.277   4.452  1.00 20.00     0.064 C 
HETATM    6  O8  UNL     1     -32.355   9.192   5.282  1.00 20.00    -0.298 OA
ENDROOT
BRANCH   5   7
HETATM    7  C6  UNL     1     -33.820   6.671   5.823  1.00 20.00     0.129 C 
BRANCH   7   8
HETATM    8  C7  UNL     1     -34.778   5.512   5.766  1.00 20.00     0.388 C 
HETATM    9  F9  UNL     1     -35.760   5.719   4.862  1.00 20.00    -0.171 F 
HETATM   10  F10 UNL     1     -35.362   5.342   6.972  1.00 20.00    -0.171 F 
HETATM   11  F11 UNL     1     -34.152   4.359   5.448  1.00 20.00    -0.171 F 
ENDBRANCH   7   8
ENDBRANCH   5   7
TORSDOF 2
ENDMDL
MODEL 7
REMARK VINA RESULT:      -4.8     12.211     13.072
REMARK  2 active torsions:
REMARK  status: ('A' for Active; 'I' for Inactive)
REMARK    1  A    between atoms: C5_5  and  C6_6 
REMARK    2  A    between atoms: C6_6  and  C7_7 
ROOT
HETATM    1  C1  UNL     1     -33.009  18.536  -3.363  1.00 20.00     0.131 C 
HETATM    2  C2  UNL     1     -33.062  19.262  -2.043  1.00 20.00     0.079 C 
HETATM    3  C3  UNL     1     -32.893  18.121  -1.047  1.00 20.00     0.008 C 
HETATM    4  C4  UNL     1     -33.535  16.922  -1.732  1.00 20.00     0.013 C 
HETATM    5  C5  UNL     1     -33.075  17.032  -3.187  1.00 20.00     0.064 C 
HETATM    6  O8  UNL     1     -32.925  19.102  -4.446  1.00 20.00    -0.298 OA
ENDROOT
BRANCH   5   7
HETATM    7  C6  UNL     1     -34.024  16.363  -4.160  1.00 20.00     0.129 C 
BRANCH   7   8
HETATM    8  C7  UNL     1     -33.597  14.953  -4.471  1.00 20.00     0.388 C 
HETATM    9  F9  UNL     1     -34.317  14.048  -3.774  1.00 20.00    -0.171 F 
HETATM   10  F10 UNL     1     -32.298  14.786  -4.139  1.00 20.00    -0.171 F 
HETATM   11  F11 UNL     1     -33.723  14.669  -5.784  1.00 20.00    -0.171 F 
ENDBRANCH   7   8
ENDBRANCH   5   7
TORSDOF 2
ENDMDL
MODEL 8
REMARK VINA RESULT:      -4.6      8.972      9.857
REMARK  2 active torsions:
REMARK  status: ('A' for Active; 'I' for Inactive)
REMARK    1  A    between atoms: C5_5  and  C6_6 
REMARK    2  A    between atoms: C6_6  and  C7_7 
ROOT
HETATM    1  C1  UNL     1     -42.196  12.746   7.101  1.00 20.00     0.131 C 
HETATM    2  C2  UNL     1     -42.422  13.948   7.984  1.00 20.00     0.079 C 
HETATM    3  C3  UNL     1     -41.552  15.003   7.311  1.00 20.00     0.008 C 
HETATM    4  C4  UNL     1     -40.397  14.214   6.709  1.00 20.00     0.013 C 
HETATM    5  C5  UNL     1     -41.063  12.968   6.120  1.00 20.00     0.064 C 
HETATM    6  O8  UNL     1     -42.853  11.716   7.177  1.00 20.00    -0.298 OA
ENDROOT
BRANCH   5   7
HETATM    7  C6  UNL     1     -40.122  11.784   6.023  1.00 20.00     0.129 C 
BRANCH   7   8
HETATM    8  C7  UNL     1     -39.369  11.778   4.720  1.00 20.00     0.388 C 
HETATM    9  F9  UNL     1     -39.370  10.556   4.147  1.00 20.00    -0.171 F 
HETATM   10  F10 UNL     1     -38.082  12.129   4.934  1.00 20.00    -0.171 F 
HETATM   11  F11 UNL     1     -39.890  12.656   3.836  1.00 20.00    -0.171 F 
ENDBRANCH   7   8
ENDBRANCH   5   7
TORSDOF 2
ENDMDL
MODEL 9
REMARK VINA RESULT:      -4.6     12.381     12.912
REMARK  2 active torsions:
REMARK  status: ('A' for Active; 'I' for Inactive)
REMARK    1  A    between atoms: C5_5  and  C6_6 
REMARK    2  A    between atoms: C6_6  and  C7_7 
ROOT
HETATM    1  C1  UNL     1     -31.162  18.695   0.331  1.00 20.00     0.131 C 
HETATM    2  C2  UNL     1     -30.559  19.212   1.613  1.00 20.00     0.079 C 
HETATM    3  C3  UNL     1     -31.718  19.061   2.591  1.00 20.00     0.008 C 
HETATM    4  C4  UNL     1     -32.963  19.262   1.737  1.00 20.00     0.013 C 
HETATM    5  C5  UNL     1     -32.659  18.496   0.448  1.00 20.00     0.064 C 
HETATM    6  O8  UNL     1     -30.511  18.469  -0.681  1.00 20.00    -0.298 OA
ENDROOT
BRANCH   5   7
HETATM    7  C6  UNL     1     -33.423  19.026  -0.749  1.00 20.00     0.129 C 
BRANCH   7   8
HETATM    8  C7  UNL     1     -33.781  17.925  -1.711  1.00 20.00     0.388 C 
HETATM    9  F9  UNL     1     -33.759  16.714  -1.115  1.00 20.00    -0.171 F 
HETATM   10  F10 UNL     1     -32.890  17.897  -2.727  1.00 20.00    -0.171 F 
HETATM   11  F11 UNL     1     -35.006  18.106  -2.247  1.00 20.00    -0.171 F 
ENDBRANCH   7   8
ENDBRANCH   5   7
TORSDOF 2
ENDMDL
