MODEL 1
REMARK VINA RESULT:      -5.9      0.000      0.000
REMARK  2 active torsions:
REMARK  status: ('A' for Active; 'I' for Inactive)
REMARK    1  A    between atoms: C5_5  and  C6_6 
REMARK    2  A    between atoms: C6_6  and  C7_7 
ROOT
HETATM    1  C1  UNL     1     -33.874   5.786   4.275  1.00 20.00     0.131 C 
HETATM    2  C2  UNL     1     -34.669   4.751   5.032  1.00 20.00     0.079 C 
HETATM    3  C3  UNL     1     -34.503   5.215   6.473  1.00 20.00     0.008 C 
HETATM    4  C4  UNL     1     -34.381   6.730   6.372  1.00 20.00     0.013 C 
HETATM    5  C5  UNL     1     -33.474   6.951   5.158  1.00 20.00     0.064 C 
HETATM    6  O8  UNL     1     -33.590   5.689   3.088  1.00 20.00    -0.298 OA
ENDROOT
BRANCH   5   7
HETATM    7  C6  UNL     1     -33.688   8.297   4.497  1.00 20.00     0.129 C 
BRANCH   7   8
HETATM    8  C7  UNL     1     -32.414   8.828   3.896  1.00 20.00     0.388 C 
HETATM    9  F9  UNL     1     -31.465   7.872   3.807  1.00 20.00    -0.171 F 
HETATM   10  F10 UNL     1     -31.923   9.821   4.670  1.00 20.00    -0.171 F 
HETATM   11  F11 UNL     1     -32.616   9.335   2.660  1.00 20.00    -0.171 F 
ENDBRANCH   7   8
ENDBRANCH   5   7
TORSDOF 2
ENDMDL
MODEL 2
REMARK VINA RESULT:      -5.5      2.811      4.086
REMARK  2 active torsions:
REMARK  status: ('A' for Active; 'I' for Inactive)
REMARK    1  A    between atoms: C5_5  and  C6_6 
REMARK    2  A    between atoms: C6_6  and  C7_7 
ROOT
HETATM    1  C1  UNL     1     -32.912   6.800   3.459  1.00 20.00     0.131 C 
HETATM    2  C2  UNL     1     -31.984   7.791   2.802  1.00 20.00     0.079 C 
HETATM    3  C3  UNL     1     -32.361   9.091   3.502  1.00 20.00     0.008 C 
HETATM    4  C4  UNL     1     -32.787   8.659   4.899  1.00 20.00     0.013 C 
HETATM    5  C5  UNL     1     -33.617   7.395   4.662  1.00 20.00     0.064 C 
HETATM    6  O8  UNL     1     -33.070   5.653   3.062  1.00 20.00    -0.298 OA
ENDROOT
BRANCH   5   7
HETATM    7  C6  UNL     1     -33.634   6.465   5.858  1.00 20.00     0.129 C 
BRANCH   7   8
HETATM    8  C7  UNL     1     -34.728   5.437   5.745  1.00 20.00     0.388 C 
HETATM    9  F9  UNL     1     -35.680   5.812   4.864  1.00 20.00    -0.171 F 
HETATM   10  F10 UNL     1     -35.326   5.272   6.946  1.00 20.00    -0.171 F 
HETATM   11  F11 UNL     1     -34.250   4.235   5.359  1.00 20.00    -0.171 F 
ENDBRANCH   7   8
ENDBRANCH   5   7
TORSDOF 2
ENDMDL
MODEL 3
REMARK VINA RESULT:      -5.2      1.239      1.685
REMARK  2 active torsions:
REMARK  status: ('A' for Active; 'I' for Inactive)
REMARK    1  A    between atoms: C5_5  and  C6_6 
REMARK    2  A    between atoms: C6_6  and  C7_7 
ROOT
HETATM    1  C1  UNL     1     -34.134   5.214   4.910  1.00 20.00     0.131 C 
HETATM    2  C2  UNL     1     -34.954   5.486   6.146  1.00 20.00     0.079 C 
HETATM    3  C3  UNL     1     -34.330   6.776   6.663  1.00 20.00     0.008 C 
HETATM    4  C4  UNL     1     -33.859   7.499   5.408  1.00 20.00     0.013 C 
HETATM    5  C5  UNL     1     -33.250   6.390   4.545  1.00 20.00     0.064 C 
HETATM    6  O8  UNL     1     -34.183   4.164   4.282  1.00 20.00    -0.298 OA
ENDROOT
BRANCH   5   7
HETATM    7  C6  UNL     1     -33.274   6.712   3.065  1.00 20.00     0.129 C 
BRANCH   7   8
HETATM    8  C7  UNL     1     -32.268   7.776   2.713  1.00 20.00     0.388 C 
HETATM    9  F9  UNL     1     -31.810   7.635   1.452  1.00 20.00    -0.171 F 
HETATM   10  F10 UNL     1     -31.206   7.694   3.545  1.00 20.00    -0.171 F 
HETATM   11  F11 UNL     1     -32.788   9.017   2.835  1.00 20.00    -0.171 F 
ENDBRANCH   7   8
ENDBRANCH   5   7
TORSDOF 2
ENDMDL
MODEL 4
REMARK VINA RESULT:      -5.0      3.016      4.275
REMARK  2 active torsions:
REMARK  status: ('A' for Active; 'I' for Inactive)
REMARK    1  A    between atoms: C5_5  and  C6_6 
REMARK    2  A    between atoms: C6_6  and  C7_7 
ROOT
HETATM    1  C1  UNL     1     -33.105   8.081   4.333  1.00 20.00     0.131 C 
HETATM    2  C2  UNL     1     -32.482   8.566   3.048  1.00 20.00     0.079 C 
HETATM    3  C3  UNL     1     -32.002   7.265   2.417  1.00 20.00     0.008 C 
HETATM    4  C4  UNL     1     -33.004   6.221   2.893  1.00 20.00     0.013 C 
HETATM    5  C5  UNL     1     -33.238   6.571   4.364  1.00 20.00     0.064 C 
HETATM    6  O8  UNL     1     -33.460   8.825   5.238  1.00 20.00    -0.298 OA
ENDROOT
BRANCH   5   7
HETATM    7  C6  UNL     1     -34.586   6.105   4.876  1.00 20.00     0.129 C 
BRANCH   7   8
HETATM    8  C7  UNL     1     -34.544   5.800   6.349  1.00 20.00     0.388 C 
HETATM    9  F9  UNL     1     -33.366   5.250   6.713  1.00 20.00    -0.171 F 
HETATM   10  F10 UNL     1     -35.520   4.919   6.662  1.00 20.00    -0.171 F 
HETATM   11  F11 UNL     1     -34.739   6.907   7.097  1.00 20.00    -0.171 F 
ENDBRANCH   7   8
ENDBRANCH   5   7
TORSDOF 2
ENDMDL
MODEL 5
REMARK VINA RESULT:      -4.9      1.415      1.930
REMARK  2 active torsions:
REMARK  status: ('A' for Active; 'I' for Inactive)
REMARK    1  A    between atoms: C5_5  and  C6_6 
REMARK    2  A    between atoms: C6_6  and  C7_7 
ROOT
HETATM    1  C1  UNL     1     -34.412   5.555   5.217  1.00 20.00     0.131 C 
HETATM    2  C2  UNL     1     -34.055   4.289   4.480  1.00 20.00     0.079 C 
HETATM    3  C3  UNL     1     -33.646   4.821   3.113  1.00 20.00     0.008 C 
HETATM    4  C4  UNL     1     -33.054   6.195   3.403  1.00 20.00     0.013 C 
HETATM    5  C5  UNL     1     -33.997   6.794   4.448  1.00 20.00     0.064 C 
HETATM    6  O8  UNL     1     -34.970   5.572   6.307  1.00 20.00    -0.298 OA
ENDROOT
BRANCH   5   7
HETATM    7  C6  UNL     1     -33.327   7.836   5.321  1.00 20.00     0.129 C 
BRANCH   7   8
HETATM    8  C7  UNL     1     -32.372   8.689   4.531  1.00 20.00     0.388 C 
HETATM    9  F9  UNL     1     -31.224   8.034   4.257  1.00 20.00    -0.171 F 
HETATM   10  F10 UNL     1     -32.052   9.795   5.239  1.00 20.00    -0.171 F 
HETATM   11  F11 UNL     1     -32.911   9.096   3.361  1.00 20.00    -0.171 F 
ENDBRANCH   7   8
ENDBRANCH   5   7
TORSDOF 2
ENDMDL
MODEL 6
REMARK VINA RESULT:      -4.9      1.493      1.906
REMARK  2 active torsions:
REMARK  status: ('A' for Active; 'I' for Inactive)
REMARK    1  A    between atoms: C5_5  and  C6_6 
REMARK    2  A    between atoms: C6_6  and  C7_7 
ROOT
HETATM    1  C1  UNL     1     -34.404   6.477   6.181  1.00 20.00     0.131 C 
HETATM    2  C2  UNL     1     -34.646   4.993   6.061  1.00 20.00     0.079 C 
HETATM    3  C3  UNL     1     -34.590   4.784   4.553  1.00 20.00     0.008 C 
HETATM    4  C4  UNL     1     -33.606   5.837   4.060  1.00 20.00     0.013 C 
HETATM    5  C5  UNL     1     -33.964   7.088   4.866  1.00 20.00     0.064 C 
HETATM    6  O8  UNL     1     -34.547   7.105   7.222  1.00 20.00    -0.298 OA
ENDROOT
BRANCH   5   7
HETATM    7  C6  UNL     1     -32.801   8.047   5.017  1.00 20.00     0.129 C 
BRANCH   7   8
HETATM    8  C7  UNL     1     -32.443   8.695   3.707  1.00 20.00     0.388 C 
HETATM    9  F9  UNL     1     -31.498   7.996   3.043  1.00 20.00    -0.171 F 
HETATM   10  F10 UNL     1     -31.953   9.935   3.929  1.00 20.00    -0.171 F 
HETATM   11  F11 UNL     1     -33.517   8.820   2.898  1.00 20.00    -0.171 F 
ENDBRANCH   7   8
ENDBRANCH   5   7
TORSDOF 2
ENDMDL
MODEL 7
REMARK VINA RESULT:      -4.7      1.557      2.130
REMARK  2 active torsions:
REMARK  status: ('A' for Active; 'I' for Inactive)
REMARK    1  A    between atoms: C5_5  and  C6_6 
REMARK    2  A    between atoms: C6_6  and  C7_7 
ROOT
HETATM    1  C1  UNL     1     -33.580   6.944   5.499  1.00 20.00     0.131 C 
HETATM    2  C2  UNL     1     -34.265   6.130   6.568  1.00 20.00     0.079 C 
HETATM    3  C3  UNL     1     -35.206   5.257   5.748  1.00 20.00     0.008 C 
HETATM    4  C4  UNL     1     -34.476   5.048   4.428  1.00 20.00     0.013 C 
HETATM    5  C5  UNL     1     -33.882   6.422   4.108  1.00 20.00     0.064 C 
HETATM    6  O8  UNL     1     -32.865   7.909   5.735  1.00 20.00    -0.298 OA
ENDROOT
BRANCH   5   7
HETATM    7  C6  UNL     1     -32.653   6.345   3.225  1.00 20.00     0.129 C 
BRANCH   7   8
HETATM    8  C7  UNL     1     -32.210   7.710   2.771  1.00 20.00     0.388 C 
HETATM    9  F9  UNL     1     -31.916   7.730   1.454  1.00 20.00    -0.171 F 
HETATM   10  F10 UNL     1     -31.097   8.077   3.444  1.00 20.00    -0.171 F 
HETATM   11  F11 UNL     1     -33.155   8.647   3.004  1.00 20.00    -0.171 F 
ENDBRANCH   7   8
ENDBRANCH   5   7
TORSDOF 2
ENDMDL
MODEL 8
REMARK VINA RESULT:      -4.6      3.016      4.083
REMARK  2 active torsions:
REMARK  status: ('A' for Active; 'I' for Inactive)
REMARK    1  A    between atoms: C5_5  and  C6_6 
REMARK    2  A    between atoms: C6_6  and  C7_7 
ROOT
HETATM    1  C1  UNL     1     -32.586   8.061   3.709  1.00 20.00     0.131 C 
HETATM    2  C2  UNL     1     -32.178   9.102   4.721  1.00 20.00     0.079 C 
HETATM    3  C3  UNL     1     -33.243   8.933   5.797  1.00 20.00     0.008 C 
HETATM    4  C4  UNL     1     -33.605   7.455   5.743  1.00 20.00     0.013 C 
HETATM    5  C5  UNL     1     -33.662   7.139   4.247  1.00 20.00     0.064 C 
HETATM    6  O8  UNL     1     -32.100   7.977   2.588  1.00 20.00    -0.298 OA
ENDROOT
BRANCH   5   7
HETATM    7  C6  UNL     1     -33.399   5.679   3.940  1.00 20.00     0.129 C 
BRANCH   7   8
HETATM    8  C7  UNL     1     -34.367   4.778   4.659  1.00 20.00     0.388 C 
HETATM    9  F9  UNL     1     -34.089   4.694   5.978  1.00 20.00    -0.171 F 
HETATM   10  F10 UNL     1     -34.297   3.529   4.147  1.00 20.00    -0.171 F 
HETATM   11  F11 UNL     1     -35.642   5.203   4.526  1.00 20.00    -0.171 F 
ENDBRANCH   7   8
ENDBRANCH   5   7
TORSDOF 2
ENDMDL
MODEL 9
REMARK VINA RESULT:      -4.5      9.005      9.821
REMARK  2 active torsions:
REMARK  status: ('A' for Active; 'I' for Inactive)
REMARK    1  A    between atoms: C5_5  and  C6_6 
REMARK    2  A    between atoms: C6_6  and  C7_7 
ROOT
HETATM    1  C1  UNL     1     -40.739  13.873   7.422  1.00 20.00     0.131 C 
HETATM    2  C2  UNL     1     -41.919  14.794   7.608  1.00 20.00     0.079 C 
HETATM    3  C3  UNL     1     -42.275  15.146   6.169  1.00 20.00     0.008 C 
HETATM    4  C4  UNL     1     -41.891  13.908   5.369  1.00 20.00     0.013 C 
HETATM    5  C5  UNL     1     -40.552  13.475   5.972  1.00 20.00     0.064 C 
HETATM    6  O8  UNL     1     -40.022  13.495   8.341  1.00 20.00    -0.298 OA
ENDROOT
BRANCH   5   7
HETATM    7  C6  UNL     1     -40.274  11.996   5.794  1.00 20.00     0.129 C 
BRANCH   7   8
HETATM    8  C7  UNL     1     -39.325  11.744   4.653  1.00 20.00     0.388 C 
HETATM    9  F9  UNL     1     -39.360  10.457   4.247  1.00 20.00    -0.171 F 
HETATM   10  F10 UNL     1     -38.060  12.016   5.042  1.00 20.00    -0.171 F 
HETATM   11  F11 UNL     1     -39.602  12.527   3.588  1.00 20.00    -0.171 F 
ENDBRANCH   7   8
ENDBRANCH   5   7
TORSDOF 2
ENDMDL
