MODEL 1
REMARK VINA RESULT:      -5.3      0.000      0.000
REMARK  1 active torsions:
REMARK  status: ('A' for Active; 'I' for Inactive)
REMARK    1  A    between atoms: C4_4  and  O6_6 
ROOT
HETATM    1  C1  UNL     1     -34.806   5.906   5.961  1.00 20.00     0.038 C 
HETATM    2  C2  UNL     1     -33.685   6.895   6.267  1.00 20.00     0.081 C 
HETATM    3  C3  UNL     1     -33.423   6.309   3.971  1.00 20.00     0.110 C 
HETATM    4  C4  UNL     1     -34.545   5.427   4.527  1.00 20.00     0.124 C 
HETATM    5  C5  UNL     1     -33.388   7.494   4.912  1.00 20.00     0.246 C 
HETATM    6  F7  UNL     1     -32.203   8.129   4.884  1.00 20.00    -0.206 F 
HETATM    7  F8  UNL     1     -34.346   8.387   4.575  1.00 20.00    -0.206 F 
ENDROOT
BRANCH   4   8
HETATM    8  O6  UNL     1     -34.138   4.067   4.538  1.00 20.00    -0.395 OA
HETATM    9  H16 UNL     1     -34.450   3.691   5.376  1.00 20.00     0.210 HD
ENDBRANCH   4   8
TORSDOF 1
ENDMDL
MODEL 2
REMARK VINA RESULT:      -5.0      2.478      3.196
REMARK  1 active torsions:
REMARK  status: ('A' for Active; 'I' for Inactive)
REMARK    1  A    between atoms: C4_4  and  O6_6 
ROOT
HETATM    1  C1  UNL     1     -33.209   6.944   3.499  1.00 20.00     0.038 C 
HETATM    2  C2  UNL     1     -33.574   5.528   3.931  1.00 20.00     0.081 C 
HETATM    3  C3  UNL     1     -34.071   6.925   5.799  1.00 20.00     0.110 C 
HETATM    4  C4  UNL     1     -33.396   7.813   4.750  1.00 20.00     0.124 C 
HETATM    5  C5  UNL     1     -34.619   5.763   4.998  1.00 20.00     0.246 C 
HETATM    6  F7  UNL     1     -34.824   4.674   5.760  1.00 20.00    -0.206 F 
HETATM    7  F8  UNL     1     -35.799   6.101   4.430  1.00 20.00    -0.206 F 
ENDROOT
BRANCH   4   8
HETATM    8  O6  UNL     1     -32.134   8.258   5.223  1.00 20.00    -0.395 OA
HETATM    9  H16 UNL     1     -31.557   7.478   5.249  1.00 20.00     0.210 HD
ENDBRANCH   4   8
TORSDOF 1
ENDMDL
MODEL 3
REMARK VINA RESULT:      -4.4      2.557      3.093
REMARK  1 active torsions:
REMARK  status: ('A' for Active; 'I' for Inactive)
REMARK    1  A    between atoms: C4_4  and  O6_6 
ROOT
HETATM    1  C1  UNL     1     -33.422   6.780   6.445  1.00 20.00     0.038 C 
HETATM    2  C2  UNL     1     -34.822   6.212   6.240  1.00 20.00     0.081 C 
HETATM    3  C3  UNL     1     -34.145   7.049   4.113  1.00 20.00     0.110 C 
HETATM    4  C4  UNL     1     -33.053   7.443   5.111  1.00 20.00     0.124 C 
HETATM    5  C5  UNL     1     -34.833   5.871   4.768  1.00 20.00     0.246 C 
HETATM    6  F7  UNL     1     -36.079   5.684   4.297  1.00 20.00    -0.206 F 
HETATM    7  F8  UNL     1     -34.131   4.737   4.545  1.00 20.00    -0.206 F 
ENDROOT
BRANCH   4   8
HETATM    8  O6  UNL     1     -33.015   8.853   5.266  1.00 20.00    -0.395 OA
HETATM    9  H16 UNL     1     -33.772   9.207   4.772  1.00 20.00     0.210 HD
ENDBRANCH   4   8
TORSDOF 1
ENDMDL
MODEL 4
REMARK VINA RESULT:      -4.3      1.044      1.994
REMARK  1 active torsions:
REMARK  status: ('A' for Active; 'I' for Inactive)
REMARK    1  A    between atoms: C4_4  and  O6_6 
ROOT
HETATM    1  C1  UNL     1     -33.748   6.013   3.960  1.00 20.00     0.038 C 
HETATM    2  C2  UNL     1     -33.937   7.523   4.069  1.00 20.00     0.081 C 
HETATM    3  C3  UNL     1     -34.391   6.653   6.242  1.00 20.00     0.110 C 
HETATM    4  C4  UNL     1     -34.179   5.449   5.320  1.00 20.00     0.124 C 
HETATM    5  C5  UNL     1     -33.680   7.786   5.535  1.00 20.00     0.246 C 
HETATM    6  F7  UNL     1     -34.134   8.991   5.923  1.00 20.00    -0.206 F 
HETATM    7  F8  UNL     1     -32.353   7.740   5.793  1.00 20.00    -0.206 F 
ENDROOT
BRANCH   4   8
HETATM    8  O6  UNL     1     -35.390   4.721   5.179  1.00 20.00    -0.395 OA
HETATM    9  H16 UNL     1     -35.381   4.034   5.864  1.00 20.00     0.210 HD
ENDBRANCH   4   8
TORSDOF 1
ENDMDL
MODEL 5
REMARK VINA RESULT:      -4.2      2.304      2.959
REMARK  1 active torsions:
REMARK  status: ('A' for Active; 'I' for Inactive)
REMARK    1  A    between atoms: C4_4  and  O6_6 
ROOT
HETATM    1  C1  UNL     1     -32.640   8.226   4.668  1.00 20.00     0.038 C 
HETATM    2  C2  UNL     1     -34.093   8.014   5.080  1.00 20.00     0.081 C 
HETATM    3  C3  UNL     1     -33.529   6.148   3.707  1.00 20.00     0.110 C 
HETATM    4  C4  UNL     1     -32.330   7.100   3.673  1.00 20.00     0.124 C 
HETATM    5  C5  UNL     1     -34.251   6.514   4.985  1.00 20.00     0.246 C 
HETATM    6  F7  UNL     1     -35.543   6.138   4.963  1.00 20.00    -0.206 F 
HETATM    7  F8  UNL     1     -33.662   5.913   6.044  1.00 20.00    -0.206 F 
ENDROOT
BRANCH   4   8
HETATM    8  O6  UNL     1     -32.168   7.638   2.370  1.00 20.00    -0.395 OA
HETATM    9  H16 UNL     1     -31.296   8.064   2.352  1.00 20.00     0.210 HD
ENDBRANCH   4   8
TORSDOF 1
ENDMDL
MODEL 6
REMARK VINA RESULT:      -4.0      1.590      2.481
REMARK  1 active torsions:
REMARK  status: ('A' for Active; 'I' for Inactive)
REMARK    1  A    between atoms: C4_4  and  O6_6 
ROOT
HETATM    1  C1  UNL     1     -33.043   5.857   3.392  1.00 20.00     0.038 C 
HETATM    2  C2  UNL     1     -32.648   7.115   2.626  1.00 20.00     0.081 C 
HETATM    3  C3  UNL     1     -33.720   7.877   4.615  1.00 20.00     0.110 C 
HETATM    4  C4  UNL     1     -33.856   6.351   4.596  1.00 20.00     0.124 C 
HETATM    5  C5  UNL     1     -32.530   8.149   3.722  1.00 20.00     0.246 C 
HETATM    6  F7  UNL     1     -32.535   9.405   3.239  1.00 20.00    -0.206 F 
HETATM    7  F8  UNL     1     -31.378   7.974   4.409  1.00 20.00    -0.206 F 
ENDROOT
BRANCH   4   8
HETATM    8  O6  UNL     1     -35.218   5.983   4.445  1.00 20.00    -0.395 OA
HETATM    9  H16 UNL     1     -35.353   5.190   4.988  1.00 20.00     0.210 HD
ENDBRANCH   4   8
TORSDOF 1
ENDMDL
MODEL 7
REMARK VINA RESULT:      -4.0      1.412      1.666
REMARK  1 active torsions:
REMARK  status: ('A' for Active; 'I' for Inactive)
REMARK    1  A    between atoms: C4_4  and  O6_6 
ROOT
HETATM    1  C1  UNL     1     -34.869   5.087   4.840  1.00 20.00     0.038 C 
HETATM    2  C2  UNL     1     -34.214   5.343   6.194  1.00 20.00     0.081 C 
HETATM    3  C3  UNL     1     -33.184   6.867   4.677  1.00 20.00     0.110 C 
HETATM    4  C4  UNL     1     -34.104   5.968   3.845  1.00 20.00     0.124 C 
HETATM    5  C5  UNL     1     -33.754   6.778   6.076  1.00 20.00     0.246 C 
HETATM    6  F7  UNL     1     -32.845   7.100   7.014  1.00 20.00    -0.206 F 
HETATM    7  F8  UNL     1     -34.804   7.619   6.208  1.00 20.00    -0.206 F 
ENDROOT
BRANCH   4   8
HETATM    8  O6  UNL     1     -33.334   5.155   2.971  1.00 20.00    -0.395 OA
HETATM    9  H16 UNL     1     -32.431   5.509   2.987  1.00 20.00     0.210 HD
ENDBRANCH   4   8
TORSDOF 1
ENDMDL
MODEL 8
REMARK VINA RESULT:      -3.9      9.009      9.699
REMARK  1 active torsions:
REMARK  status: ('A' for Active; 'I' for Inactive)
REMARK    1  A    between atoms: C4_4  and  O6_6 
ROOT
HETATM    1  C1  UNL     1     -40.982   8.385   0.011  1.00 20.00     0.038 C 
HETATM    2  C2  UNL     1     -40.732   7.249   0.998  1.00 20.00     0.081 C 
HETATM    3  C3  UNL     1     -42.554   6.535  -0.364  1.00 20.00     0.110 C 
HETATM    4  C4  UNL     1     -42.242   7.980  -0.765  1.00 20.00     0.124 C 
HETATM    5  C5  UNL     1     -41.267   6.043   0.262  1.00 20.00     0.246 C 
HETATM    6  F7  UNL     1     -41.470   4.995   1.080  1.00 20.00    -0.206 F 
HETATM    7  F8  UNL     1     -40.397   5.657  -0.699  1.00 20.00    -0.206 F 
ENDROOT
BRANCH   4   8
HETATM    8  O6  UNL     1     -43.322   8.831  -0.411  1.00 20.00    -0.395 OA
HETATM    9  H16 UNL     1     -43.499   8.677   0.531  1.00 20.00     0.210 HD
ENDBRANCH   4   8
TORSDOF 1
ENDMDL
MODEL 9
REMARK VINA RESULT:      -3.7      8.826      9.476
REMARK  1 active torsions:
REMARK  status: ('A' for Active; 'I' for Inactive)
REMARK    1  A    between atoms: C4_4  and  O6_6 
ROOT
HETATM    1  C1  UNL     1     -43.417   6.634  -0.104  1.00 20.00     0.038 C 
HETATM    2  C2  UNL     1     -42.596   7.309   0.989  1.00 20.00     0.081 C 
HETATM    3  C3  UNL     1     -41.054   5.980  -0.253  1.00 20.00     0.110 C 
HETATM    4  C4  UNL     1     -42.449   5.674  -0.807  1.00 20.00     0.124 C 
HETATM    5  C5  UNL     1     -41.207   7.340   0.393  1.00 20.00     0.246 C 
HETATM    6  F7  UNL     1     -40.260   7.571   1.319  1.00 20.00    -0.206 F 
HETATM    7  F8  UNL     1     -41.121   8.314  -0.541  1.00 20.00    -0.206 F 
ENDROOT
BRANCH   4   8
HETATM    8  O6  UNL     1     -42.806   4.330  -0.520  1.00 20.00    -0.395 OA
HETATM    9  H16 UNL     1     -42.672   4.205   0.433  1.00 20.00     0.210 HD
ENDBRANCH   4   8
TORSDOF 1
ENDMDL
