MODEL 1
REMARK VINA RESULT:      -4.1      0.000      0.000
REMARK  3 active torsions:
REMARK  status: ('A' for Active; 'I' for Inactive)
REMARK    1  A    between atoms: C4_4  and  C7_7 
REMARK    2  A    between atoms: C7_7  and  C8_8 
REMARK    3  A    between atoms: C8_8  and  C9_9 
ROOT
HETATM    1  C1  UNL     1     -31.806  18.775  -0.235  1.00 20.00     0.141 C 
HETATM    2  C2  UNL     1     -32.183  18.912   1.218  1.00 20.00     0.152 C 
HETATM    3  C3  UNL     1     -34.221  18.685  -0.472  1.00 20.00     0.086 C 
HETATM    4  C4  UNL     1     -32.938  19.038  -1.213  1.00 20.00     0.065 C 
HETATM    5  O10 UNL     1     -30.657  18.519  -0.585  1.00 20.00    -0.297 OA
HETATM    6  S11 UNL     1     -33.956  19.263   1.219  1.00 20.00    -0.161 SA
ENDROOT
BRANCH   4   7
HETATM    7  C7  UNL     1     -32.789  18.233  -2.495  1.00 20.00     0.013 C 
BRANCH   7   8
HETATM    8  C8  UNL     1     -33.271  16.792  -2.307  1.00 20.00     0.005 C 
BRANCH   8   9
HETATM    9  C9  UNL     1     -33.850  16.166  -3.590  1.00 20.00    -0.023 C 
HETATM   10  C5  UNL     1     -32.865  15.142  -4.158  1.00 20.00     0.009 C 
HETATM   11  C6  UNL     1     -34.175  17.214  -4.654  1.00 20.00     0.009 C 
ENDBRANCH   8   9
ENDBRANCH   7   8
ENDBRANCH   4   7
TORSDOF 3
ENDMDL
MODEL 2
REMARK VINA RESULT:      -4.0      3.210      5.345
REMARK  3 active torsions:
REMARK  status: ('A' for Active; 'I' for Inactive)
REMARK    1  A    between atoms: C4_4  and  C7_7 
REMARK    2  A    between atoms: C7_7  and  C8_8 
REMARK    3  A    between atoms: C8_8  and  C9_9 
ROOT
HETATM    1  C1  UNL     1     -33.764  15.071  -4.711  1.00 20.00     0.141 C 
HETATM    2  C2  UNL     1     -34.103  15.155  -6.177  1.00 20.00     0.152 C 
HETATM    3  C3  UNL     1     -34.251  17.446  -4.839  1.00 20.00     0.086 C 
HETATM    4  C4  UNL     1     -34.220  16.260  -3.883  1.00 20.00     0.065 C 
HETATM    5  O10 UNL     1     -33.208  14.087  -4.229  1.00 20.00    -0.297 OA
HETATM    6  S11 UNL     1     -34.876  16.774  -6.395  1.00 20.00    -0.161 SA
ENDROOT
BRANCH   4   7
HETATM    7  C7  UNL     1     -33.305  16.519  -2.696  1.00 20.00     0.013 C 
BRANCH   7   8
HETATM    8  C8  UNL     1     -32.906  17.995  -2.611  1.00 20.00     0.005 C 
BRANCH   8   9
HETATM    9  C9  UNL     1     -32.892  18.545  -1.173  1.00 20.00    -0.023 C 
HETATM   10  C5  UNL     1     -31.479  18.449  -0.594  1.00 20.00     0.009 C 
HETATM   11  C6  UNL     1     -33.876  17.813  -0.259  1.00 20.00     0.009 C 
ENDBRANCH   8   9
ENDBRANCH   7   8
ENDBRANCH   4   7
TORSDOF 3
ENDMDL
MODEL 3
REMARK VINA RESULT:      -4.0      3.029      5.214
REMARK  3 active torsions:
REMARK  status: ('A' for Active; 'I' for Inactive)
REMARK    1  A    between atoms: C4_4  and  C7_7 
REMARK    2  A    between atoms: C7_7  and  C8_8 
REMARK    3  A    between atoms: C8_8  and  C9_9 
ROOT
HETATM    1  C1  UNL     1     -34.659  17.347  -4.204  1.00 20.00     0.141 C 
HETATM    2  C2  UNL     1     -35.171  16.624  -5.423  1.00 20.00     0.152 C 
HETATM    3  C3  UNL     1     -33.568  15.208  -3.846  1.00 20.00     0.086 C 
HETATM    4  C4  UNL     1     -33.462  16.695  -3.532  1.00 20.00     0.065 C 
HETATM    5  O10 UNL     1     -35.150  18.408  -3.825  1.00 20.00    -0.297 OA
HETATM    6  S11 UNL     1     -34.158  15.132  -5.551  1.00 20.00    -0.161 SA
ENDROOT
BRANCH   4   7
HETATM    7  C7  UNL     1     -33.432  16.953  -2.034  1.00 20.00     0.013 C 
BRANCH   7   8
HETATM    8  C8  UNL     1     -32.391  18.015  -1.671  1.00 20.00     0.005 C 
BRANCH   8   9
HETATM    9  C9  UNL     1     -32.641  18.678  -0.304  1.00 20.00    -0.023 C 
HETATM   10  C5  UNL     1     -31.397  18.539   0.576  1.00 20.00     0.009 C 
HETATM   11  C6  UNL     1     -33.852  18.086   0.419  1.00 20.00     0.009 C 
ENDBRANCH   8   9
ENDBRANCH   7   8
ENDBRANCH   4   7
TORSDOF 3
ENDMDL
MODEL 4
REMARK VINA RESULT:      -3.9     11.186     12.118
REMARK  3 active torsions:
REMARK  status: ('A' for Active; 'I' for Inactive)
REMARK    1  A    between atoms: C4_4  and  C7_7 
REMARK    2  A    between atoms: C7_7  and  C8_8 
REMARK    3  A    between atoms: C8_8  and  C9_9 
ROOT
HETATM    1  C1  UNL     1     -40.518  14.693   8.579  1.00 20.00     0.141 C 
HETATM    2  C2  UNL     1     -40.635  16.005   9.311  1.00 20.00     0.152 C 
HETATM    3  C3  UNL     1     -41.723  15.951   6.888  1.00 20.00     0.086 C 
HETATM    4  C4  UNL     1     -40.777  14.773   7.084  1.00 20.00     0.065 C 
HETATM    5  O10 UNL     1     -40.189  13.658   9.152  1.00 20.00    -0.297 OA
HETATM    6  S11 UNL     1     -41.160  17.202   8.062  1.00 20.00    -0.161 SA
ENDROOT
BRANCH   4   7
HETATM    7  C7  UNL     1     -41.364  13.482   6.532  1.00 20.00     0.013 C 
BRANCH   7   8
HETATM    8  C8  UNL     1     -40.751  13.127   5.175  1.00 20.00     0.005 C 
BRANCH   8   9
HETATM    9  C9  UNL     1     -39.860  11.871   5.215  1.00 20.00    -0.023 C 
HETATM   10  C5  UNL     1     -38.890  11.960   6.395  1.00 20.00     0.009 C 
HETATM   11  C6  UNL     1     -39.076  11.671   3.917  1.00 20.00     0.009 C 
ENDBRANCH   8   9
ENDBRANCH   7   8
ENDBRANCH   4   7
TORSDOF 3
ENDMDL
MODEL 5
REMARK VINA RESULT:      -3.8      1.802      2.337
REMARK  3 active torsions:
REMARK  status: ('A' for Active; 'I' for Inactive)
REMARK    1  A    between atoms: C4_4  and  C7_7 
REMARK    2  A    between atoms: C7_7  and  C8_8 
REMARK    3  A    between atoms: C8_8  and  C9_9 
ROOT
HETATM    1  C1  UNL     1     -33.207  18.738   1.027  1.00 20.00     0.141 C 
HETATM    2  C2  UNL     1     -32.412  19.261   2.196  1.00 20.00     0.152 C 
HETATM    3  C3  UNL     1     -31.029  18.865  -0.037  1.00 20.00     0.086 C 
HETATM    4  C4  UNL     1     -32.373  18.150  -0.098  1.00 20.00     0.065 C 
HETATM    5  O10 UNL     1     -34.435  18.749   1.022  1.00 20.00    -0.297 OA
HETATM    6  S11 UNL     1     -30.680  19.054   1.725  1.00 20.00    -0.161 SA
ENDROOT
BRANCH   4   7
HETATM    7  C7  UNL     1     -33.039  18.317  -1.455  1.00 20.00     0.013 C 
BRANCH   7   8
HETATM    8  C8  UNL     1     -33.597  16.988  -1.969  1.00 20.00     0.005 C 
BRANCH   8   9
HETATM    9  C9  UNL     1     -33.236  16.698  -3.438  1.00 20.00    -0.023 C 
HETATM   10  C5  UNL     1     -34.019  17.636  -4.360  1.00 20.00     0.009 C 
HETATM   11  C6  UNL     1     -33.507  15.245  -3.831  1.00 20.00     0.009 C 
ENDBRANCH   8   9
ENDBRANCH   7   8
ENDBRANCH   4   7
TORSDOF 3
ENDMDL
MODEL 6
REMARK VINA RESULT:      -3.6      2.111      2.803
REMARK  3 active torsions:
REMARK  status: ('A' for Active; 'I' for Inactive)
REMARK    1  A    between atoms: C4_4  and  C7_7 
REMARK    2  A    between atoms: C7_7  and  C8_8 
REMARK    3  A    between atoms: C8_8  and  C9_9 
ROOT
HETATM    1  C1  UNL     1     -34.727  18.378  -1.870  1.00 20.00     0.141 C 
HETATM    2  C2  UNL     1     -34.685  19.263  -0.651  1.00 20.00     0.152 C 
HETATM    3  C3  UNL     1     -32.451  17.919  -1.161  1.00 20.00     0.086 C 
HETATM    4  C4  UNL     1     -33.625  17.335  -1.938  1.00 20.00     0.065 C 
HETATM    5  O10 UNL     1     -35.619  18.472  -2.709  1.00 20.00    -0.297 OA
HETATM    6  S11 UNL     1     -33.199  18.764   0.249  1.00 20.00    -0.161 SA
ENDROOT
BRANCH   4   7
HETATM    7  C7  UNL     1     -33.239  16.998  -3.370  1.00 20.00     0.013 C 
BRANCH   7   8
HETATM    8  C8  UNL     1     -33.500  15.522  -3.684  1.00 20.00     0.005 C 
BRANCH   8   9
HETATM    9  C9  UNL     1     -34.155  15.296  -5.060  1.00 20.00    -0.023 C 
HETATM   10  C5  UNL     1     -34.584  16.638  -5.658  1.00 20.00     0.009 C 
HETATM   11  C6  UNL     1     -35.358  14.355  -4.987  1.00 20.00     0.009 C 
ENDBRANCH   8   9
ENDBRANCH   7   8
ENDBRANCH   4   7
TORSDOF 3
ENDMDL
MODEL 7
REMARK VINA RESULT:      -3.6      3.324      5.351
REMARK  3 active torsions:
REMARK  status: ('A' for Active; 'I' for Inactive)
REMARK    1  A    between atoms: C4_4  and  C7_7 
REMARK    2  A    between atoms: C7_7  and  C8_8 
REMARK    3  A    between atoms: C8_8  and  C9_9 
ROOT
HETATM    1  C1  UNL     1     -34.793  16.768  -5.037  1.00 20.00     0.141 C 
HETATM    2  C2  UNL     1     -36.045  16.113  -5.562  1.00 20.00     0.152 C 
HETATM    3  C3  UNL     1     -34.449  14.541  -4.132  1.00 20.00     0.086 C 
HETATM    4  C4  UNL     1     -33.716  15.802  -4.573  1.00 20.00     0.065 C 
HETATM    5  O10 UNL     1     -34.650  17.988  -5.039  1.00 20.00    -0.297 OA
HETATM    6  S11 UNL     1     -35.788  14.339  -5.327  1.00 20.00    -0.161 SA
ENDROOT
BRANCH   4   7
HETATM    7  C7  UNL     1     -32.869  16.382  -3.450  1.00 20.00     0.013 C 
BRANCH   7   8
HETATM    8  C8  UNL     1     -33.666  16.483  -2.147  1.00 20.00     0.005 C 
BRANCH   8   9
HETATM    9  C9  UNL     1     -33.752  17.917  -1.591  1.00 20.00    -0.023 C 
HETATM   10  C5  UNL     1     -32.600  18.759  -2.146  1.00 20.00     0.009 C 
HETATM   11  C6  UNL     1     -33.729  17.954  -0.063  1.00 20.00     0.009 C 
ENDBRANCH   8   9
ENDBRANCH   7   8
ENDBRANCH   4   7
TORSDOF 3
ENDMDL
MODEL 8
REMARK VINA RESULT:      -3.6     12.010     12.932
REMARK  3 active torsions:
REMARK  status: ('A' for Active; 'I' for Inactive)
REMARK    1  A    between atoms: C4_4  and  C7_7 
REMARK    2  A    between atoms: C7_7  and  C8_8 
REMARK    3  A    between atoms: C8_8  and  C9_9 
ROOT
HETATM    1  C1  UNL     1     -41.064  14.538   9.013  1.00 20.00     0.141 C 
HETATM    2  C2  UNL     1     -41.986  14.099  10.121  1.00 20.00     0.152 C 
HETATM    3  C3  UNL     1     -42.573  13.156   7.708  1.00 20.00     0.086 C 
HETATM    4  C4  UNL     1     -41.610  14.332   7.611  1.00 20.00     0.065 C 
HETATM    5  O10 UNL     1     -39.979  15.067   9.244  1.00 20.00    -0.297 OA
HETATM    6  S11 UNL     1     -43.417  13.373   9.290  1.00 20.00    -0.161 SA
ENDROOT
BRANCH   4   7
HETATM    7  C7  UNL     1     -40.507  14.074   6.596  1.00 20.00     0.013 C 
BRANCH   7   8
HETATM    8  C8  UNL     1     -40.913  12.989   5.595  1.00 20.00     0.005 C 
BRANCH   8   9
HETATM    9  C9  UNL     1     -39.890  11.844   5.483  1.00 20.00    -0.023 C 
HETATM   10  C5  UNL     1     -38.827  11.990   6.575  1.00 20.00     0.009 C 
HETATM   11  C6  UNL     1     -39.216  11.795   4.111  1.00 20.00     0.009 C 
ENDBRANCH   8   9
ENDBRANCH   7   8
ENDBRANCH   4   7
TORSDOF 3
ENDMDL
MODEL 9
REMARK VINA RESULT:      -3.5     11.070     12.117
REMARK  3 active torsions:
REMARK  status: ('A' for Active; 'I' for Inactive)
REMARK    1  A    between atoms: C4_4  and  C7_7 
REMARK    2  A    between atoms: C7_7  and  C8_8 
REMARK    3  A    between atoms: C8_8  and  C9_9 
ROOT
HETATM    1  C1  UNL     1     -42.443  15.409   6.152  1.00 20.00     0.141 C 
HETATM    2  C2  UNL     1     -41.976  16.805   6.477  1.00 20.00     0.152 C 
HETATM    3  C3  UNL     1     -40.573  14.844   7.594  1.00 20.00     0.086 C 
HETATM    4  C4  UNL     1     -41.910  14.328   7.077  1.00 20.00     0.065 C 
HETATM    5  O10 UNL     1     -43.233  15.186   5.238  1.00 20.00    -0.297 OA
HETATM    6  S11 UNL     1     -40.827  16.612   7.859  1.00 20.00    -0.161 SA
ENDROOT
BRANCH   4   7
HETATM    7  C7  UNL     1     -41.761  12.989   6.370  1.00 20.00     0.013 C 
BRANCH   7   8
HETATM    8  C8  UNL     1     -40.694  13.053   5.274  1.00 20.00     0.005 C 
BRANCH   8   9
HETATM    9  C9  UNL     1     -39.741  11.842   5.275  1.00 20.00    -0.023 C 
HETATM   10  C5  UNL     1     -38.717  11.990   6.402  1.00 20.00     0.009 C 
HETATM   11  C6  UNL     1     -39.018  11.668   3.939  1.00 20.00     0.009 C 
ENDBRANCH   8   9
ENDBRANCH   7   8
ENDBRANCH   4   7
TORSDOF 3
ENDMDL
