MODEL 1
REMARK VINA RESULT:      -4.5      0.000      0.000
REMARK  4 active torsions:
REMARK  status: ('A' for Active; 'I' for Inactive)
REMARK    1  A    between atoms: C1_1  and  C6_6 
REMARK    2  A    between atoms: C1_1  and  C8_8 
REMARK    3  A    between atoms: C7_7  and  C8_8 
REMARK    4  A    between atoms: C7_7  and  C9_9 
ROOT
HETATM    1  C3  UNL     1     -32.898   4.841   2.167  1.00 20.00     0.018 C 
HETATM    2  C8  UNL     1     -33.516   5.870   3.113  1.00 20.00     0.051 C 
ENDROOT
BRANCH   2   3
HETATM    3  C1  UNL     1     -34.176   5.123   4.271  1.00 20.00     0.130 C 
HETATM    4  O10 UNL     1     -33.999   3.917   4.444  1.00 20.00    -0.298 OA
BRANCH   3   5
HETATM    5  C6  UNL     1     -35.084   5.947   5.167  1.00 20.00     0.074 C 
HETATM    6  C2  UNL     1     -34.426   6.318   6.484  1.00 20.00     0.013 C 
ENDBRANCH   3   5
ENDBRANCH   2   3
BRANCH   2   7
HETATM    7  C7  UNL     1     -32.451   6.862   3.609  1.00 20.00     0.015 C 
BRANCH   7   8
HETATM    8  C9  UNL     1     -32.918   8.332   3.683  1.00 20.00    -0.022 C 
HETATM    9  C4  UNL     1     -32.627   9.104   2.395  1.00 20.00     0.009 C 
HETATM   10  C5  UNL     1     -32.238   9.029   4.865  1.00 20.00     0.009 C 
ENDBRANCH   7   8
ENDBRANCH   2   7
TORSDOF 4
ENDMDL
MODEL 2
REMARK VINA RESULT:      -4.5      1.959      4.063
REMARK  4 active torsions:
REMARK  status: ('A' for Active; 'I' for Inactive)
REMARK    1  A    between atoms: C1_1  and  C6_6 
REMARK    2  A    between atoms: C1_1  and  C8_8 
REMARK    3  A    between atoms: C7_7  and  C8_8 
REMARK    4  A    between atoms: C7_7  and  C9_9 
ROOT
HETATM    1  C3  UNL     1     -32.870   5.380   2.632  1.00 20.00     0.018 C 
HETATM    2  C8  UNL     1     -33.026   6.427   3.734  1.00 20.00     0.051 C 
ENDROOT
BRANCH   2   3
HETATM    3  C1  UNL     1     -32.483   7.756   3.213  1.00 20.00     0.130 C 
HETATM    4  O10 UNL     1     -32.357   8.734   3.951  1.00 20.00    -0.298 OA
BRANCH   3   5
HETATM    5  C6  UNL     1     -32.147   7.808   1.733  1.00 20.00     0.074 C 
HETATM    6  C2  UNL     1     -32.629   9.084   1.067  1.00 20.00     0.013 C 
ENDBRANCH   3   5
ENDBRANCH   2   3
BRANCH   2   7
HETATM    7  C7  UNL     1     -34.497   6.544   4.169  1.00 20.00     0.015 C 
BRANCH   7   8
HETATM    8  C9  UNL     1     -34.753   6.288   5.670  1.00 20.00    -0.022 C 
HETATM    9  C4  UNL     1     -33.941   7.222   6.569  1.00 20.00     0.009 C 
HETATM   10  C5  UNL     1     -34.423   4.832   6.008  1.00 20.00     0.009 C 
ENDBRANCH   7   8
ENDBRANCH   2   7
TORSDOF 4
ENDMDL
MODEL 3
REMARK VINA RESULT:      -4.2      1.191      2.848
REMARK  4 active torsions:
REMARK  status: ('A' for Active; 'I' for Inactive)
REMARK    1  A    between atoms: C1_1  and  C6_6 
REMARK    2  A    between atoms: C1_1  and  C8_8 
REMARK    3  A    between atoms: C7_7  and  C8_8 
REMARK    4  A    between atoms: C7_7  and  C9_9 
ROOT
HETATM    1  C3  UNL     1     -34.476   6.491   6.784  1.00 20.00     0.018 C 
HETATM    2  C8  UNL     1     -33.838   6.540   5.396  1.00 20.00     0.051 C 
ENDROOT
BRANCH   2   3
HETATM    3  C1  UNL     1     -34.640   5.631   4.467  1.00 20.00     0.130 C 
HETATM    4  O10 UNL     1     -35.855   5.766   4.324  1.00 20.00    -0.298 OA
BRANCH   3   5
HETATM    5  C6  UNL     1     -33.856   4.536   3.763  1.00 20.00     0.074 C 
HETATM    6  C2  UNL     1     -32.973   5.071   2.650  1.00 20.00     0.013 C 
ENDBRANCH   3   5
ENDBRANCH   2   3
BRANCH   2   7
HETATM    7  C7  UNL     1     -33.786   7.985   4.872  1.00 20.00     0.015 C 
BRANCH   7   8
HETATM    8  C9  UNL     1     -32.416   8.423   4.310  1.00 20.00    -0.022 C 
HETATM    9  C4  UNL     1     -31.838   9.630   5.052  1.00 20.00     0.009 C 
HETATM   10  C5  UNL     1     -32.551   8.752   2.821  1.00 20.00     0.009 C 
ENDBRANCH   7   8
ENDBRANCH   2   7
TORSDOF 4
ENDMDL
MODEL 4
REMARK VINA RESULT:      -4.2      1.740      3.626
REMARK  4 active torsions:
REMARK  status: ('A' for Active; 'I' for Inactive)
REMARK    1  A    between atoms: C1_1  and  C6_6 
REMARK    2  A    between atoms: C1_1  and  C8_8 
REMARK    3  A    between atoms: C7_7  and  C8_8 
REMARK    4  A    between atoms: C7_7  and  C9_9 
ROOT
HETATM    1  C3  UNL     1     -32.990   5.090   2.679  1.00 20.00     0.018 C 
HETATM    2  C8  UNL     1     -33.127   6.230   3.687  1.00 20.00     0.051 C 
ENDROOT
BRANCH   2   3
HETATM    3  C1  UNL     1     -32.614   7.513   3.035  1.00 20.00     0.130 C 
HETATM    4  O10 UNL     1     -31.953   7.488   1.996  1.00 20.00    -0.298 OA
BRANCH   3   5
HETATM    5  C6  UNL     1     -32.935   8.808   3.762  1.00 20.00     0.074 C 
HETATM    6  C2  UNL     1     -31.976   9.091   4.904  1.00 20.00     0.013 C 
ENDBRANCH   3   5
ENDBRANCH   2   3
BRANCH   2   7
HETATM    7  C7  UNL     1     -34.586   6.374   4.153  1.00 20.00     0.015 C 
BRANCH   7   8
HETATM    8  C9  UNL     1     -34.833   6.018   5.635  1.00 20.00    -0.022 C 
HETATM    9  C4  UNL     1     -34.220   7.042   6.592  1.00 20.00     0.009 C 
HETATM   10  C5  UNL     1     -34.264   4.629   5.933  1.00 20.00     0.009 C 
ENDBRANCH   7   8
ENDBRANCH   2   7
TORSDOF 4
ENDMDL
MODEL 5
REMARK VINA RESULT:      -4.2      1.929      4.605
REMARK  4 active torsions:
REMARK  status: ('A' for Active; 'I' for Inactive)
REMARK    1  A    between atoms: C1_1  and  C6_6 
REMARK    2  A    between atoms: C1_1  and  C8_8 
REMARK    3  A    between atoms: C7_7  and  C8_8 
REMARK    4  A    between atoms: C7_7  and  C9_9 
ROOT
HETATM    1  C3  UNL     1     -32.184   9.061   4.789  1.00 20.00     0.018 C 
HETATM    2  C8  UNL     1     -33.104   8.230   3.895  1.00 20.00     0.051 C 
ENDROOT
BRANCH   2   3
HETATM    3  C1  UNL     1     -32.587   8.317   2.460  1.00 20.00     0.130 C 
HETATM    4  O10 UNL     1     -31.957   7.394   1.945  1.00 20.00    -0.298 OA
BRANCH   3   5
HETATM    5  C6  UNL     1     -32.865   9.619   1.727  1.00 20.00     0.074 C 
HETATM    6  C2  UNL     1     -32.758   9.476   0.220  1.00 20.00     0.013 C 
ENDBRANCH   3   5
ENDBRANCH   2   3
BRANCH   2   7
HETATM    7  C7  UNL     1     -33.172   6.775   4.387  1.00 20.00     0.015 C 
BRANCH   7   8
HETATM    8  C9  UNL     1     -34.469   6.402   5.138  1.00 20.00    -0.022 C 
HETATM    9  C4  UNL     1     -34.375   6.675   6.640  1.00 20.00     0.009 C 
HETATM   10  C5  UNL     1     -34.795   4.925   4.902  1.00 20.00     0.009 C 
ENDBRANCH   7   8
ENDBRANCH   2   7
TORSDOF 4
ENDMDL
MODEL 6
REMARK VINA RESULT:      -4.1     12.228     13.018
REMARK  4 active torsions:
REMARK  status: ('A' for Active; 'I' for Inactive)
REMARK    1  A    between atoms: C1_1  and  C6_6 
REMARK    2  A    between atoms: C1_1  and  C8_8 
REMARK    3  A    between atoms: C7_7  and  C8_8 
REMARK    4  A    between atoms: C7_7  and  C9_9 
ROOT
HETATM    1  C3  UNL     1     -34.300  18.744   0.039  1.00 20.00     0.018 C 
HETATM    2  C8  UNL     1     -33.154  18.483  -0.939  1.00 20.00     0.051 C 
ENDROOT
BRANCH   2   3
HETATM    3  C1  UNL     1     -31.836  18.585  -0.172  1.00 20.00     0.130 C 
HETATM    4  O10 UNL     1     -30.752  18.610  -0.755  1.00 20.00    -0.298 OA
BRANCH   3   5
HETATM    5  C6  UNL     1     -31.945  18.616   1.343  1.00 20.00     0.074 C 
HETATM    6  C2  UNL     1     -30.616  18.357   2.030  1.00 20.00     0.013 C 
ENDBRANCH   3   5
ENDBRANCH   2   3
BRANCH   2   7
HETATM    7  C7  UNL     1     -33.315  17.110  -1.613  1.00 20.00     0.015 C 
BRANCH   7   8
HETATM    8  C9  UNL     1     -33.344  17.144  -3.156  1.00 20.00    -0.022 C 
HETATM    9  C4  UNL     1     -34.561  17.892  -3.702  1.00 20.00     0.009 C 
HETATM   10  C5  UNL     1     -33.331  15.714  -3.703  1.00 20.00     0.009 C 
ENDBRANCH   7   8
ENDBRANCH   2   7
TORSDOF 4
ENDMDL
MODEL 7
REMARK VINA RESULT:      -4.0      2.161      4.462
REMARK  4 active torsions:
REMARK  status: ('A' for Active; 'I' for Inactive)
REMARK    1  A    between atoms: C1_1  and  C6_6 
REMARK    2  A    between atoms: C1_1  and  C8_8 
REMARK    3  A    between atoms: C7_7  and  C8_8 
REMARK    4  A    between atoms: C7_7  and  C9_9 
ROOT
HETATM    1  C3  UNL     1     -34.013   8.907   6.132  1.00 20.00     0.018 C 
HETATM    2  C8  UNL     1     -33.811   7.768   5.133  1.00 20.00     0.051 C 
ENDROOT
BRANCH   2   3
HETATM    3  C1  UNL     1     -32.533   8.043   4.342  1.00 20.00     0.130 C 
HETATM    4  O10 UNL     1     -31.763   8.949   4.658  1.00 20.00    -0.298 OA
BRANCH   3   5
HETATM    5  C6  UNL     1     -32.294   7.158   3.130  1.00 20.00     0.074 C 
HETATM    6  C2  UNL     1     -32.196   7.950   1.839  1.00 20.00     0.013 C 
ENDBRANCH   3   5
ENDBRANCH   2   3
BRANCH   2   7
HETATM    7  C7  UNL     1     -33.751   6.413   5.858  1.00 20.00     0.015 C 
BRANCH   7   8
HETATM    8  C9  UNL     1     -34.695   5.330   5.293  1.00 20.00    -0.022 C 
HETATM    9  C4  UNL     1     -33.941   4.224   4.553  1.00 20.00     0.009 C 
HETATM   10  C5  UNL     1     -35.714   5.977   4.350  1.00 20.00     0.009 C 
ENDBRANCH   7   8
ENDBRANCH   2   7
TORSDOF 4
ENDMDL
MODEL 8
REMARK VINA RESULT:      -3.8     10.102     11.054
REMARK  4 active torsions:
REMARK  status: ('A' for Active; 'I' for Inactive)
REMARK    1  A    between atoms: C1_1  and  C6_6 
REMARK    2  A    between atoms: C1_1  and  C8_8 
REMARK    3  A    between atoms: C7_7  and  C8_8 
REMARK    4  A    between atoms: C7_7  and  C9_9 
ROOT
HETATM    1  C3  UNL     1     -42.616  12.544   6.938  1.00 20.00     0.018 C 
HETATM    2  C8  UNL     1     -41.287  13.279   6.769  1.00 20.00     0.051 C 
ENDROOT
BRANCH   2   3
HETATM    3  C1  UNL     1     -40.700  12.902   5.410  1.00 20.00     0.130 C 
HETATM    4  O10 UNL     1     -41.096  13.428   4.369  1.00 20.00    -0.298 OA
BRANCH   3   5
HETATM    5  C6  UNL     1     -39.633  11.821   5.418  1.00 20.00     0.074 C 
HETATM    6  C2  UNL     1     -38.986  11.627   4.058  1.00 20.00     0.013 C 
ENDBRANCH   3   5
ENDBRANCH   2   3
BRANCH   2   7
HETATM    7  C7  UNL     1     -41.484  14.798   6.902  1.00 20.00     0.015 C 
BRANCH   7   8
HETATM    8  C9  UNL     1     -40.401  15.524   7.730  1.00 20.00    -0.022 C 
HETATM    9  C4  UNL     1     -40.215  14.907   9.118  1.00 20.00     0.009 C 
HETATM   10  C5  UNL     1     -40.765  17.004   7.870  1.00 20.00     0.009 C 
ENDBRANCH   7   8
ENDBRANCH   2   7
TORSDOF 4
ENDMDL
MODEL 9
REMARK VINA RESULT:      -3.8      1.664      3.299
REMARK  4 active torsions:
REMARK  status: ('A' for Active; 'I' for Inactive)
REMARK    1  A    between atoms: C1_1  and  C6_6 
REMARK    2  A    between atoms: C1_1  and  C8_8 
REMARK    3  A    between atoms: C7_7  and  C8_8 
REMARK    4  A    between atoms: C7_7  and  C9_9 
ROOT
HETATM    1  C3  UNL     1     -34.632   4.862   5.782  1.00 20.00     0.018 C 
HETATM    2  C8  UNL     1     -34.736   6.231   5.111  1.00 20.00     0.051 C 
ENDROOT
BRANCH   2   3
HETATM    3  C1  UNL     1     -33.768   7.183   5.811  1.00 20.00     0.130 C 
HETATM    4  O10 UNL     1     -33.088   6.820   6.771  1.00 20.00    -0.298 OA
BRANCH   3   5
HETATM    5  C6  UNL     1     -33.725   8.605   5.277  1.00 20.00     0.074 C 
HETATM    6  C2  UNL     1     -32.309   9.096   5.036  1.00 20.00     0.013 C 
ENDBRANCH   3   5
ENDBRANCH   2   3
BRANCH   2   7
HETATM    7  C7  UNL     1     -34.439   6.124   3.606  1.00 20.00     0.015 C 
BRANCH   7   8
HETATM    8  C9  UNL     1     -32.966   5.819   3.254  1.00 20.00    -0.022 C 
HETATM    9  C4  UNL     1     -32.323   6.926   2.417  1.00 20.00     0.009 C 
HETATM   10  C5  UNL     1     -32.882   4.489   2.500  1.00 20.00     0.009 C 
ENDBRANCH   7   8
ENDBRANCH   2   7
TORSDOF 4
ENDMDL
