MODEL 1
REMARK VINA RESULT:      -5.7      0.000      0.000
REMARK  2 active torsions:
REMARK  status: ('A' for Active; 'I' for Inactive)
REMARK    1  A    between atoms: C6_6  and  C7_7 
REMARK    2  A    between atoms: C7_7  and  C8_8 
ROOT
HETATM    1  C1  UNL     1     -33.159   6.222   3.349  1.00 20.00     0.131 C 
HETATM    2  C2  UNL     1     -32.168   7.151   2.682  1.00 20.00     0.079 C 
HETATM    3  C3  UNL     1     -31.497   8.046   3.713  1.00 20.00     0.007 C 
HETATM    4  C4  UNL     1     -32.521   8.774   4.580  1.00 20.00     0.001 C 
HETATM    5  C5  UNL     1     -33.452   7.781   5.277  1.00 20.00     0.012 C 
HETATM    6  C6  UNL     1     -34.178   6.881   4.273  1.00 20.00     0.064 C 
HETATM    7  O9  UNL     1     -33.182   5.022   3.076  1.00 20.00    -0.298 OA
ENDROOT
BRANCH   6   8
HETATM    8  C7  UNL     1     -35.036   5.848   4.996  1.00 20.00     0.129 C 
BRANCH   8   9
HETATM    9  C8  UNL     1     -34.631   5.715   6.436  1.00 20.00     0.388 C 
HETATM   10  F10 UNL     1     -33.369   5.252   6.564  1.00 20.00    -0.171 F 
HETATM   11  F11 UNL     1     -35.453   4.839   7.055  1.00 20.00    -0.171 F 
HETATM   12  F12 UNL     1     -34.715   6.890   7.094  1.00 20.00    -0.171 F 
ENDBRANCH   8   9
ENDBRANCH   6   8
TORSDOF 2
ENDMDL
MODEL 2
REMARK VINA RESULT:      -5.7      3.609      4.846
REMARK  2 active torsions:
REMARK  status: ('A' for Active; 'I' for Inactive)
REMARK    1  A    between atoms: C6_6  and  C7_7 
REMARK    2  A    between atoms: C7_7  and  C8_8 
ROOT
HETATM    1  C1  UNL     1     -32.980   7.755   4.761  1.00 20.00     0.131 C 
HETATM    2  C2  UNL     1     -34.042   7.582   5.826  1.00 20.00     0.079 C 
HETATM    3  C3  UNL     1     -34.366   6.109   6.022  1.00 20.00     0.007 C 
HETATM    4  C4  UNL     1     -34.715   5.426   4.702  1.00 20.00     0.001 C 
HETATM    5  C5  UNL     1     -33.580   5.580   3.690  1.00 20.00     0.012 C 
HETATM    6  C6  UNL     1     -33.242   7.052   3.433  1.00 20.00     0.064 C 
HETATM    7  O9  UNL     1     -32.016   8.497   4.945  1.00 20.00    -0.298 OA
ENDROOT
BRANCH   6   8
HETATM    8  C7  UNL     1     -32.054   7.175   2.484  1.00 20.00     0.129 C 
BRANCH   8   9
HETATM    9  C8  UNL     1     -32.331   8.167   1.391  1.00 20.00     0.388 C 
HETATM   10  F10 UNL     1     -33.315   7.748   0.567  1.00 20.00    -0.171 F 
HETATM   11  F11 UNL     1     -31.217   8.336   0.645  1.00 20.00    -0.171 F 
HETATM   12  F12 UNL     1     -32.682   9.374   1.882  1.00 20.00    -0.171 F 
ENDBRANCH   8   9
ENDBRANCH   6   8
TORSDOF 2
ENDMDL
MODEL 3
REMARK VINA RESULT:      -5.6      0.044      1.097
REMARK  2 active torsions:
REMARK  status: ('A' for Active; 'I' for Inactive)
REMARK    1  A    between atoms: C6_6  and  C7_7 
REMARK    2  A    between atoms: C7_7  and  C8_8 
ROOT
HETATM    1  C1  UNL     1     -33.156   6.231   3.330  1.00 20.00     0.131 C 
HETATM    2  C2  UNL     1     -32.176   7.183   2.679  1.00 20.00     0.079 C 
HETATM    3  C3  UNL     1     -31.499   8.052   3.728  1.00 20.00     0.007 C 
HETATM    4  C4  UNL     1     -32.518   8.752   4.624  1.00 20.00     0.001 C 
HETATM    5  C5  UNL     1     -33.438   7.736   5.303  1.00 20.00     0.012 C 
HETATM    6  C6  UNL     1     -34.169   6.860   4.281  1.00 20.00     0.064 C 
HETATM    7  O9  UNL     1     -33.178   5.039   3.025  1.00 20.00    -0.298 OA
ENDROOT
BRANCH   6   8
HETATM    8  C7  UNL     1     -35.016   5.804   4.985  1.00 20.00     0.129 C 
BRANCH   8   9
HETATM    9  C8  UNL     1     -34.637   5.678   6.432  1.00 20.00     0.388 C 
HETATM   10  F10 UNL     1     -35.465   4.845   7.099  1.00 20.00    -0.171 F 
HETATM   11  F11 UNL     1     -34.713   6.890   7.024  1.00 20.00    -0.171 F 
HETATM   12  F12 UNL     1     -33.375   5.226   6.586  1.00 20.00    -0.171 F 
ENDBRANCH   8   9
ENDBRANCH   6   8
TORSDOF 2
ENDMDL
MODEL 4
REMARK VINA RESULT:      -5.6      9.567     10.391
REMARK  2 active torsions:
REMARK  status: ('A' for Active; 'I' for Inactive)
REMARK    1  A    between atoms: C6_6  and  C7_7 
REMARK    2  A    between atoms: C7_7  and  C8_8 
ROOT
HETATM    1  C1  UNL     1     -40.460  14.030   7.376  1.00 20.00     0.131 C 
HETATM    2  C2  UNL     1     -40.863  15.467   7.625  1.00 20.00     0.079 C 
HETATM    3  C3  UNL     1     -42.256  15.734   7.075  1.00 20.00     0.007 C 
HETATM    4  C4  UNL     1     -42.374  15.318   5.611  1.00 20.00     0.001 C 
HETATM    5  C5  UNL     1     -42.017  13.842   5.432  1.00 20.00     0.012 C 
HETATM    6  C6  UNL     1     -40.606  13.533   5.941  1.00 20.00     0.064 C 
HETATM    7  O9  UNL     1     -39.960  13.349   8.271  1.00 20.00    -0.298 OA
ENDROOT
BRANCH   6   8
HETATM    8  C7  UNL     1     -40.305  12.042   5.826  1.00 20.00     0.129 C 
BRANCH   8   9
HETATM    9  C8  UNL     1     -39.360  11.762   4.694  1.00 20.00     0.388 C 
HETATM   10  F10 UNL     1     -39.402  10.468   4.309  1.00 20.00    -0.171 F 
HETATM   11  F11 UNL     1     -38.096  12.030   5.088  1.00 20.00    -0.171 F 
HETATM   12  F12 UNL     1     -39.623  12.528   3.615  1.00 20.00    -0.171 F 
ENDBRANCH   8   9
ENDBRANCH   6   8
TORSDOF 2
ENDMDL
MODEL 5
REMARK VINA RESULT:      -5.5      2.854      4.064
REMARK  2 active torsions:
REMARK  status: ('A' for Active; 'I' for Inactive)
REMARK    1  A    between atoms: C6_6  and  C7_7 
REMARK    2  A    between atoms: C7_7  and  C8_8 
ROOT
HETATM    1  C1  UNL     1     -34.431   6.140   5.527  1.00 20.00     0.131 C 
HETATM    2  C2  UNL     1     -34.855   4.811   4.939  1.00 20.00     0.079 C 
HETATM    3  C3  UNL     1     -33.779   4.272   4.008  1.00 20.00     0.007 C 
HETATM    4  C4  UNL     1     -33.377   5.300   2.954  1.00 20.00     0.001 C 
HETATM    5  C5  UNL     1     -32.898   6.596   3.609  1.00 20.00     0.012 C 
HETATM    6  C6  UNL     1     -33.965   7.195   4.530  1.00 20.00     0.064 C 
HETATM    7  O9  UNL     1     -34.550   6.365   6.731  1.00 20.00    -0.298 OA
ENDROOT
BRANCH   6   8
HETATM    8  C7  UNL     1     -33.433   8.441   5.231  1.00 20.00     0.129 C 
BRANCH   8   9
HETATM    9  C8  UNL     1     -32.256   9.018   4.500  1.00 20.00     0.388 C 
HETATM   10  F10 UNL     1     -31.256   8.119   4.365  1.00 20.00    -0.171 F 
HETATM   11  F11 UNL     1     -31.768  10.070   5.193  1.00 20.00    -0.171 F 
HETATM   12  F12 UNL     1     -32.591   9.458   3.270  1.00 20.00    -0.171 F 
ENDBRANCH   8   9
ENDBRANCH   6   8
TORSDOF 2
ENDMDL
MODEL 6
REMARK VINA RESULT:      -5.4      2.912      4.101
REMARK  2 active torsions:
REMARK  status: ('A' for Active; 'I' for Inactive)
REMARK    1  A    between atoms: C6_6  and  C7_7 
REMARK    2  A    between atoms: C7_7  and  C8_8 
ROOT
HETATM    1  C1  UNL     1     -33.983   5.097   4.642  1.00 20.00     0.131 C 
HETATM    2  C2  UNL     1     -34.300   4.858   6.102  1.00 20.00     0.079 C 
HETATM    3  C3  UNL     1     -34.969   6.082   6.710  1.00 20.00     0.007 C 
HETATM    4  C4  UNL     1     -34.154   7.350   6.467  1.00 20.00     0.001 C 
HETATM    5  C5  UNL     1     -33.921   7.571   4.972  1.00 20.00     0.012 C 
HETATM    6  C6  UNL     1     -33.216   6.376   4.324  1.00 20.00     0.064 C 
HETATM    7  O9  UNL     1     -34.255   4.252   3.790  1.00 20.00    -0.298 OA
ENDROOT
BRANCH   6   8
HETATM    8  C7  UNL     1     -33.069   6.588   2.820  1.00 20.00     0.129 C 
BRANCH   8   9
HETATM    9  C8  UNL     1     -32.181   7.760   2.519  1.00 20.00     0.388 C 
HETATM   10  F10 UNL     1     -31.689   7.711   1.262  1.00 20.00    -0.171 F 
HETATM   11  F11 UNL     1     -31.130   7.758   3.369  1.00 20.00    -0.171 F 
HETATM   12  F12 UNL     1     -32.827   8.935   2.670  1.00 20.00    -0.171 F 
ENDBRANCH   8   9
ENDBRANCH   6   8
TORSDOF 2
ENDMDL
MODEL 7
REMARK VINA RESULT:      -5.3     12.756     13.408
REMARK  2 active torsions:
REMARK  status: ('A' for Active; 'I' for Inactive)
REMARK    1  A    between atoms: C6_6  and  C7_7 
REMARK    2  A    between atoms: C7_7  and  C8_8 
ROOT
HETATM    1  C1  UNL     1     -33.939  18.640  -0.361  1.00 20.00     0.131 C 
HETATM    2  C2  UNL     1     -33.846  18.734   1.146  1.00 20.00     0.079 C 
HETATM    3  C3  UNL     1     -32.482  19.262   1.565  1.00 20.00     0.007 C 
HETATM    4  C4  UNL     1     -31.347  18.457   0.937  1.00 20.00     0.001 C 
HETATM    5  C5  UNL     1     -31.459  18.453  -0.588  1.00 20.00     0.012 C 
HETATM    6  C6  UNL     1     -32.806  17.894  -1.057  1.00 20.00     0.064 C 
HETATM    7  O9  UNL     1     -34.925  19.067  -0.961  1.00 20.00    -0.298 OA
ENDROOT
BRANCH   6   8
HETATM    8  C7  UNL     1     -32.924  17.976  -2.576  1.00 20.00     0.129 C 
BRANCH   8   9
HETATM    9  C8  UNL     1     -33.485  16.706  -3.148  1.00 20.00     0.388 C 
HETATM   10  F10 UNL     1     -34.604  16.929  -3.871  1.00 20.00    -0.171 F 
HETATM   11  F11 UNL     1     -33.809  15.865  -2.143  1.00 20.00    -0.171 F 
HETATM   12  F12 UNL     1     -32.594  16.073  -3.941  1.00 20.00    -0.171 F 
ENDBRANCH   8   9
ENDBRANCH   6   8
TORSDOF 2
ENDMDL
MODEL 8
REMARK VINA RESULT:      -5.2      1.357      2.283
REMARK  2 active torsions:
REMARK  status: ('A' for Active; 'I' for Inactive)
REMARK    1  A    between atoms: C6_6  and  C7_7 
REMARK    2  A    between atoms: C7_7  and  C8_8 
ROOT
HETATM    1  C1  UNL     1     -33.322   7.864   4.506  1.00 20.00     0.131 C 
HETATM    2  C2  UNL     1     -32.105   8.380   3.771  1.00 20.00     0.079 C 
HETATM    3  C3  UNL     1     -32.085   7.862   2.341  1.00 20.00     0.007 C 
HETATM    4  C4  UNL     1     -32.224   6.342   2.289  1.00 20.00     0.001 C 
HETATM    5  C5  UNL     1     -33.503   5.886   2.992  1.00 20.00     0.012 C 
HETATM    6  C6  UNL     1     -33.549   6.356   4.449  1.00 20.00     0.064 C 
HETATM    7  O9  UNL     1     -34.021   8.619   5.181  1.00 20.00    -0.298 OA
ENDROOT
BRANCH   6   8
HETATM    8  C7  UNL     1     -34.869   5.958   5.102  1.00 20.00     0.129 C 
BRANCH   8   9
HETATM    9  C8  UNL     1     -34.684   5.645   6.558  1.00 20.00     0.388 C 
HETATM   10  F10 UNL     1     -35.626   4.792   7.014  1.00 20.00    -0.171 F 
HETATM   11  F11 UNL     1     -34.782   6.784   7.279  1.00 20.00    -0.171 F 
HETATM   12  F12 UNL     1     -33.473   5.105   6.809  1.00 20.00    -0.171 F 
ENDBRANCH   8   9
ENDBRANCH   6   8
TORSDOF 2
ENDMDL
MODEL 9
REMARK VINA RESULT:      -5.1      9.690     10.553
REMARK  2 active torsions:
REMARK  status: ('A' for Active; 'I' for Inactive)
REMARK    1  A    between atoms: C6_6  and  C7_7 
REMARK    2  A    between atoms: C7_7  and  C8_8 
ROOT
HETATM    1  C1  UNL     1     -42.194  13.176   7.311  1.00 20.00     0.131 C 
HETATM    2  C2  UNL     1     -42.526  13.601   8.725  1.00 20.00     0.079 C 
HETATM    3  C3  UNL     1     -42.066  15.029   8.975  1.00 20.00     0.007 C 
HETATM    4  C4  UNL     1     -40.594  15.219   8.616  1.00 20.00     0.001 C 
HETATM    5  C5  UNL     1     -40.333  14.835   7.159  1.00 20.00     0.012 C 
HETATM    6  C6  UNL     1     -40.749  13.390   6.870  1.00 20.00     0.064 C 
HETATM    7  O9  UNL     1     -43.030  12.609   6.608  1.00 20.00    -0.298 OA
ENDROOT
BRANCH   6   8
HETATM    8  C7  UNL     1     -40.554  13.058   5.393  1.00 20.00     0.129 C 
BRANCH   8   9
HETATM    9  C8  UNL     1     -39.518  11.987   5.207  1.00 20.00     0.388 C 
HETATM   10  F10 UNL     1     -39.537  11.479   3.956  1.00 20.00    -0.171 F 
HETATM   11  F11 UNL     1     -39.763  10.972   6.064  1.00 20.00    -0.171 F 
HETATM   12  F12 UNL     1     -38.273  12.442   5.457  1.00 20.00    -0.171 F 
ENDBRANCH   8   9
ENDBRANCH   6   8
TORSDOF 2
ENDMDL
