MODEL 1
REMARK VINA RESULT:      -5.9      0.000      0.000
REMARK  2 active torsions:
REMARK  status: ('A' for Active; 'I' for Inactive)
REMARK    1  A    between atoms: C1_1  and  C3_3 
REMARK    2  A    between atoms: C2_2  and  C4_4 
ROOT
HETATM    1  C1  UNL     1     -32.753   7.088   3.805  1.00 20.00     0.223 C 
HETATM    2  C2  UNL     1     -33.280   5.868   3.604  1.00 20.00     0.223 C 
HETATM    3  F5  UNL     1     -31.882   7.571   2.887  1.00 20.00    -0.200 F 
HETATM    4  F6  UNL     1     -32.886   5.168   2.513  1.00 20.00    -0.200 F 
ENDROOT
BRANCH   1   5
HETATM    5  C3  UNL     1     -33.071   7.974   4.965  1.00 20.00     0.377 C 
HETATM    6  F7  UNL     1     -32.929   7.347   6.163  1.00 20.00    -0.180 F 
HETATM    7  F8  UNL     1     -34.370   8.378   4.907  1.00 20.00    -0.180 F 
HETATM    8 CL11 UNL     1     -32.023   9.405   4.937  1.00 20.00    -0.040 Cl
ENDBRANCH   1   5
BRANCH   2   9
HETATM    9  C4  UNL     1     -34.268   5.206   4.508  1.00 20.00     0.377 C 
HETATM   10  F9  UNL     1     -34.319   3.870   4.254  1.00 20.00    -0.180 F 
HETATM   11  F10 UNL     1     -33.943   5.323   5.823  1.00 20.00    -0.180 F 
HETATM   12 CL12 UNL     1     -35.882   5.899   4.252  1.00 20.00    -0.040 Cl
ENDBRANCH   2   9
TORSDOF 2
ENDMDL
MODEL 2
REMARK VINA RESULT:      -5.9      0.014      3.457
REMARK  2 active torsions:
REMARK  status: ('A' for Active; 'I' for Inactive)
REMARK    1  A    between atoms: C1_1  and  C3_3 
REMARK    2  A    between atoms: C2_2  and  C4_4 
ROOT
HETATM    1  C1  UNL     1     -33.295   5.870   3.604  1.00 20.00     0.223 C 
HETATM    2  C2  UNL     1     -32.761   7.087   3.802  1.00 20.00     0.223 C 
HETATM    3  F5  UNL     1     -32.906   5.166   2.514  1.00 20.00    -0.200 F 
HETATM    4  F6  UNL     1     -31.889   7.565   2.882  1.00 20.00    -0.200 F 
ENDROOT
BRANCH   1   5
HETATM    5  C3  UNL     1     -34.282   5.213   4.513  1.00 20.00     0.377 C 
HETATM    6  F7  UNL     1     -33.954   5.335   5.827  1.00 20.00    -0.180 F 
HETATM    7  F8  UNL     1     -34.334   3.876   4.264  1.00 20.00    -0.180 F 
HETATM    8 CL11 UNL     1     -35.894   5.908   4.257  1.00 20.00    -0.040 Cl
ENDBRANCH   1   5
BRANCH   2   9
HETATM    9  C4  UNL     1     -33.070   7.975   4.962  1.00 20.00     0.377 C 
HETATM   10  F9  UNL     1     -34.367   8.383   4.913  1.00 20.00    -0.180 F 
HETATM   11  F10 UNL     1     -32.921   7.352   6.161  1.00 20.00    -0.180 F 
HETATM   12 CL12 UNL     1     -32.018   9.405   4.925  1.00 20.00    -0.040 Cl
ENDBRANCH   2   9
TORSDOF 2
ENDMDL
MODEL 3
REMARK VINA RESULT:      -5.5      1.649      2.492
REMARK  2 active torsions:
REMARK  status: ('A' for Active; 'I' for Inactive)
REMARK    1  A    between atoms: C1_1  and  C3_3 
REMARK    2  A    between atoms: C2_2  and  C4_4 
ROOT
HETATM    1  C1  UNL     1     -32.943   6.241   3.211  1.00 20.00     0.223 C 
HETATM    2  C2  UNL     1     -33.681   5.798   4.242  1.00 20.00     0.223 C 
HETATM    3  F5  UNL     1     -32.718   5.401   2.172  1.00 20.00    -0.200 F 
HETATM    4  F6  UNL     1     -34.133   4.522   4.209  1.00 20.00    -0.200 F 
ENDROOT
BRANCH   1   5
HETATM    5  C3  UNL     1     -32.358   7.613   3.108  1.00 20.00     0.377 C 
HETATM    6  F7  UNL     1     -31.245   7.772   3.873  1.00 20.00    -0.180 F 
HETATM    7  F8  UNL     1     -33.251   8.540   3.550  1.00 20.00    -0.180 F 
HETATM    8 CL11 UNL     1     -31.949   7.969   1.418  1.00 20.00    -0.040 Cl
ENDBRANCH   1   5
BRANCH   2   9
HETATM    9  C4  UNL     1     -34.034   6.606   5.448  1.00 20.00     0.377 C 
HETATM   10  F9  UNL     1     -32.910   7.121   6.017  1.00 20.00    -0.180 F 
HETATM   11  F10 UNL     1     -34.828   7.671   5.158  1.00 20.00    -0.180 F 
HETATM   12 CL12 UNL     1     -34.861   5.582   6.640  1.00 20.00    -0.040 Cl
ENDBRANCH   2   9
TORSDOF 2
ENDMDL
MODEL 4
REMARK VINA RESULT:      -5.5      1.652      3.387
REMARK  2 active torsions:
REMARK  status: ('A' for Active; 'I' for Inactive)
REMARK    1  A    between atoms: C1_1  and  C3_3 
REMARK    2  A    between atoms: C2_2  and  C4_4 
ROOT
HETATM    1  C1  UNL     1     -33.676   5.799   4.219  1.00 20.00     0.223 C 
HETATM    2  C2  UNL     1     -32.939   6.248   3.190  1.00 20.00     0.223 C 
HETATM    3  F5  UNL     1     -34.123   4.520   4.181  1.00 20.00    -0.200 F 
HETATM    4  F6  UNL     1     -32.710   5.412   2.149  1.00 20.00    -0.200 F 
ENDROOT
BRANCH   1   5
HETATM    5  C3  UNL     1     -34.031   6.601   5.428  1.00 20.00     0.377 C 
HETATM    6  F7  UNL     1     -34.829   7.665   5.141  1.00 20.00    -0.180 F 
HETATM    7  F8  UNL     1     -32.908   7.119   5.997  1.00 20.00    -0.180 F 
HETATM    8 CL11 UNL     1     -34.854   5.572   6.617  1.00 20.00    -0.040 Cl
ENDBRANCH   1   5
BRANCH   2   9
HETATM    9  C4  UNL     1     -32.358   7.620   3.091  1.00 20.00     0.377 C 
HETATM   10  F9  UNL     1     -33.252   8.545   3.537  1.00 20.00    -0.180 F 
HETATM   11  F10 UNL     1     -31.244   7.780   3.854  1.00 20.00    -0.180 F 
HETATM   12 CL12 UNL     1     -31.953   7.985   1.401  1.00 20.00    -0.040 Cl
ENDBRANCH   2   9
TORSDOF 2
ENDMDL
MODEL 5
REMARK VINA RESULT:      -5.1      1.702      2.804
REMARK  2 active torsions:
REMARK  status: ('A' for Active; 'I' for Inactive)
REMARK    1  A    between atoms: C1_1  and  C3_3 
REMARK    2  A    between atoms: C2_2  and  C4_4 
ROOT
HETATM    1  C1  UNL     1     -32.989   8.069   4.672  1.00 20.00     0.223 C 
HETATM    2  C2  UNL     1     -33.832   7.296   5.377  1.00 20.00     0.223 C 
HETATM    3  F5  UNL     1     -32.564   9.230   5.227  1.00 20.00    -0.200 F 
HETATM    4  F6  UNL     1     -34.244   7.733   6.591  1.00 20.00    -0.200 F 
ENDROOT
BRANCH   1   5
HETATM    5  C3  UNL     1     -32.459   7.737   3.315  1.00 20.00     0.377 C 
HETATM    6  F7  UNL     1     -33.051   6.641   2.770  1.00 20.00    -0.180 F 
HETATM    7  F8  UNL     1     -31.131   7.448   3.385  1.00 20.00    -0.180 F 
HETATM    8 CL11 UNL     1     -32.689   9.116   2.223  1.00 20.00    -0.040 Cl
ENDBRANCH   1   5
BRANCH   2   9
HETATM    9  C4  UNL     1     -34.373   5.982   4.915  1.00 20.00     0.377 C 
HETATM   10  F9  UNL     1     -35.472   6.172   4.137  1.00 20.00    -0.180 F 
HETATM   11  F10 UNL     1     -33.490   5.285   4.151  1.00 20.00    -0.180 F 
HETATM   12 CL12 UNL     1     -34.826   4.990   6.316  1.00 20.00    -0.040 Cl
ENDBRANCH   2   9
TORSDOF 2
ENDMDL
MODEL 6
REMARK VINA RESULT:      -5.1      1.701      3.816
REMARK  2 active torsions:
REMARK  status: ('A' for Active; 'I' for Inactive)
REMARK    1  A    between atoms: C1_1  and  C3_3 
REMARK    2  A    between atoms: C2_2  and  C4_4 
ROOT
HETATM    1  C1  UNL     1     -33.837   7.292   5.395  1.00 20.00     0.223 C 
HETATM    2  C2  UNL     1     -32.993   8.066   4.693  1.00 20.00     0.223 C 
HETATM    3  F5  UNL     1     -34.252   7.728   6.609  1.00 20.00    -0.200 F 
HETATM    4  F6  UNL     1     -32.570   9.227   5.249  1.00 20.00    -0.200 F 
ENDROOT
BRANCH   1   5
HETATM    5  C3  UNL     1     -34.379   5.980   4.929  1.00 20.00     0.377 C 
HETATM    6  F7  UNL     1     -33.500   5.291   4.152  1.00 20.00    -0.180 F 
HETATM    7  F8  UNL     1     -35.486   6.172   4.161  1.00 20.00    -0.180 F 
HETATM    8 CL11 UNL     1     -34.817   4.977   6.326  1.00 20.00    -0.040 Cl
ENDBRANCH   1   5
BRANCH   2   9
HETATM    9  C4  UNL     1     -32.463   7.738   3.336  1.00 20.00     0.377 C 
HETATM   10  F9  UNL     1     -31.135   7.448   3.406  1.00 20.00    -0.180 F 
HETATM   11  F10 UNL     1     -33.055   6.645   2.786  1.00 20.00    -0.180 F 
HETATM   12 CL12 UNL     1     -32.690   9.122   2.247  1.00 20.00    -0.040 Cl
ENDBRANCH   2   9
TORSDOF 2
ENDMDL
MODEL 7
REMARK VINA RESULT:      -5.0      1.296      4.034
REMARK  2 active torsions:
REMARK  status: ('A' for Active; 'I' for Inactive)
REMARK    1  A    between atoms: C1_1  and  C3_3 
REMARK    2  A    between atoms: C2_2  and  C4_4 
ROOT
HETATM    1  C1  UNL     1     -33.909   5.905   5.688  1.00 20.00     0.223 C 
HETATM    2  C2  UNL     1     -33.365   7.119   5.869  1.00 20.00     0.223 C 
HETATM    3  F5  UNL     1     -34.037   5.090   6.762  1.00 20.00    -0.200 F 
HETATM    4  F6  UNL     1     -32.936   7.455   7.109  1.00 20.00    -0.200 F 
ENDROOT
BRANCH   1   5
HETATM    5  C3  UNL     1     -34.411   5.381   4.381  1.00 20.00     0.377 C 
HETATM    6  F7  UNL     1     -34.449   4.023   4.336  1.00 20.00    -0.180 F 
HETATM    7  F8  UNL     1     -33.584   5.765   3.371  1.00 20.00    -0.180 F 
HETATM    8 CL11 UNL     1     -36.039   6.012   4.062  1.00 20.00    -0.040 Cl
ENDBRANCH   1   5
BRANCH   2   9
HETATM    9  C4  UNL     1     -33.175   8.139   4.793  1.00 20.00     0.377 C 
HETATM   10  F9  UNL     1     -34.348   8.362   4.142  1.00 20.00    -0.180 F 
HETATM   11  F10 UNL     1     -32.778   9.347   5.273  1.00 20.00    -0.180 F 
HETATM   12 CL12 UNL     1     -31.971   7.564   3.621  1.00 20.00    -0.040 Cl
ENDBRANCH   2   9
TORSDOF 2
ENDMDL
MODEL 8
REMARK VINA RESULT:      -4.9      1.858      2.495
REMARK  2 active torsions:
REMARK  status: ('A' for Active; 'I' for Inactive)
REMARK    1  A    between atoms: C1_1  and  C3_3 
REMARK    2  A    between atoms: C2_2  and  C4_4 
ROOT
HETATM    1  C1  UNL     1     -33.374   7.134   5.887  1.00 20.00     0.223 C 
HETATM    2  C2  UNL     1     -34.015   5.962   5.750  1.00 20.00     0.223 C 
HETATM    3  F5  UNL     1     -32.806   7.420   7.083  1.00 20.00    -0.200 F 
HETATM    4  F6  UNL     1     -34.093   5.141   6.824  1.00 20.00    -0.200 F 
ENDROOT
BRANCH   1   5
HETATM    5  C3  UNL     1     -33.219   8.154   4.806  1.00 20.00     0.377 C 
HETATM    6  F7  UNL     1     -32.829   9.368   5.277  1.00 20.00    -0.180 F 
HETATM    7  F8  UNL     1     -34.409   8.361   4.179  1.00 20.00    -0.180 F 
HETATM    8 CL11 UNL     1     -32.031   7.593   3.613  1.00 20.00    -0.040 Cl
ENDBRANCH   1   5
BRANCH   2   9
HETATM    9  C4  UNL     1     -34.674   5.492   4.494  1.00 20.00     0.377 C 
HETATM   10  F9  UNL     1     -35.261   4.281   4.693  1.00 20.00    -0.180 F 
HETATM   11  F10 UNL     1     -35.665   6.322   4.072  1.00 20.00    -0.180 F 
HETATM   12 CL12 UNL     1     -33.468   5.337   3.200  1.00 20.00    -0.040 Cl
ENDBRANCH   2   9
TORSDOF 2
ENDMDL
MODEL 9
REMARK VINA RESULT:      -4.5      2.114      2.669
REMARK  2 active torsions:
REMARK  status: ('A' for Active; 'I' for Inactive)
REMARK    1  A    between atoms: C1_1  and  C3_3 
REMARK    2  A    between atoms: C2_2  and  C4_4 
ROOT
HETATM    1  C1  UNL     1     -33.293   7.147   5.135  1.00 20.00     0.223 C 
HETATM    2  C2  UNL     1     -33.008   6.606   3.938  1.00 20.00     0.223 C 
HETATM    3  F5  UNL     1     -32.639   8.274   5.504  1.00 20.00    -0.200 F 
HETATM    4  F6  UNL     1     -32.055   7.195   3.177  1.00 20.00    -0.200 F 
ENDROOT
BRANCH   1   5
HETATM    5  C3  UNL     1     -34.302   6.607   6.096  1.00 20.00     0.377 C 
HETATM    6  F7  UNL     1     -35.496   6.329   5.508  1.00 20.00    -0.180 F 
HETATM    7  F8  UNL     1     -34.568   7.526   7.065  1.00 20.00    -0.180 F 
HETATM    8 CL11 UNL     1     -33.681   5.131   6.859  1.00 20.00    -0.040 Cl
ENDBRANCH   1   5
BRANCH   2   9
HETATM    9  C4  UNL     1     -33.655   5.381   3.379  1.00 20.00     0.377 C 
HETATM   10  F9  UNL     1     -33.560   4.352   4.264  1.00 20.00    -0.180 F 
HETATM   11  F10 UNL     1     -34.983   5.546   3.139  1.00 20.00    -0.180 F 
HETATM   12 CL12 UNL     1     -32.853   4.912   1.866  1.00 20.00    -0.040 Cl
ENDBRANCH   2   9
TORSDOF 2
ENDMDL
