MODEL 1
REMARK VINA RESULT:      -3.9      0.000      0.000
REMARK  1 active torsions:
REMARK  status: ('A' for Active; 'I' for Inactive)
REMARK    1  A    between atoms: C4_4  and  C6_6 
ROOT
HETATM    1  C1  UNL     1     -33.325  16.528  -2.413  1.00 20.00     0.039 A 
HETATM    2  C2  UNL     1     -33.603  18.818  -2.993  1.00 20.00     0.129 A 
HETATM    3  C3  UNL     1     -34.052  17.210  -4.572  1.00 20.00     0.140 A 
HETATM    4  C4  UNL     1     -33.259  17.867  -2.045  1.00 20.00    -0.000 A 
HETATM    5  C5  UNL     1     -33.728  16.185  -3.698  1.00 20.00     0.052 A 
HETATM    6  N8  UNL     1     -34.000  18.523  -4.252  1.00 20.00    -0.271 NA
HETATM    7 CL10 UNL     1     -33.821  14.543  -4.188  1.00 20.00    -0.083 Cl
ENDROOT
BRANCH   4   8
HETATM    8  C6  UNL     1     -32.842  18.259  -0.710  1.00 20.00     0.017 C 
HETATM    9  C7  UNL     1     -31.354  18.495  -0.442  1.00 20.00     0.062 C 
HETATM   10  S9  UNL     1     -33.919  18.528   0.580  1.00 20.00    -0.084 SA
ENDBRANCH   4   8
TORSDOF 1
ENDMDL
MODEL 2
REMARK VINA RESULT:      -3.7      3.406      4.519
REMARK  1 active torsions:
REMARK  status: ('A' for Active; 'I' for Inactive)
REMARK    1  A    between atoms: C4_4  and  C6_6 
ROOT
HETATM    1  C1  UNL     1     -32.005  18.221  -0.761  1.00 20.00     0.039 A 
HETATM    2  C2  UNL     1     -34.351  18.616  -0.781  1.00 20.00     0.129 A 
HETATM    3  C3  UNL     1     -33.169  19.046   1.141  1.00 20.00     0.140 A 
HETATM    4  C4  UNL     1     -33.212  18.201  -1.452  1.00 20.00    -0.000 A 
HETATM    5  C5  UNL     1     -31.975  18.651   0.561  1.00 20.00     0.052 A 
HETATM    6  N8  UNL     1     -34.361  19.039   0.503  1.00 20.00    -0.271 NA
HETATM    7 CL10 UNL     1     -30.506  18.689   1.445  1.00 20.00    -0.083 Cl
ENDROOT
BRANCH   4   8
HETATM    8  C6  UNL     1     -33.277  17.758  -2.834  1.00 20.00     0.017 C 
HETATM    9  C7  UNL     1     -33.324  16.257  -3.126  1.00 20.00     0.062 C 
HETATM   10  S9  UNL     1     -33.359  18.815  -4.166  1.00 20.00    -0.084 SA
ENDBRANCH   4   8
TORSDOF 1
ENDMDL
MODEL 3
REMARK VINA RESULT:      -3.6      5.546      7.208
REMARK  1 active torsions:
REMARK  status: ('A' for Active; 'I' for Inactive)
REMARK    1  A    between atoms: C4_4  and  C6_6 
ROOT
HETATM    1  C1  UNL     1     -29.721  18.891   2.358  1.00 20.00     0.039 A 
HETATM    2  C2  UNL     1     -31.786  19.132   3.514  1.00 20.00     0.129 A 
HETATM    3  C3  UNL     1     -29.828  19.197   4.713  1.00 20.00     0.140 A 
HETATM    4  C4  UNL     1     -31.110  18.949   2.318  1.00 20.00    -0.000 A 
HETATM    5  C5  UNL     1     -29.060  19.017   3.574  1.00 20.00     0.052 A 
HETATM    6  N8  UNL     1     -31.178  19.258   4.716  1.00 20.00    -0.271 NA
HETATM    7 CL10 UNL     1     -27.348  18.951   3.662  1.00 20.00    -0.083 Cl
ENDROOT
BRANCH   4   8
HETATM    8  C6  UNL     1     -31.831  18.821   1.064  1.00 20.00     0.017 C 
HETATM    9  C7  UNL     1     -31.044  18.507  -0.210  1.00 20.00     0.062 C 
HETATM   10  S9  UNL     1     -33.522  18.948   0.924  1.00 20.00    -0.084 SA
ENDBRANCH   4   8
TORSDOF 1
ENDMDL
MODEL 4
REMARK VINA RESULT:      -3.6      2.989      3.994
REMARK  1 active torsions:
REMARK  status: ('A' for Active; 'I' for Inactive)
REMARK    1  A    between atoms: C4_4  and  C6_6 
ROOT
HETATM    1  C1  UNL     1     -33.744  17.011  -1.934  1.00 20.00     0.039 A 
HETATM    2  C2  UNL     1     -32.912  18.257  -3.782  1.00 20.00     0.129 A 
HETATM    3  C3  UNL     1     -32.678  19.119  -1.665  1.00 20.00     0.140 A 
HETATM    4  C4  UNL     1     -33.548  17.121  -3.306  1.00 20.00    -0.000 A 
HETATM    5  C5  UNL     1     -33.303  18.024  -1.091  1.00 20.00     0.052 A 
HETATM    6  N8  UNL     1     -32.471  19.263  -2.993  1.00 20.00    -0.271 NA
HETATM    7 CL10 UNL     1     -33.527  17.923   0.607  1.00 20.00    -0.083 Cl
ENDROOT
BRANCH   4   8
HETATM    8  C6  UNL     1     -33.996  16.079  -4.214  1.00 20.00     0.017 C 
HETATM    9  C7  UNL     1     -33.299  14.718  -4.176  1.00 20.00     0.062 C 
HETATM   10  S9  UNL     1     -35.299  16.259  -5.295  1.00 20.00    -0.084 SA
ENDBRANCH   4   8
TORSDOF 1
ENDMDL
MODEL 5
REMARK VINA RESULT:      -3.6      3.509      4.659
REMARK  1 active torsions:
REMARK  status: ('A' for Active; 'I' for Inactive)
REMARK    1  A    between atoms: C4_4  and  C6_6 
ROOT
HETATM    1  C1  UNL     1     -34.053  18.475  -0.433  1.00 20.00     0.039 A 
HETATM    2  C2  UNL     1     -31.693  18.385  -0.718  1.00 20.00     0.129 A 
HETATM    3  C3  UNL     1     -32.542  18.996   1.328  1.00 20.00     0.140 A 
HETATM    4  C4  UNL     1     -32.960  18.226  -1.256  1.00 20.00    -0.000 A 
HETATM    5  C5  UNL     1     -33.848  18.868   0.885  1.00 20.00     0.052 A 
HETATM    6  N8  UNL     1     -31.455  18.765   0.558  1.00 20.00    -0.271 NA
HETATM    7 CL10 UNL     1     -35.171  19.183   1.930  1.00 20.00    -0.083 Cl
ENDROOT
BRANCH   4   8
HETATM    8  C6  UNL     1     -33.140  17.815  -2.637  1.00 20.00     0.017 C 
HETATM    9  C7  UNL     1     -33.325  16.328  -2.946  1.00 20.00     0.062 C 
HETATM   10  S9  UNL     1     -33.213  18.899  -3.948  1.00 20.00    -0.084 SA
ENDBRANCH   4   8
TORSDOF 1
ENDMDL
MODEL 6
REMARK VINA RESULT:      -3.4      2.484      3.111
REMARK  1 active torsions:
REMARK  status: ('A' for Active; 'I' for Inactive)
REMARK    1  A    between atoms: C4_4  and  C6_6 
ROOT
HETATM    1  C1  UNL     1     -34.993  16.971  -4.583  1.00 20.00     0.039 A 
HETATM    2  C2  UNL     1     -33.286  15.519  -3.784  1.00 20.00     0.129 A 
HETATM    3  C3  UNL     1     -34.627  14.812  -5.510  1.00 20.00     0.140 A 
HETATM    4  C4  UNL     1     -33.943  16.736  -3.701  1.00 20.00    -0.000 A 
HETATM    5  C5  UNL     1     -35.347  15.995  -5.508  1.00 20.00     0.052 A 
HETATM    6  N8  UNL     1     -33.602  14.547  -4.670  1.00 20.00    -0.271 NA
HETATM    7 CL10 UNL     1     -36.636  16.249  -6.611  1.00 20.00    -0.083 Cl
ENDROOT
BRANCH   4   8
HETATM    8  C6  UNL     1     -33.548  17.735  -2.723  1.00 20.00     0.017 C 
HETATM    9  C7  UNL     1     -33.660  17.394  -1.235  1.00 20.00     0.062 C 
HETATM   10  S9  UNL     1     -32.911  19.260  -3.128  1.00 20.00    -0.084 SA
ENDBRANCH   4   8
TORSDOF 1
ENDMDL
MODEL 7
REMARK VINA RESULT:      -3.4      3.092      4.154
REMARK  1 active torsions:
REMARK  status: ('A' for Active; 'I' for Inactive)
REMARK    1  A    between atoms: C4_4  and  C6_6 
ROOT
HETATM    1  C1  UNL     1     -33.364  16.885  -2.951  1.00 20.00     0.039 A 
HETATM    2  C2  UNL     1     -34.043  18.079  -4.893  1.00 20.00     0.129 A 
HETATM    3  C3  UNL     1     -33.061  19.234  -3.167  1.00 20.00     0.140 A 
HETATM    4  C4  UNL     1     -33.940  16.874  -4.217  1.00 20.00    -0.000 A 
HETATM    5  C5  UNL     1     -32.913  18.084  -2.409  1.00 20.00     0.052 A 
HETATM    6  N8  UNL     1     -33.616  19.263  -4.400  1.00 20.00    -0.271 NA
HETATM    7 CL10 UNL     1     -32.197  18.137  -0.851  1.00 20.00    -0.083 Cl
ENDROOT
BRANCH   4   8
HETATM    8  C6  UNL     1     -34.421  15.638  -4.811  1.00 20.00     0.017 C 
HETATM    9  C7  UNL     1     -34.027  14.308  -4.166  1.00 20.00     0.062 C 
HETATM   10  S9  UNL     1     -35.452  15.575  -6.163  1.00 20.00    -0.084 SA
ENDBRANCH   4   8
TORSDOF 1
ENDMDL
MODEL 8
REMARK VINA RESULT:      -3.3      1.898      2.213
REMARK  1 active torsions:
REMARK  status: ('A' for Active; 'I' for Inactive)
REMARK    1  A    between atoms: C4_4  and  C6_6 
ROOT
HETATM    1  C1  UNL     1     -34.580  18.523  -2.694  1.00 20.00     0.039 A 
HETATM    2  C2  UNL     1     -33.196  16.591  -2.590  1.00 20.00     0.129 A 
HETATM    3  C3  UNL     1     -34.568  16.877  -4.411  1.00 20.00     0.140 A 
HETATM    4  C4  UNL     1     -33.627  17.774  -2.012  1.00 20.00    -0.000 A 
HETATM    5  C5  UNL     1     -35.064  18.073  -3.918  1.00 20.00     0.052 A 
HETATM    6  N8  UNL     1     -33.643  16.122  -3.777  1.00 20.00    -0.271 NA
HETATM    7 CL10 UNL     1     -36.239  18.970  -4.788  1.00 20.00    -0.083 Cl
ENDROOT
BRANCH   4   8
HETATM    8  C6  UNL     1     -33.102  18.217  -0.732  1.00 20.00     0.017 C 
HETATM    9  C7  UNL     1     -31.593  18.422  -0.586  1.00 20.00     0.062 C 
HETATM   10  S9  UNL     1     -34.073  18.578   0.618  1.00 20.00    -0.084 SA
ENDBRANCH   4   8
TORSDOF 1
ENDMDL
MODEL 9
REMARK VINA RESULT:      -3.2     25.093     25.657
REMARK  1 active torsions:
REMARK  status: ('A' for Active; 'I' for Inactive)
REMARK    1  A    between atoms: C4_4  and  C6_6 
ROOT
HETATM    1  C1  UNL     1     -25.665  -2.774  10.048  1.00 20.00     0.039 A 
HETATM    2  C2  UNL     1     -23.887  -2.050  11.453  1.00 20.00     0.129 A 
HETATM    3  C3  UNL     1     -26.018  -1.310  11.889  1.00 20.00     0.140 A 
HETATM    4  C4  UNL     1     -24.311  -2.795  10.365  1.00 20.00    -0.000 A 
HETATM    5  C5  UNL     1     -26.542  -2.020  10.820  1.00 20.00     0.052 A 
HETATM    6  N8  UNL     1     -24.709  -1.305  12.227  1.00 20.00    -0.271 NA
HETATM    7 CL10 UNL     1     -28.218  -1.969  10.461  1.00 20.00    -0.083 Cl
ENDROOT
BRANCH   4   8
HETATM    8  C6  UNL     1     -23.370  -3.573   9.578  1.00 20.00     0.017 C 
HETATM    9  C7  UNL     1     -23.271  -3.310   8.074  1.00 20.00     0.062 C 
HETATM   10  S9  UNL     1     -22.316  -4.736  10.237  1.00 20.00    -0.084 SA
ENDBRANCH   4   8
TORSDOF 1
ENDMDL
