MODEL 1
REMARK VINA RESULT:      -4.6      0.000      0.000
REMARK  1 active torsions:
REMARK  status: ('A' for Active; 'I' for Inactive)
REMARK    1  A    between atoms: C3_3  and  C9_9 
ROOT
HETATM    1  C1  UNL     1     -33.326  16.700  -2.136  1.00 20.00     0.017 A 
HETATM    2  C2  UNL     1     -33.805  16.370  -3.437  1.00 20.00     0.032 A 
HETATM    3  C3  UNL     1     -33.115  18.053  -1.990  1.00 20.00    -0.011 A 
HETATM    4  C4  UNL     1     -33.944  17.483  -4.236  1.00 20.00     0.075 A 
HETATM    5  S11 UNL     1     -33.497  18.921  -3.417  1.00 20.00    -0.082 SA
HETATM    6 CL12 UNL     1     -34.487  17.551  -5.860  1.00 20.00    -0.076 Cl
ENDROOT
BRANCH   3   7
HETATM    7  C9  UNL     1     -32.616  18.803  -0.777  1.00 20.00     0.033 C 
HETATM    8  C7  UNL     1     -31.123  18.601  -0.490  1.00 20.00     0.088 C 
HETATM    9  C5  UNL     1     -31.053  18.914   0.983  1.00 20.00     0.127 C 
HETATM   10  C6  UNL     1     -32.417  18.996   1.620  1.00 20.00     0.079 C 
HETATM   11  O10 UNL     1     -30.005  19.086   1.592  1.00 20.00    -0.298 OA
HETATM   12  C8  UNL     1     -33.308  18.408   0.531  1.00 20.00     0.018 C 
ENDBRANCH   3   7
TORSDOF 1
ENDMDL
MODEL 2
REMARK VINA RESULT:      -4.6      3.886      5.497
REMARK  1 active torsions:
REMARK  status: ('A' for Active; 'I' for Inactive)
REMARK    1  A    between atoms: C3_3  and  C9_9 
ROOT
HETATM    1  C1  UNL     1     -31.246  18.497  -0.418  1.00 20.00     0.017 A 
HETATM    2  C2  UNL     1     -30.851  18.782   0.921  1.00 20.00     0.032 A 
HETATM    3  C3  UNL     1     -32.615  18.425  -0.550  1.00 20.00    -0.011 A 
HETATM    4  C4  UNL     1     -31.933  18.919   1.762  1.00 20.00     0.075 A 
HETATM    5  S11 UNL     1     -33.420  18.703   0.937  1.00 20.00    -0.082 SA
HETATM    6 CL12 UNL     1     -31.923  19.262   3.441  1.00 20.00    -0.076 Cl
ENDROOT
BRANCH   3   7
HETATM    7  C9  UNL     1     -33.429  18.146  -1.793  1.00 20.00     0.033 C 
HETATM    8  C7  UNL     1     -33.361  16.689  -2.267  1.00 20.00     0.088 C 
HETATM    9  C5  UNL     1     -33.707  16.830  -3.728  1.00 20.00     0.127 C 
HETATM   10  C6  UNL     1     -33.683  18.265  -4.189  1.00 20.00     0.079 C 
HETATM   11  O10 UNL     1     -33.981  15.885  -4.456  1.00 20.00    -0.298 OA
HETATM   12  C8  UNL     1     -32.999  18.961  -3.017  1.00 20.00     0.018 C 
ENDBRANCH   3   7
TORSDOF 1
ENDMDL
MODEL 3
REMARK VINA RESULT:      -4.3      1.426      1.693
REMARK  1 active torsions:
REMARK  status: ('A' for Active; 'I' for Inactive)
REMARK    1  A    between atoms: C3_3  and  C9_9 
ROOT
HETATM    1  C1  UNL     1     -34.855  18.393  -3.588  1.00 20.00     0.017 A 
HETATM    2  C2  UNL     1     -35.098  17.468  -4.644  1.00 20.00     0.032 A 
HETATM    3  C3  UNL     1     -33.912  17.926  -2.698  1.00 20.00    -0.011 A 
HETATM    4  C4  UNL     1     -34.332  16.330  -4.522  1.00 20.00     0.075 A 
HETATM    5  S11 UNL     1     -33.323  16.379  -3.137  1.00 20.00    -0.082 SA
HETATM    6 CL12 UNL     1     -34.301  14.967  -5.561  1.00 20.00    -0.076 Cl
ENDROOT
BRANCH   3   7
HETATM    7  C9  UNL     1     -33.378  18.598  -1.453  1.00 20.00     0.033 C 
HETATM    8  C7  UNL     1     -31.848  18.647  -1.381  1.00 20.00     0.088 C 
HETATM    9  C5  UNL     1     -31.620  18.779   0.104  1.00 20.00     0.127 C 
HETATM   10  C6  UNL     1     -32.871  18.520   0.904  1.00 20.00     0.079 C 
HETATM   11  O10 UNL     1     -30.540  19.069   0.603  1.00 20.00    -0.298 OA
HETATM   12  C8  UNL     1     -33.796  17.916  -0.147  1.00 20.00     0.018 C 
ENDBRANCH   3   7
TORSDOF 1
ENDMDL
MODEL 4
REMARK VINA RESULT:      -4.1      3.895      5.530
REMARK  1 active torsions:
REMARK  status: ('A' for Active; 'I' for Inactive)
REMARK    1  A    between atoms: C3_3  and  C9_9 
ROOT
HETATM    1  C1  UNL     1     -33.944  18.225  -0.077  1.00 20.00     0.017 A 
HETATM    2  C2  UNL     1     -33.390  18.607   1.179  1.00 20.00     0.032 A 
HETATM    3  C3  UNL     1     -32.986  18.143  -1.063  1.00 20.00    -0.011 A 
HETATM    4  C4  UNL     1     -32.029  18.801   1.106  1.00 20.00     0.075 A 
HETATM    5  S11 UNL     1     -31.423  18.524  -0.473  1.00 20.00    -0.082 SA
HETATM    6 CL12 UNL     1     -30.964  19.263   2.367  1.00 20.00    -0.076 Cl
ENDROOT
BRANCH   3   7
HETATM    7  C9  UNL     1     -33.160  17.773  -2.518  1.00 20.00     0.033 C 
HETATM    8  C7  UNL     1     -34.383  18.416  -3.182  1.00 20.00     0.088 C 
HETATM    9  C5  UNL     1     -34.642  17.466  -4.324  1.00 20.00     0.127 C 
HETATM   10  C6  UNL     1     -33.854  16.187  -4.198  1.00 20.00     0.079 C 
HETATM   11  O10 UNL     1     -35.404  17.709  -5.251  1.00 20.00    -0.298 OA
HETATM   12  C8  UNL     1     -33.343  16.272  -2.764  1.00 20.00     0.018 C 
ENDBRANCH   3   7
TORSDOF 1
ENDMDL
MODEL 5
REMARK VINA RESULT:      -4.1      2.280      2.899
REMARK  1 active torsions:
REMARK  status: ('A' for Active; 'I' for Inactive)
REMARK    1  A    between atoms: C3_3  and  C9_9 
ROOT
HETATM    1  C1  UNL     1     -33.552  15.538  -3.803  1.00 20.00     0.017 A 
HETATM    2  C2  UNL     1     -33.798  14.903  -5.055  1.00 20.00     0.032 A 
HETATM    3  C3  UNL     1     -33.940  16.859  -3.808  1.00 20.00    -0.011 A 
HETATM    4  C4  UNL     1     -34.365  15.764  -5.969  1.00 20.00     0.075 A 
HETATM    5  S11 UNL     1     -34.599  17.331  -5.317  1.00 20.00    -0.082 SA
HETATM    6 CL12 UNL     1     -34.824  15.427  -7.586  1.00 20.00    -0.076 Cl
ENDROOT
BRANCH   3   7
HETATM    7  C9  UNL     1     -33.850  17.871  -2.688  1.00 20.00     0.033 C 
HETATM    8  C7  UNL     1     -33.444  17.270  -1.337  1.00 20.00     0.088 C 
HETATM    9  C5  UNL     1     -34.001  18.288  -0.374  1.00 20.00     0.127 C 
HETATM   10  C6  UNL     1     -34.935  19.263  -1.044  1.00 20.00     0.079 C 
HETATM   11  O10 UNL     1     -33.721  18.321   0.818  1.00 20.00    -0.298 OA
HETATM   12  C8  UNL     1     -35.166  18.599  -2.397  1.00 20.00     0.018 C 
ENDBRANCH   3   7
TORSDOF 1
ENDMDL
MODEL 6
REMARK VINA RESULT:      -4.1      4.501      6.836
REMARK  1 active torsions:
REMARK  status: ('A' for Active; 'I' for Inactive)
REMARK    1  A    between atoms: C3_3  and  C9_9 
ROOT
HETATM    1  C1  UNL     1     -33.693  16.157  -3.547  1.00 20.00     0.017 A 
HETATM    2  C2  UNL     1     -33.287  16.729  -2.307  1.00 20.00     0.032 A 
HETATM    3  C3  UNL     1     -34.627  16.934  -4.195  1.00 20.00    -0.011 A 
HETATM    4  C4  UNL     1     -33.925  17.923  -2.055  1.00 20.00     0.075 A 
HETATM    5  S11 UNL     1     -35.010  18.350  -3.310  1.00 20.00    -0.082 SA
HETATM    6 CL12 UNL     1     -33.741  18.946  -0.692  1.00 20.00    -0.076 Cl
ENDROOT
BRANCH   3   7
HETATM    7  C9  UNL     1     -35.304  16.683  -5.523  1.00 20.00     0.033 C 
HETATM    8  C7  UNL     1     -35.650  15.211  -5.777  1.00 20.00     0.088 C 
HETATM    9  C5  UNL     1     -35.722  15.173  -7.283  1.00 20.00     0.127 C 
HETATM   10  C6  UNL     1     -35.166  16.422  -7.917  1.00 20.00     0.079 C 
HETATM   11  O10 UNL     1     -36.184  14.234  -7.918  1.00 20.00    -0.298 OA
HETATM   12  C8  UNL     1     -34.465  17.089  -6.739  1.00 20.00     0.018 C 
ENDBRANCH   3   7
TORSDOF 1
ENDMDL
MODEL 7
REMARK VINA RESULT:      -4.0      4.443      6.678
REMARK  1 active torsions:
REMARK  status: ('A' for Active; 'I' for Inactive)
REMARK    1  A    between atoms: C3_3  and  C9_9 
ROOT
HETATM    1  C1  UNL     1     -33.444  16.438  -3.177  1.00 20.00     0.017 A 
HETATM    2  C2  UNL     1     -33.346  17.001  -1.872  1.00 20.00     0.032 A 
HETATM    3  C3  UNL     1     -34.337  17.123  -3.971  1.00 20.00    -0.011 A 
HETATM    4  C4  UNL     1     -34.166  18.097  -1.718  1.00 20.00     0.075 A 
HETATM    5  S11 UNL     1     -35.052  18.442  -3.145  1.00 20.00    -0.082 SA
HETATM    6 CL12 UNL     1     -34.364  19.075  -0.325  1.00 20.00    -0.076 Cl
ENDROOT
BRANCH   3   7
HETATM    7  C9  UNL     1     -34.725  16.849  -5.406  1.00 20.00     0.033 C 
HETATM    8  C7  UNL     1     -36.236  16.888  -5.661  1.00 20.00     0.088 C 
HETATM    9  C5  UNL     1     -36.356  16.037  -6.900  1.00 20.00     0.127 C 
HETATM   10  C6  UNL     1     -35.087  15.283  -7.205  1.00 20.00     0.079 C 
HETATM   11  O10 UNL     1     -37.370  15.970  -7.584  1.00 20.00    -0.298 OA
HETATM   12  C8  UNL     1     -34.292  15.471  -5.918  1.00 20.00     0.018 C 
ENDBRANCH   3   7
TORSDOF 1
ENDMDL
MODEL 8
REMARK VINA RESULT:      -4.0      1.801      2.174
REMARK  1 active torsions:
REMARK  status: ('A' for Active; 'I' for Inactive)
REMARK    1  A    between atoms: C3_3  and  C9_9 
ROOT
HETATM    1  C1  UNL     1     -36.140  18.758  -2.995  1.00 20.00     0.017 A 
HETATM    2  C2  UNL     1     -36.666  18.178  -4.185  1.00 20.00     0.032 A 
HETATM    3  C3  UNL     1     -34.821  18.416  -2.792  1.00 20.00    -0.011 A 
HETATM    4  C4  UNL     1     -35.730  17.417  -4.848  1.00 20.00     0.075 A 
HETATM    5  S11 UNL     1     -34.221  17.401  -4.035  1.00 20.00    -0.082 SA
HETATM    6 CL12 UNL     1     -35.927  16.545  -6.311  1.00 20.00    -0.076 Cl
ENDROOT
BRANCH   3   7
HETATM    7  C9  UNL     1     -33.907  18.820  -1.658  1.00 20.00     0.033 C 
HETATM    8  C7  UNL     1     -32.416  18.769  -2.011  1.00 20.00     0.088 C 
HETATM    9  C5  UNL     1     -31.788  18.617  -0.649  1.00 20.00     0.127 C 
HETATM   10  C6  UNL     1     -32.800  18.288   0.419  1.00 20.00     0.079 C 
HETATM   11  O10 UNL     1     -30.590  18.750  -0.434  1.00 20.00    -0.298 OA
HETATM   12  C8  UNL     1     -34.030  17.937  -0.411  1.00 20.00     0.018 C 
ENDBRANCH   3   7
TORSDOF 1
ENDMDL
MODEL 9
REMARK VINA RESULT:      -4.0     12.461     13.517
REMARK  1 active torsions:
REMARK  status: ('A' for Active; 'I' for Inactive)
REMARK    1  A    between atoms: C3_3  and  C9_9 
ROOT
HETATM    1  C1  UNL     1     -42.488  13.002   7.187  1.00 20.00     0.017 A 
HETATM    2  C2  UNL     1     -43.238  13.392   8.334  1.00 20.00     0.032 A 
HETATM    3  C3  UNL     1     -41.187  13.453   7.241  1.00 20.00    -0.011 A 
HETATM    4  C4  UNL     1     -42.483  14.125   9.222  1.00 20.00     0.075 A 
HETATM    5  S11 UNL     1     -40.874  14.341   8.672  1.00 20.00    -0.082 SA
HETATM    6 CL12 UNL     1     -42.976  14.792  10.722  1.00 20.00    -0.076 Cl
ENDROOT
BRANCH   3   7
HETATM    7  C9  UNL     1     -40.079  13.255   6.233  1.00 20.00     0.033 C 
HETATM    8  C7  UNL     1     -40.571  12.862   4.835  1.00 20.00     0.088 C 
HETATM    9  C5  UNL     1     -39.354  12.178   4.267  1.00 20.00     0.127 C 
HETATM   10  C6  UNL     1     -38.311  11.892   5.317  1.00 20.00     0.079 C 
HETATM   11  O10 UNL     1     -39.226  11.890   3.084  1.00 20.00    -0.298 OA
HETATM   12  C8  UNL     1     -39.084  12.152   6.606  1.00 20.00     0.018 C 
ENDBRANCH   3   7
TORSDOF 1
ENDMDL
