MODEL 1
REMARK VINA RESULT:      -4.8      0.000      0.000
REMARK  0 active torsions:
REMARK  status: ('A' for Active; 'I' for Inactive)
ROOT
HETATM    1  C1  UNL     1     -32.819   8.246   4.519  1.00 20.00     0.017 C 
HETATM    2  C2  UNL     1     -33.389   7.624   5.373  1.00 20.00    -0.090 C 
HETATM    3  C3  UNL     1     -34.062   6.894   6.389  1.00 20.00     0.059 C 
HETATM    4  C4  UNL     1     -34.650   5.716   6.139  1.00 20.00    -0.022 C 
HETATM    5  C5  UNL     1     -34.660   5.066   4.794  1.00 20.00     0.036 C 
ENDROOT
TORSDOF 0
ENDMDL
MODEL 2
REMARK VINA RESULT:      -4.4      0.700      2.825
REMARK  0 active torsions:
REMARK  status: ('A' for Active; 'I' for Inactive)
ROOT
HETATM    1  C1  UNL     1     -34.767   5.049   4.860  1.00 20.00     0.017 C 
HETATM    2  C2  UNL     1     -34.369   6.082   5.324  1.00 20.00    -0.090 C 
HETATM    3  C3  UNL     1     -33.904   7.305   5.878  1.00 20.00     0.059 C 
HETATM    4  C4  UNL     1     -33.052   8.100   5.217  1.00 20.00    -0.022 C 
HETATM    5  C5  UNL     1     -32.515   7.788   3.858  1.00 20.00     0.036 C 
ENDROOT
TORSDOF 0
ENDMDL
MODEL 3
REMARK VINA RESULT:      -4.4      1.301      2.426
REMARK  0 active torsions:
REMARK  status: ('A' for Active; 'I' for Inactive)
ROOT
HETATM    1  C1  UNL     1     -33.000   5.657   2.939  1.00 20.00     0.017 C 
HETATM    2  C2  UNL     1     -33.767   5.363   3.814  1.00 20.00    -0.090 C 
HETATM    3  C3  UNL     1     -34.679   5.011   4.845  1.00 20.00     0.059 C 
HETATM    4  C4  UNL     1     -34.750   5.703   5.990  1.00 20.00    -0.022 C 
HETATM    5  C5  UNL     1     -33.895   6.890   6.293  1.00 20.00     0.036 C 
ENDROOT
TORSDOF 0
ENDMDL
MODEL 4
REMARK VINA RESULT:      -4.4      0.813      2.833
REMARK  0 active torsions:
REMARK  status: ('A' for Active; 'I' for Inactive)
ROOT
HETATM    1  C1  UNL     1     -34.518   5.864   6.130  1.00 20.00     0.017 C 
HETATM    2  C2  UNL     1     -34.034   6.915   5.810  1.00 20.00    -0.090 C 
HETATM    3  C3  UNL     1     -33.465   8.163   5.437  1.00 20.00     0.059 C 
HETATM    4  C4  UNL     1     -32.733   8.299   4.323  1.00 20.00    -0.022 C 
HETATM    5  C5  UNL     1     -32.445   7.176   3.380  1.00 20.00     0.036 C 
ENDROOT
TORSDOF 0
ENDMDL
MODEL 5
REMARK VINA RESULT:      -4.1      0.824      1.491
REMARK  0 active torsions:
REMARK  status: ('A' for Active; 'I' for Inactive)
ROOT
HETATM    1  C1  UNL     1     -32.809   8.316   4.896  1.00 20.00     0.017 C 
HETATM    2  C2  UNL     1     -33.387   7.324   4.545  1.00 20.00    -0.090 C 
HETATM    3  C3  UNL     1     -34.070   6.151   4.124  1.00 20.00     0.059 C 
HETATM    4  C4  UNL     1     -34.630   5.308   5.001  1.00 20.00    -0.022 C 
HETATM    5  C5  UNL     1     -34.594   5.509   6.481  1.00 20.00     0.036 C 
ENDROOT
TORSDOF 0
ENDMDL
MODEL 6
REMARK VINA RESULT:      -4.0      1.306      2.168
REMARK  0 active torsions:
REMARK  status: ('A' for Active; 'I' for Inactive)
ROOT
HETATM    1  C1  UNL     1     -34.023   7.315   6.424  1.00 20.00     0.017 C 
HETATM    2  C2  UNL     1     -34.286   6.247   5.942  1.00 20.00    -0.090 C 
HETATM    3  C3  UNL     1     -34.600   4.982   5.378  1.00 20.00     0.059 C 
HETATM    4  C4  UNL     1     -34.161   4.622   4.164  1.00 20.00    -0.022 C 
HETATM    5  C5  UNL     1     -33.316   5.498   3.298  1.00 20.00     0.036 C 
ENDROOT
TORSDOF 0
ENDMDL
MODEL 7
REMARK VINA RESULT:      -4.0      1.679      3.103
REMARK  0 active torsions:
REMARK  status: ('A' for Active; 'I' for Inactive)
ROOT
HETATM    1  C1  UNL     1     -32.949   5.367   2.711  1.00 20.00     0.017 C 
HETATM    2  C2  UNL     1     -32.678   6.458   3.134  1.00 20.00    -0.090 C 
HETATM    3  C3  UNL     1     -32.352   7.749   3.628  1.00 20.00     0.059 C 
HETATM    4  C4  UNL     1     -32.807   8.186   4.810  1.00 20.00    -0.022 C 
HETATM    5  C5  UNL     1     -33.685   7.378   5.709  1.00 20.00     0.036 C 
ENDROOT
TORSDOF 0
ENDMDL
MODEL 8
REMARK VINA RESULT:      -3.7      1.070      3.163
REMARK  0 active torsions:
REMARK  status: ('A' for Active; 'I' for Inactive)
ROOT
HETATM    1  C1  UNL     1     -34.695   5.854   6.271  1.00 20.00     0.017 C 
HETATM    2  C2  UNL     1     -34.175   6.148   5.229  1.00 20.00    -0.090 C 
HETATM    3  C3  UNL     1     -33.561   6.490   3.994  1.00 20.00     0.059 C 
HETATM    4  C4  UNL     1     -32.819   7.597   3.858  1.00 20.00    -0.022 C 
HETATM    5  C5  UNL     1     -32.566   8.565   4.968  1.00 20.00     0.036 C 
ENDROOT
TORSDOF 0
ENDMDL
MODEL 9
REMARK VINA RESULT:      -3.7      1.675      2.428
REMARK  0 active torsions:
REMARK  status: ('A' for Active; 'I' for Inactive)
ROOT
HETATM    1  C1  UNL     1     -32.493   8.591   4.636  1.00 20.00     0.017 C 
HETATM    2  C2  UNL     1     -32.498   7.675   3.860  1.00 20.00    -0.090 C 
HETATM    3  C3  UNL     1     -32.499   6.595   2.938  1.00 20.00     0.059 C 
HETATM    4  C4  UNL     1     -33.310   5.539   3.090  1.00 20.00    -0.022 C 
HETATM    5  C5  UNL     1     -34.274   5.393   4.221  1.00 20.00     0.036 C 
ENDROOT
TORSDOF 0
ENDMDL
