MODEL 1
REMARK VINA RESULT:      -4.4      0.000      0.000
REMARK  2 active torsions:
REMARK  status: ('A' for Active; 'I' for Inactive)
REMARK    1  A    between atoms: C1_1  and  C3_3 
REMARK    2  A    between atoms: C2_2  and  C8_8 
ROOT
HETATM    1  C4  UNL     1     -34.190  14.794  -5.163  1.00 20.00     0.011 C 
HETATM    2  C5  UNL     1     -33.686  15.215  -3.784  1.00 20.00     0.010 C 
HETATM    3  C6  UNL     1     -35.531  15.415  -5.527  1.00 20.00     0.074 C 
HETATM    4  C7  UNL     1     -34.777  17.512  -3.906  1.00 20.00     0.082 C 
HETATM    5  C8  UNL     1     -33.482  16.733  -3.658  1.00 20.00     0.017 C 
HETATM    6  S11 UNL     1     -35.439  17.226  -5.574  1.00 20.00    -0.168 SA
ENDROOT
BRANCH   5   7
HETATM    7  C2  UNL     1     -32.937  17.066  -2.297  1.00 20.00    -0.018 C 
HETATM    8  C1  UNL     1     -32.484  18.282  -1.964  1.00 20.00     0.046 C 
BRANCH   8   9
HETATM    9  C3  UNL     1     -31.957  18.547  -0.598  1.00 20.00     0.145 C 
HETATM   10  C9  UNL     1     -32.956  18.559   0.528  1.00 20.00     0.096 C 
HETATM   11  O10 UNL     1     -30.764  18.761  -0.388  1.00 20.00    -0.294 OA
ENDBRANCH   8   9
ENDBRANCH   5   7
TORSDOF 2
ENDMDL
MODEL 2
REMARK VINA RESULT:      -4.4      1.147      1.742
REMARK  2 active torsions:
REMARK  status: ('A' for Active; 'I' for Inactive)
REMARK    1  A    between atoms: C1_1  and  C3_3 
REMARK    2  A    between atoms: C2_2  and  C8_8 
ROOT
HETATM    1  C4  UNL     1     -35.095  17.675  -5.194  1.00 20.00     0.011 C 
HETATM    2  C5  UNL     1     -34.255  17.955  -3.949  1.00 20.00     0.010 C 
HETATM    3  C6  UNL     1     -34.457  16.662  -6.133  1.00 20.00     0.074 C 
HETATM    4  C7  UNL     1     -33.288  15.601  -3.874  1.00 20.00     0.082 C 
HETATM    5  C8  UNL     1     -34.015  16.701  -3.094  1.00 20.00     0.017 C 
HETATM    6  S11 UNL     1     -34.232  15.053  -5.327  1.00 20.00    -0.168 SA
ENDROOT
BRANCH   5   7
HETATM    7  C2  UNL     1     -33.230  17.059  -1.864  1.00 20.00    -0.018 C 
HETATM    8  C1  UNL     1     -32.559  18.210  -1.730  1.00 20.00     0.046 C 
BRANCH   8   9
HETATM    9  C3  UNL     1     -31.800  18.505  -0.483  1.00 20.00     0.145 C 
HETATM   10  C9  UNL     1     -32.591  18.575   0.796  1.00 20.00     0.096 C 
HETATM   11  O10 UNL     1     -30.585  18.697  -0.488  1.00 20.00    -0.294 OA
ENDBRANCH   8   9
ENDBRANCH   5   7
TORSDOF 2
ENDMDL
MODEL 3
REMARK VINA RESULT:      -3.8      3.141      5.439
REMARK  2 active torsions:
REMARK  status: ('A' for Active; 'I' for Inactive)
REMARK    1  A    between atoms: C1_1  and  C3_3 
REMARK    2  A    between atoms: C2_2  and  C8_8 
ROOT
HETATM    1  C4  UNL     1     -31.442  18.411  -0.097  1.00 20.00     0.011 C 
HETATM    2  C5  UNL     1     -31.948  18.147  -1.514  1.00 20.00     0.010 C 
HETATM    3  C6  UNL     1     -32.394  19.261   0.731  1.00 20.00     0.074 C 
HETATM    4  C7  UNL     1     -34.397  18.177  -0.820  1.00 20.00     0.082 C 
HETATM    5  C8  UNL     1     -33.291  17.401  -1.541  1.00 20.00     0.017 C 
HETATM    6  S11 UNL     1     -34.007  18.456   0.934  1.00 20.00    -0.168 SA
ENDROOT
BRANCH   5   7
HETATM    7  C2  UNL     1     -33.700  17.130  -2.962  1.00 20.00    -0.018 C 
HETATM    8  C1  UNL     1     -33.645  15.916  -3.524  1.00 20.00     0.046 C 
BRANCH   8   9
HETATM    9  C3  UNL     1     -34.065  15.715  -4.938  1.00 20.00     0.145 C 
HETATM   10  C9  UNL     1     -35.018  16.728  -5.516  1.00 20.00     0.096 C 
HETATM   11  O10 UNL     1     -33.669  14.763  -5.609  1.00 20.00    -0.294 OA
ENDBRANCH   8   9
ENDBRANCH   5   7
TORSDOF 2
ENDMDL
MODEL 4
REMARK VINA RESULT:      -3.7     11.562     12.518
REMARK  2 active torsions:
REMARK  status: ('A' for Active; 'I' for Inactive)
REMARK    1  A    between atoms: C1_1  and  C3_3 
REMARK    2  A    between atoms: C2_2  and  C8_8 
ROOT
HETATM    1  C4  UNL     1     -34.047   6.974   6.544  1.00 20.00     0.011 C 
HETATM    2  C5  UNL     1     -33.669   7.825   5.333  1.00 20.00     0.010 C 
HETATM    3  C6  UNL     1     -34.962   5.809   6.196  1.00 20.00     0.074 C 
HETATM    4  C7  UNL     1     -33.755   5.858   3.719  1.00 20.00     0.082 C 
HETATM    5  C8  UNL     1     -32.923   7.029   4.250  1.00 20.00     0.017 C 
HETATM    6  S11 UNL     1     -34.176   4.667   5.026  1.00 20.00    -0.168 SA
ENDROOT
BRANCH   5   7
HETATM    7  C2  UNL     1     -32.538   7.938   3.117  1.00 20.00    -0.018 C 
HETATM    8  C1  UNL     1     -32.469   7.535   1.842  1.00 20.00     0.046 C 
BRANCH   8   9
HETATM    9  C3  UNL     1     -32.079   8.487   0.766  1.00 20.00     0.145 C 
HETATM   10  C9  UNL     1     -32.860   9.772   0.678  1.00 20.00     0.096 C 
HETATM   11  O10 UNL     1     -31.174   8.241  -0.029  1.00 20.00    -0.294 OA
ENDBRANCH   8   9
ENDBRANCH   5   7
TORSDOF 2
ENDMDL
MODEL 5
REMARK VINA RESULT:      -3.6      3.468      5.694
REMARK  2 active torsions:
REMARK  status: ('A' for Active; 'I' for Inactive)
REMARK    1  A    between atoms: C1_1  and  C3_3 
REMARK    2  A    between atoms: C2_2  and  C8_8 
ROOT
HETATM    1  C4  UNL     1     -33.321  17.196  -1.568  1.00 20.00     0.011 C 
HETATM    2  C5  UNL     1     -33.296  16.750  -3.029  1.00 20.00     0.010 C 
HETATM    3  C6  UNL     1     -33.513  18.697  -1.403  1.00 20.00     0.074 C 
HETATM    4  C7  UNL     1     -34.891  18.583  -3.787  1.00 20.00     0.082 C 
HETATM    5  C8  UNL     1     -34.595  17.080  -3.779  1.00 20.00     0.017 C 
HETATM    6  S11 UNL     1     -35.090  19.251  -2.108  1.00 20.00    -0.168 SA
ENDROOT
BRANCH   5   7
HETATM    7  C2  UNL     1     -34.519  16.567  -5.189  1.00 20.00    -0.018 C 
HETATM    8  C1  UNL     1     -35.376  15.669  -5.692  1.00 20.00     0.046 C 
BRANCH   8   9
HETATM    9  C3  UNL     1     -35.245  15.200  -7.099  1.00 20.00     0.145 C 
HETATM   10  C9  UNL     1     -34.051  15.692  -7.873  1.00 20.00     0.096 C 
HETATM   11  O10 UNL     1     -36.075  14.457  -7.621  1.00 20.00    -0.294 OA
ENDBRANCH   8   9
ENDBRANCH   5   7
TORSDOF 2
ENDMDL
MODEL 6
REMARK VINA RESULT:      -3.5     12.549     14.293
REMARK  2 active torsions:
REMARK  status: ('A' for Active; 'I' for Inactive)
REMARK    1  A    between atoms: C1_1  and  C3_3 
REMARK    2  A    between atoms: C2_2  and  C8_8 
ROOT
HETATM    1  C4  UNL     1     -40.411  15.661  10.275  1.00 20.00     0.011 C 
HETATM    2  C5  UNL     1     -40.354  15.407   8.770  1.00 20.00     0.010 C 
HETATM    3  C6  UNL     1     -41.829  15.660  10.829  1.00 20.00     0.074 C 
HETATM    4  C7  UNL     1     -42.418  13.918   8.778  1.00 20.00     0.082 C 
HETATM    5  C8  UNL     1     -40.948  14.048   8.369  1.00 20.00     0.017 C 
HETATM    6  S11 UNL     1     -42.645  14.061  10.575  1.00 20.00    -0.168 SA
ENDROOT
BRANCH   5   7
HETATM    7  C2  UNL     1     -40.809  13.843   6.887  1.00 20.00    -0.018 C 
HETATM    8  C1  UNL     1     -40.207  12.777   6.344  1.00 20.00     0.046 C 
BRANCH   8   9
HETATM    9  C3  UNL     1     -40.103  12.635   4.866  1.00 20.00     0.145 C 
HETATM   10  C9  UNL     1     -39.098  11.641   4.347  1.00 20.00     0.096 C 
HETATM   11  O10 UNL     1     -40.790  13.302   4.095  1.00 20.00    -0.294 OA
ENDBRANCH   8   9
ENDBRANCH   5   7
TORSDOF 2
ENDMDL
MODEL 7
REMARK VINA RESULT:      -3.4     11.563     13.062
REMARK  2 active torsions:
REMARK  status: ('A' for Active; 'I' for Inactive)
REMARK    1  A    between atoms: C1_1  and  C3_3 
REMARK    2  A    between atoms: C2_2  and  C8_8 
ROOT
HETATM    1  C4  UNL     1     -41.507  17.736   7.945  1.00 20.00     0.011 C 
HETATM    2  C5  UNL     1     -40.632  16.508   7.699  1.00 20.00     0.010 C 
HETATM    3  C6  UNL     1     -42.285  18.175   6.713  1.00 20.00     0.074 C 
HETATM    4  C7  UNL     1     -42.220  15.523   5.970  1.00 20.00     0.082 C 
HETATM    5  C8  UNL     1     -41.440  15.275   7.265  1.00 20.00     0.017 C 
HETATM    6  S11 UNL     1     -43.417  16.880   6.140  1.00 20.00    -0.168 SA
ENDROOT
BRANCH   5   7
HETATM    7  C2  UNL     1     -40.525  14.096   7.092  1.00 20.00    -0.018 C 
HETATM    8  C1  UNL     1     -40.442  13.388   5.958  1.00 20.00     0.046 C 
BRANCH   8   9
HETATM    9  C3  UNL     1     -39.514  12.229   5.853  1.00 20.00     0.145 C 
HETATM   10  C9  UNL     1     -39.309  11.643   4.481  1.00 20.00     0.096 C 
HETATM   11  O10 UNL     1     -38.946  11.755   6.836  1.00 20.00    -0.294 OA
ENDBRANCH   8   9
ENDBRANCH   5   7
TORSDOF 2
ENDMDL
MODEL 8
REMARK VINA RESULT:      -3.4      1.349      1.630
REMARK  2 active torsions:
REMARK  status: ('A' for Active; 'I' for Inactive)
REMARK    1  A    between atoms: C1_1  and  C3_3 
REMARK    2  A    between atoms: C2_2  and  C8_8 
ROOT
HETATM    1  C4  UNL     1     -35.443  14.842  -6.391  1.00 20.00     0.011 C 
HETATM    2  C5  UNL     1     -35.014  15.254  -4.984  1.00 20.00     0.010 C 
HETATM    3  C6  UNL     1     -36.271  15.903  -7.100  1.00 20.00     0.074 C 
HETATM    4  C7  UNL     1     -34.881  17.727  -5.572  1.00 20.00     0.082 C 
HETATM    5  C8  UNL     1     -34.150  16.524  -4.968  1.00 20.00     0.017 C 
HETATM    6  S11 UNL     1     -35.343  17.448  -7.307  1.00 20.00    -0.168 SA
ENDROOT
BRANCH   5   7
HETATM    7  C2  UNL     1     -33.723  16.838  -3.562  1.00 20.00    -0.018 C 
HETATM    8  C1  UNL     1     -33.155  17.998  -3.208  1.00 20.00     0.046 C 
BRANCH   8   9
HETATM    9  C3  UNL     1     -32.754  18.246  -1.796  1.00 20.00     0.145 C 
HETATM   10  C9  UNL     1     -33.645  17.674  -0.724  1.00 20.00     0.096 C 
HETATM   11  O10 UNL     1     -31.752  18.898  -1.505  1.00 20.00    -0.294 OA
ENDBRANCH   8   9
ENDBRANCH   5   7
TORSDOF 2
ENDMDL
MODEL 9
REMARK VINA RESULT:      -3.2     12.507     14.215
REMARK  2 active torsions:
REMARK  status: ('A' for Active; 'I' for Inactive)
REMARK    1  A    between atoms: C1_1  and  C3_3 
REMARK    2  A    between atoms: C2_2  and  C8_8 
ROOT
HETATM    1  C4  UNL     1     -40.838  18.310   8.052  1.00 20.00     0.011 C 
HETATM    2  C5  UNL     1     -40.873  16.855   7.587  1.00 20.00     0.010 C 
HETATM    3  C6  UNL     1     -41.838  18.609   9.159  1.00 20.00     0.074 C 
HETATM    4  C7  UNL     1     -41.533  15.968   9.880  1.00 20.00     0.082 C 
HETATM    5  C8  UNL     1     -40.549  15.859   8.712  1.00 20.00     0.017 C 
HETATM    6  S11 UNL     1     -41.512  17.618  10.642  1.00 20.00    -0.168 SA
ENDROOT
BRANCH   5   7
HETATM    7  C2  UNL     1     -40.550  14.456   8.172  1.00 20.00    -0.018 C 
HETATM    8  C1  UNL     1     -40.452  14.170   6.867  1.00 20.00     0.046 C 
BRANCH   8   9
HETATM    9  C3  UNL     1     -40.459  12.758   6.398  1.00 20.00     0.145 C 
HETATM   10  C9  UNL     1     -39.216  12.264   5.704  1.00 20.00     0.096 C 
HETATM   11  O10 UNL     1     -41.433  12.022   6.551  1.00 20.00    -0.294 OA
ENDBRANCH   8   9
ENDBRANCH   5   7
TORSDOF 2
ENDMDL
