MODEL 1
REMARK VINA RESULT:      -5.1      0.000      0.000
REMARK  2 active torsions:
REMARK  status: ('A' for Active; 'I' for Inactive)
REMARK    1  A    between atoms: C6_6  and  C8_8 
REMARK    2  A    between atoms: C7_7  and  C9_9 
ROOT
HETATM    1  C1  UNL     1     -32.585   7.513   3.739  1.00 20.00     0.132 C 
HETATM    2  C2  UNL     1     -32.078   8.758   4.719  1.00 20.00     0.084 C 
HETATM    3  C6  UNL     1     -33.472   7.119   4.924  1.00 20.00     0.064 C 
HETATM    4  C7  UNL     1     -33.603   8.697   5.093  1.00 20.00     0.008 C 
HETATM    5  O10 UNL     1     -32.381   7.097   2.626  1.00 20.00    -0.298 OA
ENDROOT
BRANCH   3   6
HETATM    6  C8  UNL     1     -34.920   6.694   5.169  1.00 20.00    -0.003 C 
HETATM    7  C3  UNL     1     -35.057   5.402   4.321  1.00 20.00     0.006 C 
HETATM    8  C4  UNL     1     -34.041   4.459   5.016  1.00 20.00     0.005 C 
HETATM    9  C9  UNL     1     -33.701   5.198   6.323  1.00 20.00    -0.009 C 
HETATM   10  C5  UNL     1     -34.977   6.043   6.556  1.00 20.00     0.010 C 
ENDBRANCH   3   6
TORSDOF 2
ENDMDL
MODEL 2
REMARK VINA RESULT:      -3.9     15.208     16.293
REMARK  2 active torsions:
REMARK  status: ('A' for Active; 'I' for Inactive)
REMARK    1  A    between atoms: C6_6  and  C8_8 
REMARK    2  A    between atoms: C7_7  and  C9_9 
ROOT
HETATM    1  C1  UNL     1     -24.222  18.870   8.760  1.00 20.00     0.132 C 
HETATM    2  C2  UNL     1     -22.716  18.613   8.101  1.00 20.00     0.084 C 
HETATM    3  C6  UNL     1     -23.588  18.375  10.064  1.00 20.00     0.064 C 
HETATM    4  C7  UNL     1     -22.322  19.169   9.517  1.00 20.00     0.008 C 
HETATM    5  O10 UNL     1     -25.307  19.263   8.412  1.00 20.00    -0.298 OA
ENDROOT
BRANCH   3   6
HETATM    6  C8  UNL     1     -23.554  18.781  11.538  1.00 20.00    -0.003 C 
HETATM    7  C3  UNL     1     -25.044  18.694  11.963  1.00 20.00     0.006 C 
HETATM    8  C4  UNL     1     -25.338  17.184  11.775  1.00 20.00     0.005 C 
HETATM    9  C9  UNL     1     -23.942  16.566  11.583  1.00 20.00    -0.009 C 
HETATM   10  C5  UNL     1     -23.038  17.575  12.332  1.00 20.00     0.010 C 
ENDBRANCH   3   6
TORSDOF 2
ENDMDL
MODEL 3
REMARK VINA RESULT:      -3.8      1.394      2.356
REMARK  2 active torsions:
REMARK  status: ('A' for Active; 'I' for Inactive)
REMARK    1  A    between atoms: C6_6  and  C8_8 
REMARK    2  A    between atoms: C7_7  and  C9_9 
ROOT
HETATM    1  C1  UNL     1     -32.697   8.427   4.391  1.00 20.00     0.132 C 
HETATM    2  C2  UNL     1     -32.688   8.477   2.728  1.00 20.00     0.084 C 
HETATM    3  C6  UNL     1     -33.334   7.044   4.212  1.00 20.00     0.064 C 
HETATM    4  C7  UNL     1     -32.336   6.965   2.974  1.00 20.00     0.008 C 
HETATM    5  O10 UNL     1     -32.364   9.119   5.319  1.00 20.00    -0.298 OA
ENDROOT
BRANCH   3   6
HETATM    6  C8  UNL     1     -33.176   5.636   4.786  1.00 20.00    -0.003 C 
HETATM    7  C3  UNL     1     -33.557   5.818   6.279  1.00 20.00     0.006 C 
HETATM    8  C4  UNL     1     -35.043   6.247   6.175  1.00 20.00     0.005 C 
HETATM    9  C9  UNL     1     -35.400   5.954   4.707  1.00 20.00    -0.009 C 
HETATM   10  C5  UNL     1     -34.402   4.825   4.352  1.00 20.00     0.010 C 
ENDBRANCH   3   6
TORSDOF 2
ENDMDL
MODEL 4
REMARK VINA RESULT:      -3.7     15.091     16.252
REMARK  2 active torsions:
REMARK  status: ('A' for Active; 'I' for Inactive)
REMARK    1  A    between atoms: C6_6  and  C8_8 
REMARK    2  A    between atoms: C7_7  and  C9_9 
ROOT
HETATM    1  C1  UNL     1     -22.415  17.708   8.931  1.00 20.00     0.132 C 
HETATM    2  C2  UNL     1     -22.243  19.263   8.365  1.00 20.00     0.084 C 
HETATM    3  C6  UNL     1     -23.373  18.329   9.954  1.00 20.00     0.064 C 
HETATM    4  C7  UNL     1     -23.774  19.250   8.719  1.00 20.00     0.008 C 
HETATM    5  O10 UNL     1     -22.006  16.603   8.680  1.00 20.00    -0.298 OA
ENDROOT
BRANCH   3   6
HETATM    6  C8  UNL     1     -24.754  18.037  10.542  1.00 20.00    -0.003 C 
HETATM    7  C3  UNL     1     -24.565  16.653  11.217  1.00 20.00     0.006 C 
HETATM    8  C4  UNL     1     -23.515  16.976  12.311  1.00 20.00     0.005 C 
HETATM    9  C9  UNL     1     -23.480  18.515  12.332  1.00 20.00    -0.009 C 
HETATM   10  C5  UNL     1     -24.894  18.877  11.817  1.00 20.00     0.010 C 
ENDBRANCH   3   6
TORSDOF 2
ENDMDL
MODEL 5
REMARK VINA RESULT:      -3.6      1.222      3.524
REMARK  2 active torsions:
REMARK  status: ('A' for Active; 'I' for Inactive)
REMARK    1  A    between atoms: C6_6  and  C8_8 
REMARK    2  A    between atoms: C7_7  and  C9_9 
ROOT
HETATM    1  C1  UNL     1     -34.028   5.390   4.056  1.00 20.00     0.132 C 
HETATM    2  C2  UNL     1     -35.344   5.171   5.050  1.00 20.00     0.084 C 
HETATM    3  C6  UNL     1     -33.920   6.765   4.724  1.00 20.00     0.064 C 
HETATM    4  C7  UNL     1     -34.379   5.952   6.013  1.00 20.00     0.008 C 
HETATM    5  O10 UNL     1     -33.419   4.781   3.212  1.00 20.00    -0.298 OA
ENDROOT
BRANCH   3   6
HETATM    6  C8  UNL     1     -32.833   7.654   5.329  1.00 20.00    -0.003 C 
HETATM    7  C3  UNL     1     -31.836   7.841   4.154  1.00 20.00     0.006 C 
HETATM    8  C4  UNL     1     -32.707   8.599   3.119  1.00 20.00     0.005 C 
HETATM    9  C9  UNL     1     -33.947   9.017   3.929  1.00 20.00    -0.009 C 
HETATM   10  C5  UNL     1     -33.383   9.084   5.369  1.00 20.00     0.010 C 
ENDBRANCH   3   6
TORSDOF 2
ENDMDL
MODEL 6
REMARK VINA RESULT:      -3.5      1.769      3.863
REMARK  2 active torsions:
REMARK  status: ('A' for Active; 'I' for Inactive)
REMARK    1  A    between atoms: C6_6  and  C8_8 
REMARK    2  A    between atoms: C7_7  and  C9_9 
ROOT
HETATM    1  C1  UNL     1     -34.277   6.503   6.189  1.00 20.00     0.132 C 
HETATM    2  C2  UNL     1     -34.474   4.913   5.742  1.00 20.00     0.084 C 
HETATM    3  C6  UNL     1     -33.707   6.689   4.778  1.00 20.00     0.064 C 
HETATM    4  C7  UNL     1     -34.841   5.639   4.398  1.00 20.00     0.008 C 
HETATM    5  O10 UNL     1     -34.480   7.207   7.146  1.00 20.00    -0.298 OA
ENDROOT
BRANCH   3   6
HETATM    6  C8  UNL     1     -33.842   7.675   3.618  1.00 20.00    -0.003 C 
HETATM    7  C3  UNL     1     -33.611   9.052   4.295  1.00 20.00     0.006 C 
HETATM    8  C4  UNL     1     -32.147   8.919   4.787  1.00 20.00     0.005 C 
HETATM    9  C9  UNL     1     -31.640   7.654   4.072  1.00 20.00    -0.009 C 
HETATM   10  C5  UNL     1     -32.538   7.615   2.813  1.00 20.00     0.010 C 
ENDBRANCH   3   6
TORSDOF 2
ENDMDL
MODEL 7
REMARK VINA RESULT:      -3.5     12.509     13.900
REMARK  2 active torsions:
REMARK  status: ('A' for Active; 'I' for Inactive)
REMARK    1  A    between atoms: C6_6  and  C8_8 
REMARK    2  A    between atoms: C7_7  and  C9_9 
ROOT
HETATM    1  C1  UNL     1     -33.200  15.584  -3.927  1.00 20.00     0.132 C 
HETATM    2  C2  UNL     1     -33.463  16.600  -2.636  1.00 20.00     0.084 C 
HETATM    3  C6  UNL     1     -34.345  16.355  -4.594  1.00 20.00     0.064 C 
HETATM    4  C7  UNL     1     -33.689  17.591  -3.835  1.00 20.00     0.008 C 
HETATM    5  O10 UNL     1     -32.469  14.677  -4.231  1.00 20.00    -0.298 OA
ENDROOT
BRANCH   3   6
HETATM    6  C8  UNL     1     -34.649  16.993  -5.951  1.00 20.00    -0.003 C 
HETATM    7  C3  UNL     1     -34.511  15.804  -6.938  1.00 20.00     0.006 C 
HETATM    8  C4  UNL     1     -35.649  14.865  -6.462  1.00 20.00     0.005 C 
HETATM    9  C9  UNL     1     -36.468  15.748  -5.504  1.00 20.00    -0.009 C 
HETATM   10  C5  UNL     1     -36.169  17.168  -6.042  1.00 20.00     0.010 C 
ENDBRANCH   3   6
TORSDOF 2
ENDMDL
MODEL 8
REMARK VINA RESULT:      -3.5     11.108     12.724
REMARK  2 active torsions:
REMARK  status: ('A' for Active; 'I' for Inactive)
REMARK    1  A    between atoms: C6_6  and  C8_8 
REMARK    2  A    between atoms: C7_7  and  C9_9 
ROOT
HETATM    1  C1  UNL     1     -30.170  -2.970  11.288  1.00 20.00     0.132 C 
HETATM    2  C2  UNL     1     -29.895  -4.609  11.362  1.00 20.00     0.084 C 
HETATM    3  C6  UNL     1     -28.685  -2.873  10.920  1.00 20.00     0.064 C 
HETATM    4  C7  UNL     1     -28.999  -4.219  10.131  1.00 20.00     0.008 C 
HETATM    5  O10 UNL     1     -31.083  -2.197  11.437  1.00 20.00    -0.298 OA
ENDROOT
BRANCH   3   6
HETATM    6  C8  UNL     1     -27.812  -2.148   9.896  1.00 20.00    -0.003 C 
HETATM    7  C3  UNL     1     -27.958  -0.657  10.299  1.00 20.00     0.006 C 
HETATM    8  C4  UNL     1     -27.331  -0.650  11.716  1.00 20.00     0.005 C 
HETATM    9  C9  UNL     1     -26.639  -2.022  11.810  1.00 20.00    -0.009 C 
HETATM   10  C5  UNL     1     -26.352  -2.340  10.322  1.00 20.00     0.010 C 
ENDBRANCH   3   6
TORSDOF 2
ENDMDL
MODEL 9
REMARK VINA RESULT:      -3.3     12.940     14.481
REMARK  2 active torsions:
REMARK  status: ('A' for Active; 'I' for Inactive)
REMARK    1  A    between atoms: C6_6  and  C8_8 
REMARK    2  A    between atoms: C7_7  and  C9_9 
ROOT
HETATM    1  C1  UNL     1     -34.090  15.145  -5.635  1.00 20.00     0.132 C 
HETATM    2  C2  UNL     1     -34.026  14.364  -4.167  1.00 20.00     0.084 C 
HETATM    3  C6  UNL     1     -34.531  16.363  -4.816  1.00 20.00     0.064 C 
HETATM    4  C7  UNL     1     -33.486  15.784  -3.764  1.00 20.00     0.008 C 
HETATM    5  O10 UNL     1     -33.887  14.904  -6.798  1.00 20.00    -0.298 OA
ENDROOT
BRANCH   3   6
HETATM    6  C8  UNL     1     -34.208  17.856  -4.734  1.00 20.00    -0.003 C 
HETATM    7  C3  UNL     1     -34.574  18.374  -6.149  1.00 20.00     0.006 C 
HETATM    8  C4  UNL     1     -36.100  18.104  -6.200  1.00 20.00     0.005 C 
HETATM    9  C9  UNL     1     -36.455  17.775  -4.739  1.00 20.00    -0.009 C 
HETATM   10  C5  UNL     1     -35.349  18.527  -3.961  1.00 20.00     0.010 C 
ENDBRANCH   3   6
TORSDOF 2
ENDMDL
