MODEL 1
REMARK VINA RESULT:      -3.7      0.000      0.000
REMARK  2 active torsions:
REMARK  status: ('A' for Active; 'I' for Inactive)
REMARK    1  A    between atoms: C6_6  and  O11_11 
REMARK    2  A    between atoms: C9_9  and  O11_11 
ROOT
HETATM    1  C1  UNL     1     -34.832   4.720   4.541  1.00 20.00     0.002 C 
HETATM    2  C2  UNL     1     -33.411   5.247   4.213  1.00 20.00     0.015 C 
HETATM    3  C3  UNL     1     -35.351   6.171   4.384  1.00 20.00     0.015 C 
HETATM    4  C4  UNL     1     -33.478   8.596   5.201  1.00 20.00     0.069 C 
HETATM    5  C5  UNL     1     -33.432   7.218   5.919  1.00 20.00     0.173 C 
HETATM    6  C6  UNL     1     -33.433   7.836   3.842  1.00 20.00     0.135 C 
HETATM    7  C7  UNL     1     -33.919   6.619   4.612  1.00 20.00     0.015 C 
HETATM    8  O10 UNL     1     -34.306   7.147   7.011  1.00 20.00    -0.234 OA
ENDROOT
BRANCH   6   9
HETATM    9  O11 UNL     1     -32.126   7.743   3.240  1.00 20.00    -0.385 OA
BRANCH   9  10
HETATM   10  C9  UNL     1     -32.199   7.949   1.841  1.00 20.00     0.163 C 
HETATM   11  C8  UNL     1     -32.784   9.320   1.574  1.00 20.00     0.033 C 
ENDBRANCH   9  10
ENDBRANCH   6   9
TORSDOF 2
ENDMDL
MODEL 2
REMARK VINA RESULT:      -3.5      9.633     10.839
REMARK  2 active torsions:
REMARK  status: ('A' for Active; 'I' for Inactive)
REMARK    1  A    between atoms: C6_6  and  O11_11 
REMARK    2  A    between atoms: C9_9  and  O11_11 
ROOT
HETATM    1  C1  UNL     1     -40.398  15.821   8.623  1.00 20.00     0.002 C 
HETATM    2  C2  UNL     1     -40.723  15.559   7.130  1.00 20.00     0.015 C 
HETATM    3  C3  UNL     1     -40.437  14.288   8.847  1.00 20.00     0.015 C 
HETATM    4  C4  UNL     1     -42.425  12.510   7.132  1.00 20.00     0.069 C 
HETATM    5  C5  UNL     1     -42.749  13.973   7.547  1.00 20.00     0.173 C 
HETATM    6  C6  UNL     1     -41.022  13.003   6.668  1.00 20.00     0.135 C 
HETATM    7  C7  UNL     1     -41.249  14.206   7.567  1.00 20.00     0.015 C 
HETATM    8  O10 UNL     1     -43.417  14.052   8.776  1.00 20.00    -0.234 OA
ENDROOT
BRANCH   6   9
HETATM    9  O11 UNL     1     -40.906  13.263   5.254  1.00 20.00    -0.385 OA
BRANCH   9  10
HETATM   10  C9  UNL     1     -39.933  12.421   4.665  1.00 20.00     0.163 C 
HETATM   11  C8  UNL     1     -38.872  12.095   5.695  1.00 20.00     0.033 C 
ENDBRANCH   9  10
ENDBRANCH   6   9
TORSDOF 2
ENDMDL
MODEL 3
REMARK VINA RESULT:      -3.4      9.746     10.798
REMARK  2 active torsions:
REMARK  status: ('A' for Active; 'I' for Inactive)
REMARK    1  A    between atoms: C6_6  and  O11_11 
REMARK    2  A    between atoms: C9_9  and  O11_11 
ROOT
HETATM    1  C1  UNL     1     -43.417  14.796   5.609  1.00 20.00     0.002 C 
HETATM    2  C2  UNL     1     -42.801  13.436   6.026  1.00 20.00     0.015 C 
HETATM    3  C3  UNL     1     -42.080  15.468   6.012  1.00 20.00     0.015 C 
HETATM    4  C4  UNL     1     -40.393  14.268   8.414  1.00 20.00     0.069 C 
HETATM    5  C5  UNL     1     -41.946  14.208   8.364  1.00 20.00     0.173 C 
HETATM    6  C6  UNL     1     -40.373  13.748   6.946  1.00 20.00     0.135 C 
HETATM    7  C7  UNL     1     -41.810  14.233   6.852  1.00 20.00     0.015 C 
HETATM    8  O10 UNL     1     -42.550  15.322   8.962  1.00 20.00    -0.234 OA
ENDROOT
BRANCH   6   9
HETATM    9  O11 UNL     1     -40.157  12.329   6.806  1.00 20.00    -0.385 OA
BRANCH   9  10
HETATM   10  C9  UNL     1     -39.019  12.069   6.005  1.00 20.00     0.163 C 
HETATM   11  C8  UNL     1     -39.461  11.864   4.572  1.00 20.00     0.033 C 
ENDBRANCH   9  10
ENDBRANCH   6   9
TORSDOF 2
ENDMDL
MODEL 4
REMARK VINA RESULT:      -3.4     11.927     13.580
REMARK  2 active torsions:
REMARK  status: ('A' for Active; 'I' for Inactive)
REMARK    1  A    between atoms: C6_6  and  O11_11 
REMARK    2  A    between atoms: C9_9  and  O11_11 
ROOT
HETATM    1  C1  UNL     1     -35.922  18.052  -6.409  1.00 20.00     0.002 C 
HETATM    2  C2  UNL     1     -34.494  17.978  -5.811  1.00 20.00     0.015 C 
HETATM    3  C3  UNL     1     -36.314  16.869  -5.487  1.00 20.00     0.015 C 
HETATM    4  C4  UNL     1     -34.153  14.659  -4.780  1.00 20.00     0.069 C 
HETATM    5  C5  UNL     1     -34.173  15.413  -6.140  1.00 20.00     0.173 C 
HETATM    6  C6  UNL     1     -34.304  16.037  -4.069  1.00 20.00     0.135 C 
HETATM    7  C7  UNL     1     -34.831  16.560  -5.395  1.00 20.00     0.015 C 
HETATM    8  O10 UNL     1     -34.947  14.761  -7.109  1.00 20.00    -0.234 OA
ENDROOT
BRANCH   6   9
HETATM    9  O11 UNL     1     -33.072  16.612  -3.589  1.00 20.00    -0.385 OA
BRANCH   9  10
HETATM   10  C9  UNL     1     -33.170  16.940  -2.215  1.00 20.00     0.163 C 
HETATM   11  C8  UNL     1     -34.225  18.011  -2.037  1.00 20.00     0.033 C 
ENDBRANCH   9  10
ENDBRANCH   6   9
TORSDOF 2
ENDMDL
MODEL 5
REMARK VINA RESULT:      -3.4      9.724     10.792
REMARK  2 active torsions:
REMARK  status: ('A' for Active; 'I' for Inactive)
REMARK    1  A    between atoms: C6_6  and  O11_11 
REMARK    2  A    between atoms: C9_9  and  O11_11 
ROOT
HETATM    1  C1  UNL     1     -41.567  14.464   9.562  1.00 20.00     0.002 C 
HETATM    2  C2  UNL     1     -40.415  14.418   8.525  1.00 20.00     0.015 C 
HETATM    3  C3  UNL     1     -42.444  13.688   8.547  1.00 20.00     0.015 C 
HETATM    4  C4  UNL     1     -42.033  14.171   5.439  1.00 20.00     0.069 C 
HETATM    5  C5  UNL     1     -41.811  15.286   6.501  1.00 20.00     0.173 C 
HETATM    6  C6  UNL     1     -41.177  13.221   6.328  1.00 20.00     0.135 C 
HETATM    7  C7  UNL     1     -41.481  14.169   7.476  1.00 20.00     0.015 C 
HETATM    8  O10 UNL     1     -42.972  16.026   6.759  1.00 20.00    -0.234 OA
ENDROOT
BRANCH   6   9
HETATM    9  O11 UNL     1     -39.795  13.101   5.935  1.00 20.00    -0.385 OA
BRANCH   9  10
HETATM   10  C9  UNL     1     -39.467  11.755   5.646  1.00 20.00     0.163 C 
HETATM   11  C8  UNL     1     -39.061  11.647   4.191  1.00 20.00     0.033 C 
ENDBRANCH   9  10
ENDBRANCH   6   9
TORSDOF 2
ENDMDL
MODEL 6
REMARK VINA RESULT:      -3.4     11.871     13.601
REMARK  2 active torsions:
REMARK  status: ('A' for Active; 'I' for Inactive)
REMARK    1  A    between atoms: C6_6  and  O11_11 
REMARK    2  A    between atoms: C9_9  and  O11_11 
ROOT
HETATM    1  C1  UNL     1     -34.073  14.394  -4.169  1.00 20.00     0.002 C 
HETATM    2  C2  UNL     1     -35.495  14.080  -4.701  1.00 20.00     0.015 C 
HETATM    3  C3  UNL     1     -34.263  15.849  -4.666  1.00 20.00     0.015 C 
HETATM    4  C4  UNL     1     -35.995  16.396  -7.266  1.00 20.00     0.069 C 
HETATM    5  C5  UNL     1     -35.151  15.104  -7.073  1.00 20.00     0.173 C 
HETATM    6  C6  UNL     1     -36.560  16.184  -5.830  1.00 20.00     0.135 C 
HETATM    7  C7  UNL     1     -35.346  15.306  -5.581  1.00 20.00     0.015 C 
HETATM    8  O10 UNL     1     -33.845  15.233  -7.563  1.00 20.00    -0.234 OA
ENDROOT
BRANCH   6   9
HETATM    9  O11 UNL     1     -37.849  15.541  -5.774  1.00 20.00    -0.385 OA
BRANCH   9  10
HETATM   10  C9  UNL     1     -38.680  16.158  -4.808  1.00 20.00     0.163 C 
HETATM   11  C8  UNL     1     -39.426  15.088  -4.041  1.00 20.00     0.033 C 
ENDBRANCH   9  10
ENDBRANCH   6   9
TORSDOF 2
ENDMDL
MODEL 7
REMARK VINA RESULT:      -3.3     12.274     13.826
REMARK  2 active torsions:
REMARK  status: ('A' for Active; 'I' for Inactive)
REMARK    1  A    between atoms: C6_6  and  O11_11 
REMARK    2  A    between atoms: C9_9  and  O11_11 
ROOT
HETATM    1  C1  UNL     1     -37.869  17.080  -6.261  1.00 20.00     0.002 C 
HETATM    2  C2  UNL     1     -36.424  17.640  -6.266  1.00 20.00     0.015 C 
HETATM    3  C3  UNL     1     -37.380  15.967  -5.299  1.00 20.00     0.015 C 
HETATM    4  C4  UNL     1     -34.415  14.873  -5.559  1.00 20.00     0.069 C 
HETATM    5  C5  UNL     1     -35.236  15.378  -6.779  1.00 20.00     0.173 C 
HETATM    6  C6  UNL     1     -34.839  16.166  -4.800  1.00 20.00     0.135 C 
HETATM    7  C7  UNL     1     -35.978  16.269  -5.799  1.00 20.00     0.015 C 
HETATM    8  O10 UNL     1     -35.976  14.359  -7.393  1.00 20.00    -0.234 OA
ENDROOT
BRANCH   6   9
HETATM    9  O11 UNL     1     -33.864  17.228  -4.815  1.00 20.00    -0.385 OA
BRANCH   9  10
HETATM   10  C9  UNL     1     -33.695  17.777  -3.522  1.00 20.00     0.163 C 
HETATM   11  C8  UNL     1     -33.388  16.661  -2.547  1.00 20.00     0.033 C 
ENDBRANCH   9  10
ENDBRANCH   6   9
TORSDOF 2
ENDMDL
MODEL 8
REMARK VINA RESULT:      -3.3     11.721     13.229
REMARK  2 active torsions:
REMARK  status: ('A' for Active; 'I' for Inactive)
REMARK    1  A    between atoms: C6_6  and  O11_11 
REMARK    2  A    between atoms: C9_9  and  O11_11 
ROOT
HETATM    1  C1  UNL     1     -35.502  14.855  -6.782  1.00 20.00     0.002 C 
HETATM    2  C2  UNL     1     -34.462  15.999  -6.668  1.00 20.00     0.015 C 
HETATM    3  C3  UNL     1     -35.863  15.105  -5.295  1.00 20.00     0.015 C 
HETATM    4  C4  UNL     1     -33.609  16.068  -3.282  1.00 20.00     0.069 C 
HETATM    5  C5  UNL     1     -33.315  15.136  -4.492  1.00 20.00     0.173 C 
HETATM    6  C6  UNL     1     -34.413  16.988  -4.248  1.00 20.00     0.135 C 
HETATM    7  C7  UNL     1     -34.510  15.783  -5.168  1.00 20.00     0.015 C 
HETATM    8  O10 UNL     1     -33.431  13.777  -4.170  1.00 20.00    -0.234 OA
ENDROOT
BRANCH   6   9
HETATM    9  O11 UNL     1     -33.685  18.129  -4.747  1.00 20.00    -0.385 OA
BRANCH   9  10
HETATM   10  C9  UNL     1     -34.527  19.263  -4.840  1.00 20.00     0.163 C 
HETATM   11  C8  UNL     1     -35.700  19.086  -3.901  1.00 20.00     0.033 C 
ENDBRANCH   9  10
ENDBRANCH   6   9
TORSDOF 2
ENDMDL
MODEL 9
REMARK VINA RESULT:      -3.2     11.937     14.206
REMARK  2 active torsions:
REMARK  status: ('A' for Active; 'I' for Inactive)
REMARK    1  A    between atoms: C6_6  and  O11_11 
REMARK    2  A    between atoms: C9_9  and  O11_11 
ROOT
HETATM    1  C1  UNL     1     -35.427  18.691  -6.923  1.00 20.00     0.002 C 
HETATM    2  C2  UNL     1     -34.381  17.549  -6.990  1.00 20.00     0.015 C 
HETATM    3  C3  UNL     1     -36.145  17.899  -5.801  1.00 20.00     0.015 C 
HETATM    4  C4  UNL     1     -36.098  14.728  -5.854  1.00 20.00     0.069 C 
HETATM    5  C5  UNL     1     -36.096  15.592  -7.147  1.00 20.00     0.173 C 
HETATM    6  C6  UNL     1     -34.964  15.641  -5.300  1.00 20.00     0.135 C 
HETATM    7  C7  UNL     1     -35.419  16.670  -6.320  1.00 20.00     0.015 C 
HETATM    8  O10 UNL     1     -37.387  15.870  -7.614  1.00 20.00    -0.234 OA
ENDROOT
BRANCH   6   9
HETATM    9  O11 UNL     1     -33.630  15.117  -5.458  1.00 20.00    -0.385 OA
BRANCH   9  10
HETATM   10  C9  UNL     1     -32.991  14.975  -4.203  1.00 20.00     0.163 C 
HETATM   11  C8  UNL     1     -33.387  16.134  -3.313  1.00 20.00     0.033 C 
ENDBRANCH   9  10
ENDBRANCH   6   9
TORSDOF 2
ENDMDL
