MODEL 1
REMARK VINA RESULT:      -3.5      0.000      0.000
REMARK  2 active torsions:
REMARK  status: ('A' for Active; 'I' for Inactive)
REMARK    1  A    between atoms: C6_6  and  O11_11 
REMARK    2  A    between atoms: C9_9  and  O11_11 
ROOT
HETATM    1  C1  UNL     1     -35.558  15.197  -7.127  1.00 20.00     0.002 C 
HETATM    2  C2  UNL     1     -34.077  15.210  -6.668  1.00 20.00     0.015 C 
HETATM    3  C3  UNL     1     -35.940  14.725  -5.700  1.00 20.00     0.015 C 
HETATM    4  C4  UNL     1     -33.480  16.155  -3.689  1.00 20.00     0.069 C 
HETATM    5  C5  UNL     1     -33.914  14.706  -4.049  1.00 20.00     0.173 C 
HETATM    6  C6  UNL     1     -34.650  16.672  -4.574  1.00 20.00     0.135 C 
HETATM    7  C7  UNL     1     -34.612  15.303  -5.250  1.00 20.00     0.015 C 
HETATM    8  O10 UNL     1     -32.824  13.867  -4.315  1.00 20.00    -0.234 OA
ENDROOT
BRANCH   6   9
HETATM    9  O11 UNL     1     -34.369  17.829  -5.380  1.00 20.00    -0.385 OA
BRANCH   9  10
HETATM   10  C9  UNL     1     -35.473  18.715  -5.392  1.00 20.00     0.163 C 
HETATM   11  C8  UNL     1     -36.470  18.275  -4.340  1.00 20.00     0.033 C 
ENDBRANCH   9  10
ENDBRANCH   6   9
TORSDOF 2
ENDMDL
MODEL 2
REMARK VINA RESULT:      -3.4     13.453     14.496
REMARK  2 active torsions:
REMARK  status: ('A' for Active; 'I' for Inactive)
REMARK    1  A    between atoms: C6_6  and  O11_11 
REMARK    2  A    between atoms: C9_9  and  O11_11 
ROOT
HETATM    1  C1  UNL     1     -43.309  12.346   7.006  1.00 20.00     0.002 C 
HETATM    2  C2  UNL     1     -42.711  13.179   8.170  1.00 20.00     0.015 C 
HETATM    3  C3  UNL     1     -43.124  13.587   6.095  1.00 20.00     0.015 C 
HETATM    4  C4  UNL     1     -40.350  15.192   7.461  1.00 20.00     0.069 C 
HETATM    5  C5  UNL     1     -41.852  15.544   7.270  1.00 20.00     0.173 C 
HETATM    6  C6  UNL     1     -40.626  13.844   6.735  1.00 20.00     0.135 C 
HETATM    7  C7  UNL     1     -42.092  14.062   7.099  1.00 20.00     0.015 C 
HETATM    8  O10 UNL     1     -42.415  16.140   8.406  1.00 20.00    -0.234 OA
ENDROOT
BRANCH   6   9
HETATM    9  O11 UNL     1     -39.961  12.689   7.273  1.00 20.00    -0.385 OA
BRANCH   9  10
HETATM   10  C9  UNL     1     -39.160  12.063   6.288  1.00 20.00     0.163 C 
HETATM   11  C8  UNL     1     -39.875  12.132   4.954  1.00 20.00     0.033 C 
ENDBRANCH   9  10
ENDBRANCH   6   9
TORSDOF 2
ENDMDL
MODEL 3
REMARK VINA RESULT:      -3.4     12.793     14.031
REMARK  2 active torsions:
REMARK  status: ('A' for Active; 'I' for Inactive)
REMARK    1  A    between atoms: C6_6  and  O11_11 
REMARK    2  A    between atoms: C9_9  and  O11_11 
ROOT
HETATM    1  C1  UNL     1     -40.308  14.564   8.881  1.00 20.00     0.002 C 
HETATM    2  C2  UNL     1     -40.379  15.414   7.585  1.00 20.00     0.015 C 
HETATM    3  C3  UNL     1     -41.749  14.080   8.577  1.00 20.00     0.015 C 
HETATM    4  C4  UNL     1     -41.915  14.156   5.098  1.00 20.00     0.069 C 
HETATM    5  C5  UNL     1     -42.640  14.894   6.259  1.00 20.00     0.173 C 
HETATM    6  C6  UNL     1     -41.132  13.345   6.169  1.00 20.00     0.135 C 
HETATM    7  C7  UNL     1     -41.484  14.473   7.137  1.00 20.00     0.015 C 
HETATM    8  O10 UNL     1     -42.775  16.268   6.024  1.00 20.00    -0.234 OA
ENDROOT
BRANCH   6   9
HETATM    9  O11 UNL     1     -39.742  13.106   5.890  1.00 20.00    -0.385 OA
BRANCH   9  10
HETATM   10  C9  UNL     1     -39.509  11.735   5.628  1.00 20.00     0.163 C 
HETATM   11  C8  UNL     1     -39.071  11.576   4.186  1.00 20.00     0.033 C 
ENDBRANCH   9  10
ENDBRANCH   6   9
TORSDOF 2
ENDMDL
MODEL 4
REMARK VINA RESULT:      -3.4      1.718      2.736
REMARK  2 active torsions:
REMARK  status: ('A' for Active; 'I' for Inactive)
REMARK    1  A    between atoms: C6_6  and  O11_11 
REMARK    2  A    between atoms: C9_9  and  O11_11 
ROOT
HETATM    1  C1  UNL     1     -35.501  18.650  -5.523  1.00 20.00     0.002 C 
HETATM    2  C2  UNL     1     -34.436  17.722  -6.163  1.00 20.00     0.015 C 
HETATM    3  C3  UNL     1     -36.179  17.381  -4.943  1.00 20.00     0.015 C 
HETATM    4  C4  UNL     1     -33.519  15.178  -4.486  1.00 20.00     0.069 C 
HETATM    5  C5  UNL     1     -34.803  15.199  -5.362  1.00 20.00     0.173 C 
HETATM    6  C6  UNL     1     -33.973  16.535  -3.877  1.00 20.00     0.135 C 
HETATM    7  C7  UNL     1     -34.841  16.691  -5.123  1.00 20.00     0.015 C 
HETATM    8  O10 UNL     1     -34.564  14.785  -6.679  1.00 20.00    -0.234 OA
ENDROOT
BRANCH   6   9
HETATM    9  O11 UNL     1     -32.936  17.505  -3.651  1.00 20.00    -0.385 OA
BRANCH   9  10
HETATM   10  C9  UNL     1     -33.182  18.239  -2.466  1.00 20.00     0.163 C 
HETATM   11  C8  UNL     1     -33.670  17.291  -1.390  1.00 20.00     0.033 C 
ENDBRANCH   9  10
ENDBRANCH   6   9
TORSDOF 2
ENDMDL
MODEL 5
REMARK VINA RESULT:      -3.3      1.929      2.982
REMARK  2 active torsions:
REMARK  status: ('A' for Active; 'I' for Inactive)
REMARK    1  A    between atoms: C6_6  and  O11_11 
REMARK    2  A    between atoms: C9_9  and  O11_11 
ROOT
HETATM    1  C1  UNL     1     -34.360  14.418  -4.279  1.00 20.00     0.002 C 
HETATM    2  C2  UNL     1     -35.726  14.254  -4.994  1.00 20.00     0.015 C 
HETATM    3  C3  UNL     1     -33.791  14.971  -5.612  1.00 20.00     0.015 C 
HETATM    4  C4  UNL     1     -36.548  16.490  -7.104  1.00 20.00     0.069 C 
HETATM    5  C5  UNL     1     -35.617  15.295  -7.453  1.00 20.00     0.173 C 
HETATM    6  C6  UNL     1     -35.679  16.732  -5.836  1.00 20.00     0.135 C 
HETATM    7  C7  UNL     1     -35.224  15.282  -5.993  1.00 20.00     0.015 C 
HETATM    8  O10 UNL     1     -36.324  14.178  -7.918  1.00 20.00    -0.234 OA
ENDROOT
BRANCH   6   9
HETATM    9  O11 UNL     1     -36.392  17.089  -4.640  1.00 20.00    -0.385 OA
BRANCH   9  10
HETATM   10  C9  UNL     1     -35.916  18.314  -4.116  1.00 20.00     0.163 C 
HETATM   11  C8  UNL     1     -34.467  18.146  -3.708  1.00 20.00     0.033 C 
ENDBRANCH   9  10
ENDBRANCH   6   9
TORSDOF 2
ENDMDL
MODEL 6
REMARK VINA RESULT:      -3.3      1.843      2.808
REMARK  2 active torsions:
REMARK  status: ('A' for Active; 'I' for Inactive)
REMARK    1  A    between atoms: C6_6  and  O11_11 
REMARK    2  A    between atoms: C9_9  and  O11_11 
ROOT
HETATM    1  C1  UNL     1     -36.876  18.140  -5.864  1.00 20.00     0.002 C 
HETATM    2  C2  UNL     1     -35.941  17.322  -6.793  1.00 20.00     0.015 C 
HETATM    3  C3  UNL     1     -37.275  16.806  -5.182  1.00 20.00     0.015 C 
HETATM    4  C4  UNL     1     -34.418  14.840  -5.511  1.00 20.00     0.069 C 
HETATM    5  C5  UNL     1     -35.882  14.763  -6.027  1.00 20.00     0.173 C 
HETATM    6  C6  UNL     1     -34.807  16.140  -4.752  1.00 20.00     0.135 C 
HETATM    7  C7  UNL     1     -35.978  16.241  -5.727  1.00 20.00     0.015 C 
HETATM    8  O10 UNL     1     -35.960  14.395  -7.377  1.00 20.00    -0.234 OA
ENDROOT
BRANCH   6   9
HETATM    9  O11 UNL     1     -33.830  17.194  -4.761  1.00 20.00    -0.385 OA
BRANCH   9  10
HETATM   10  C9  UNL     1     -33.742  17.812  -3.490  1.00 20.00     0.163 C 
HETATM   11  C8  UNL     1     -33.374  16.765  -2.458  1.00 20.00     0.033 C 
ENDBRANCH   9  10
ENDBRANCH   6   9
TORSDOF 2
ENDMDL
MODEL 7
REMARK VINA RESULT:      -3.2     23.949     25.619
REMARK  2 active torsions:
REMARK  status: ('A' for Active; 'I' for Inactive)
REMARK    1  A    between atoms: C6_6  and  O11_11 
REMARK    2  A    between atoms: C9_9  and  O11_11 
ROOT
HETATM    1  C1  UNL     1     -26.907   0.130  11.243  1.00 20.00     0.002 C 
HETATM    2  C2  UNL     1     -27.862  -0.566  10.238  1.00 20.00     0.015 C 
HETATM    3  C3  UNL     1     -27.432  -0.841  12.332  1.00 20.00     0.015 C 
HETATM    4  C4  UNL     1     -28.249  -3.711  10.534  1.00 20.00     0.069 C 
HETATM    5  C5  UNL     1     -29.035  -2.676  11.386  1.00 20.00     0.173 C 
HETATM    6  C6  UNL     1     -26.947  -2.933  10.880  1.00 20.00     0.135 C 
HETATM    7  C7  UNL     1     -27.857  -1.747  11.194  1.00 20.00     0.015 C 
HETATM    8  O10 UNL     1     -30.239  -2.286  10.786  1.00 20.00    -0.234 OA
ENDROOT
BRANCH   6   9
HETATM    9  O11 UNL     1     -25.994  -2.788   9.813  1.00 20.00    -0.385 OA
BRANCH   9  10
HETATM   10  C9  UNL     1     -24.728  -3.292  10.196  1.00 20.00     0.163 C 
HETATM   11  C8  UNL     1     -24.173  -2.433  11.313  1.00 20.00     0.033 C 
ENDBRANCH   9  10
ENDBRANCH   6   9
TORSDOF 2
ENDMDL
MODEL 8
REMARK VINA RESULT:      -3.2      1.572      3.330
REMARK  2 active torsions:
REMARK  status: ('A' for Active; 'I' for Inactive)
REMARK    1  A    between atoms: C6_6  and  O11_11 
REMARK    2  A    between atoms: C9_9  and  O11_11 
ROOT
HETATM    1  C1  UNL     1     -35.435  18.752  -5.084  1.00 20.00     0.002 C 
HETATM    2  C2  UNL     1     -35.610  17.762  -3.903  1.00 20.00     0.015 C 
HETATM    3  C3  UNL     1     -33.910  18.483  -5.013  1.00 20.00     0.015 C 
HETATM    4  C4  UNL     1     -33.718  15.203  -3.852  1.00 20.00     0.069 C 
HETATM    5  C5  UNL     1     -33.278  16.595  -3.319  1.00 20.00     0.173 C 
HETATM    6  C6  UNL     1     -34.229  15.914  -5.139  1.00 20.00     0.135 C 
HETATM    7  C7  UNL     1     -34.260  17.191  -4.302  1.00 20.00     0.015 C 
HETATM    8  O10 UNL     1     -33.572  16.770  -1.961  1.00 20.00    -0.234 OA
ENDROOT
BRANCH   6   9
HETATM    9  O11 UNL     1     -35.471  15.430  -5.678  1.00 20.00    -0.385 OA
BRANCH   9  10
HETATM   10  C9  UNL     1     -35.456  15.470  -7.092  1.00 20.00     0.163 C 
HETATM   11  C8  UNL     1     -34.022  15.566  -7.568  1.00 20.00     0.033 C 
ENDBRANCH   9  10
ENDBRANCH   6   9
TORSDOF 2
ENDMDL
MODEL 9
REMARK VINA RESULT:      -3.1     13.312     14.406
REMARK  2 active torsions:
REMARK  status: ('A' for Active; 'I' for Inactive)
REMARK    1  A    between atoms: C6_6  and  O11_11 
REMARK    2  A    between atoms: C9_9  and  O11_11 
ROOT
HETATM    1  C1  UNL     1     -43.291  14.229   5.643  1.00 20.00     0.002 C 
HETATM    2  C2  UNL     1     -43.181  14.064   7.181  1.00 20.00     0.015 C 
HETATM    3  C3  UNL     1     -42.284  15.403   5.751  1.00 20.00     0.015 C 
HETATM    4  C4  UNL     1     -40.324  14.540   8.499  1.00 20.00     0.069 C 
HETATM    5  C5  UNL     1     -41.303  15.697   8.155  1.00 20.00     0.173 C 
HETATM    6  C6  UNL     1     -40.568  13.977   7.069  1.00 20.00     0.135 C 
HETATM    7  C7  UNL     1     -41.855  14.798   7.073  1.00 20.00     0.015 C 
HETATM    8  O10 UNL     1     -42.170  16.003   9.213  1.00 20.00    -0.234 OA
ENDROOT
BRANCH   6   9
HETATM    9  O11 UNL     1     -40.679  12.548   6.964  1.00 20.00    -0.385 OA
BRANCH   9  10
HETATM   10  C9  UNL     1     -40.297  12.105   5.675  1.00 20.00     0.163 C 
HETATM   11  C8  UNL     1     -38.785  12.113   5.580  1.00 20.00     0.033 C 
ENDBRANCH   9  10
ENDBRANCH   6   9
TORSDOF 2
ENDMDL
