MODEL 1
REMARK VINA RESULT:      -4.7      0.000      0.000
REMARK  2 active torsions:
REMARK  status: ('A' for Active; 'I' for Inactive)
REMARK    1  A    between atoms: C3_3  and  C6_6 
REMARK    2  A    between atoms: C6_6  and  C7_7 
ROOT
HETATM    1  C1  UNL     1     -32.510   7.925   3.866  1.00 20.00    -0.176 C 
HETATM    2  C2  UNL     1     -32.049   7.545   2.714  1.00 20.00     0.091 C 
HETATM    3  C3  UNL     1     -32.972   8.309   5.022  1.00 20.00     0.067 C 
ENDROOT
BRANCH   3   4
HETATM    4  C6  UNL     1     -34.031   7.587   5.804  1.00 20.00     0.021 C 
BRANCH   4   5
HETATM    5  C7  UNL     1     -34.243   6.135   5.341  1.00 20.00    -0.021 C 
HETATM    6  C4  UNL     1     -35.477   5.989   4.447  1.00 20.00     0.009 C 
HETATM    7  C5  UNL     1     -34.374   5.215   6.557  1.00 20.00     0.009 C 
ENDBRANCH   4   5
ENDBRANCH   3   4
TORSDOF 2
ENDMDL
MODEL 2
REMARK VINA RESULT:      -4.7      1.013      1.919
REMARK  2 active torsions:
REMARK  status: ('A' for Active; 'I' for Inactive)
REMARK    1  A    between atoms: C3_3  and  C6_6 
REMARK    2  A    between atoms: C6_6  and  C7_7 
ROOT
HETATM    1  C1  UNL     1     -33.134   7.931   5.217  1.00 20.00    -0.176 C 
HETATM    2  C2  UNL     1     -32.215   8.426   4.446  1.00 20.00     0.091 C 
HETATM    3  C3  UNL     1     -34.058   7.436   5.991  1.00 20.00     0.067 C 
ENDROOT
BRANCH   3   4
HETATM    4  C6  UNL     1     -34.180   5.986   6.360  1.00 20.00     0.021 C 
BRANCH   4   5
HETATM    5  C7  UNL     1     -34.850   5.136   5.266  1.00 20.00    -0.021 C 
HETATM    6  C4  UNL     1     -33.828   4.367   4.425  1.00 20.00     0.009 C 
HETATM    7  C5  UNL     1     -35.698   6.031   4.359  1.00 20.00     0.009 C 
ENDBRANCH   4   5
ENDBRANCH   3   4
TORSDOF 2
ENDMDL
MODEL 3
REMARK VINA RESULT:      -4.4      1.078      3.512
REMARK  2 active torsions:
REMARK  status: ('A' for Active; 'I' for Inactive)
REMARK    1  A    between atoms: C3_3  and  C6_6 
REMARK    2  A    between atoms: C6_6  and  C7_7 
ROOT
HETATM    1  C1  UNL     1     -34.028   6.577   5.965  1.00 20.00    -0.176 C 
HETATM    2  C2  UNL     1     -34.708   5.567   6.415  1.00 20.00     0.091 C 
HETATM    3  C3  UNL     1     -33.344   7.589   5.515  1.00 20.00     0.067 C 
ENDROOT
BRANCH   3   4
HETATM    4  C6  UNL     1     -33.362   8.072   4.093  1.00 20.00     0.021 C 
BRANCH   4   5
HETATM    5  C7  UNL     1     -32.336   7.356   3.197  1.00 20.00    -0.021 C 
HETATM    6  C4  UNL     1     -32.091   8.109   1.886  1.00 20.00     0.009 C 
HETATM    7  C5  UNL     1     -32.813   5.934   2.893  1.00 20.00     0.009 C 
ENDBRANCH   4   5
ENDBRANCH   3   4
TORSDOF 2
ENDMDL
MODEL 4
REMARK VINA RESULT:      -4.2      1.031      3.643
REMARK  2 active torsions:
REMARK  status: ('A' for Active; 'I' for Inactive)
REMARK    1  A    between atoms: C3_3  and  C6_6 
REMARK    2  A    between atoms: C6_6  and  C7_7 
ROOT
HETATM    1  C1  UNL     1     -34.136   6.675   6.104  1.00 20.00    -0.176 C 
HETATM    2  C2  UNL     1     -34.612   5.489   6.334  1.00 20.00     0.091 C 
HETATM    3  C3  UNL     1     -33.660   7.865   5.875  1.00 20.00     0.067 C 
ENDROOT
BRANCH   3   4
HETATM    4  C6  UNL     1     -32.591   8.181   4.869  1.00 20.00     0.021 C 
BRANCH   4   5
HETATM    5  C7  UNL     1     -33.023   7.902   3.418  1.00 20.00    -0.021 C 
HETATM    6  C4  UNL     1     -32.372   6.636   2.855  1.00 20.00     0.009 C 
HETATM    7  C5  UNL     1     -32.673   9.100   2.531  1.00 20.00     0.009 C 
ENDBRANCH   4   5
ENDBRANCH   3   4
TORSDOF 2
ENDMDL
MODEL 5
REMARK VINA RESULT:      -4.1      1.177      2.067
REMARK  2 active torsions:
REMARK  status: ('A' for Active; 'I' for Inactive)
REMARK    1  A    between atoms: C3_3  and  C6_6 
REMARK    2  A    between atoms: C6_6  and  C7_7 
ROOT
HETATM    1  C1  UNL     1     -32.260   7.945   1.993  1.00 20.00    -0.176 C 
HETATM    2  C2  UNL     1     -32.253   8.550   0.844  1.00 20.00     0.091 C 
HETATM    3  C3  UNL     1     -32.266   7.336   3.144  1.00 20.00     0.067 C 
ENDROOT
BRANCH   3   4
HETATM    4  C6  UNL     1     -32.912   7.867   4.391  1.00 20.00     0.021 C 
BRANCH   4   5
HETATM    5  C7  UNL     1     -34.105   7.017   4.865  1.00 20.00    -0.021 C 
HETATM    6  C4  UNL     1     -34.077   6.776   6.377  1.00 20.00     0.009 C 
HETATM    7  C5  UNL     1     -34.113   5.675   4.128  1.00 20.00     0.009 C 
ENDBRANCH   4   5
ENDBRANCH   3   4
TORSDOF 2
ENDMDL
MODEL 6
REMARK VINA RESULT:      -4.1      0.986      2.161
REMARK  2 active torsions:
REMARK  status: ('A' for Active; 'I' for Inactive)
REMARK    1  A    between atoms: C3_3  and  C6_6 
REMARK    2  A    between atoms: C6_6  and  C7_7 
ROOT
HETATM    1  C1  UNL     1     -32.422   7.930   4.041  1.00 20.00    -0.176 C 
HETATM    2  C2  UNL     1     -32.214   9.001   4.744  1.00 20.00     0.091 C 
HETATM    3  C3  UNL     1     -32.629   6.857   3.333  1.00 20.00     0.067 C 
ENDROOT
BRANCH   3   4
HETATM    4  C6  UNL     1     -33.497   5.706   3.756  1.00 20.00     0.021 C 
BRANCH   4   5
HETATM    5  C7  UNL     1     -34.553   6.097   4.805  1.00 20.00    -0.021 C 
HETATM    6  C4  UNL     1     -34.484   5.210   6.051  1.00 20.00     0.009 C 
HETATM    7  C5  UNL     1     -35.952   6.016   4.190  1.00 20.00     0.009 C 
ENDBRANCH   4   5
ENDBRANCH   3   4
TORSDOF 2
ENDMDL
MODEL 7
REMARK VINA RESULT:      -4.1      1.039      2.006
REMARK  2 active torsions:
REMARK  status: ('A' for Active; 'I' for Inactive)
REMARK    1  A    between atoms: C3_3  and  C6_6 
REMARK    2  A    between atoms: C6_6  and  C7_7 
ROOT
HETATM    1  C1  UNL     1     -32.972   6.297   3.145  1.00 20.00    -0.176 C 
HETATM    2  C2  UNL     1     -32.133   7.130   2.609  1.00 20.00     0.091 C 
HETATM    3  C3  UNL     1     -33.812   5.459   3.682  1.00 20.00     0.067 C 
ENDROOT
BRANCH   3   4
HETATM    4  C6  UNL     1     -35.042   5.853   4.448  1.00 20.00     0.021 C 
BRANCH   4   5
HETATM    5  C7  UNL     1     -34.780   6.058   5.951  1.00 20.00    -0.021 C 
HETATM    6  C4  UNL     1     -34.046   7.371   6.235  1.00 20.00     0.009 C 
HETATM    7  C5  UNL     1     -33.969   4.883   6.503  1.00 20.00     0.009 C 
ENDBRANCH   4   5
ENDBRANCH   3   4
TORSDOF 2
ENDMDL
MODEL 8
REMARK VINA RESULT:      -4.0      1.058      3.555
REMARK  2 active torsions:
REMARK  status: ('A' for Active; 'I' for Inactive)
REMARK    1  A    between atoms: C3_3  and  C6_6 
REMARK    2  A    between atoms: C6_6  and  C7_7 
ROOT
HETATM    1  C1  UNL     1     -34.371   5.592   5.404  1.00 20.00    -0.176 C 
HETATM    2  C2  UNL     1     -34.436   4.451   4.789  1.00 20.00     0.091 C 
HETATM    3  C3  UNL     1     -34.305   6.735   6.024  1.00 20.00     0.067 C 
ENDROOT
BRANCH   3   4
HETATM    4  C6  UNL     1     -33.973   8.046   5.372  1.00 20.00     0.021 C 
BRANCH   4   5
HETATM    5  C7  UNL     1     -32.528   8.111   4.844  1.00 20.00    -0.021 C 
HETATM    6  C4  UNL     1     -31.933   9.517   4.962  1.00 20.00     0.009 C 
HETATM    7  C5  UNL     1     -32.486   7.654   3.384  1.00 20.00     0.009 C 
ENDBRANCH   4   5
ENDBRANCH   3   4
TORSDOF 2
ENDMDL
MODEL 9
REMARK VINA RESULT:      -4.0      0.997      3.992
REMARK  2 active torsions:
REMARK  status: ('A' for Active; 'I' for Inactive)
REMARK    1  A    between atoms: C3_3  and  C6_6 
REMARK    2  A    between atoms: C6_6  and  C7_7 
ROOT
HETATM    1  C1  UNL     1     -34.449   5.813   5.303  1.00 20.00    -0.176 C 
HETATM    2  C2  UNL     1     -34.620   5.380   6.515  1.00 20.00     0.091 C 
HETATM    3  C3  UNL     1     -34.281   6.249   4.088  1.00 20.00     0.067 C 
ENDROOT
BRANCH   3   4
HETATM    4  C6  UNL     1     -33.027   6.072   3.281  1.00 20.00     0.021 C 
BRANCH   4   5
HETATM    5  C7  UNL     1     -32.165   7.346   3.214  1.00 20.00    -0.021 C 
HETATM    6  C4  UNL     1     -32.596   8.389   4.249  1.00 20.00     0.009 C 
HETATM    7  C5  UNL     1     -32.238   7.951   1.810  1.00 20.00     0.009 C 
ENDBRANCH   4   5
ENDBRANCH   3   4
TORSDOF 2
ENDMDL
