MODEL 1
REMARK VINA RESULT:      -3.6      0.000      0.000
REMARK  3 active torsions:
REMARK  status: ('A' for Active; 'I' for Inactive)
REMARK    1  A    between atoms: C1_1  and  C6_6 
REMARK    2  A    between atoms: C6_6  and  C7_7 
REMARK    3  A    between atoms: C6_6  and  O9_9 
ROOT
HETATM    1  C2  UNL     1     -34.359   8.528   4.821  1.00 20.00     0.054 C 
HETATM    2  C6  UNL     1     -33.543   7.232   4.888  1.00 20.00     0.113 C 
ENDROOT
BRANCH   2   3
HETATM    3  C1  UNL     1     -32.497   7.291   3.778  1.00 20.00     0.269 C 
HETATM    4  O8  UNL     1     -32.414   8.197   2.953  1.00 20.00    -0.304 OA
ENDBRANCH   2   3
BRANCH   2   5
HETATM    5  C7  UNL     1     -34.395   5.917   4.807  1.00 20.00    -0.014 C 
HETATM    6  C3  UNL     1     -34.546   5.280   6.209  1.00 20.00     0.018 C 
HETATM    7  C4  UNL     1     -33.700   4.870   3.907  1.00 20.00     0.018 C 
HETATM    8  C5  UNL     1     -35.808   6.162   4.238  1.00 20.00     0.018 C 
ENDBRANCH   2   5
BRANCH   2   9
HETATM    9  O9  UNL     1     -32.820   7.235   6.121  1.00 20.00    -0.382 OA
HETATM   10  H23 UNL     1     -33.077   6.427   6.588  1.00 20.00     0.211 HD
ENDBRANCH   2   9
TORSDOF 3
ENDMDL
MODEL 2
REMARK VINA RESULT:      -3.6      8.581      9.998
REMARK  3 active torsions:
REMARK  status: ('A' for Active; 'I' for Inactive)
REMARK    1  A    between atoms: C1_1  and  C6_6 
REMARK    2  A    between atoms: C6_6  and  C7_7 
REMARK    3  A    between atoms: C6_6  and  O9_9 
ROOT
HETATM    1  C2  UNL     1     -40.677   5.430  -0.710  1.00 20.00     0.054 C 
HETATM    2  C6  UNL     1     -41.961   5.612   0.106  1.00 20.00     0.113 C 
ENDROOT
BRANCH   2   3
HETATM    3  C1  UNL     1     -43.130   5.181  -0.775  1.00 20.00     0.269 C 
HETATM    4  O8  UNL     1     -43.009   4.622  -1.861  1.00 20.00    -0.304 OA
ENDBRANCH   2   3
BRANCH   2   5
HETATM    5  C7  UNL     1     -42.173   7.058   0.679  1.00 20.00    -0.014 C 
HETATM    6  C3  UNL     1     -43.258   7.052   1.782  1.00 20.00     0.018 C 
HETATM    7  C4  UNL     1     -42.661   8.019  -0.430  1.00 20.00     0.018 C 
HETATM    8  C5  UNL     1     -40.882   7.651   1.280  1.00 20.00     0.018 C 
ENDBRANCH   2   5
BRANCH   2   9
HETATM    9  O9  UNL     1     -41.920   4.689   1.197  1.00 20.00    -0.382 OA
HETATM   10  H23 UNL     1     -41.569   3.861   0.839  1.00 20.00     0.211 HD
ENDBRANCH   2   9
TORSDOF 3
ENDMDL
MODEL 3
REMARK VINA RESULT:      -3.5     15.531     16.752
REMARK  3 active torsions:
REMARK  status: ('A' for Active; 'I' for Inactive)
REMARK    1  A    between atoms: C1_1  and  C6_6 
REMARK    2  A    between atoms: C6_6  and  C7_7 
REMARK    3  A    between atoms: C6_6  and  O9_9 
ROOT
HETATM    1  C2  UNL     1     -24.291  16.291  11.188  1.00 20.00     0.054 C 
HETATM    2  C6  UNL     1     -23.519  17.604  11.353  1.00 20.00     0.113 C 
ENDROOT
BRANCH   2   3
HETATM    3  C1  UNL     1     -24.478  18.627  11.956  1.00 20.00     0.269 C 
HETATM    4  O8  UNL     1     -25.658  18.405  12.208  1.00 20.00    -0.304 OA
ENDBRANCH   2   3
BRANCH   2   5
HETATM    5  C7  UNL     1     -22.855  18.142  10.037  1.00 20.00    -0.014 C 
HETATM    6  C3  UNL     1     -21.538  18.888  10.358  1.00 20.00     0.018 C 
HETATM    7  C4  UNL     1     -23.786  19.154   9.329  1.00 20.00     0.018 C 
HETATM    8  C5  UNL     1     -22.536  17.016   9.033  1.00 20.00     0.018 C 
ENDBRANCH   2   5
BRANCH   2   9
HETATM    9  O9  UNL     1     -22.496  17.390  12.328  1.00 20.00    -0.382 OA
HETATM   10  H23 UNL     1     -22.462  16.434  12.481  1.00 20.00     0.211 HD
ENDBRANCH   2   9
TORSDOF 3
ENDMDL
MODEL 4
REMARK VINA RESULT:      -3.4     15.815     16.892
REMARK  3 active torsions:
REMARK  status: ('A' for Active; 'I' for Inactive)
REMARK    1  A    between atoms: C1_1  and  C6_6 
REMARK    2  A    between atoms: C6_6  and  C7_7 
REMARK    3  A    between atoms: C6_6  and  O9_9 
ROOT
HETATM    1  C2  UNL     1     -22.383  18.859  12.330  1.00 20.00     0.054 C 
HETATM    2  C6  UNL     1     -23.459  18.398  11.341  1.00 20.00     0.113 C 
ENDROOT
BRANCH   2   3
HETATM    3  C1  UNL     1     -23.889  16.993  11.752  1.00 20.00     0.269 C 
HETATM    4  O8  UNL     1     -25.004  16.707  12.176  1.00 20.00    -0.304 OA
ENDBRANCH   2   3
BRANCH   2   5
HETATM    5  C7  UNL     1     -23.028  18.451   9.833  1.00 20.00    -0.014 C 
HETATM    6  C3  UNL     1     -22.747  17.027   9.297  1.00 20.00     0.018 C 
HETATM    7  C4  UNL     1     -21.722  19.263   9.666  1.00 20.00     0.018 C 
HETATM    8  C5  UNL     1     -24.101  19.098   8.933  1.00 20.00     0.018 C 
ENDBRANCH   2   5
BRANCH   2   9
HETATM    9  O9  UNL     1     -24.604  19.236  11.520  1.00 20.00    -0.382 OA
HETATM   10  H23 UNL     1     -24.759  19.284  12.474  1.00 20.00     0.211 HD
ENDBRANCH   2   9
TORSDOF 3
ENDMDL
MODEL 5
REMARK VINA RESULT:      -3.3      8.394      9.943
REMARK  3 active torsions:
REMARK  status: ('A' for Active; 'I' for Inactive)
REMARK    1  A    between atoms: C1_1  and  C6_6 
REMARK    2  A    between atoms: C6_6  and  C7_7 
REMARK    3  A    between atoms: C6_6  and  O9_9 
ROOT
HETATM    1  C2  UNL     1     -43.056   5.190  -0.951  1.00 20.00     0.054 C 
HETATM    2  C6  UNL     1     -42.014   5.592   0.099  1.00 20.00     0.113 C 
ENDROOT
BRANCH   2   3
HETATM    3  C1  UNL     1     -42.168   4.644   1.285  1.00 20.00     0.269 C 
HETATM    4  O8  UNL     1     -43.044   3.789   1.378  1.00 20.00    -0.304 OA
ENDBRANCH   2   3
BRANCH   2   5
HETATM    5  C7  UNL     1     -42.084   7.094   0.548  1.00 20.00    -0.014 C 
HETATM    6  C3  UNL     1     -42.327   8.016  -0.670  1.00 20.00     0.018 C 
HETATM    7  C4  UNL     1     -40.748   7.535   1.190  1.00 20.00     0.018 C 
HETATM    8  C5  UNL     1     -43.206   7.352   1.575  1.00 20.00     0.018 C 
ENDBRANCH   2   5
BRANCH   2   9
HETATM    9  O9  UNL     1     -40.719   5.338  -0.452  1.00 20.00    -0.382 OA
HETATM   10  H23 UNL     1     -40.661   4.380  -0.577  1.00 20.00     0.211 HD
ENDBRANCH   2   9
TORSDOF 3
ENDMDL
MODEL 6
REMARK VINA RESULT:      -3.3      8.382      9.386
REMARK  3 active torsions:
REMARK  status: ('A' for Active; 'I' for Inactive)
REMARK    1  A    between atoms: C1_1  and  C6_6 
REMARK    2  A    between atoms: C6_6  and  C7_7 
REMARK    3  A    between atoms: C6_6  and  O9_9 
ROOT
HETATM    1  C2  UNL     1     -43.153   7.999  -0.144  1.00 20.00     0.054 C 
HETATM    2  C6  UNL     1     -42.217   7.124   0.696  1.00 20.00     0.113 C 
ENDROOT
BRANCH   2   3
HETATM    3  C1  UNL     1     -40.861   7.823   0.749  1.00 20.00     0.269 C 
HETATM    4  O8  UNL     1     -40.571   8.821   0.095  1.00 20.00    -0.304 OA
ENDBRANCH   2   3
BRANCH   2   5
HETATM    5  C7  UNL     1     -42.082   5.642   0.198  1.00 20.00    -0.014 C 
HETATM    6  C3  UNL     1     -40.771   5.454  -0.602  1.00 20.00     0.018 C 
HETATM    7  C4  UNL     1     -43.248   5.276  -0.750  1.00 20.00     0.018 C 
HETATM    8  C5  UNL     1     -42.085   4.626   1.359  1.00 20.00     0.018 C 
ENDBRANCH   2   5
BRANCH   2   9
HETATM    9  O9  UNL     1     -42.715   7.114   2.036  1.00 20.00    -0.382 OA
HETATM   10  H23 UNL     1     -43.472   7.717   2.049  1.00 20.00     0.211 HD
ENDBRANCH   2   9
TORSDOF 3
ENDMDL
MODEL 7
REMARK VINA RESULT:      -3.3     12.189     13.542
REMARK  3 active torsions:
REMARK  status: ('A' for Active; 'I' for Inactive)
REMARK    1  A    between atoms: C1_1  and  C6_6 
REMARK    2  A    between atoms: C6_6  and  C7_7 
REMARK    3  A    between atoms: C6_6  and  O9_9 
ROOT
HETATM    1  C2  UNL     1     -34.454  16.948  -6.431  1.00 20.00     0.054 C 
HETATM    2  C6  UNL     1     -34.306  15.464  -6.079  1.00 20.00     0.113 C 
ENDROOT
BRANCH   2   3
HETATM    3  C1  UNL     1     -35.631  14.781  -6.406  1.00 20.00     0.269 C 
HETATM    4  O8  UNL     1     -35.954  14.398  -7.527  1.00 20.00    -0.304 OA
ENDBRANCH   2   3
BRANCH   2   5
HETATM    5  C7  UNL     1     -33.863  15.184  -4.600  1.00 20.00    -0.014 C 
HETATM    6  C3  UNL     1     -32.412  14.647  -4.560  1.00 20.00     0.018 C 
HETATM    7  C4  UNL     1     -34.762  14.103  -3.955  1.00 20.00     0.018 C 
HETATM    8  C5  UNL     1     -33.932  16.444  -3.713  1.00 20.00     0.018 C 
ENDBRANCH   2   5
BRANCH   2   9
HETATM    9  O9  UNL     1     -33.335  14.900  -6.964  1.00 20.00    -0.382 OA
HETATM   10  H23 UNL     1     -32.710  14.414  -6.406  1.00 20.00     0.211 HD
ENDBRANCH   2   9
TORSDOF 3
ENDMDL
MODEL 8
REMARK VINA RESULT:      -3.2      1.229      2.233
REMARK  3 active torsions:
REMARK  status: ('A' for Active; 'I' for Inactive)
REMARK    1  A    between atoms: C1_1  and  C6_6 
REMARK    2  A    between atoms: C6_6  and  C7_7 
REMARK    3  A    between atoms: C6_6  and  O9_9 
ROOT
HETATM    1  C2  UNL     1     -32.529   6.780   3.168  1.00 20.00     0.054 C 
HETATM    2  C6  UNL     1     -33.536   7.172   4.254  1.00 20.00     0.113 C 
ENDROOT
BRANCH   2   3
HETATM    3  C1  UNL     1     -32.767   7.902   5.352  1.00 20.00     0.269 C 
HETATM    4  O8  UNL     1     -32.266   9.015   5.222  1.00 20.00    -0.304 OA
ENDBRANCH   2   3
BRANCH   2   5
HETATM    5  C7  UNL     1     -34.371   5.977   4.834  1.00 20.00    -0.014 C 
HETATM    6  C3  UNL     1     -33.799   4.625   4.343  1.00 20.00     0.018 C 
HETATM    7  C4  UNL     1     -35.838   6.049   4.350  1.00 20.00     0.018 C 
HETATM    8  C5  UNL     1     -34.386   5.958   6.376  1.00 20.00     0.018 C 
ENDBRANCH   2   5
BRANCH   2   9
HETATM    9  O9  UNL     1     -34.436   8.129   3.691  1.00 20.00    -0.382 OA
HETATM   10  H23 UNL     1     -35.329   7.806   3.878  1.00 20.00     0.211 HD
ENDBRANCH   2   9
TORSDOF 3
ENDMDL
MODEL 9
REMARK VINA RESULT:      -3.2     13.468     14.584
REMARK  3 active torsions:
REMARK  status: ('A' for Active; 'I' for Inactive)
REMARK    1  A    between atoms: C1_1  and  C6_6 
REMARK    2  A    between atoms: C6_6  and  C7_7 
REMARK    3  A    between atoms: C6_6  and  O9_9 
ROOT
HETATM    1  C2  UNL     1     -34.209  16.194  -7.850  1.00 20.00     0.054 C 
HETATM    2  C6  UNL     1     -34.453  15.763  -6.400  1.00 20.00     0.113 C 
ENDROOT
BRANCH   2   3
HETATM    3  C1  UNL     1     -35.611  14.769  -6.405  1.00 20.00     0.269 C 
HETATM    4  O8  UNL     1     -36.099  14.281  -7.420  1.00 20.00    -0.304 OA
ENDBRANCH   2   3
BRANCH   2   5
HETATM    5  C7  UNL     1     -34.713  16.946  -5.402  1.00 20.00    -0.014 C 
HETATM    6  C3  UNL     1     -36.221  17.061  -5.076  1.00 20.00     0.018 C 
HETATM    7  C4  UNL     1     -34.280  18.293  -6.025  1.00 20.00     0.018 C 
HETATM    8  C5  UNL     1     -33.948  16.776  -4.072  1.00 20.00     0.018 C 
ENDBRANCH   2   5
BRANCH   2   9
HETATM    9  O9  UNL     1     -33.302  15.037  -5.960  1.00 20.00    -0.382 OA
HETATM   10  H23 UNL     1     -33.597  14.127  -5.809  1.00 20.00     0.211 HD
ENDBRANCH   2   9
TORSDOF 3
ENDMDL
