MODEL 1
REMARK VINA RESULT:      -4.2      0.000      0.000
REMARK  4 active torsions:
REMARK  status: ('A' for Active; 'I' for Inactive)
REMARK    1  A    between atoms: C3_3  and  C4_4 
REMARK    2  A    between atoms: C3_3  and  C6_6 
REMARK    3  A    between atoms: C4_4  and  O7_7 
REMARK    4  A    between atoms: C5_5  and  C6_6 
ROOT
HETATM    1  C3  UNL     1     -34.192   7.095   4.572  1.00 20.00     0.031 C 
ENDROOT
BRANCH   1   2
HETATM    2  C4  UNL     1     -33.272   7.692   5.630  1.00 20.00     0.167 C 
BRANCH   2   3
HETATM    3  O7  UNL     1     -32.302   8.506   4.985  1.00 20.00    -0.396 OA
HETATM    4  C2  UNL     1     -32.511   8.553   3.581  1.00 20.00     0.201 C 
ENDBRANCH   2   3
ENDBRANCH   1   2
BRANCH   1   5
HETATM    5  C6  UNL     1     -34.697   5.680   4.913  1.00 20.00    -0.003 C 
HETATM    6  C1  UNL     1     -34.614   5.451   6.426  1.00 20.00     0.011 C 
BRANCH   5   7
HETATM    7  C5  UNL     1     -34.002   4.551   4.137  1.00 20.00     0.119 C 
HETATM    8 CL8  UNL     1     -33.056   5.122   2.741  1.00 20.00    -0.130 Cl
ENDBRANCH   5   7
ENDBRANCH   1   5
TORSDOF 4
ENDMDL
MODEL 2
REMARK VINA RESULT:      -4.0      1.754      3.209
REMARK  4 active torsions:
REMARK  status: ('A' for Active; 'I' for Inactive)
REMARK    1  A    between atoms: C3_3  and  C4_4 
REMARK    2  A    between atoms: C3_3  and  C6_6 
REMARK    3  A    between atoms: C4_4  and  O7_7 
REMARK    4  A    between atoms: C5_5  and  C6_6 
ROOT
HETATM    1  C3  UNL     1     -33.981   7.326   4.930  1.00 20.00     0.031 C 
ENDROOT
BRANCH   1   2
HETATM    2  C4  UNL     1     -34.055   6.897   6.391  1.00 20.00     0.167 C 
BRANCH   2   3
HETATM    3  O7  UNL     1     -34.767   5.668   6.470  1.00 20.00    -0.396 OA
HETATM    4  C2  UNL     1     -34.804   5.005   5.215  1.00 20.00     0.201 C 
ENDBRANCH   2   3
ENDBRANCH   1   2
BRANCH   1   5
HETATM    5  C6  UNL     1     -32.561   7.691   4.460  1.00 20.00    -0.003 C 
HETATM    6  C1  UNL     1     -32.281   9.169   4.755  1.00 20.00     0.011 C 
BRANCH   5   7
HETATM    7  C5  UNL     1     -32.268   7.348   2.991  1.00 20.00     0.119 C 
HETATM    8 CL8  UNL     1     -32.719   5.686   2.543  1.00 20.00    -0.130 Cl
ENDBRANCH   5   7
ENDBRANCH   1   5
TORSDOF 4
ENDMDL
MODEL 3
REMARK VINA RESULT:      -3.7      2.234      3.504
REMARK  4 active torsions:
REMARK  status: ('A' for Active; 'I' for Inactive)
REMARK    1  A    between atoms: C3_3  and  C4_4 
REMARK    2  A    between atoms: C3_3  and  C6_6 
REMARK    3  A    between atoms: C4_4  and  O7_7 
REMARK    4  A    between atoms: C5_5  and  C6_6 
ROOT
HETATM    1  C3  UNL     1     -33.973   7.313   4.893  1.00 20.00     0.031 C 
ENDROOT
BRANCH   1   2
HETATM    2  C4  UNL     1     -34.023   6.794   6.325  1.00 20.00     0.167 C 
BRANCH   2   3
HETATM    3  O7  UNL     1     -34.537   5.468   6.312  1.00 20.00    -0.396 OA
HETATM    4  C2  UNL     1     -34.712   4.990   4.986  1.00 20.00     0.201 C 
ENDBRANCH   2   3
ENDBRANCH   1   2
BRANCH   1   5
HETATM    5  C6  UNL     1     -32.566   7.745   4.438  1.00 20.00    -0.003 C 
HETATM    6  C1  UNL     1     -32.279   9.170   4.924  1.00 20.00     0.011 C 
BRANCH   5   7
HETATM    7  C5  UNL     1     -32.314   7.608   2.928  1.00 20.00     0.119 C 
HETATM    8 CL8  UNL     1     -32.673   9.089   2.008  1.00 20.00    -0.130 Cl
ENDBRANCH   5   7
ENDBRANCH   1   5
TORSDOF 4
ENDMDL
MODEL 4
REMARK VINA RESULT:      -3.7      1.376      1.463
REMARK  4 active torsions:
REMARK  status: ('A' for Active; 'I' for Inactive)
REMARK    1  A    between atoms: C3_3  and  C4_4 
REMARK    2  A    between atoms: C3_3  and  C6_6 
REMARK    3  A    between atoms: C4_4  and  O7_7 
REMARK    4  A    between atoms: C5_5  and  C6_6 
ROOT
HETATM    1  C3  UNL     1     -34.094   8.048   5.334  1.00 20.00     0.031 C 
ENDROOT
BRANCH   1   2
HETATM    2  C4  UNL     1     -32.620   8.045   4.945  1.00 20.00     0.167 C 
BRANCH   2   3
HETATM    3  O7  UNL     1     -32.512   8.356   3.562  1.00 20.00    -0.396 OA
HETATM    4  C2  UNL     1     -32.184   7.208   2.793  1.00 20.00     0.201 C 
ENDBRANCH   2   3
ENDBRANCH   1   2
BRANCH   1   5
HETATM    5  C6  UNL     1     -34.626   6.668   5.764  1.00 20.00    -0.003 C 
HETATM    6  C1  UNL     1     -33.574   5.948   6.614  1.00 20.00     0.011 C 
BRANCH   5   7
HETATM    7  C5  UNL     1     -35.112   5.783   4.605  1.00 20.00     0.119 C 
HETATM    8 CL8  UNL     1     -34.056   4.386   4.286  1.00 20.00    -0.130 Cl
ENDBRANCH   5   7
ENDBRANCH   1   5
TORSDOF 4
ENDMDL
MODEL 5
REMARK VINA RESULT:      -3.6      2.376      3.497
REMARK  4 active torsions:
REMARK  status: ('A' for Active; 'I' for Inactive)
REMARK    1  A    between atoms: C3_3  and  C4_4 
REMARK    2  A    between atoms: C3_3  and  C6_6 
REMARK    3  A    between atoms: C4_4  and  O7_7 
REMARK    4  A    between atoms: C5_5  and  C6_6 
ROOT
HETATM    1  C3  UNL     1     -34.329   6.389   4.211  1.00 20.00     0.031 C 
ENDROOT
BRANCH   1   2
HETATM    2  C4  UNL     1     -34.492   4.984   4.778  1.00 20.00     0.167 C 
BRANCH   2   3
HETATM    3  O7  UNL     1     -34.513   5.064   6.198  1.00 20.00    -0.396 OA
HETATM    4  C2  UNL     1     -34.396   6.407   6.646  1.00 20.00     0.201 C 
ENDBRANCH   2   3
ENDBRANCH   1   2
BRANCH   1   5
HETATM    5  C6  UNL     1     -33.309   6.481   3.061  1.00 20.00    -0.003 C 
HETATM    6  C1  UNL     1     -32.824   5.076   2.685  1.00 20.00     0.011 C 
BRANCH   5   7
HETATM    7  C5  UNL     1     -32.128   7.427   3.330  1.00 20.00     0.119 C 
HETATM    8 CL8  UNL     1     -32.442   8.608   4.625  1.00 20.00    -0.130 Cl
ENDBRANCH   5   7
ENDBRANCH   1   5
TORSDOF 4
ENDMDL
MODEL 6
REMARK VINA RESULT:      -3.6      2.154      2.686
REMARK  4 active torsions:
REMARK  status: ('A' for Active; 'I' for Inactive)
REMARK    1  A    between atoms: C3_3  and  C4_4 
REMARK    2  A    between atoms: C3_3  and  C6_6 
REMARK    3  A    between atoms: C4_4  and  O7_7 
REMARK    4  A    between atoms: C5_5  and  C6_6 
ROOT
HETATM    1  C3  UNL     1     -33.536   4.735   3.949  1.00 20.00     0.031 C 
ENDROOT
BRANCH   1   2
HETATM    2  C4  UNL     1     -33.361   5.799   2.872  1.00 20.00     0.167 C 
BRANCH   2   3
HETATM    3  O7  UNL     1     -32.176   6.536   3.147  1.00 20.00    -0.396 OA
HETATM    4  C2  UNL     1     -32.472   7.862   3.562  1.00 20.00     0.201 C 
ENDBRANCH   2   3
ENDBRANCH   1   2
BRANCH   1   5
HETATM    5  C6  UNL     1     -34.726   4.995   4.892  1.00 20.00    -0.003 C 
HETATM    6  C1  UNL     1     -35.653   6.050   4.278  1.00 20.00     0.011 C 
BRANCH   5   7
HETATM    7  C5  UNL     1     -34.331   5.365   6.330  1.00 20.00     0.119 C 
HETATM    8 CL8  UNL     1     -34.210   7.119   6.606  1.00 20.00    -0.130 Cl
ENDBRANCH   5   7
ENDBRANCH   1   5
TORSDOF 4
ENDMDL
MODEL 7
REMARK VINA RESULT:      -3.4      2.261      3.261
REMARK  4 active torsions:
REMARK  status: ('A' for Active; 'I' for Inactive)
REMARK    1  A    between atoms: C3_3  and  C4_4 
REMARK    2  A    between atoms: C3_3  and  C6_6 
REMARK    3  A    between atoms: C4_4  and  O7_7 
REMARK    4  A    between atoms: C5_5  and  C6_6 
ROOT
HETATM    1  C3  UNL     1     -33.763   7.243   3.909  1.00 20.00     0.031 C 
ENDROOT
BRANCH   1   2
HETATM    2  C4  UNL     1     -32.439   7.226   3.155  1.00 20.00     0.167 C 
BRANCH   2   3
HETATM    3  O7  UNL     1     -32.326   5.991   2.458  1.00 20.00    -0.396 OA
HETATM    4  C2  UNL     1     -33.261   5.035   2.937  1.00 20.00     0.201 C 
ENDBRANCH   2   3
ENDBRANCH   1   2
BRANCH   1   5
HETATM    5  C6  UNL     1     -33.701   7.982   5.259  1.00 20.00    -0.003 C 
HETATM    6  C1  UNL     1     -32.468   8.892   5.295  1.00 20.00     0.011 C 
BRANCH   5   7
HETATM    7  C5  UNL     1     -33.755   7.065   6.491  1.00 20.00     0.119 C 
HETATM    8 CL8  UNL     1     -34.728   5.595   6.243  1.00 20.00    -0.130 Cl
ENDBRANCH   5   7
ENDBRANCH   1   5
TORSDOF 4
ENDMDL
MODEL 8
REMARK VINA RESULT:      -3.4      2.237      3.508
REMARK  4 active torsions:
REMARK  status: ('A' for Active; 'I' for Inactive)
REMARK    1  A    between atoms: C3_3  and  C4_4 
REMARK    2  A    between atoms: C3_3  and  C6_6 
REMARK    3  A    between atoms: C4_4  and  O7_7 
REMARK    4  A    between atoms: C5_5  and  C6_6 
ROOT
HETATM    1  C3  UNL     1     -32.359   7.985   4.181  1.00 20.00     0.031 C 
ENDROOT
BRANCH   1   2
HETATM    2  C4  UNL     1     -33.519   8.112   5.162  1.00 20.00     0.167 C 
BRANCH   2   3
HETATM    3  O7  UNL     1     -33.332   7.173   6.214  1.00 20.00    -0.396 OA
HETATM    4  C2  UNL     1     -34.428   6.275   6.312  1.00 20.00     0.201 C 
ENDBRANCH   2   3
ENDBRANCH   1   2
BRANCH   1   5
HETATM    5  C6  UNL     1     -32.772   7.451   2.797  1.00 20.00    -0.003 C 
HETATM    6  C1  UNL     1     -32.737   5.919   2.801  1.00 20.00     0.011 C 
BRANCH   5   7
HETATM    7  C5  UNL     1     -31.962   8.026   1.624  1.00 20.00     0.119 C 
HETATM    8 CL8  UNL     1     -32.732   9.430   0.847  1.00 20.00    -0.130 Cl
ENDBRANCH   5   7
ENDBRANCH   1   5
TORSDOF 4
ENDMDL
MODEL 9
REMARK VINA RESULT:      -3.4      2.310      3.239
REMARK  4 active torsions:
REMARK  status: ('A' for Active; 'I' for Inactive)
REMARK    1  A    between atoms: C3_3  and  C4_4 
REMARK    2  A    between atoms: C3_3  and  C6_6 
REMARK    3  A    between atoms: C4_4  and  O7_7 
REMARK    4  A    between atoms: C5_5  and  C6_6 
ROOT
HETATM    1  C3  UNL     1     -34.272   6.480   4.398  1.00 20.00     0.031 C 
ENDROOT
BRANCH   1   2
HETATM    2  C4  UNL     1     -34.499   4.995   4.658  1.00 20.00     0.167 C 
BRANCH   2   3
HETATM    3  O7  UNL     1     -33.726   4.245   3.731  1.00 20.00    -0.396 OA
HETATM    4  C2  UNL     1     -33.110   5.086   2.766  1.00 20.00     0.201 C 
ENDBRANCH   2   3
ENDBRANCH   1   2
BRANCH   1   5
HETATM    5  C6  UNL     1     -33.410   7.173   5.469  1.00 20.00    -0.003 C 
HETATM    6  C1  UNL     1     -34.206   7.299   6.774  1.00 20.00     0.011 C 
BRANCH   5   7
HETATM    7  C5  UNL     1     -32.824   8.527   5.038  1.00 20.00     0.119 C 
HETATM    8 CL8  UNL     1     -32.564   8.665   3.283  1.00 20.00    -0.130 Cl
ENDBRANCH   5   7
ENDBRANCH   1   5
TORSDOF 4
ENDMDL
