MODEL 1
REMARK VINA RESULT:      -4.4      0.000      0.000
REMARK  2 active torsions:
REMARK  status: ('A' for Active; 'I' for Inactive)
REMARK    1  A    between atoms: C2_2  and  C4_4 
REMARK    2  A    between atoms: C4_4  and  C5_5 
ROOT
HETATM    1  C1  UNL     1     -33.321   7.722   4.988  1.00 20.00    -0.035 C 
HETATM    2  C2  UNL     1     -33.678   7.161   6.154  1.00 20.00    -0.030 C 
HETATM    3  C3  UNL     1     -32.384   8.847   4.828  1.00 20.00     0.036 C 
ENDROOT
BRANCH   2   4
HETATM    4  C4  UNL     1     -34.635   6.009   6.273  1.00 20.00     0.042 C 
BRANCH   4   5
HETATM    5  C5  UNL     1     -35.114   5.499   4.917  1.00 20.00     0.118 C 
HETATM    6 CL6  UNL     1     -33.993   4.295   4.234  1.00 20.00    -0.130 Cl
ENDBRANCH   4   5
ENDBRANCH   2   4
TORSDOF 2
ENDMDL
MODEL 2
REMARK VINA RESULT:      -4.3      0.882      1.162
REMARK  2 active torsions:
REMARK  status: ('A' for Active; 'I' for Inactive)
REMARK    1  A    between atoms: C2_2  and  C4_4 
REMARK    2  A    between atoms: C4_4  and  C5_5 
ROOT
HETATM    1  C1  UNL     1     -32.695   8.071   4.686  1.00 20.00    -0.035 C 
HETATM    2  C2  UNL     1     -33.830   7.437   5.019  1.00 20.00    -0.030 C 
HETATM    3  C3  UNL     1     -32.391   8.654   3.367  1.00 20.00     0.036 C 
ENDROOT
BRANCH   2   4
HETATM    4  C4  UNL     1     -34.103   6.862   6.379  1.00 20.00     0.042 C 
BRANCH   4   5
HETATM    5  C5  UNL     1     -34.569   5.410   6.323  1.00 20.00     0.118 C 
HETATM    6 CL6  UNL     1     -34.481   4.755   4.669  1.00 20.00    -0.130 Cl
ENDBRANCH   4   5
ENDBRANCH   2   4
TORSDOF 2
ENDMDL
MODEL 3
REMARK VINA RESULT:      -4.2      1.709      3.357
REMARK  2 active torsions:
REMARK  status: ('A' for Active; 'I' for Inactive)
REMARK    1  A    between atoms: C2_2  and  C4_4 
REMARK    2  A    between atoms: C4_4  and  C5_5 
ROOT
HETATM    1  C1  UNL     1     -34.463   6.219   5.516  1.00 20.00    -0.035 C 
HETATM    2  C2  UNL     1     -33.727   7.269   5.914  1.00 20.00    -0.030 C 
HETATM    3  C3  UNL     1     -34.705   4.994   6.298  1.00 20.00     0.036 C 
ENDROOT
BRANCH   2   4
HETATM    4  C4  UNL     1     -33.510   8.503   5.087  1.00 20.00     0.042 C 
BRANCH   4   5
HETATM    5  C5  UNL     1     -32.171   8.494   4.354  1.00 20.00     0.118 C 
HETATM    6 CL6  UNL     1     -32.196   7.392   2.954  1.00 20.00    -0.130 Cl
ENDBRANCH   4   5
ENDBRANCH   2   4
TORSDOF 2
ENDMDL
MODEL 4
REMARK VINA RESULT:      -3.9      2.305      3.510
REMARK  2 active torsions:
REMARK  status: ('A' for Active; 'I' for Inactive)
REMARK    1  A    between atoms: C2_2  and  C4_4 
REMARK    2  A    between atoms: C4_4  and  C5_5 
ROOT
HETATM    1  C1  UNL     1     -34.075   6.418   5.241  1.00 20.00    -0.035 C 
HETATM    2  C2  UNL     1     -33.477   7.612   5.379  1.00 20.00    -0.030 C 
HETATM    3  C3  UNL     1     -34.750   5.667   6.314  1.00 20.00     0.036 C 
ENDROOT
BRANCH   2   4
HETATM    4  C4  UNL     1     -32.803   8.347   4.256  1.00 20.00     0.042 C 
BRANCH   4   5
HETATM    5  C5  UNL     1     -32.163   7.409   3.237  1.00 20.00     0.118 C 
HETATM    6 CL6  UNL     1     -32.184   8.106   1.598  1.00 20.00    -0.130 Cl
ENDBRANCH   4   5
ENDBRANCH   2   4
TORSDOF 2
ENDMDL
MODEL 5
REMARK VINA RESULT:      -3.8      2.404      3.112
REMARK  2 active torsions:
REMARK  status: ('A' for Active; 'I' for Inactive)
REMARK    1  A    between atoms: C2_2  and  C4_4 
REMARK    2  A    between atoms: C4_4  and  C5_5 
ROOT
HETATM    1  C1  UNL     1     -33.510   5.658   3.646  1.00 20.00    -0.035 C 
HETATM    2  C2  UNL     1     -34.384   5.130   4.517  1.00 20.00    -0.030 C 
HETATM    3  C3  UNL     1     -32.983   4.986   2.445  1.00 20.00     0.036 C 
ENDROOT
BRANCH   2   4
HETATM    4  C4  UNL     1     -34.901   5.853   5.728  1.00 20.00     0.042 C 
BRANCH   4   5
HETATM    5  C5  UNL     1     -33.860   6.778   6.351  1.00 20.00     0.118 C 
HETATM    6 CL6  UNL     1     -33.790   8.348   5.512  1.00 20.00    -0.130 Cl
ENDBRANCH   4   5
ENDBRANCH   2   4
TORSDOF 2
ENDMDL
MODEL 6
REMARK VINA RESULT:      -3.7      1.577      1.723
REMARK  2 active torsions:
REMARK  status: ('A' for Active; 'I' for Inactive)
REMARK    1  A    between atoms: C2_2  and  C4_4 
REMARK    2  A    between atoms: C4_4  and  C5_5 
ROOT
HETATM    1  C1  UNL     1     -32.620   7.803   4.248  1.00 20.00    -0.035 C 
HETATM    2  C2  UNL     1     -33.743   7.126   4.532  1.00 20.00    -0.030 C 
HETATM    3  C3  UNL     1     -32.226   9.097   4.832  1.00 20.00     0.036 C 
ENDROOT
BRANCH   2   4
HETATM    4  C4  UNL     1     -34.105   5.805   3.916  1.00 20.00     0.042 C 
BRANCH   4   5
HETATM    5  C5  UNL     1     -34.547   4.774   4.951  1.00 20.00     0.118 C 
HETATM    6 CL6  UNL     1     -34.620   5.474   6.587  1.00 20.00    -0.130 Cl
ENDBRANCH   4   5
ENDBRANCH   2   4
TORSDOF 2
ENDMDL
MODEL 7
REMARK VINA RESULT:      -3.5      2.417      3.475
REMARK  2 active torsions:
REMARK  status: ('A' for Active; 'I' for Inactive)
REMARK    1  A    between atoms: C2_2  and  C4_4 
REMARK    2  A    between atoms: C4_4  and  C5_5 
ROOT
HETATM    1  C1  UNL     1     -32.920   6.074   3.341  1.00 20.00    -0.035 C 
HETATM    2  C2  UNL     1     -32.330   7.279   3.306  1.00 20.00    -0.030 C 
HETATM    3  C3  UNL     1     -32.924   5.088   2.246  1.00 20.00     0.036 C 
ENDROOT
BRANCH   2   4
HETATM    4  C4  UNL     1     -32.346   8.254   4.448  1.00 20.00     0.042 C 
BRANCH   4   5
HETATM    5  C5  UNL     1     -33.683   8.280   5.183  1.00 20.00     0.118 C 
HETATM    6 CL6  UNL     1     -33.767   7.023   6.442  1.00 20.00    -0.130 Cl
ENDBRANCH   4   5
ENDBRANCH   2   4
TORSDOF 2
ENDMDL
MODEL 8
REMARK VINA RESULT:      -3.5      2.165      2.595
REMARK  2 active torsions:
REMARK  status: ('A' for Active; 'I' for Inactive)
REMARK    1  A    between atoms: C2_2  and  C4_4 
REMARK    2  A    between atoms: C4_4  and  C5_5 
ROOT
HETATM    1  C1  UNL     1     -32.438   7.593   2.817  1.00 20.00    -0.035 C 
HETATM    2  C2  UNL     1     -32.723   8.318   3.909  1.00 20.00    -0.030 C 
HETATM    3  C3  UNL     1     -31.966   8.131   1.529  1.00 20.00     0.036 C 
ENDROOT
BRANCH   2   4
HETATM    4  C4  UNL     1     -33.198   7.729   5.207  1.00 20.00     0.042 C 
BRANCH   4   5
HETATM    5  C5  UNL     1     -34.201   6.596   5.008  1.00 20.00     0.118 C 
HETATM    6 CL6  UNL     1     -34.570   5.768   6.542  1.00 20.00    -0.130 Cl
ENDBRANCH   4   5
ENDBRANCH   2   4
TORSDOF 2
ENDMDL
MODEL 9
REMARK VINA RESULT:      -3.4      1.746      2.202
REMARK  2 active torsions:
REMARK  status: ('A' for Active; 'I' for Inactive)
REMARK    1  A    between atoms: C2_2  and  C4_4 
REMARK    2  A    between atoms: C4_4  and  C5_5 
ROOT
HETATM    1  C1  UNL     1     -32.767   7.614   4.472  1.00 20.00    -0.035 C 
HETATM    2  C2  UNL     1     -32.707   6.978   3.292  1.00 20.00    -0.030 C 
HETATM    3  C3  UNL     1     -32.294   8.985   4.734  1.00 20.00     0.036 C 
ENDROOT
BRANCH   2   4
HETATM    4  C4  UNL     1     -33.206   5.580   3.066  1.00 20.00     0.042 C 
BRANCH   4   5
HETATM    5  C5  UNL     1     -33.976   5.028   4.263  1.00 20.00     0.118 C 
HETATM    6 CL6  UNL     1     -35.560   5.822   4.448  1.00 20.00    -0.130 Cl
ENDBRANCH   4   5
ENDBRANCH   2   4
TORSDOF 2
ENDMDL
