MODEL 1
REMARK VINA RESULT:      -4.4      0.000      0.000
REMARK  2 active torsions:
REMARK  status: ('A' for Active; 'I' for Inactive)
REMARK    1  A    between atoms: C1_1  and  C6_6 
REMARK    2  A    between atoms: C2_2  and  C7_7 
ROOT
HETATM    1  C1  UNL     1     -33.167   7.868   5.237  1.00 20.00    -0.015 C 
HETATM    2  C2  UNL     1     -33.581   6.839   4.480  1.00 20.00    -0.021 C 
ENDROOT
BRANCH   2   3
HETATM    3  C7  UNL     1     -34.472   5.678   4.899  1.00 20.00    -0.034 C 
HETATM    4  C3  UNL     1     -35.876   5.914   4.314  1.00 20.00     0.018 C 
HETATM    5  C4  UNL     1     -33.975   4.298   4.432  1.00 20.00     0.018 C 
HETATM    6  C5  UNL     1     -34.562   5.670   6.436  1.00 20.00     0.018 C 
ENDBRANCH   2   3
BRANCH   1   7
HETATM    7  C6  UNL     1     -32.294   8.967   4.723  1.00 20.00     0.141 C 
HETATM    8 CL8  UNL     1     -32.516   9.145   2.969  1.00 20.00    -0.126 Cl
ENDBRANCH   1   7
TORSDOF 2
ENDMDL
MODEL 2
REMARK VINA RESULT:      -4.4      0.097      1.516
REMARK  2 active torsions:
REMARK  status: ('A' for Active; 'I' for Inactive)
REMARK    1  A    between atoms: C1_1  and  C6_6 
REMARK    2  A    between atoms: C2_2  and  C7_7 
ROOT
HETATM    1  C1  UNL     1     -33.239   7.875   5.197  1.00 20.00    -0.015 C 
HETATM    2  C2  UNL     1     -33.555   6.773   4.498  1.00 20.00    -0.021 C 
ENDROOT
BRANCH   2   3
HETATM    3  C7  UNL     1     -34.487   5.645   4.917  1.00 20.00    -0.034 C 
HETATM    4  C3  UNL     1     -33.944   4.330   4.330  1.00 20.00     0.018 C 
HETATM    5  C4  UNL     1     -34.631   5.476   6.440  1.00 20.00     0.018 C 
HETATM    6  C5  UNL     1     -35.879   5.925   4.323  1.00 20.00     0.018 C 
ENDBRANCH   2   3
BRANCH   1   7
HETATM    7  C6  UNL     1     -32.313   8.934   4.689  1.00 20.00     0.141 C 
HETATM    8 CL8  UNL     1     -32.492   9.098   2.928  1.00 20.00    -0.126 Cl
ENDBRANCH   1   7
TORSDOF 2
ENDMDL
MODEL 3
REMARK VINA RESULT:      -4.3      0.072      1.534
REMARK  2 active torsions:
REMARK  status: ('A' for Active; 'I' for Inactive)
REMARK    1  A    between atoms: C1_1  and  C6_6 
REMARK    2  A    between atoms: C2_2  and  C7_7 
ROOT
HETATM    1  C1  UNL     1     -33.229   7.886   5.192  1.00 20.00    -0.015 C 
HETATM    2  C2  UNL     1     -33.576   6.807   4.471  1.00 20.00    -0.021 C 
ENDROOT
BRANCH   2   3
HETATM    3  C7  UNL     1     -34.521   5.685   4.877  1.00 20.00    -0.034 C 
HETATM    4  C3  UNL     1     -34.592   5.648   6.414  1.00 20.00     0.018 C 
HETATM    5  C4  UNL     1     -35.951   5.832   4.326  1.00 20.00     0.018 C 
HETATM    6  C5  UNL     1     -33.936   4.355   4.368  1.00 20.00     0.018 C 
ENDBRANCH   2   3
BRANCH   1   7
HETATM    7  C6  UNL     1     -32.294   8.940   4.696  1.00 20.00     0.141 C 
HETATM    8 CL8  UNL     1     -32.455   9.109   2.934  1.00 20.00    -0.126 Cl
ENDBRANCH   1   7
TORSDOF 2
ENDMDL
MODEL 4
REMARK VINA RESULT:      -3.5     12.124     12.957
REMARK  2 active torsions:
REMARK  status: ('A' for Active; 'I' for Inactive)
REMARK    1  A    between atoms: C1_1  and  C6_6 
REMARK    2  A    between atoms: C2_2  and  C7_7 
ROOT
HETATM    1  C1  UNL     1     -33.377  16.463  -3.532  1.00 20.00    -0.015 C 
HETATM    2  C2  UNL     1     -33.374  16.693  -2.209  1.00 20.00    -0.021 C 
ENDROOT
BRANCH   2   3
HETATM    3  C7  UNL     1     -33.644  18.011  -1.496  1.00 20.00    -0.034 C 
HETATM    4  C3  UNL     1     -34.935  18.616  -2.076  1.00 20.00     0.018 C 
HETATM    5  C4  UNL     1     -33.808  17.882   0.029  1.00 20.00     0.018 C 
HETATM    6  C5  UNL     1     -32.469  18.963  -1.782  1.00 20.00     0.018 C 
ENDBRANCH   2   3
BRANCH   1   7
HETATM    7  C6  UNL     1     -33.105  15.122  -4.134  1.00 20.00     0.141 C 
HETATM    8 CL8  UNL     1     -34.631  14.237  -4.349  1.00 20.00    -0.126 Cl
ENDBRANCH   1   7
TORSDOF 2
ENDMDL
MODEL 5
REMARK VINA RESULT:      -3.4     12.118     13.038
REMARK  2 active torsions:
REMARK  status: ('A' for Active; 'I' for Inactive)
REMARK    1  A    between atoms: C1_1  and  C6_6 
REMARK    2  A    between atoms: C2_2  and  C7_7 
ROOT
HETATM    1  C1  UNL     1     -33.561  16.479  -3.514  1.00 20.00    -0.015 C 
HETATM    2  C2  UNL     1     -33.291  16.824  -2.244  1.00 20.00    -0.021 C 
ENDROOT
BRANCH   2   3
HETATM    3  C7  UNL     1     -33.637  18.131  -1.545  1.00 20.00    -0.034 C 
HETATM    4  C3  UNL     1     -32.467  19.110  -1.750  1.00 20.00     0.018 C 
HETATM    5  C4  UNL     1     -34.927  18.799  -2.054  1.00 20.00     0.018 C 
HETATM    6  C5  UNL     1     -33.796  17.845  -0.040  1.00 20.00     0.018 C 
ENDBRANCH   2   3
BRANCH   1   7
HETATM    7  C6  UNL     1     -33.183  15.159  -4.105  1.00 20.00     0.141 C 
HETATM    8 CL8  UNL     1     -34.637  14.164  -4.339  1.00 20.00    -0.126 Cl
ENDBRANCH   1   7
TORSDOF 2
ENDMDL
MODEL 6
REMARK VINA RESULT:      -3.3      9.030      9.736
REMARK  2 active torsions:
REMARK  status: ('A' for Active; 'I' for Inactive)
REMARK    1  A    between atoms: C1_1  and  C6_6 
REMARK    2  A    between atoms: C2_2  and  C7_7 
ROOT
HETATM    1  C1  UNL     1     -39.634  12.425   6.246  1.00 20.00    -0.015 C 
HETATM    2  C2  UNL     1     -40.812  12.821   5.739  1.00 20.00    -0.021 C 
ENDROOT
BRANCH   2   3
HETATM    3  C7  UNL     1     -42.041  13.289   6.505  1.00 20.00    -0.034 C 
HETATM    4  C3  UNL     1     -42.910  14.131   5.554  1.00 20.00     0.018 C 
HETATM    5  C4  UNL     1     -42.905  12.147   7.072  1.00 20.00     0.018 C 
HETATM    6  C5  UNL     1     -41.573  14.174   7.675  1.00 20.00     0.018 C 
ENDBRANCH   2   3
BRANCH   1   7
HETATM    7  C6  UNL     1     -38.480  11.989   5.401  1.00 20.00     0.141 C 
HETATM    8 CL8  UNL     1     -39.027  11.700   3.735  1.00 20.00    -0.126 Cl
ENDBRANCH   1   7
TORSDOF 2
ENDMDL
MODEL 7
REMARK VINA RESULT:      -3.3      9.124      9.910
REMARK  2 active torsions:
REMARK  status: ('A' for Active; 'I' for Inactive)
REMARK    1  A    between atoms: C1_1  and  C6_6 
REMARK    2  A    between atoms: C2_2  and  C7_7 
ROOT
HETATM    1  C1  UNL     1     -39.732  12.458   6.200  1.00 20.00    -0.015 C 
HETATM    2  C2  UNL     1     -40.832  12.992   5.647  1.00 20.00    -0.021 C 
ENDROOT
BRANCH   2   3
HETATM    3  C7  UNL     1     -42.088  13.475   6.359  1.00 20.00    -0.034 C 
HETATM    4  C3  UNL     1     -41.665  14.451   7.471  1.00 20.00     0.018 C 
HETATM    5  C4  UNL     1     -43.100  14.188   5.444  1.00 20.00     0.018 C 
HETATM    6  C5  UNL     1     -42.779  12.256   6.996  1.00 20.00     0.018 C 
ENDBRANCH   2   3
BRANCH   1   7
HETATM    7  C6  UNL     1     -38.542  12.021   5.407  1.00 20.00     0.141 C 
HETATM    8 CL8  UNL     1     -39.024  11.695   3.727  1.00 20.00    -0.126 Cl
ENDBRANCH   1   7
TORSDOF 2
ENDMDL
MODEL 8
REMARK VINA RESULT:      -3.3     12.396     13.081
REMARK  2 active torsions:
REMARK  status: ('A' for Active; 'I' for Inactive)
REMARK    1  A    between atoms: C1_1  and  C6_6 
REMARK    2  A    between atoms: C2_2  and  C7_7 
ROOT
HETATM    1  C1  UNL     1     -31.951  18.556   0.518  1.00 20.00    -0.015 C 
HETATM    2  C2  UNL     1     -31.915  18.314  -0.802  1.00 20.00    -0.021 C 
ENDROOT
BRANCH   2   3
HETATM    3  C7  UNL     1     -33.095  18.205  -1.757  1.00 20.00    -0.034 C 
HETATM    4  C3  UNL     1     -32.827  19.127  -2.960  1.00 20.00     0.018 C 
HETATM    5  C4  UNL     1     -33.353  16.781  -2.283  1.00 20.00     0.018 C 
HETATM    6  C5  UNL     1     -34.357  18.690  -1.022  1.00 20.00     0.018 C 
ENDBRANCH   2   3
BRANCH   1   7
HETATM    7  C6  UNL     1     -30.726  18.652   1.370  1.00 20.00     0.141 C 
HETATM    8 CL8  UNL     1     -31.190  18.790   3.080  1.00 20.00    -0.126 Cl
ENDBRANCH   1   7
TORSDOF 2
ENDMDL
MODEL 9
REMARK VINA RESULT:      -3.3      2.398      4.202
REMARK  2 active torsions:
REMARK  status: ('A' for Active; 'I' for Inactive)
REMARK    1  A    between atoms: C1_1  and  C6_6 
REMARK    2  A    between atoms: C2_2  and  C7_7 
ROOT
HETATM    1  C1  UNL     1     -34.009   6.183   4.185  1.00 20.00    -0.015 C 
HETATM    2  C2  UNL     1     -33.741   7.472   4.448  1.00 20.00    -0.021 C 
ENDROOT
BRANCH   2   3
HETATM    3  C7  UNL     1     -32.672   8.346   3.808  1.00 20.00    -0.034 C 
HETATM    4  C3  UNL     1     -31.640   7.426   3.131  1.00 20.00     0.018 C 
HETATM    5  C4  UNL     1     -33.209   9.334   2.756  1.00 20.00     0.018 C 
HETATM    6  C5  UNL     1     -31.976   9.149   4.922  1.00 20.00     0.018 C 
ENDBRANCH   2   3
BRANCH   1   7
HETATM    7  C6  UNL     1     -35.093   5.413   4.869  1.00 20.00     0.141 C 
HETATM    8 CL8  UNL     1     -34.800   5.384   6.621  1.00 20.00    -0.126 Cl
ENDBRANCH   1   7
TORSDOF 2
ENDMDL
