MODEL 1
REMARK VINA RESULT:      -3.5      0.000      0.000
REMARK  3 active torsions:
REMARK  status: ('A' for Active; 'I' for Inactive)
REMARK    1  A    between atoms: C4_4  and  O9_9 
REMARK    2  A    between atoms: C6_6  and  C7_7 
REMARK    3  A    between atoms: C6_6  and  N8_8 
ROOT
HETATM    1  C1  UNL     1     -34.011   7.591   5.193  1.00 20.00     0.064 C 
HETATM    2  C2  UNL     1     -32.576   8.078   5.038  1.00 20.00     0.275 C 
HETATM    3  C3  UNL     1     -32.805   6.391   3.462  1.00 20.00     0.304 C 
HETATM    4  C4  UNL     1     -34.130   6.426   4.217  1.00 20.00     0.150 C 
HETATM    5  N8  UNL     1     -32.169   7.698   3.679  1.00 20.00     0.092 N 
ENDROOT
BRANCH   5   6
HETATM    6  C6  UNL     1     -32.612   8.681   2.689  1.00 20.00     0.287 C 
BRANCH   6   7
HETATM    7  C7  UNL     1     -32.182   8.322   1.278  1.00 20.00     0.144 C 
HETATM    8 CL10 UNL     1     -32.896   9.431   0.081  1.00 20.00    -0.129 Cl
ENDBRANCH   6   7
ENDBRANCH   5   6
BRANCH   4   9
HETATM    9  O9  UNL     1     -34.321   5.204   4.911  1.00 20.00    -0.389 OA
HETATM   10  C5  UNL     1     -34.654   5.424   6.274  1.00 20.00     0.202 C 
ENDBRANCH   4   9
TORSDOF 3
ENDMDL
MODEL 2
REMARK VINA RESULT:      -3.5     11.560     12.529
REMARK  3 active torsions:
REMARK  status: ('A' for Active; 'I' for Inactive)
REMARK    1  A    between atoms: C4_4  and  O9_9 
REMARK    2  A    between atoms: C6_6  and  C7_7 
REMARK    3  A    between atoms: C6_6  and  N8_8 
ROOT
HETATM    1  C1  UNL     1     -34.960  14.137  -4.624  1.00 20.00     0.064 C 
HETATM    2  C2  UNL     1     -33.567  14.744  -4.531  1.00 20.00     0.275 C 
HETATM    3  C3  UNL     1     -34.759  16.199  -5.890  1.00 20.00     0.304 C 
HETATM    4  C4  UNL     1     -35.715  15.049  -5.585  1.00 20.00     0.150 C 
HETATM    5  N8  UNL     1     -33.730  16.171  -4.842  1.00 20.00     0.092 N 
ENDROOT
BRANCH   5   6
HETATM    6  C6  UNL     1     -34.142  16.934  -3.663  1.00 20.00     0.287 C 
BRANCH   6   7
HETATM    7  C7  UNL     1     -33.300  16.619  -2.440  1.00 20.00     0.144 C 
HETATM    8 CL10 UNL     1     -33.839  17.554  -1.023  1.00 20.00    -0.129 Cl
ENDBRANCH   6   7
ENDBRANCH   5   6
BRANCH   4   9
HETATM    9  O9  UNL     1     -36.037  14.362  -6.784  1.00 20.00    -0.389 OA
HETATM   10  C5  UNL     1     -35.985  15.225  -7.911  1.00 20.00     0.202 C 
ENDBRANCH   4   9
TORSDOF 3
ENDMDL
MODEL 3
REMARK VINA RESULT:      -3.2     11.498     12.337
REMARK  3 active torsions:
REMARK  status: ('A' for Active; 'I' for Inactive)
REMARK    1  A    between atoms: C4_4  and  O9_9 
REMARK    2  A    between atoms: C6_6  and  C7_7 
REMARK    3  A    between atoms: C6_6  and  N8_8 
ROOT
HETATM    1  C1  UNL     1     -34.650  18.275  -3.663  1.00 20.00     0.064 C 
HETATM    2  C2  UNL     1     -34.759  18.401  -2.150  1.00 20.00     0.275 C 
HETATM    3  C3  UNL     1     -33.272  16.654  -2.494  1.00 20.00     0.304 C 
HETATM    4  C4  UNL     1     -33.740  17.072  -3.885  1.00 20.00     0.150 C 
HETATM    5  N8  UNL     1     -33.535  17.796  -1.608  1.00 20.00     0.092 N 
ENDROOT
BRANCH   5   6
HETATM    6  C6  UNL     1     -32.420  18.744  -1.608  1.00 20.00     0.287 C 
BRANCH   6   7
HETATM    7  C7  UNL     1     -31.448  18.501  -0.467  1.00 20.00     0.144 C 
HETATM    8 CL10 UNL     1     -32.280  18.513   1.107  1.00 20.00    -0.129 Cl
ENDBRANCH   6   7
ENDBRANCH   5   6
BRANCH   4   9
HETATM    9  O9  UNL     1     -34.452  16.006  -4.493  1.00 20.00    -0.389 OA
HETATM   10  C5  UNL     1     -33.834  14.752  -4.237  1.00 20.00     0.202 C 
ENDBRANCH   4   9
TORSDOF 3
ENDMDL
MODEL 4
REMARK VINA RESULT:      -3.2     11.748     12.676
REMARK  3 active torsions:
REMARK  status: ('A' for Active; 'I' for Inactive)
REMARK    1  A    between atoms: C4_4  and  O9_9 
REMARK    2  A    between atoms: C6_6  and  C7_7 
REMARK    3  A    between atoms: C6_6  and  N8_8 
ROOT
HETATM    1  C1  UNL     1     -33.130  15.691  -3.740  1.00 20.00     0.064 C 
HETATM    2  C2  UNL     1     -34.018  14.580  -4.282  1.00 20.00     0.275 C 
HETATM    3  C3  UNL     1     -35.119  16.545  -4.838  1.00 20.00     0.304 C 
HETATM    4  C4  UNL     1     -33.898  16.976  -4.031  1.00 20.00     0.150 C 
HETATM    5  N8  UNL     1     -34.828  15.196  -5.342  1.00 20.00     0.092 N 
ENDROOT
BRANCH   5   6
HETATM    6  C6  UNL     1     -34.106  15.241  -6.614  1.00 20.00     0.287 C 
BRANCH   6   7
HETATM    7  C7  UNL     1     -34.812  16.092  -7.655  1.00 20.00     0.144 C 
HETATM    8 CL10 UNL     1     -33.964  17.636  -7.915  1.00 20.00    -0.129 Cl
ENDBRANCH   6   7
ENDBRANCH   5   6
BRANCH   4   9
HETATM    9  O9  UNL     1     -34.314  17.599  -2.826  1.00 20.00    -0.389 OA
HETATM   10  C5  UNL     1     -33.527  17.178  -1.722  1.00 20.00     0.202 C 
ENDBRANCH   4   9
TORSDOF 3
ENDMDL
MODEL 5
REMARK VINA RESULT:      -3.1     12.337     13.153
REMARK  3 active torsions:
REMARK  status: ('A' for Active; 'I' for Inactive)
REMARK    1  A    between atoms: C4_4  and  O9_9 
REMARK    2  A    between atoms: C6_6  and  C7_7 
REMARK    3  A    between atoms: C6_6  and  N8_8 
ROOT
HETATM    1  C1  UNL     1     -35.770  14.622  -6.152  1.00 20.00     0.064 C 
HETATM    2  C2  UNL     1     -34.436  15.294  -6.447  1.00 20.00     0.275 C 
HETATM    3  C3  UNL     1     -35.714  16.935  -5.418  1.00 20.00     0.304 C 
HETATM    4  C4  UNL     1     -36.635  15.726  -5.554  1.00 20.00     0.150 C 
HETATM    5  N8  UNL     1     -34.340  16.422  -5.510  1.00 20.00     0.092 N 
ENDROOT
BRANCH   5   6
HETATM    6  C6  UNL     1     -33.837  15.995  -4.203  1.00 20.00     0.287 C 
BRANCH   6   7
HETATM    7  C7  UNL     1     -33.266  17.145  -3.394  1.00 20.00     0.144 C 
HETATM    8 CL10 UNL     1     -33.593  16.941  -1.656  1.00 20.00    -0.129 Cl
ENDBRANCH   6   7
ENDBRANCH   5   6
BRANCH   4   9
HETATM    9  O9  UNL     1     -37.717  16.042  -6.416  1.00 20.00    -0.389 OA
HETATM   10  C5  UNL     1     -38.747  16.736  -5.728  1.00 20.00     0.202 C 
ENDBRANCH   4   9
TORSDOF 3
ENDMDL
MODEL 6
REMARK VINA RESULT:      -3.0     11.573     12.164
REMARK  3 active torsions:
REMARK  status: ('A' for Active; 'I' for Inactive)
REMARK    1  A    between atoms: C4_4  and  O9_9 
REMARK    2  A    between atoms: C6_6  and  C7_7 
REMARK    3  A    between atoms: C6_6  and  N8_8 
ROOT
HETATM    1  C1  UNL     1     -34.846  18.821  -1.637  1.00 20.00     0.064 C 
HETATM    2  C2  UNL     1     -34.072  19.212  -2.889  1.00 20.00     0.275 C 
HETATM    3  C3  UNL     1     -32.740  17.630  -1.837  1.00 20.00     0.304 C 
HETATM    4  C4  UNL     1     -33.929  17.847  -0.906  1.00 20.00     0.150 C 
HETATM    5  N8  UNL     1     -33.165  18.090  -3.166  1.00 20.00     0.092 N 
ENDROOT
BRANCH   5   6
HETATM    6  C6  UNL     1     -33.838  17.026  -3.912  1.00 20.00     0.287 C 
BRANCH   6   7
HETATM    7  C7  UNL     1     -33.122  15.691  -3.799  1.00 20.00     0.144 C 
HETATM    8 CL10 UNL     1     -34.231  14.332  -4.109  1.00 20.00    -0.129 Cl
ENDBRANCH   6   7
ENDBRANCH   5   6
BRANCH   4   9
HETATM    9  O9  UNL     1     -33.483  18.399   0.323  1.00 20.00    -0.389 OA
HETATM   10  C5  UNL     1     -32.075  18.589   0.329  1.00 20.00     0.202 C 
ENDBRANCH   4   9
TORSDOF 3
ENDMDL
MODEL 7
REMARK VINA RESULT:      -3.0     10.082     10.895
REMARK  3 active torsions:
REMARK  status: ('A' for Active; 'I' for Inactive)
REMARK    1  A    between atoms: C4_4  and  O9_9 
REMARK    2  A    between atoms: C6_6  and  C7_7 
REMARK    3  A    between atoms: C6_6  and  N8_8 
ROOT
HETATM    1  C1  UNL     1     -42.794  13.624   7.440  1.00 20.00     0.064 C 
HETATM    2  C2  UNL     1     -42.392  13.688   5.973  1.00 20.00     0.275 C 
HETATM    3  C3  UNL     1     -40.492  14.333   7.138  1.00 20.00     0.304 C 
HETATM    4  C4  UNL     1     -41.571  14.130   8.198  1.00 20.00     0.150 C 
HETATM    5  N8  UNL     1     -40.927  13.580   5.954  1.00 20.00     0.092 N 
ENDROOT
BRANCH   5   6
HETATM    6  C6  UNL     1     -40.490  12.185   6.014  1.00 20.00     0.287 C 
BRANCH   6   7
HETATM    7  C7  UNL     1     -39.037  12.010   5.606  1.00 20.00     0.144 C 
HETATM    8 CL10 UNL     1     -38.891  11.656   3.867  1.00 20.00    -0.129 Cl
ENDBRANCH   6   7
ENDBRANCH   5   6
BRANCH   4   9
HETATM    9  O9  UNL     1     -41.851  15.364   8.841  1.00 20.00    -0.389 OA
HETATM   10  C5  UNL     1     -40.801  16.302   8.650  1.00 20.00     0.202 C 
ENDBRANCH   4   9
TORSDOF 3
ENDMDL
MODEL 8
REMARK VINA RESULT:      -3.0     12.983     13.839
REMARK  3 active torsions:
REMARK  status: ('A' for Active; 'I' for Inactive)
REMARK    1  A    between atoms: C4_4  and  O9_9 
REMARK    2  A    between atoms: C6_6  and  C7_7 
REMARK    3  A    between atoms: C6_6  and  N8_8 
ROOT
HETATM    1  C1  UNL     1     -26.864  -0.526  11.486  1.00 20.00     0.064 C 
HETATM    2  C2  UNL     1     -26.127  -1.555  12.332  1.00 20.00     0.275 C 
HETATM    3  C3  UNL     1     -27.035  -2.770  10.576  1.00 20.00     0.304 C 
HETATM    4  C4  UNL     1     -27.531  -1.340  10.382  1.00 20.00     0.150 C 
HETATM    5  N8  UNL     1     -25.846  -2.684  11.434  1.00 20.00     0.092 N 
ENDROOT
BRANCH   5   6
HETATM    6  C6  UNL     1     -24.632  -2.457  10.649  1.00 20.00     0.287 C 
BRANCH   6   7
HETATM    7  C7  UNL     1     -24.296  -3.630   9.744  1.00 20.00     0.144 C 
HETATM    8 CL10 UNL     1     -23.539  -3.082   8.228  1.00 20.00    -0.129 Cl
ENDBRANCH   6   7
ENDBRANCH   5   6
BRANCH   4   9
HETATM    9  O9  UNL     1     -28.943  -1.299  10.508  1.00 20.00    -0.389 OA
HETATM   10  C5  UNL     1     -29.460  -2.532  10.989  1.00 20.00     0.202 C 
ENDBRANCH   4   9
TORSDOF 3
ENDMDL
MODEL 9
REMARK VINA RESULT:      -3.0     11.547     12.258
REMARK  3 active torsions:
REMARK  status: ('A' for Active; 'I' for Inactive)
REMARK    1  A    between atoms: C4_4  and  O9_9 
REMARK    2  A    between atoms: C6_6  and  C7_7 
REMARK    3  A    between atoms: C6_6  and  N8_8 
ROOT
HETATM    1  C1  UNL     1     -33.942  19.213  -2.303  1.00 20.00     0.064 C 
HETATM    2  C2  UNL     1     -33.081  18.782  -3.482  1.00 20.00     0.275 C 
HETATM    3  C3  UNL     1     -33.310  16.872  -2.185  1.00 20.00     0.304 C 
HETATM    4  C4  UNL     1     -34.018  17.979  -1.410  1.00 20.00     0.150 C 
HETATM    5  N8  UNL     1     -33.237  17.324  -3.581  1.00 20.00     0.092 N 
ENDROOT
BRANCH   5   6
HETATM    6  C6  UNL     1     -34.443  16.962  -4.326  1.00 20.00     0.287 C 
BRANCH   6   7
HETATM    7  C7  UNL     1     -34.237  15.748  -5.215  1.00 20.00     0.144 C 
HETATM    8 CL10 UNL     1     -34.511  14.234  -4.318  1.00 20.00    -0.129 Cl
ENDBRANCH   6   7
ENDBRANCH   5   6
BRANCH   4   9
HETATM    9  O9  UNL     1     -33.351  18.205  -0.178  1.00 20.00    -0.389 OA
HETATM   10  C5  UNL     1     -34.237  18.714   0.809  1.00 20.00     0.202 C 
ENDBRANCH   4   9
TORSDOF 3
ENDMDL
