MODEL 1
REMARK VINA RESULT:      -4.9      0.000      0.000
REMARK  3 active torsions:
REMARK  status: ('A' for Active; 'I' for Inactive)
REMARK    1  A    between atoms: C1_1  and  C3_3 
REMARK    2  A    between atoms: C2_2  and  C6_6 
REMARK    3  A    between atoms: C3_3  and  O10_10 
ROOT
HETATM    1  C1  UNL     1     -33.840   6.634   4.722  1.00 20.00     0.014 C 
HETATM    2  C2  UNL     1     -33.068   6.523   3.614  1.00 20.00    -0.067 C 
HETATM    3  C7  UNL     1     -33.890   7.821   5.642  1.00 20.00     0.056 C 
HETATM    4  C8  UNL     1     -33.054   5.343   2.700  1.00 20.00     0.044 C 
ENDROOT
BRANCH   1   5
HETATM    5  C3  UNL     1     -34.760   5.518   5.064  1.00 20.00     0.171 C 
HETATM    6  O9  UNL     1     -34.487   4.560   5.768  1.00 20.00    -0.646 OA
BRANCH   5   7
HETATM    7  O10 UNL     1     -35.960   5.720   4.470  1.00 20.00    -0.773 OA
HETATM    8  H22 UNL     1     -35.894   5.696   3.492  1.00 20.00     0.167 HD
ENDBRANCH   5   7
ENDBRANCH   1   5
BRANCH   2   9
HETATM    9  C6  UNL     1     -32.094   7.608   3.209  1.00 20.00     0.015 A 
HETATM   10  C4  UNL     1     -32.039   7.959   1.776  1.00 20.00     0.010 A 
HETATM   11  C5  UNL     1     -32.668   8.894   2.765  1.00 20.00     0.010 A 
ENDBRANCH   2   9
TORSDOF 3
ENDMDL
MODEL 2
REMARK VINA RESULT:      -4.9      0.902      2.093
REMARK  3 active torsions:
REMARK  status: ('A' for Active; 'I' for Inactive)
REMARK    1  A    between atoms: C1_1  and  C3_3 
REMARK    2  A    between atoms: C2_2  and  C6_6 
REMARK    3  A    between atoms: C3_3  and  O10_10 
ROOT
HETATM    1  C1  UNL     1     -33.682   6.022   4.085  1.00 20.00     0.014 C 
HETATM    2  C2  UNL     1     -33.262   7.127   4.747  1.00 20.00    -0.067 C 
HETATM    3  C7  UNL     1     -33.127   5.512   2.785  1.00 20.00     0.056 C 
HETATM    4  C8  UNL     1     -33.812   7.600   6.051  1.00 20.00     0.044 C 
ENDROOT
BRANCH   1   5
HETATM    5  C3  UNL     1     -34.757   5.194   4.692  1.00 20.00     0.171 C 
HETATM    6  O9  UNL     1     -34.589   4.207   5.389  1.00 20.00    -0.646 OA
BRANCH   5   7
HETATM    7  O10 UNL     1     -35.966   5.699   4.350  1.00 20.00    -0.773 OA
HETATM    8  H22 UNL     1     -36.468   6.011   5.133  1.00 20.00     0.167 HD
ENDBRANCH   5   7
ENDBRANCH   1   5
BRANCH   2   9
HETATM    9  C6  UNL     1     -32.186   8.031   4.186  1.00 20.00     0.015 A 
HETATM   10  C4  UNL     1     -32.630   9.157   3.340  1.00 20.00     0.010 A 
HETATM   11  C5  UNL     1     -32.115   9.404   4.726  1.00 20.00     0.010 A 
ENDBRANCH   2   9
TORSDOF 3
ENDMDL
MODEL 3
REMARK VINA RESULT:      -4.7      2.400      4.308
REMARK  3 active torsions:
REMARK  status: ('A' for Active; 'I' for Inactive)
REMARK    1  A    between atoms: C1_1  and  C3_3 
REMARK    2  A    between atoms: C2_2  and  C6_6 
REMARK    3  A    between atoms: C3_3  and  O10_10 
ROOT
HETATM    1  C1  UNL     1     -33.064   6.501   3.418  1.00 20.00     0.014 C 
HETATM    2  C2  UNL     1     -33.830   6.861   4.476  1.00 20.00    -0.067 C 
HETATM    3  C7  UNL     1     -33.103   5.173   2.716  1.00 20.00     0.056 C 
HETATM    4  C8  UNL     1     -33.791   8.197   5.141  1.00 20.00     0.044 C 
ENDROOT
BRANCH   1   5
HETATM    5  C3  UNL     1     -32.121   7.499   2.849  1.00 20.00     0.171 C 
HETATM    6  O9  UNL     1     -32.143   7.932   1.708  1.00 20.00    -0.646 OA
BRANCH   5   7
HETATM    7  O10 UNL     1     -31.219   7.860   3.792  1.00 20.00    -0.773 OA
HETATM    8  H22 UNL     1     -31.317   8.800   4.054  1.00 20.00     0.167 HD
ENDBRANCH   5   7
ENDBRANCH   1   5
BRANCH   2   9
HETATM    9  C6  UNL     1     -34.799   5.896   5.123  1.00 20.00     0.015 A 
HETATM   10  C4  UNL     1     -34.222   4.828   5.964  1.00 20.00     0.010 A 
HETATM   11  C5  UNL     1     -34.950   5.979   6.590  1.00 20.00     0.010 A 
ENDBRANCH   2   9
TORSDOF 3
ENDMDL
MODEL 4
REMARK VINA RESULT:      -4.3      2.448      3.972
REMARK  3 active torsions:
REMARK  status: ('A' for Active; 'I' for Inactive)
REMARK    1  A    between atoms: C1_1  and  C3_3 
REMARK    2  A    between atoms: C2_2  and  C6_6 
REMARK    3  A    between atoms: C3_3  and  O10_10 
ROOT
HETATM    1  C1  UNL     1     -33.398   7.774   4.480  1.00 20.00     0.014 C 
HETATM    2  C2  UNL     1     -33.816   6.507   4.247  1.00 20.00    -0.067 C 
HETATM    3  C7  UNL     1     -33.855   8.658   5.606  1.00 20.00     0.056 C 
HETATM    4  C8  UNL     1     -33.328   5.638   3.136  1.00 20.00     0.044 C 
ENDROOT
BRANCH   1   5
HETATM    5  C3  UNL     1     -32.364   8.358   3.586  1.00 20.00     0.171 C 
HETATM    6  O9  UNL     1     -32.580   9.027   2.588  1.00 20.00    -0.646 OA
BRANCH   5   7
HETATM    7  O10 UNL     1     -31.132   8.032   4.043  1.00 20.00    -0.773 OA
HETATM    8  H22 UNL     1     -31.041   7.069   4.202  1.00 20.00     0.167 HD
ENDBRANCH   5   7
ENDBRANCH   1   5
BRANCH   2   9
HETATM    9  C6  UNL     1     -34.879   5.849   5.101  1.00 20.00     0.015 A 
HETATM   10  C4  UNL     1     -34.541   4.544   5.704  1.00 20.00     0.010 A 
HETATM   11  C5  UNL     1     -34.621   5.776   6.554  1.00 20.00     0.010 A 
ENDBRANCH   2   9
TORSDOF 3
ENDMDL
MODEL 5
REMARK VINA RESULT:      -4.2     12.038     13.486
REMARK  3 active torsions:
REMARK  status: ('A' for Active; 'I' for Inactive)
REMARK    1  A    between atoms: C1_1  and  C3_3 
REMARK    2  A    between atoms: C2_2  and  C6_6 
REMARK    3  A    between atoms: C3_3  and  O10_10 
ROOT
HETATM    1  C1  UNL     1     -34.524  16.321  -5.772  1.00 20.00     0.014 C 
HETATM    2  C2  UNL     1     -34.201  16.062  -4.482  1.00 20.00    -0.067 C 
HETATM    3  C7  UNL     1     -34.872  17.670  -6.337  1.00 20.00     0.056 C 
HETATM    4  C8  UNL     1     -33.834  14.717  -3.950  1.00 20.00     0.044 C 
ENDROOT
BRANCH   1   5
HETATM    5  C3  UNL     1     -34.503  15.203  -6.751  1.00 20.00     0.171 C 
HETATM    6  O9  UNL     1     -35.468  14.541  -7.097  1.00 20.00    -0.646 OA
BRANCH   5   7
HETATM    7  O10 UNL     1     -33.241  15.020  -7.205  1.00 20.00    -0.773 OA
HETATM    8  H22 UNL     1     -33.096  15.453  -8.072  1.00 20.00     0.167 HD
ENDBRANCH   5   7
ENDBRANCH   1   5
BRANCH   2   9
HETATM    9  C6  UNL     1     -34.217  17.143  -3.424  1.00 20.00     0.015 A 
HETATM   10  C4  UNL     1     -33.466  16.876  -2.181  1.00 20.00     0.010 A 
HETATM   11  C5  UNL     1     -32.951  17.865  -3.183  1.00 20.00     0.010 A 
ENDBRANCH   2   9
TORSDOF 3
ENDMDL
MODEL 6
REMARK VINA RESULT:      -4.1     11.917     13.187
REMARK  3 active torsions:
REMARK  status: ('A' for Active; 'I' for Inactive)
REMARK    1  A    between atoms: C1_1  and  C3_3 
REMARK    2  A    between atoms: C2_2  and  C6_6 
REMARK    3  A    between atoms: C3_3  and  O10_10 
ROOT
HETATM    1  C1  UNL     1     -33.997  15.684  -4.506  1.00 20.00     0.014 C 
HETATM    2  C2  UNL     1     -33.704  16.797  -3.791  1.00 20.00    -0.067 C 
HETATM    3  C7  UNL     1     -34.080  14.286  -3.960  1.00 20.00     0.056 C 
HETATM    4  C8  UNL     1     -33.652  18.179  -4.351  1.00 20.00     0.044 C 
ENDROOT
BRANCH   1   5
HETATM    5  C3  UNL     1     -34.309  15.827  -5.952  1.00 20.00     0.171 C 
HETATM    6  O9  UNL     1     -35.322  16.324  -6.417  1.00 20.00    -0.646 OA
BRANCH   5   7
HETATM    7  O10 UNL     1     -33.295  15.315  -6.688  1.00 20.00    -0.773 OA
HETATM    8  H22 UNL     1     -32.440  15.755  -6.493  1.00 20.00     0.167 HD
ENDBRANCH   5   7
ENDBRANCH   1   5
BRANCH   2   9
HETATM    9  C6  UNL     1     -33.358  16.731  -2.320  1.00 20.00     0.015 A 
HETATM   10  C4  UNL     1     -32.560  17.845  -1.768  1.00 20.00     0.010 A 
HETATM   11  C5  UNL     1     -34.015  17.711  -1.431  1.00 20.00     0.010 A 
ENDBRANCH   2   9
TORSDOF 3
ENDMDL
MODEL 7
REMARK VINA RESULT:      -4.1     11.626     12.997
REMARK  3 active torsions:
REMARK  status: ('A' for Active; 'I' for Inactive)
REMARK    1  A    between atoms: C1_1  and  C3_3 
REMARK    2  A    between atoms: C2_2  and  C6_6 
REMARK    3  A    between atoms: C3_3  and  O10_10 
ROOT
HETATM    1  C1  UNL     1     -35.431  16.084  -5.269  1.00 20.00     0.014 C 
HETATM    2  C2  UNL     1     -34.365  15.894  -4.455  1.00 20.00    -0.067 C 
HETATM    3  C7  UNL     1     -35.965  17.414  -5.721  1.00 20.00     0.056 C 
HETATM    4  C8  UNL     1     -33.837  14.561  -4.040  1.00 20.00     0.044 C 
ENDROOT
BRANCH   1   5
HETATM    5  C3  UNL     1     -36.133  14.893  -5.814  1.00 20.00     0.171 C 
HETATM    6  O9  UNL     1     -35.882  14.340  -6.873  1.00 20.00    -0.646 OA
BRANCH   5   7
HETATM    7  O10 UNL     1     -37.106  14.507  -4.956  1.00 20.00    -0.773 OA
HETATM    8  H22 UNL     1     -36.846  14.643  -4.020  1.00 20.00     0.167 HD
ENDBRANCH   5   7
ENDBRANCH   1   5
BRANCH   2   9
HETATM    9  C6  UNL     1     -33.610  17.055  -3.845  1.00 20.00     0.015 A 
HETATM   10  C4  UNL     1     -34.257  17.759  -2.720  1.00 20.00     0.010 A 
HETATM   11  C5  UNL     1     -33.077  16.866  -2.480  1.00 20.00     0.010 A 
ENDBRANCH   2   9
TORSDOF 3
ENDMDL
MODEL 8
REMARK VINA RESULT:      -4.0     11.601     13.054
REMARK  3 active torsions:
REMARK  status: ('A' for Active; 'I' for Inactive)
REMARK    1  A    between atoms: C1_1  and  C3_3 
REMARK    2  A    between atoms: C2_2  and  C6_6 
REMARK    3  A    between atoms: C3_3  and  O10_10 
ROOT
HETATM    1  C1  UNL     1     -34.077  16.214  -4.520  1.00 20.00     0.014 C 
HETATM    2  C2  UNL     1     -34.008  17.087  -3.486  1.00 20.00    -0.067 C 
HETATM    3  C7  UNL     1     -34.615  16.515  -5.890  1.00 20.00     0.056 C 
HETATM    4  C8  UNL     1     -33.445  16.771  -2.140  1.00 20.00     0.044 C 
ENDROOT
BRANCH   1   5
HETATM    5  C3  UNL     1     -33.544  14.839  -4.328  1.00 20.00     0.171 C 
HETATM    6  O9  UNL     1     -34.189  13.868  -3.967  1.00 20.00    -0.646 OA
BRANCH   5   7
HETATM    7  O10 UNL     1     -32.220  14.822  -4.613  1.00 20.00    -0.773 OA
HETATM    8  H22 UNL     1     -31.985  14.093  -5.226  1.00 20.00     0.167 HD
ENDBRANCH   5   7
ENDBRANCH   1   5
BRANCH   2   9
HETATM    9  C6  UNL     1     -34.545  18.497  -3.597  1.00 20.00     0.015 A 
HETATM   10  C4  UNL     1     -35.936  18.721  -3.154  1.00 20.00     0.010 A 
HETATM   11  C5  UNL     1     -34.786  19.224  -2.333  1.00 20.00     0.010 A 
ENDBRANCH   2   9
TORSDOF 3
ENDMDL
MODEL 9
REMARK VINA RESULT:      -4.0     11.572     13.263
REMARK  3 active torsions:
REMARK  status: ('A' for Active; 'I' for Inactive)
REMARK    1  A    between atoms: C1_1  and  C3_3 
REMARK    2  A    between atoms: C2_2  and  C6_6 
REMARK    3  A    between atoms: C3_3  and  O10_10 
ROOT
HETATM    1  C1  UNL     1     -33.741  16.290  -3.749  1.00 20.00     0.014 C 
HETATM    2  C2  UNL     1     -34.363  17.078  -4.659  1.00 20.00    -0.067 C 
HETATM    3  C7  UNL     1     -33.367  16.690  -2.349  1.00 20.00     0.056 C 
HETATM    4  C8  UNL     1     -34.746  16.649  -6.036  1.00 20.00     0.044 C 
ENDROOT
BRANCH   1   5
HETATM    5  C3  UNL     1     -33.422  14.887  -4.120  1.00 20.00     0.171 C 
HETATM    6  O9  UNL     1     -34.182  13.936  -4.034  1.00 20.00    -0.646 OA
BRANCH   5   7
HETATM    7  O10 UNL     1     -32.147  14.815  -4.572  1.00 20.00    -0.773 OA
HETATM    8  H22 UNL     1     -31.837  13.888  -4.651  1.00 20.00     0.167 HD
ENDBRANCH   5   7
ENDBRANCH   1   5
BRANCH   2   9
HETATM    9  C6  UNL     1     -34.704  18.522  -4.363  1.00 20.00     0.015 A 
HETATM   10  C4  UNL     1     -35.668  19.182  -5.265  1.00 20.00     0.010 A 
HETATM   11  C5  UNL     1     -36.068  18.802  -3.871  1.00 20.00     0.010 A 
ENDBRANCH   2   9
TORSDOF 3
ENDMDL
