MODEL 1
REMARK VINA RESULT:      -3.7      0.000      0.000
REMARK  0 active torsions:
REMARK  status: ('A' for Active; 'I' for Inactive)
ROOT
HETATM    1  C1  UNL     1     -23.495  18.306   8.608  1.00 20.00     0.109 C 
HETATM    2  C2  UNL     1     -22.368  17.771   9.502  1.00 20.00     0.226 C 
HETATM    3  C3  UNL     1     -24.241  16.834  10.822  1.00 20.00     0.230 C 
HETATM    4  C4  UNL     1     -25.004  18.170  10.960  1.00 20.00     0.076 C 
HETATM    5  C5  UNL     1     -21.396  18.881   9.922  1.00 20.00     0.043 C 
HETATM    6  C6  UNL     1     -24.491  15.907  12.018  1.00 20.00     0.043 C 
HETATM    7  C7  UNL     1     -24.670  18.977  12.217  1.00 20.00     0.023 C 
HETATM    8  N8  UNL     1     -22.795  17.004  10.679  1.00 20.00     0.093 N 
HETATM    9  S9  UNL     1     -24.752  19.263   9.505  1.00 20.00    -0.160 SA
HETATM   10  H24 UNL     1     -22.347  16.075  10.649  1.00 20.00     0.316 HD
ENDROOT
TORSDOF 0
ENDMDL
MODEL 2
REMARK VINA RESULT:      -3.4     18.010     19.185
REMARK  0 active torsions:
REMARK  status: ('A' for Active; 'I' for Inactive)
ROOT
HETATM    1  C1  UNL     1     -35.071  17.125  -6.506  1.00 20.00     0.109 C 
HETATM    2  C2  UNL     1     -35.927  17.415  -5.266  1.00 20.00     0.226 C 
HETATM    3  C3  UNL     1     -33.891  16.714  -4.043  1.00 20.00     0.230 C 
HETATM    4  C4  UNL     1     -33.730  15.370  -4.788  1.00 20.00     0.076 C 
HETATM    5  C5  UNL     1     -37.277  16.689  -5.321  1.00 20.00     0.043 C 
HETATM    6  C6  UNL     1     -33.342  16.645  -2.613  1.00 20.00     0.043 C 
HETATM    7  C7  UNL     1     -34.410  14.175  -4.115  1.00 20.00     0.023 C 
HETATM    8  N8  UNL     1     -35.278  17.174  -3.971  1.00 20.00     0.093 N 
HETATM    9  S9  UNL     1     -34.337  15.463  -6.519  1.00 20.00    -0.160 SA
HETATM   10  H24 UNL     1     -35.318  18.043  -3.415  1.00 20.00     0.316 HD
ENDROOT
TORSDOF 0
ENDMDL
MODEL 3
REMARK VINA RESULT:      -3.4     15.774     16.949
REMARK  0 active torsions:
REMARK  status: ('A' for Active; 'I' for Inactive)
ROOT
HETATM    1  C1  UNL     1     -32.541  18.900  -2.298  1.00 20.00     0.109 C 
HETATM    2  C2  UNL     1     -33.268  17.904  -1.384  1.00 20.00     0.226 C 
HETATM    3  C3  UNL     1     -33.293  16.489  -3.416  1.00 20.00     0.230 C 
HETATM    4  C4  UNL     1     -33.920  17.563  -4.333  1.00 20.00     0.076 C 
HETATM    5  C5  UNL     1     -34.471  18.546  -0.682  1.00 20.00     0.043 C 
HETATM    6  C6  UNL     1     -33.668  15.069  -3.857  1.00 20.00     0.043 C 
HETATM    7  C7  UNL     1     -35.447  17.522  -4.422  1.00 20.00     0.023 C 
HETATM    8  N8  UNL     1     -33.667  16.637  -2.010  1.00 20.00     0.093 N 
HETATM    9  S9  UNL     1     -33.429  19.263  -3.841  1.00 20.00    -0.160 SA
HETATM   10  H24 UNL     1     -33.261  15.858  -1.467  1.00 20.00     0.316 HD
ENDROOT
TORSDOF 0
ENDMDL
MODEL 4
REMARK VINA RESULT:      -3.3     17.458     18.391
REMARK  0 active torsions:
REMARK  status: ('A' for Active; 'I' for Inactive)
ROOT
HETATM    1  C1  UNL     1     -41.263  15.886   7.304  1.00 20.00     0.109 C 
HETATM    2  C2  UNL     1     -40.299  14.995   8.099  1.00 20.00     0.226 C 
HETATM    3  C3  UNL     1     -40.573  13.462   6.174  1.00 20.00     0.230 C 
HETATM    4  C4  UNL     1     -42.118  13.456   6.212  1.00 20.00     0.076 C 
HETATM    5  C5  UNL     1     -40.781  14.777   9.539  1.00 20.00     0.043 C 
HETATM    6  C6  UNL     1     -40.009  12.145   5.629  1.00 20.00     0.043 C 
HETATM    7  C7  UNL     1     -42.737  12.334   7.049  1.00 20.00     0.023 C 
HETATM    8  N8  UNL     1     -39.962  13.707   7.481  1.00 20.00     0.093 N 
HETATM    9  S9  UNL     1     -42.800  15.051   6.814  1.00 20.00    -0.160 SA
HETATM   10  H24 UNL     1     -38.935  13.641   7.392  1.00 20.00     0.316 HD
ENDROOT
TORSDOF 0
ENDMDL
MODEL 5
REMARK VINA RESULT:      -3.2     18.310     19.438
REMARK  0 active torsions:
REMARK  status: ('A' for Active; 'I' for Inactive)
ROOT
HETATM    1  C1  UNL     1     -35.923  15.458  -6.371  1.00 20.00     0.109 C 
HETATM    2  C2  UNL     1     -34.430  15.146  -6.547  1.00 20.00     0.226 C 
HETATM    3  C3  UNL     1     -34.244  16.146  -4.289  1.00 20.00     0.230 C 
HETATM    4  C4  UNL     1     -34.986  17.452  -4.647  1.00 20.00     0.076 C 
HETATM    5  C5  UNL     1     -33.881  15.710  -7.863  1.00 20.00     0.043 C 
HETATM    6  C6  UNL     1     -33.208  16.362  -3.179  1.00 20.00     0.043 C 
HETATM    7  C7  UNL     1     -34.085  18.601  -5.107  1.00 20.00     0.023 C 
HETATM    8  N8  UNL     1     -33.561  15.536  -5.430  1.00 20.00     0.093 N 
HETATM    9  S9  UNL     1     -36.266  17.188  -5.938  1.00 20.00    -0.160 SA
HETATM   10  H24 UNL     1     -33.042  14.703  -5.108  1.00 20.00     0.316 HD
ENDROOT
TORSDOF 0
ENDMDL
MODEL 6
REMARK VINA RESULT:      -3.0     18.542     19.638
REMARK  0 active torsions:
REMARK  status: ('A' for Active; 'I' for Inactive)
ROOT
HETATM    1  C1  UNL     1     -34.446  18.334  -5.871  1.00 20.00     0.109 C 
HETATM    2  C2  UNL     1     -35.201  17.971  -4.586  1.00 20.00     0.226 C 
HETATM    3  C3  UNL     1     -34.051  15.796  -4.859  1.00 20.00     0.230 C 
HETATM    4  C4  UNL     1     -34.506  15.573  -6.318  1.00 20.00     0.076 C 
HETATM    5  C5  UNL     1     -36.704  18.252  -4.708  1.00 20.00     0.043 C 
HETATM    6  C6  UNL     1     -33.847  14.471  -4.114  1.00 20.00     0.043 C 
HETATM    7  C7  UNL     1     -35.804  14.778  -6.474  1.00 20.00     0.023 C 
HETATM    8  N8  UNL     1     -34.982  16.611  -4.079  1.00 20.00     0.093 N 
HETATM    9  S9  UNL     1     -34.700  17.155  -7.230  1.00 20.00    -0.160 SA
HETATM   10  H24 UNL     1     -34.646  16.671  -3.104  1.00 20.00     0.316 HD
ENDROOT
TORSDOF 0
ENDMDL
MODEL 7
REMARK VINA RESULT:      -2.9     17.613     18.519
REMARK  0 active torsions:
REMARK  status: ('A' for Active; 'I' for Inactive)
ROOT
HETATM    1  C1  UNL     1     -42.289  12.485   6.732  1.00 20.00     0.109 C 
HETATM    2  C2  UNL     1     -40.789  12.696   6.485  1.00 20.00     0.226 C 
HETATM    3  C3  UNL     1     -41.022  14.400   8.266  1.00 20.00     0.230 C 
HETATM    4  C4  UNL     1     -42.204  15.142   7.603  1.00 20.00     0.076 C 
HETATM    5  C5  UNL     1     -40.483  12.935   5.001  1.00 20.00     0.043 C 
HETATM    6  C6  UNL     1     -40.159  15.341   9.115  1.00 20.00     0.043 C 
HETATM    7  C7  UNL     1     -41.805  16.308   6.696  1.00 20.00     0.023 C 
HETATM    8  N8  UNL     1     -40.146  13.730   7.305  1.00 20.00     0.093 N 
HETATM    9  S9  UNL     1     -43.272  14.009   6.629  1.00 20.00    -0.160 SA
HETATM   10  H24 UNL     1     -39.352  13.305   7.811  1.00 20.00     0.316 HD
ENDROOT
TORSDOF 0
ENDMDL
MODEL 8
REMARK VINA RESULT:      -2.9     19.130     20.172
REMARK  0 active torsions:
REMARK  status: ('A' for Active; 'I' for Inactive)
ROOT
HETATM    1  C1  UNL     1     -34.619  15.443  -6.685  1.00 20.00     0.109 C 
HETATM    2  C2  UNL     1     -35.072  14.663  -5.443  1.00 20.00     0.226 C 
HETATM    3  C3  UNL     1     -37.091  16.085  -5.633  1.00 20.00     0.230 C 
HETATM    4  C4  UNL     1     -36.321  17.424  -5.680  1.00 20.00     0.076 C 
HETATM    5  C5  UNL     1     -34.013  14.692  -4.334  1.00 20.00     0.043 C 
HETATM    6  C6  UNL     1     -38.480  16.245  -5.004  1.00 20.00     0.043 C 
HETATM    7  C7  UNL     1     -36.113  18.096  -4.321  1.00 20.00     0.023 C 
HETATM    8  N8  UNL     1     -36.383  15.036  -4.898  1.00 20.00     0.093 N 
HETATM    9  S9  UNL     1     -34.678  17.248  -6.481  1.00 20.00    -0.160 SA
HETATM   10  H24 UNL     1     -36.977  14.191  -4.858  1.00 20.00     0.316 HD
ENDROOT
TORSDOF 0
ENDMDL
MODEL 9
REMARK VINA RESULT:      -2.8     24.003     24.676
REMARK  0 active torsions:
REMARK  status: ('A' for Active; 'I' for Inactive)
ROOT
HETATM    1  C1  UNL     1     -43.358   7.893   0.586  1.00 20.00     0.109 C 
HETATM    2  C2  UNL     1     -42.257   7.620  -0.447  1.00 20.00     0.226 C 
HETATM    3  C3  UNL     1     -43.305   5.379  -0.557  1.00 20.00     0.230 C 
HETATM    4  C4  UNL     1     -43.257   5.122   0.966  1.00 20.00     0.076 C 
HETATM    5  C5  UNL     1     -40.865   7.972   0.094  1.00 20.00     0.043 C 
HETATM    6  C6  UNL     1     -43.215   4.076  -1.360  1.00 20.00     0.043 C 
HETATM    7  C7  UNL     1     -42.006   4.390   1.457  1.00 20.00     0.023 C 
HETATM    8  N8  UNL     1     -42.245   6.271  -1.028  1.00 20.00     0.093 N 
HETATM    9  S9  UNL     1     -43.417   6.675   1.934  1.00 20.00    -0.160 SA
HETATM   10  H24 UNL     1     -42.303   6.353  -2.055  1.00 20.00     0.316 HD
ENDROOT
TORSDOF 0
ENDMDL
