MODEL 1
REMARK VINA RESULT:      -4.6      0.000      0.000
REMARK  3 active torsions:
REMARK  status: ('A' for Active; 'I' for Inactive)
REMARK    1  A    between atoms: C1_1  and  C5_5 
REMARK    2  A    between atoms: C2_2  and  C6_6 
REMARK    3  A    between atoms: C6_6  and  C7_7 
ROOT
HETATM    1  C1  UNL     1     -33.608   7.634   5.547  1.00 20.00    -0.026 C 
HETATM    2  C2  UNL     1     -33.241   7.460   4.268  1.00 20.00    -0.029 C 
ENDROOT
BRANCH   1   3
HETATM    3  C5  UNL     1     -34.386   6.678   6.354  1.00 20.00     0.008 A 
HETATM    4  C3  UNL     1     -35.062   5.543   5.654  1.00 20.00     0.009 A 
HETATM    5  C4  UNL     1     -33.858   5.287   6.510  1.00 20.00     0.009 A 
ENDBRANCH   1   3
BRANCH   2   6
HETATM    6  C6  UNL     1     -32.443   8.460   3.480  1.00 20.00     0.042 C 
BRANCH   6   7
HETATM    7  C7  UNL     1     -32.204   8.019   2.039  1.00 20.00     0.118 C 
HETATM    8 CL8  UNL     1     -32.655   9.291   0.878  1.00 20.00    -0.130 Cl
ENDBRANCH   6   7
ENDBRANCH   2   6
TORSDOF 3
ENDMDL
MODEL 2
REMARK VINA RESULT:      -4.6      1.284      1.454
REMARK  3 active torsions:
REMARK  status: ('A' for Active; 'I' for Inactive)
REMARK    1  A    between atoms: C1_1  and  C5_5 
REMARK    2  A    between atoms: C2_2  and  C6_6 
REMARK    3  A    between atoms: C6_6  and  C7_7 
ROOT
HETATM    1  C1  UNL     1     -34.345   7.219   4.827  1.00 20.00    -0.026 C 
HETATM    2  C2  UNL     1     -33.113   7.570   5.225  1.00 20.00    -0.029 C 
ENDROOT
BRANCH   1   3
HETATM    3  C5  UNL     1     -35.062   5.997   5.231  1.00 20.00     0.008 A 
HETATM    4  C3  UNL     1     -34.466   4.673   4.872  1.00 20.00     0.009 A 
HETATM    5  C4  UNL     1     -34.456   5.139   6.297  1.00 20.00     0.009 A 
ENDBRANCH   1   3
BRANCH   2   6
HETATM    6  C6  UNL     1     -32.418   8.830   4.792  1.00 20.00     0.042 C 
BRANCH   6   7
HETATM    7  C7  UNL     1     -32.423   9.015   3.277  1.00 20.00     0.118 C 
HETATM    8 CL8  UNL     1     -32.102   7.484   2.427  1.00 20.00    -0.130 Cl
ENDBRANCH   6   7
ENDBRANCH   2   6
TORSDOF 3
ENDMDL
MODEL 3
REMARK VINA RESULT:      -4.4      2.345      4.433
REMARK  3 active torsions:
REMARK  status: ('A' for Active; 'I' for Inactive)
REMARK    1  A    between atoms: C1_1  and  C5_5 
REMARK    2  A    between atoms: C2_2  and  C6_6 
REMARK    3  A    between atoms: C6_6  and  C7_7 
ROOT
HETATM    1  C1  UNL     1     -32.599   8.060   5.019  1.00 20.00    -0.026 C 
HETATM    2  C2  UNL     1     -33.716   7.322   5.112  1.00 20.00    -0.029 C 
ENDROOT
BRANCH   1   3
HETATM    3  C5  UNL     1     -31.990   8.542   3.767  1.00 20.00     0.008 A 
HETATM    4  C3  UNL     1     -32.134   7.702   2.538  1.00 20.00     0.009 A 
HETATM    5  C4  UNL     1     -32.897   8.986   2.663  1.00 20.00     0.009 A 
ENDBRANCH   1   3
BRANCH   2   6
HETATM    6  C6  UNL     1     -34.307   6.852   6.411  1.00 20.00     0.042 C 
BRANCH   6   7
HETATM    7  C7  UNL     1     -34.669   5.370   6.392  1.00 20.00     0.118 C 
HETATM    8 CL8  UNL     1     -34.464   4.663   4.771  1.00 20.00    -0.130 Cl
ENDBRANCH   6   7
ENDBRANCH   2   6
TORSDOF 3
ENDMDL
MODEL 4
REMARK VINA RESULT:      -4.0      1.330      1.780
REMARK  3 active torsions:
REMARK  status: ('A' for Active; 'I' for Inactive)
REMARK    1  A    between atoms: C1_1  and  C5_5 
REMARK    2  A    between atoms: C2_2  and  C6_6 
REMARK    3  A    between atoms: C6_6  and  C7_7 
ROOT
HETATM    1  C1  UNL     1     -34.377   5.772   4.103  1.00 20.00    -0.026 C 
HETATM    2  C2  UNL     1     -33.152   6.257   3.849  1.00 20.00    -0.029 C 
ENDROOT
BRANCH   1   3
HETATM    3  C5  UNL     1     -35.025   5.729   5.426  1.00 20.00     0.008 A 
HETATM    4  C3  UNL     1     -34.278   5.106   6.562  1.00 20.00     0.009 A 
HETATM    5  C4  UNL     1     -34.472   6.592   6.515  1.00 20.00     0.009 A 
ENDBRANCH   1   3
BRANCH   2   6
HETATM    6  C6  UNL     1     -32.527   6.287   2.483  1.00 20.00     0.042 C 
BRANCH   6   7
HETATM    7  C7  UNL     1     -32.177   7.699   2.025  1.00 20.00     0.118 C 
HETATM    8 CL8  UNL     1     -32.576   8.911   3.267  1.00 20.00    -0.130 Cl
ENDBRANCH   6   7
ENDBRANCH   2   6
TORSDOF 3
ENDMDL
MODEL 5
REMARK VINA RESULT:      -3.9      2.143      3.896
REMARK  3 active torsions:
REMARK  status: ('A' for Active; 'I' for Inactive)
REMARK    1  A    between atoms: C1_1  and  C5_5 
REMARK    2  A    between atoms: C2_2  and  C6_6 
REMARK    3  A    between atoms: C6_6  and  C7_7 
ROOT
HETATM    1  C1  UNL     1     -33.659   7.300   5.450  1.00 20.00    -0.026 C 
HETATM    2  C2  UNL     1     -34.464   6.490   4.745  1.00 20.00    -0.029 C 
ENDROOT
BRANCH   1   3
HETATM    3  C5  UNL     1     -33.377   8.712   5.138  1.00 20.00     0.008 A 
HETATM    4  C3  UNL     1     -31.951   9.131   4.971  1.00 20.00     0.009 A 
HETATM    5  C4  UNL     1     -32.853   9.047   3.777  1.00 20.00     0.009 A 
ENDBRANCH   1   3
BRANCH   2   6
HETATM    6  C6  UNL     1     -34.729   5.054   5.100  1.00 20.00     0.042 C 
BRANCH   6   7
HETATM    7  C7  UNL     1     -33.914   4.079   4.256  1.00 20.00     0.118 C 
HETATM    8 CL8  UNL     1     -33.126   4.895   2.884  1.00 20.00    -0.130 Cl
ENDBRANCH   6   7
ENDBRANCH   2   6
TORSDOF 3
ENDMDL
MODEL 6
REMARK VINA RESULT:      -3.8     11.687     12.243
REMARK  3 active torsions:
REMARK  status: ('A' for Active; 'I' for Inactive)
REMARK    1  A    between atoms: C1_1  and  C5_5 
REMARK    2  A    between atoms: C2_2  and  C6_6 
REMARK    3  A    between atoms: C6_6  and  C7_7 
ROOT
HETATM    1  C1  UNL     1     -33.621  16.538  -2.185  1.00 20.00    -0.026 C 
HETATM    2  C2  UNL     1     -33.226  17.647  -1.541  1.00 20.00    -0.029 C 
ENDROOT
BRANCH   1   3
HETATM    3  C5  UNL     1     -33.177  16.122  -3.528  1.00 20.00     0.008 A 
HETATM    4  C3  UNL     1     -33.719  14.847  -4.091  1.00 20.00     0.009 A 
HETATM    5  C4  UNL     1     -34.168  16.164  -4.647  1.00 20.00     0.009 A 
ENDBRANCH   1   3
BRANCH   2   6
HETATM    6  C6  UNL     1     -33.700  18.034  -0.169  1.00 20.00     0.042 C 
BRANCH   6   7
HETATM    7  C7  UNL     1     -32.581  18.589   0.707  1.00 20.00     0.118 C 
HETATM    8 CL8  UNL     1     -30.997  18.470  -0.096  1.00 20.00    -0.130 Cl
ENDBRANCH   6   7
ENDBRANCH   2   6
TORSDOF 3
ENDMDL
MODEL 7
REMARK VINA RESULT:      -3.8      2.571      4.728
REMARK  3 active torsions:
REMARK  status: ('A' for Active; 'I' for Inactive)
REMARK    1  A    between atoms: C1_1  and  C5_5 
REMARK    2  A    between atoms: C2_2  and  C6_6 
REMARK    3  A    between atoms: C6_6  and  C7_7 
ROOT
HETATM    1  C1  UNL     1     -32.728   6.369   3.189  1.00 20.00    -0.026 C 
HETATM    2  C2  UNL     1     -33.760   6.436   4.045  1.00 20.00    -0.029 C 
ENDROOT
BRANCH   1   3
HETATM    3  C5  UNL     1     -31.956   7.519   2.686  1.00 20.00     0.008 A 
HETATM    4  C3  UNL     1     -32.418   8.190   1.431  1.00 20.00     0.009 A 
HETATM    5  C4  UNL     1     -32.579   8.877   2.754  1.00 20.00     0.009 A 
ENDBRANCH   1   3
BRANCH   2   6
HETATM    6  C6  UNL     1     -34.520   5.237   4.537  1.00 20.00     0.042 C 
BRANCH   6   7
HETATM    7  C7  UNL     1     -34.798   5.291   6.037  1.00 20.00     0.118 C 
HETATM    8 CL8  UNL     1     -34.319   6.855   6.739  1.00 20.00    -0.130 Cl
ENDBRANCH   6   7
ENDBRANCH   2   6
TORSDOF 3
ENDMDL
MODEL 8
REMARK VINA RESULT:      -3.7     11.628     12.028
REMARK  3 active torsions:
REMARK  status: ('A' for Active; 'I' for Inactive)
REMARK    1  A    between atoms: C1_1  and  C5_5 
REMARK    2  A    between atoms: C2_2  and  C6_6 
REMARK    3  A    between atoms: C6_6  and  C7_7 
ROOT
HETATM    1  C1  UNL     1     -33.425  16.592  -2.289  1.00 20.00    -0.026 C 
HETATM    2  C2  UNL     1     -33.414  16.316  -3.602  1.00 20.00    -0.029 C 
ENDROOT
BRANCH   1   3
HETATM    3  C5  UNL     1     -33.333  17.937  -1.694  1.00 20.00     0.008 A 
HETATM    4  C3  UNL     1     -33.523  18.075  -0.217  1.00 20.00     0.009 A 
HETATM    5  C4  UNL     1     -32.161  18.248  -0.819  1.00 20.00     0.009 A 
ENDBRANCH   1   3
BRANCH   2   6
HETATM    6  C6  UNL     1     -33.514  14.928  -4.168  1.00 20.00     0.042 C 
BRANCH   6   7
HETATM    7  C7  UNL     1     -34.660  14.778  -5.164  1.00 20.00     0.118 C 
HETATM    8 CL8  UNL     1     -35.887  13.625  -4.587  1.00 20.00    -0.130 Cl
ENDBRANCH   6   7
ENDBRANCH   2   6
TORSDOF 3
ENDMDL
MODEL 9
REMARK VINA RESULT:      -3.7      2.717      4.870
REMARK  3 active torsions:
REMARK  status: ('A' for Active; 'I' for Inactive)
REMARK    1  A    between atoms: C1_1  and  C5_5 
REMARK    2  A    between atoms: C2_2  and  C6_6 
REMARK    3  A    between atoms: C6_6  and  C7_7 
ROOT
HETATM    1  C1  UNL     1     -32.752   7.934   3.403  1.00 20.00    -0.026 C 
HETATM    2  C2  UNL     1     -32.874   8.311   4.685  1.00 20.00    -0.029 C 
ENDROOT
BRANCH   1   3
HETATM    3  C5  UNL     1     -32.063   8.695   2.346  1.00 20.00     0.008 A 
HETATM    4  C3  UNL     1     -32.259   8.273   0.925  1.00 20.00     0.009 A 
HETATM    5  C4  UNL     1     -32.888   9.537   1.426  1.00 20.00     0.009 A 
ENDBRANCH   1   3
BRANCH   2   6
HETATM    6  C6  UNL     1     -33.583   7.503   5.735  1.00 20.00     0.042 C 
BRANCH   6   7
HETATM    7  C7  UNL     1     -34.450   6.397   5.141  1.00 20.00     0.118 C 
HETATM    8 CL8  UNL     1     -34.540   4.982   6.218  1.00 20.00    -0.130 Cl
ENDBRANCH   6   7
ENDBRANCH   2   6
TORSDOF 3
ENDMDL
