MODEL 1
REMARK VINA RESULT:      -5.1      0.000      0.000
REMARK  0 active torsions:
REMARK  status: ('A' for Active; 'I' for Inactive)
ROOT
HETATM    1  C1  UNL     1     -32.831   7.601   3.840  1.00 20.00    -0.088 C 
HETATM    2  C2  UNL     1     -32.930   8.891   3.491  1.00 20.00     0.014 C 
HETATM    3  C3  UNL     1     -32.187   6.568   2.954  1.00 20.00     0.033 C 
HETATM    4  C4  UNL     1     -33.373   7.070   5.145  1.00 20.00     0.042 C 
HETATM    5  C5  UNL     1     -33.130   5.391   2.712  1.00 20.00     0.005 C 
HETATM    6  C6  UNL     1     -33.679   4.815   4.024  1.00 20.00     0.009 C 
HETATM    7  C7  UNL     1     -34.342   5.881   4.932  1.00 20.00    -0.044 C 
HETATM    8  C8  UNL     1     -34.664   5.245   6.297  1.00 20.00     0.015 C 
HETATM    9  C9  UNL     1     -35.666   6.371   4.311  1.00 20.00     0.015 C 
ENDROOT
TORSDOF 0
ENDMDL
MODEL 2
REMARK VINA RESULT:      -4.2      1.034      3.300
REMARK  0 active torsions:
REMARK  status: ('A' for Active; 'I' for Inactive)
ROOT
HETATM    1  C1  UNL     1     -34.162   6.647   5.065  1.00 20.00    -0.088 C 
HETATM    2  C2  UNL     1     -34.225   6.590   6.403  1.00 20.00     0.014 C 
HETATM    3  C3  UNL     1     -34.249   5.420   4.197  1.00 20.00     0.033 C 
HETATM    4  C4  UNL     1     -33.982   7.944   4.316  1.00 20.00     0.042 C 
HETATM    5  C5  UNL     1     -33.056   5.338   3.246  1.00 20.00     0.005 C 
HETATM    6  C6  UNL     1     -32.862   6.637   2.453  1.00 20.00     0.009 C 
HETATM    7  C7  UNL     1     -32.772   7.896   3.351  1.00 20.00    -0.044 C 
HETATM    8  C8  UNL     1     -32.792   9.150   2.458  1.00 20.00     0.015 C 
HETATM    9  C9  UNL     1     -31.449   7.899   4.145  1.00 20.00     0.015 C 
ENDROOT
TORSDOF 0
ENDMDL
MODEL 3
REMARK VINA RESULT:      -3.7      1.199      2.537
REMARK  0 active torsions:
REMARK  status: ('A' for Active; 'I' for Inactive)
ROOT
HETATM    1  C1  UNL     1     -33.213   7.917   5.158  1.00 20.00    -0.088 C 
HETATM    2  C2  UNL     1     -32.164   8.528   4.588  1.00 20.00     0.014 C 
HETATM    3  C3  UNL     1     -33.217   7.495   6.603  1.00 20.00     0.033 C 
HETATM    4  C4  UNL     1     -34.472   7.585   4.396  1.00 20.00     0.042 C 
HETATM    5  C5  UNL     1     -33.559   6.012   6.738  1.00 20.00     0.005 C 
HETATM    6  C6  UNL     1     -34.849   5.650   5.991  1.00 20.00     0.009 C 
HETATM    7  C7  UNL     1     -34.840   6.085   4.504  1.00 20.00    -0.044 C 
HETATM    8  C8  UNL     1     -36.244   5.868   3.911  1.00 20.00     0.015 C 
HETATM    9  C9  UNL     1     -33.844   5.226   3.697  1.00 20.00     0.015 C 
ENDROOT
TORSDOF 0
ENDMDL
MODEL 4
REMARK VINA RESULT:      -3.5     11.932     13.448
REMARK  0 active torsions:
REMARK  status: ('A' for Active; 'I' for Inactive)
ROOT
HETATM    1  C1  UNL     1     -34.202  17.553  -4.508  1.00 20.00    -0.088 C 
HETATM    2  C2  UNL     1     -33.919  18.751  -5.039  1.00 20.00     0.014 C 
HETATM    3  C3  UNL     1     -33.401  16.958  -3.380  1.00 20.00     0.033 C 
HETATM    4  C4  UNL     1     -35.335  16.691  -5.005  1.00 20.00     0.042 C 
HETATM    5  C5  UNL     1     -32.903  15.560  -3.741  1.00 20.00     0.005 C 
HETATM    6  C6  UNL     1     -34.040  14.653  -4.230  1.00 20.00     0.009 C 
HETATM    7  C7  UNL     1     -34.859  15.268  -5.391  1.00 20.00    -0.044 C 
HETATM    8  C8  UNL     1     -36.090  14.383  -5.659  1.00 20.00     0.015 C 
HETATM    9  C9  UNL     1     -34.016  15.314  -6.682  1.00 20.00     0.015 C 
ENDROOT
TORSDOF 0
ENDMDL
MODEL 5
REMARK VINA RESULT:      -3.5      1.054      3.023
REMARK  0 active torsions:
REMARK  status: ('A' for Active; 'I' for Inactive)
ROOT
HETATM    1  C1  UNL     1     -33.347   5.464   3.449  1.00 20.00    -0.088 C 
HETATM    2  C2  UNL     1     -33.497   5.048   2.183  1.00 20.00     0.014 C 
HETATM    3  C3  UNL     1     -34.020   4.784   4.611  1.00 20.00     0.033 C 
HETATM    4  C4  UNL     1     -32.504   6.661   3.814  1.00 20.00     0.042 C 
HETATM    5  C5  UNL     1     -34.825   5.784   5.438  1.00 20.00     0.005 C 
HETATM    6  C6  UNL     1     -33.986   7.002   5.844  1.00 20.00     0.009 C 
HETATM    7  C7  UNL     1     -33.297   7.700   4.645  1.00 20.00    -0.044 C 
HETATM    8  C8  UNL     1     -32.322   8.765   5.179  1.00 20.00     0.015 C 
HETATM    9  C9  UNL     1     -34.342   8.411   3.761  1.00 20.00     0.015 C 
ENDROOT
TORSDOF 0
ENDMDL
MODEL 6
REMARK VINA RESULT:      -3.5      1.120      3.610
REMARK  0 active torsions:
REMARK  status: ('A' for Active; 'I' for Inactive)
ROOT
HETATM    1  C1  UNL     1     -34.816   5.852   4.745  1.00 20.00    -0.088 C 
HETATM    2  C2  UNL     1     -35.980   5.495   4.183  1.00 20.00     0.014 C 
HETATM    3  C3  UNL     1     -34.619   5.900   6.237  1.00 20.00     0.033 C 
HETATM    4  C4  UNL     1     -33.611   6.252   3.931  1.00 20.00     0.042 C 
HETATM    5  C5  UNL     1     -34.096   7.268   6.675  1.00 20.00     0.005 C 
HETATM    6  C6  UNL     1     -32.855   7.690   5.878  1.00 20.00     0.009 C 
HETATM    7  C7  UNL     1     -33.064   7.641   4.344  1.00 20.00    -0.044 C 
HETATM    8  C8  UNL     1     -31.711   7.875   3.647  1.00 20.00     0.015 C 
HETATM    9  C9  UNL     1     -34.031   8.755   3.894  1.00 20.00     0.015 C 
ENDROOT
TORSDOF 0
ENDMDL
MODEL 7
REMARK VINA RESULT:      -3.5     12.039     13.320
REMARK  0 active torsions:
REMARK  status: ('A' for Active; 'I' for Inactive)
ROOT
HETATM    1  C1  UNL     1     -33.537  16.685  -3.208  1.00 20.00    -0.088 C 
HETATM    2  C2  UNL     1     -32.831  15.704  -3.789  1.00 20.00     0.014 C 
HETATM    3  C3  UNL     1     -34.135  17.824  -3.990  1.00 20.00     0.033 C 
HETATM    4  C4  UNL     1     -33.780  16.739  -1.720  1.00 20.00     0.042 C 
HETATM    5  C5  UNL     1     -33.696  19.170  -3.416  1.00 20.00     0.005 C 
HETATM    6  C6  UNL     1     -33.952  19.262  -1.907  1.00 20.00     0.009 C 
HETATM    7  C7  UNL     1     -33.334  18.089  -1.106  1.00 20.00    -0.044 C 
HETATM    8  C8  UNL     1     -33.825  18.164   0.351  1.00 20.00     0.015 C 
HETATM    9  C9  UNL     1     -31.795  18.193  -1.097  1.00 20.00     0.015 C 
ENDROOT
TORSDOF 0
ENDMDL
MODEL 8
REMARK VINA RESULT:      -3.4      8.530      9.646
REMARK  0 active torsions:
REMARK  status: ('A' for Active; 'I' for Inactive)
ROOT
HETATM    1  C1  UNL     1     -42.603   8.182   0.200  1.00 20.00    -0.088 C 
HETATM    2  C2  UNL     1     -43.417   9.075  -0.381  1.00 20.00     0.014 C 
HETATM    3  C3  UNL     1     -41.117   8.166  -0.038  1.00 20.00     0.033 C 
HETATM    4  C4  UNL     1     -43.110   7.106   1.128  1.00 20.00     0.042 C 
HETATM    5  C5  UNL     1     -40.652   6.786  -0.501  1.00 20.00     0.005 C 
HETATM    6  C6  UNL     1     -41.134   5.673   0.438  1.00 20.00     0.009 C 
HETATM    7  C7  UNL     1     -42.664   5.692   0.678  1.00 20.00    -0.044 C 
HETATM    8  C8  UNL     1     -43.009   4.681   1.787  1.00 20.00     0.015 C 
HETATM    9  C9  UNL     1     -43.417   5.272  -0.601  1.00 20.00     0.015 C 
ENDROOT
TORSDOF 0
ENDMDL
MODEL 9
REMARK VINA RESULT:      -3.4     12.078     13.930
REMARK  0 active torsions:
REMARK  status: ('A' for Active; 'I' for Inactive)
ROOT
HETATM    1  C1  UNL     1     -34.663  15.376  -5.048  1.00 20.00    -0.088 C 
HETATM    2  C2  UNL     1     -35.671  14.533  -5.311  1.00 20.00     0.014 C 
HETATM    3  C3  UNL     1     -33.602  15.074  -4.023  1.00 20.00     0.033 C 
HETATM    4  C4  UNL     1     -34.514  16.706  -5.744  1.00 20.00     0.042 C 
HETATM    5  C5  UNL     1     -33.484  16.209  -3.007  1.00 20.00     0.005 C 
HETATM    6  C6  UNL     1     -33.309  17.572  -3.687  1.00 20.00     0.009 C 
HETATM    7  C7  UNL     1     -34.404  17.879  -4.739  1.00 20.00    -0.044 C 
HETATM    8  C8  UNL     1     -34.019  19.160  -5.503  1.00 20.00     0.015 C 
HETATM    9  C9  UNL     1     -35.761  18.126  -4.049  1.00 20.00     0.015 C 
ENDROOT
TORSDOF 0
ENDMDL
