MODEL 1
REMARK VINA RESULT:      -4.6      0.000      0.000
REMARK  4 active torsions:
REMARK  status: ('A' for Active; 'I' for Inactive)
REMARK    1  A    between atoms: C2_2  and  C4_4 
REMARK    2  A    between atoms: C3_3  and  O7_7 
REMARK    3  A    between atoms: C4_4  and  C5_5 
REMARK    4  A    between atoms: C5_5  and  C6_6 
ROOT
HETATM    1  C1  UNL     1     -32.470   7.598   3.828  1.00 20.00     0.039 A 
HETATM    2  C2  UNL     1     -33.594   7.812   4.803  1.00 20.00     0.017 A 
HETATM    3  C3  UNL     1     -32.635   8.934   4.500  1.00 20.00     0.122 A 
ENDROOT
BRANCH   2   4
HETATM    4  C4  UNL     1     -33.589   7.098   6.145  1.00 20.00     0.008 C 
BRANCH   4   5
HETATM    5  C5  UNL     1     -34.683   6.034   6.220  1.00 20.00     0.015 C 
BRANCH   5   6
HETATM    6  C6  UNL     1     -35.105   5.584   4.827  1.00 20.00     0.114 C 
HETATM    7 CL8  UNL     1     -34.032   4.293   4.241  1.00 20.00    -0.130 Cl
ENDBRANCH   5   6
ENDBRANCH   4   5
ENDBRANCH   2   4
BRANCH   3   8
HETATM    8  O7  UNL     1     -31.659   9.257   5.504  1.00 20.00    -0.395 OA
HETATM    9  H19 UNL     1     -31.705   8.546   6.156  1.00 20.00     0.210 HD
ENDBRANCH   3   8
TORSDOF 4
ENDMDL
MODEL 2
REMARK VINA RESULT:      -4.6      2.320      3.561
REMARK  4 active torsions:
REMARK  status: ('A' for Active; 'I' for Inactive)
REMARK    1  A    between atoms: C2_2  and  C4_4 
REMARK    2  A    between atoms: C3_3  and  O7_7 
REMARK    3  A    between atoms: C4_4  and  C5_5 
REMARK    4  A    between atoms: C5_5  and  C6_6 
ROOT
HETATM    1  C1  UNL     1     -33.434   5.687   6.524  1.00 20.00     0.039 A 
HETATM    2  C2  UNL     1     -34.270   6.890   6.186  1.00 20.00     0.017 A 
HETATM    3  C3  UNL     1     -34.907   5.526   6.267  1.00 20.00     0.122 A 
ENDROOT
BRANCH   2   4
HETATM    4  C4  UNL     1     -34.080   7.604   4.857  1.00 20.00     0.008 C 
BRANCH   4   5
HETATM    5  C5  UNL     1     -32.620   8.001   4.638  1.00 20.00     0.015 C 
BRANCH   5   6
HETATM    6  C6  UNL     1     -32.133   7.559   3.263  1.00 20.00     0.114 C 
HETATM    7 CL8  UNL     1     -32.790   5.957   2.859  1.00 20.00    -0.130 Cl
ENDBRANCH   5   6
ENDBRANCH   4   5
ENDBRANCH   2   4
BRANCH   3   8
HETATM    8  O7  UNL     1     -35.263   4.890   5.028  1.00 20.00    -0.395 OA
HETATM    9  H19 UNL     1     -34.469   4.426   4.732  1.00 20.00     0.210 HD
ENDBRANCH   3   8
TORSDOF 4
ENDMDL
MODEL 3
REMARK VINA RESULT:      -4.6      1.681      1.915
REMARK  4 active torsions:
REMARK  status: ('A' for Active; 'I' for Inactive)
REMARK    1  A    between atoms: C2_2  and  C4_4 
REMARK    2  A    between atoms: C3_3  and  O7_7 
REMARK    3  A    between atoms: C4_4  and  C5_5 
REMARK    4  A    between atoms: C5_5  and  C6_6 
ROOT
HETATM    1  C1  UNL     1     -32.606   8.868   3.353  1.00 20.00     0.039 A 
HETATM    2  C2  UNL     1     -32.744   8.066   4.618  1.00 20.00     0.017 A 
HETATM    3  C3  UNL     1     -31.950   7.519   3.460  1.00 20.00     0.122 A 
ENDROOT
BRANCH   2   4
HETATM    4  C4  UNL     1     -34.092   7.480   5.008  1.00 20.00     0.008 C 
BRANCH   4   5
HETATM    5  C5  UNL     1     -34.056   6.879   6.413  1.00 20.00     0.015 C 
BRANCH   5   6
HETATM    6  C6  UNL     1     -34.550   5.438   6.405  1.00 20.00     0.114 C 
HETATM    7 CL8  UNL     1     -34.665   4.832   4.738  1.00 20.00    -0.130 Cl
ENDBRANCH   5   6
ENDBRANCH   4   5
ENDBRANCH   2   4
BRANCH   3   8
HETATM    8  O7  UNL     1     -32.548   6.466   2.687  1.00 20.00    -0.395 OA
HETATM    9  H19 UNL     1     -32.621   6.808   1.786  1.00 20.00     0.210 HD
ENDBRANCH   3   8
TORSDOF 4
ENDMDL
MODEL 4
REMARK VINA RESULT:      -4.5      2.355      3.698
REMARK  4 active torsions:
REMARK  status: ('A' for Active; 'I' for Inactive)
REMARK    1  A    between atoms: C2_2  and  C4_4 
REMARK    2  A    between atoms: C3_3  and  O7_7 
REMARK    3  A    between atoms: C4_4  and  C5_5 
REMARK    4  A    between atoms: C5_5  and  C6_6 
ROOT
HETATM    1  C1  UNL     1     -34.641   4.947   6.282  1.00 20.00     0.039 A 
HETATM    2  C2  UNL     1     -34.634   6.387   5.848  1.00 20.00     0.017 A 
HETATM    3  C3  UNL     1     -34.899   5.296   4.842  1.00 20.00     0.122 A 
ENDROOT
BRANCH   2   4
HETATM    4  C4  UNL     1     -33.336   7.178   5.844  1.00 20.00     0.008 C 
BRANCH   4   5
HETATM    5  C5  UNL     1     -33.475   8.479   5.055  1.00 20.00     0.015 C 
BRANCH   5   6
HETATM    6  C6  UNL     1     -32.248   8.725   4.185  1.00 20.00     0.114 C 
HETATM    7 CL8  UNL     1     -32.194   7.556   2.846  1.00 20.00    -0.130 Cl
ENDBRANCH   5   6
ENDBRANCH   4   5
ENDBRANCH   2   4
BRANCH   3   8
HETATM    8  O7  UNL     1     -33.844   4.979   3.920  1.00 20.00    -0.395 OA
HETATM    9  H19 UNL     1     -33.802   5.720   3.301  1.00 20.00     0.210 HD
ENDBRANCH   3   8
TORSDOF 4
ENDMDL
MODEL 5
REMARK VINA RESULT:      -4.2      2.644      3.803
REMARK  4 active torsions:
REMARK  status: ('A' for Active; 'I' for Inactive)
REMARK    1  A    between atoms: C2_2  and  C4_4 
REMARK    2  A    between atoms: C3_3  and  O7_7 
REMARK    3  A    between atoms: C4_4  and  C5_5 
REMARK    4  A    between atoms: C5_5  and  C6_6 
ROOT
HETATM    1  C1  UNL     1     -35.501   5.854   4.517  1.00 20.00     0.039 A 
HETATM    2  C2  UNL     1     -34.065   6.290   4.423  1.00 20.00     0.017 A 
HETATM    3  C3  UNL     1     -34.442   5.119   5.293  1.00 20.00     0.122 A 
ENDROOT
BRANCH   2   4
HETATM    4  C4  UNL     1     -33.629   7.619   5.019  1.00 20.00     0.008 C 
BRANCH   4   5
HETATM    5  C5  UNL     1     -32.538   8.281   4.178  1.00 20.00     0.015 C 
BRANCH   5   6
HETATM    6  C6  UNL     1     -32.100   7.372   3.037  1.00 20.00     0.114 C 
HETATM    7 CL8  UNL     1     -32.215   8.228   1.483  1.00 20.00    -0.130 Cl
ENDBRANCH   5   6
ENDBRANCH   4   5
ENDBRANCH   2   4
BRANCH   3   8
HETATM    8  O7  UNL     1     -34.447   5.327   6.715  1.00 20.00    -0.395 OA
HETATM    9  H19 UNL     1     -34.883   4.553   7.094  1.00 20.00     0.210 HD
ENDBRANCH   3   8
TORSDOF 4
ENDMDL
MODEL 6
REMARK VINA RESULT:      -3.9      1.477      1.787
REMARK  4 active torsions:
REMARK  status: ('A' for Active; 'I' for Inactive)
REMARK    1  A    between atoms: C2_2  and  C4_4 
REMARK    2  A    between atoms: C3_3  and  O7_7 
REMARK    3  A    between atoms: C4_4  and  C5_5 
REMARK    4  A    between atoms: C5_5  and  C6_6 
ROOT
HETATM    1  C1  UNL     1     -33.532   8.850   5.669  1.00 20.00     0.039 A 
HETATM    2  C2  UNL     1     -33.527   7.362   5.455  1.00 20.00     0.017 A 
HETATM    3  C3  UNL     1     -32.475   8.222   4.803  1.00 20.00     0.122 A 
ENDROOT
BRANCH   2   4
HETATM    4  C4  UNL     1     -34.632   6.702   4.647  1.00 20.00     0.008 C 
BRANCH   4   5
HETATM    5  C5  UNL     1     -34.822   5.238   5.046  1.00 20.00     0.015 C 
BRANCH   5   6
HETATM    6  C6  UNL     1     -33.818   4.342   4.332  1.00 20.00     0.114 C 
HETATM    7 CL8  UNL     1     -33.264   5.108   2.826  1.00 20.00    -0.130 Cl
ENDBRANCH   5   6
ENDBRANCH   4   5
ENDBRANCH   2   4
BRANCH   3   8
HETATM    8  O7  UNL     1     -32.598   8.457   3.391  1.00 20.00    -0.395 OA
HETATM    9  H19 UNL     1     -31.709   8.349   3.026  1.00 20.00     0.210 HD
ENDBRANCH   3   8
TORSDOF 4
ENDMDL
MODEL 7
REMARK VINA RESULT:      -3.7      1.708      2.272
REMARK  4 active torsions:
REMARK  status: ('A' for Active; 'I' for Inactive)
REMARK    1  A    between atoms: C2_2  and  C4_4 
REMARK    2  A    between atoms: C3_3  and  O7_7 
REMARK    3  A    between atoms: C4_4  and  C5_5 
REMARK    4  A    between atoms: C5_5  and  C6_6 
ROOT
HETATM    1  C1  UNL     1     -32.254   9.044   4.711  1.00 20.00     0.039 A 
HETATM    2  C2  UNL     1     -33.006   8.045   3.875  1.00 20.00     0.017 A 
HETATM    3  C3  UNL     1     -33.376   8.250   5.322  1.00 20.00     0.122 A 
ENDROOT
BRANCH   2   4
HETATM    4  C4  UNL     1     -32.320   6.775   3.398  1.00 20.00     0.008 C 
BRANCH   4   5
HETATM    5  C5  UNL     1     -33.325   5.775   2.828  1.00 20.00     0.015 C 
BRANCH   5   6
HETATM    6  C6  UNL     1     -33.862   4.857   3.918  1.00 20.00     0.114 C 
HETATM    7 CL8  UNL     1     -35.382   5.501   4.578  1.00 20.00    -0.130 Cl
ENDBRANCH   5   6
ENDBRANCH   4   5
ENDBRANCH   2   4
BRANCH   3   8
HETATM    8  O7  UNL     1     -32.987   7.227   6.253  1.00 20.00    -0.395 OA
HETATM    9  H19 UNL     1     -32.759   6.455   5.718  1.00 20.00     0.210 HD
ENDBRANCH   3   8
TORSDOF 4
ENDMDL
MODEL 8
REMARK VINA RESULT:      -3.6     15.153     15.945
REMARK  4 active torsions:
REMARK  status: ('A' for Active; 'I' for Inactive)
REMARK    1  A    between atoms: C2_2  and  C4_4 
REMARK    2  A    between atoms: C3_3  and  O7_7 
REMARK    3  A    between atoms: C4_4  and  C5_5 
REMARK    4  A    between atoms: C5_5  and  C6_6 
ROOT
HETATM    1  C1  UNL     1     -23.436  18.781   9.319  1.00 20.00     0.039 A 
HETATM    2  C2  UNL     1     -22.468  18.768  10.469  1.00 20.00     0.017 A 
HETATM    3  C3  UNL     1     -22.155  18.001   9.210  1.00 20.00     0.122 A 
ENDROOT
BRANCH   2   4
HETATM    4  C4  UNL     1     -22.831  18.061  11.765  1.00 20.00     0.008 C 
BRANCH   4   5
HETATM    5  C5  UNL     1     -24.156  18.571  12.332  1.00 20.00     0.015 C 
BRANCH   5   6
HETATM    6  C6  UNL     1     -25.227  17.490  12.279  1.00 20.00     0.114 C 
HETATM    7 CL8  UNL     1     -24.506  15.923  11.846  1.00 20.00    -0.130 Cl
ENDBRANCH   5   6
ENDBRANCH   4   5
ENDBRANCH   2   4
BRANCH   3   8
HETATM    8  O7  UNL     1     -22.284  16.571   9.260  1.00 20.00    -0.395 OA
HETATM    9  H19 UNL     1     -21.951  16.305  10.127  1.00 20.00     0.210 HD
ENDBRANCH   3   8
TORSDOF 4
ENDMDL
MODEL 9
REMARK VINA RESULT:      -3.5      1.697      1.906
REMARK  4 active torsions:
REMARK  status: ('A' for Active; 'I' for Inactive)
REMARK    1  A    between atoms: C2_2  and  C4_4 
REMARK    2  A    between atoms: C3_3  and  O7_7 
REMARK    3  A    between atoms: C4_4  and  C5_5 
REMARK    4  A    between atoms: C5_5  and  C6_6 
ROOT
HETATM    1  C1  UNL     1     -32.151   7.983   2.718  1.00 20.00     0.039 A 
HETATM    2  C2  UNL     1     -33.367   7.388   3.372  1.00 20.00     0.017 A 
HETATM    3  C3  UNL     1     -32.686   8.582   3.990  1.00 20.00     0.122 A 
ENDROOT
BRANCH   2   4
HETATM    4  C4  UNL     1     -33.295   6.010   4.010  1.00 20.00     0.008 C 
BRANCH   4   5
HETATM    5  C5  UNL     1     -34.677   5.517   4.439  1.00 20.00     0.015 C 
BRANCH   5   6
HETATM    6  C6  UNL     1     -34.754   5.353   5.951  1.00 20.00     0.114 C 
HETATM    7 CL8  UNL     1     -34.377   6.889   6.762  1.00 20.00    -0.130 Cl
ENDBRANCH   5   6
ENDBRANCH   4   5
ENDBRANCH   2   4
BRANCH   3   8
HETATM    8  O7  UNL     1     -31.899   8.356   5.171  1.00 20.00    -0.395 OA
HETATM    9  H19 UNL     1     -32.190   9.017   5.813  1.00 20.00     0.210 HD
ENDBRANCH   3   8
TORSDOF 4
ENDMDL
