MODEL 1
REMARK VINA RESULT:      -4.2      0.000      0.000
REMARK  3 active torsions:
REMARK  status: ('A' for Active; 'I' for Inactive)
REMARK    1  A    between atoms: C6_6  and  C8_8 
REMARK    2  A    between atoms: C6_6  and  C9_9 
REMARK    3  A    between atoms: C9_9  and  O10_10 
ROOT
HETATM    1  C1  UNL     1     -21.861  19.160   9.176  1.00 20.00     0.000 C 
HETATM    2  C2  UNL     1     -23.210  18.795   8.568  1.00 20.00     0.001 C 
HETATM    3  C3  UNL     1     -21.606  18.419  10.484  1.00 20.00     0.001 C 
HETATM    4  C4  UNL     1     -24.352  19.002   9.563  1.00 20.00     0.011 C 
HETATM    5  C5  UNL     1     -22.745  18.625  11.481  1.00 20.00     0.011 C 
HETATM    6  C6  UNL     1     -24.136  18.270  10.907  1.00 20.00    -0.019 C 
ENDROOT
BRANCH   6   7
HETATM    7  C8  UNL     1     -24.273  16.746  10.722  1.00 20.00     0.007 C 
HETATM    8  C7  UNL     1     -24.445  16.058  12.030  1.00 20.00     0.006 C 
ENDBRANCH   6   7
BRANCH   6   9
HETATM    9  C9  UNL     1     -25.220  18.724  11.904  1.00 20.00     0.173 C 
BRANCH   9  10
HETATM   10  O10 UNL     1     -26.419  18.917  11.186  1.00 20.00    -0.400 OA
HETATM   11  H28 UNL     1     -27.151  18.635  11.764  1.00 20.00     0.209 HD
ENDBRANCH   9  10
ENDBRANCH   6   9
TORSDOF 3
ENDMDL
MODEL 2
REMARK VINA RESULT:      -4.1     18.128     19.317
REMARK  3 active torsions:
REMARK  status: ('A' for Active; 'I' for Inactive)
REMARK    1  A    between atoms: C6_6  and  C8_8 
REMARK    2  A    between atoms: C6_6  and  C9_9 
REMARK    3  A    between atoms: C9_9  and  O10_10 
ROOT
HETATM    1  C1  UNL     1     -33.608  17.201  -3.390  1.00 20.00     0.000 C 
HETATM    2  C2  UNL     1     -34.441  17.628  -4.593  1.00 20.00     0.001 C 
HETATM    3  C3  UNL     1     -32.968  15.833  -3.597  1.00 20.00     0.001 C 
HETATM    4  C4  UNL     1     -35.482  16.571  -4.961  1.00 20.00     0.011 C 
HETATM    5  C5  UNL     1     -34.006  14.773  -3.964  1.00 20.00     0.011 C 
HETATM    6  C6  UNL     1     -34.880  15.165  -5.178  1.00 20.00    -0.019 C 
ENDROOT
BRANCH   6   7
HETATM    7  C8  UNL     1     -34.051  15.125  -6.477  1.00 20.00     0.007 C 
HETATM    8  C7  UNL     1     -34.866  15.543  -7.650  1.00 20.00     0.006 C 
ENDBRANCH   6   7
BRANCH   6   9
HETATM    9  C9  UNL     1     -36.026  14.145  -5.319  1.00 20.00     0.173 C 
BRANCH   9  10
HETATM   10  O10 UNL     1     -35.717  13.029  -4.513  1.00 20.00    -0.400 OA
HETATM   11  H28 UNL     1     -35.094  12.473  -5.014  1.00 20.00     0.209 HD
ENDBRANCH   9  10
ENDBRANCH   6   9
TORSDOF 3
ENDMDL
MODEL 3
REMARK VINA RESULT:      -3.9      1.523      2.731
REMARK  3 active torsions:
REMARK  status: ('A' for Active; 'I' for Inactive)
REMARK    1  A    between atoms: C6_6  and  C8_8 
REMARK    2  A    between atoms: C6_6  and  C9_9 
REMARK    3  A    between atoms: C9_9  and  O10_10 
ROOT
HETATM    1  C1  UNL     1     -21.872  18.735  10.169  1.00 20.00     0.000 C 
HETATM    2  C2  UNL     1     -21.835  18.769  11.692  1.00 20.00     0.001 C 
HETATM    3  C3  UNL     1     -23.289  18.897   9.630  1.00 20.00     0.001 C 
HETATM    4  C4  UNL     1     -22.789  17.742  12.303  1.00 20.00     0.011 C 
HETATM    5  C5  UNL     1     -24.245  17.871  10.238  1.00 20.00     0.011 C 
HETATM    6  C6  UNL     1     -24.239  17.866  11.784  1.00 20.00    -0.019 C 
ENDROOT
BRANCH   6   7
HETATM    7  C8  UNL     1     -24.903  19.144  12.332  1.00 20.00     0.007 C 
HETATM    8  C7  UNL     1     -26.384  19.083  12.193  1.00 20.00     0.006 C 
ENDBRANCH   6   7
BRANCH   6   9
HETATM    9  C9  UNL     1     -25.054  16.658  12.283  1.00 20.00     0.173 C 
BRANCH   9  10
HETATM   10  O10 UNL     1     -24.606  15.513  11.590  1.00 20.00    -0.400 OA
HETATM   11  H28 UNL     1     -25.395  15.053  11.250  1.00 20.00     0.209 HD
ENDBRANCH   9  10
ENDBRANCH   6   9
TORSDOF 3
ENDMDL
MODEL 4
REMARK VINA RESULT:      -3.7      1.372      2.601
REMARK  3 active torsions:
REMARK  status: ('A' for Active; 'I' for Inactive)
REMARK    1  A    between atoms: C6_6  and  C8_8 
REMARK    2  A    between atoms: C6_6  and  C9_9 
REMARK    3  A    between atoms: C9_9  and  O10_10 
ROOT
HETATM    1  C1  UNL     1     -23.871  18.897   8.512  1.00 20.00     0.000 C 
HETATM    2  C2  UNL     1     -22.543  18.430   9.097  1.00 20.00     0.001 C 
HETATM    3  C3  UNL     1     -24.877  19.259   9.599  1.00 20.00     0.001 C 
HETATM    4  C4  UNL     1     -22.736  17.282  10.088  1.00 20.00     0.011 C 
HETATM    5  C5  UNL     1     -25.073  18.113  10.591  1.00 20.00     0.011 C 
HETATM    6  C6  UNL     1     -23.751  17.602  11.209  1.00 20.00    -0.019 C 
ENDROOT
BRANCH   6   7
HETATM    7  C8  UNL     1     -23.171  18.645  12.184  1.00 20.00     0.007 C 
HETATM    8  C7  UNL     1     -21.698  18.485  12.331  1.00 20.00     0.006 C 
ENDBRANCH   6   7
BRANCH   6   9
HETATM    9  C9  UNL     1     -24.036  16.316  12.008  1.00 20.00     0.173 C 
BRANCH   9  10
HETATM   10  O10 UNL     1     -25.436  16.177  12.124  1.00 20.00    -0.400 OA
HETATM   11  H28 UNL     1     -25.753  16.904  12.690  1.00 20.00     0.209 HD
ENDBRANCH   9  10
ENDBRANCH   6   9
TORSDOF 3
ENDMDL
MODEL 5
REMARK VINA RESULT:      -3.6     18.356     19.600
REMARK  3 active torsions:
REMARK  status: ('A' for Active; 'I' for Inactive)
REMARK    1  A    between atoms: C6_6  and  C8_8 
REMARK    2  A    between atoms: C6_6  and  C9_9 
REMARK    3  A    between atoms: C9_9  and  O10_10 
ROOT
HETATM    1  C1  UNL     1     -33.465  16.700  -3.202  1.00 20.00     0.000 C 
HETATM    2  C2  UNL     1     -33.670  15.221  -3.507  1.00 20.00     0.001 C 
HETATM    3  C3  UNL     1     -34.468  17.579  -3.940  1.00 20.00     0.001 C 
HETATM    4  C4  UNL     1     -33.655  14.949  -5.011  1.00 20.00     0.011 C 
HETATM    5  C5  UNL     1     -34.455  17.310  -5.445  1.00 20.00     0.011 C 
HETATM    6  C6  UNL     1     -34.656  15.819  -5.803  1.00 20.00    -0.019 C 
ENDROOT
BRANCH   6   7
HETATM    7  C8  UNL     1     -36.104  15.382  -5.511  1.00 20.00     0.007 C 
HETATM    8  C7  UNL     1     -37.084  16.284  -6.176  1.00 20.00     0.006 C 
ENDBRANCH   6   7
BRANCH   6   9
HETATM    9  C9  UNL     1     -34.401  15.629  -7.311  1.00 20.00     0.173 C 
BRANCH   9  10
HETATM   10  O10 UNL     1     -33.180  14.939  -7.463  1.00 20.00    -0.400 OA
HETATM   11  H28 UNL     1     -32.842  14.749  -6.570  1.00 20.00     0.209 HD
ENDBRANCH   9  10
ENDBRANCH   6   9
TORSDOF 3
ENDMDL
MODEL 6
REMARK VINA RESULT:      -3.6     18.799     20.020
REMARK  3 active torsions:
REMARK  status: ('A' for Active; 'I' for Inactive)
REMARK    1  A    between atoms: C6_6  and  C8_8 
REMARK    2  A    between atoms: C6_6  and  C9_9 
REMARK    3  A    between atoms: C9_9  and  O10_10 
ROOT
HETATM    1  C1  UNL     1     -35.976  16.117  -7.783  1.00 20.00     0.000 C 
HETATM    2  C2  UNL     1     -34.469  16.161  -7.560  1.00 20.00     0.001 C 
HETATM    3  C3  UNL     1     -36.751  16.312  -6.484  1.00 20.00     0.001 C 
HETATM    4  C4  UNL     1     -34.029  15.164  -6.488  1.00 20.00     0.011 C 
HETATM    5  C5  UNL     1     -36.313  15.316  -5.411  1.00 20.00     0.011 C 
HETATM    6  C6  UNL     1     -34.789  15.322  -5.153  1.00 20.00    -0.019 C 
ENDROOT
BRANCH   6   7
HETATM    7  C8  UNL     1     -34.366  16.620  -4.438  1.00 20.00     0.007 C 
HETATM    8  C7  UNL     1     -33.339  16.351  -3.395  1.00 20.00     0.006 C 
ENDBRANCH   6   7
BRANCH   6   9
HETATM    9  C9  UNL     1     -34.434  14.138  -4.231  1.00 20.00     0.173 C 
BRANCH   9  10
HETATM   10  O10 UNL     1     -35.487  13.202  -4.299  1.00 20.00    -0.400 OA
HETATM   11  H28 UNL     1     -36.112  13.416  -3.583  1.00 20.00     0.209 HD
ENDBRANCH   9  10
ENDBRANCH   6   9
TORSDOF 3
ENDMDL
MODEL 7
REMARK VINA RESULT:      -3.5     23.720     24.779
REMARK  3 active torsions:
REMARK  status: ('A' for Active; 'I' for Inactive)
REMARK    1  A    between atoms: C6_6  and  C8_8 
REMARK    2  A    between atoms: C6_6  and  C9_9 
REMARK    3  A    between atoms: C9_9  and  O10_10 
ROOT
HETATM    1  C1  UNL     1     -41.057   8.174  -0.031  1.00 20.00     0.000 C 
HETATM    2  C2  UNL     1     -40.423   6.828   0.303  1.00 20.00     0.001 C 
HETATM    3  C3  UNL     1     -42.551   8.189   0.272  1.00 20.00     0.001 C 
HETATM    4  C4  UNL     1     -41.148   5.675  -0.390  1.00 20.00     0.011 C 
HETATM    5  C5  UNL     1     -43.280   7.038  -0.421  1.00 20.00     0.011 C 
HETATM    6  C6  UNL     1     -42.668   5.652  -0.114  1.00 20.00    -0.019 C 
ENDROOT
BRANCH   6   7
HETATM    7  C8  UNL     1     -42.948   5.247   1.346  1.00 20.00     0.007 C 
HETATM    8  C7  UNL     1     -43.417   3.837   1.435  1.00 20.00     0.006 C 
ENDBRANCH   6   7
BRANCH   6   9
HETATM    9  C9  UNL     1     -43.327   4.601  -1.030  1.00 20.00     0.173 C 
BRANCH   9  10
HETATM   10  O10 UNL     1     -42.395   4.248  -2.029  1.00 20.00    -0.400 OA
HETATM   11  H28 UNL     1     -41.625   4.835  -1.927  1.00 20.00     0.209 HD
ENDBRANCH   9  10
ENDBRANCH   6   9
TORSDOF 3
ENDMDL
MODEL 8
REMARK VINA RESULT:      -3.5     14.876     16.424
REMARK  3 active torsions:
REMARK  status: ('A' for Active; 'I' for Inactive)
REMARK    1  A    between atoms: C6_6  and  C8_8 
REMARK    2  A    between atoms: C6_6  and  C9_9 
REMARK    3  A    between atoms: C9_9  and  O10_10 
ROOT
HETATM    1  C1  UNL     1     -35.113   5.336   6.087  1.00 20.00     0.000 C 
HETATM    2  C2  UNL     1     -33.651   5.575   6.445  1.00 20.00     0.001 C 
HETATM    3  C3  UNL     1     -35.400   5.652   4.623  1.00 20.00     0.001 C 
HETATM    4  C4  UNL     1     -33.203   6.989   6.078  1.00 20.00     0.011 C 
HETATM    5  C5  UNL     1     -34.954   7.067   4.253  1.00 20.00     0.011 C 
HETATM    6  C6  UNL     1     -33.476   7.356   4.602  1.00 20.00    -0.019 C 
ENDROOT
BRANCH   6   7
HETATM    7  C8  UNL     1     -32.535   6.573   3.666  1.00 20.00     0.007 C 
HETATM    8  C7  UNL     1     -32.237   7.348   2.430  1.00 20.00     0.006 C 
ENDBRANCH   6   7
BRANCH   6   9
HETATM    9  C9  UNL     1     -33.200   8.859   4.400  1.00 20.00     0.173 C 
BRANCH   9  10
HETATM   10  O10 UNL     1     -32.143   9.226   5.260  1.00 20.00    -0.400 OA
HETATM   11  H28 UNL     1     -31.988  10.180   5.137  1.00 20.00     0.209 HD
ENDBRANCH   9  10
ENDBRANCH   6   9
TORSDOF 3
ENDMDL
MODEL 9
REMARK VINA RESULT:      -3.4     18.707     19.858
REMARK  3 active torsions:
REMARK  status: ('A' for Active; 'I' for Inactive)
REMARK    1  A    between atoms: C6_6  and  C8_8 
REMARK    2  A    between atoms: C6_6  and  C9_9 
REMARK    3  A    between atoms: C9_9  and  O10_10 
ROOT
HETATM    1  C1  UNL     1     -34.633  17.551  -7.142  1.00 20.00     0.000 C 
HETATM    2  C2  UNL     1     -34.197  16.157  -7.576  1.00 20.00     0.001 C 
HETATM    3  C3  UNL     1     -34.698  17.681  -5.624  1.00 20.00     0.001 C 
HETATM    4  C4  UNL     1     -35.078  15.072  -6.956  1.00 20.00     0.011 C 
HETATM    5  C5  UNL     1     -35.579  16.598  -5.002  1.00 20.00     0.011 C 
HETATM    6  C6  UNL     1     -35.176  15.164  -5.418  1.00 20.00    -0.019 C 
ENDROOT
BRANCH   6   7
HETATM    7  C8  UNL     1     -33.838  14.767  -4.764  1.00 20.00     0.007 C 
HETATM    8  C7  UNL     1     -33.577  15.570  -3.538  1.00 20.00     0.006 C 
ENDBRANCH   6   7
BRANCH   6   9
HETATM    9  C9  UNL     1     -36.253  14.179  -4.924  1.00 20.00     0.173 C 
BRANCH   9  10
HETATM   10  O10 UNL     1     -35.600  13.026  -4.439  1.00 20.00    -0.400 OA
HETATM   11  H28 UNL     1     -34.646  13.147  -4.593  1.00 20.00     0.209 HD
ENDBRANCH   9  10
ENDBRANCH   6   9
TORSDOF 3
ENDMDL
