MODEL 1
REMARK VINA RESULT:      -4.4      0.000      0.000
REMARK  2 active torsions:
REMARK  status: ('A' for Active; 'I' for Inactive)
REMARK    1  A    between atoms: C2_2  and  C6_6 
REMARK    2  A    between atoms: C3_3  and  O7_7 
ROOT
HETATM    1  C1  UNL     1     -34.441   5.879   6.485  1.00 20.00     0.045 A 
HETATM    2  C2  UNL     1     -33.590   6.622   5.488  1.00 20.00     0.022 A 
HETATM    3  C3  UNL     1     -34.582   5.587   5.013  1.00 20.00     0.058 A 
HETATM    4  C4  UNL     1     -34.099   4.289   4.462  1.00 20.00     0.046 C 
ENDROOT
BRANCH   3   5
HETATM    5  O7  UNL     1     -35.788   6.066   4.393  1.00 20.00    -0.390 OA
HETATM    6  H19 UNL     1     -35.835   7.009   4.600  1.00 20.00     0.210 HD
ENDBRANCH   3   5
BRANCH   2   7
HETATM    7  C6  UNL     1     -33.809   8.077   5.256  1.00 20.00     0.003 C 
HETATM    8  C5  UNL     1     -32.574   8.788   4.763  1.00 20.00     0.005 C 
ENDBRANCH   2   7
TORSDOF 2
ENDMDL
MODEL 2
REMARK VINA RESULT:      -4.2      2.175      3.420
REMARK  2 active torsions:
REMARK  status: ('A' for Active; 'I' for Inactive)
REMARK    1  A    between atoms: C2_2  and  C6_6 
REMARK    2  A    between atoms: C3_3  and  O7_7 
ROOT
HETATM    1  C1  UNL     1     -34.152   8.430   4.327  1.00 20.00     0.045 A 
HETATM    2  C2  UNL     1     -33.878   7.037   4.832  1.00 20.00     0.022 A 
HETATM    3  C3  UNL     1     -32.743   7.894   4.323  1.00 20.00     0.058 A 
HETATM    4  C4  UNL     1     -32.078   7.559   3.030  1.00 20.00     0.046 C 
ENDROOT
BRANCH   3   5
HETATM    5  O7  UNL     1     -31.854   8.462   5.300  1.00 20.00    -0.390 OA
HETATM    6  H19 UNL     1     -31.459   9.236   4.879  1.00 20.00     0.210 HD
ENDBRANCH   3   5
BRANCH   2   7
HETATM    7  C6  UNL     1     -34.029   6.725   6.281  1.00 20.00     0.003 C 
HETATM    8  C5  UNL     1     -34.559   5.336   6.532  1.00 20.00     0.005 C 
ENDBRANCH   2   7
TORSDOF 2
ENDMDL
MODEL 3
REMARK VINA RESULT:      -4.1      1.703      2.147
REMARK  2 active torsions:
REMARK  status: ('A' for Active; 'I' for Inactive)
REMARK    1  A    between atoms: C2_2  and  C6_6 
REMARK    2  A    between atoms: C3_3  and  O7_7 
ROOT
HETATM    1  C1  UNL     1     -35.407   6.093   4.274  1.00 20.00     0.045 A 
HETATM    2  C2  UNL     1     -33.963   6.499   4.412  1.00 20.00     0.022 A 
HETATM    3  C3  UNL     1     -34.475   5.273   5.130  1.00 20.00     0.058 A 
HETATM    4  C4  UNL     1     -34.623   5.285   6.614  1.00 20.00     0.046 C 
ENDROOT
BRANCH   3   5
HETATM    5  O7  UNL     1     -34.101   3.991   4.596  1.00 20.00    -0.390 OA
HETATM    6  H19 UNL     1     -34.869   3.418   4.721  1.00 20.00     0.210 HD
ENDBRANCH   3   5
BRANCH   2   7
HETATM    7  C6  UNL     1     -33.042   6.391   3.245  1.00 20.00     0.003 C 
HETATM    8  C5  UNL     1     -32.143   7.592   3.092  1.00 20.00     0.005 C 
ENDBRANCH   2   7
TORSDOF 2
ENDMDL
MODEL 4
REMARK VINA RESULT:      -3.9      1.882      3.519
REMARK  2 active torsions:
REMARK  status: ('A' for Active; 'I' for Inactive)
REMARK    1  A    between atoms: C2_2  and  C6_6 
REMARK    2  A    between atoms: C3_3  and  O7_7 
ROOT
HETATM    1  C1  UNL     1     -32.448   8.383   5.022  1.00 20.00     0.045 A 
HETATM    2  C2  UNL     1     -33.825   7.974   4.566  1.00 20.00     0.022 A 
HETATM    3  C3  UNL     1     -32.702   8.100   3.563  1.00 20.00     0.058 A 
HETATM    4  C4  UNL     1     -32.705   9.219   2.577  1.00 20.00     0.046 C 
ENDROOT
BRANCH   3   5
HETATM    5  O7  UNL     1     -32.132   6.882   3.054  1.00 20.00    -0.390 OA
HETATM    6  H19 UNL     1     -32.208   6.937   2.092  1.00 20.00     0.210 HD
ENDBRANCH   3   5
BRANCH   2   7
HETATM    7  C6  UNL     1     -34.377   6.646   4.956  1.00 20.00     0.003 C 
HETATM    8  C5  UNL     1     -34.296   6.388   6.439  1.00 20.00     0.005 C 
ENDBRANCH   2   7
TORSDOF 2
ENDMDL
MODEL 5
REMARK VINA RESULT:      -3.7      8.464      9.506
REMARK  2 active torsions:
REMARK  status: ('A' for Active; 'I' for Inactive)
REMARK    1  A    between atoms: C2_2  and  C6_6 
REMARK    2  A    between atoms: C3_3  and  O7_7 
ROOT
HETATM    1  C1  UNL     1     -41.705  12.542   6.634  1.00 20.00     0.045 A 
HETATM    2  C2  UNL     1     -40.573  12.777   5.668  1.00 20.00     0.022 A 
HETATM    3  C3  UNL     1     -40.645  13.565   6.954  1.00 20.00     0.058 A 
HETATM    4  C4  UNL     1     -40.980  15.018   6.918  1.00 20.00     0.046 C 
ENDROOT
BRANCH   3   5
HETATM    5  O7  UNL     1     -39.726  13.208   8.000  1.00 20.00    -0.390 OA
HETATM    6  H19 UNL     1     -39.413  14.043   8.373  1.00 20.00     0.210 HD
ENDBRANCH   3   5
BRANCH   2   7
HETATM    7  C6  UNL     1     -39.540  11.723   5.457  1.00 20.00     0.003 C 
HETATM    8  C5  UNL     1     -39.005  11.697   4.048  1.00 20.00     0.005 C 
ENDBRANCH   2   7
TORSDOF 2
ENDMDL
MODEL 6
REMARK VINA RESULT:      -3.5     15.630     16.577
REMARK  2 active torsions:
REMARK  status: ('A' for Active; 'I' for Inactive)
REMARK    1  A    between atoms: C2_2  and  C6_6 
REMARK    2  A    between atoms: C3_3  and  O7_7 
ROOT
HETATM    1  C1  UNL     1     -22.429  18.441  10.735  1.00 20.00     0.045 A 
HETATM    2  C2  UNL     1     -23.784  17.859  10.425  1.00 20.00     0.022 A 
HETATM    3  C3  UNL     1     -22.691  17.830   9.383  1.00 20.00     0.058 A 
HETATM    4  C4  UNL     1     -22.788  18.703   8.177  1.00 20.00     0.046 C 
ENDROOT
BRANCH   3   5
HETATM    5  O7  UNL     1     -22.052  16.567   9.133  1.00 20.00    -0.390 OA
HETATM    6  H19 UNL     1     -22.590  16.126   8.462  1.00 20.00     0.210 HD
ENDBRANCH   3   5
BRANCH   2   7
HETATM    7  C6  UNL     1     -24.238  16.618  11.114  1.00 20.00     0.003 C 
HETATM    8  C5  UNL     1     -25.185  16.891  12.255  1.00 20.00     0.005 C 
ENDBRANCH   2   7
TORSDOF 2
ENDMDL
MODEL 7
REMARK VINA RESULT:      -3.5     12.678     13.254
REMARK  2 active torsions:
REMARK  status: ('A' for Active; 'I' for Inactive)
REMARK    1  A    between atoms: C2_2  and  C6_6 
REMARK    2  A    between atoms: C3_3  and  O7_7 
ROOT
HETATM    1  C1  UNL     1     -34.004  15.088  -6.061  1.00 20.00     0.045 A 
HETATM    2  C2  UNL     1     -34.177  15.844  -4.770  1.00 20.00     0.022 A 
HETATM    3  C3  UNL     1     -35.141  14.740  -5.135  1.00 20.00     0.058 A 
HETATM    4  C4  UNL     1     -36.543  15.073  -5.519  1.00 20.00     0.046 C 
ENDROOT
BRANCH   3   5
HETATM    5  O7  UNL     1     -35.015  13.494  -4.429  1.00 20.00    -0.390 OA
HETATM    6  H19 UNL     1     -35.488  13.613  -3.595  1.00 20.00     0.210 HD
ENDBRANCH   3   5
BRANCH   2   7
HETATM    7  C6  UNL     1     -33.184  15.681  -3.670  1.00 20.00     0.003 C 
HETATM    8  C5  UNL     1     -33.383  16.666  -2.547  1.00 20.00     0.005 C 
ENDBRANCH   2   7
TORSDOF 2
ENDMDL
MODEL 8
REMARK VINA RESULT:      -3.4     12.480     13.788
REMARK  2 active torsions:
REMARK  status: ('A' for Active; 'I' for Inactive)
REMARK    1  A    between atoms: C2_2  and  C6_6 
REMARK    2  A    between atoms: C3_3  and  O7_7 
ROOT
HETATM    1  C1  UNL     1     -34.437  14.315  -4.216  1.00 20.00     0.045 A 
HETATM    2  C2  UNL     1     -34.335  15.437  -5.216  1.00 20.00     0.022 A 
HETATM    3  C3  UNL     1     -33.315  15.315  -4.109  1.00 20.00     0.058 A 
HETATM    4  C4  UNL     1     -33.304  16.305  -2.993  1.00 20.00     0.046 C 
ENDROOT
BRANCH   3   5
HETATM    5  O7  UNL     1     -32.008  14.831  -4.466  1.00 20.00    -0.390 OA
HETATM    6  H19 UNL     1     -31.713  14.293  -3.720  1.00 20.00     0.210 HD
ENDBRANCH   3   5
BRANCH   2   7
HETATM    7  C6  UNL     1     -33.985  15.144  -6.635  1.00 20.00     0.003 C 
HETATM    8  C5  UNL     1     -34.355  16.263  -7.575  1.00 20.00     0.005 C 
ENDBRANCH   2   7
TORSDOF 2
ENDMDL
MODEL 9
REMARK VINA RESULT:      -3.4     13.047     13.943
REMARK  2 active torsions:
REMARK  status: ('A' for Active; 'I' for Inactive)
REMARK    1  A    between atoms: C2_2  and  C6_6 
REMARK    2  A    between atoms: C3_3  and  O7_7 
ROOT
HETATM    1  C1  UNL     1     -34.470  16.814  -5.797  1.00 20.00     0.045 A 
HETATM    2  C2  UNL     1     -34.476  15.900  -4.599  1.00 20.00     0.022 A 
HETATM    3  C3  UNL     1     -34.524  15.321  -5.993  1.00 20.00     0.058 A 
HETATM    4  C4  UNL     1     -35.776  14.681  -6.491  1.00 20.00     0.046 C 
ENDROOT
BRANCH   3   5
HETATM    5  O7  UNL     1     -33.323  14.711  -6.496  1.00 20.00    -0.390 OA
HETATM    6  H19 UNL     1     -33.498  13.761  -6.518  1.00 20.00     0.210 HD
ENDBRANCH   3   5
BRANCH   2   7
HETATM    7  C6  UNL     1     -33.261  15.779  -3.745  1.00 20.00     0.003 C 
HETATM    8  C5  UNL     1     -33.320  16.643  -2.511  1.00 20.00     0.005 C 
ENDBRANCH   2   7
TORSDOF 2
ENDMDL
