MODEL 1
REMARK VINA RESULT:      -4.6      0.000      0.000
REMARK  3 active torsions:
REMARK  status: ('A' for Active; 'I' for Inactive)
REMARK    1  A    between atoms: C1_1  and  C6_6 
REMARK    2  A    between atoms: C2_2  and  C7_7 
REMARK    3  A    between atoms: C3_3  and  C7_7 
ROOT
HETATM    1  C1  UNL     1     -33.630   7.472   5.797  1.00 20.00    -0.026 C 
HETATM    2  C2  UNL     1     -33.388   7.672   4.492  1.00 20.00    -0.020 C 
ENDROOT
BRANCH   2   3
HETATM    3  C7  UNL     1     -32.477   8.737   3.965  1.00 20.00     0.140 C 
BRANCH   3   4
HETATM    4  C3  UNL     1     -32.486   8.650   2.443  1.00 20.00     0.176 C 
HETATM    5  O8  UNL     1     -32.105   7.542   1.968  1.00 20.00    -0.648 OA
HETATM    6  O9  UNL     1     -32.859   9.697   1.846  1.00 20.00    -0.648 OA
ENDBRANCH   3   4
ENDBRANCH   2   3
BRANCH   1   7
HETATM    7  C6  UNL     1     -34.525   6.445   6.358  1.00 20.00     0.008 A 
HETATM    8  C4  UNL     1     -35.119   5.437   5.427  1.00 20.00     0.009 A 
HETATM    9  C5  UNL     1     -34.048   5.028   6.392  1.00 20.00     0.009 A 
ENDBRANCH   1   7
TORSDOF 3
ENDMDL
MODEL 2
REMARK VINA RESULT:      -4.6      0.019      1.078
REMARK  3 active torsions:
REMARK  status: ('A' for Active; 'I' for Inactive)
REMARK    1  A    between atoms: C1_1  and  C6_6 
REMARK    2  A    between atoms: C2_2  and  C7_7 
REMARK    3  A    between atoms: C3_3  and  C7_7 
ROOT
HETATM    1  C1  UNL     1     -33.648   7.474   5.792  1.00 20.00    -0.026 C 
HETATM    2  C2  UNL     1     -33.379   7.656   4.489  1.00 20.00    -0.020 C 
ENDROOT
BRANCH   2   3
HETATM    3  C7  UNL     1     -32.478   8.730   3.964  1.00 20.00     0.140 C 
BRANCH   3   4
HETATM    4  C3  UNL     1     -32.470   8.631   2.443  1.00 20.00     0.176 C 
HETATM    5  O8  UNL     1     -32.852   9.672   1.836  1.00 20.00    -0.648 OA
HETATM    6  O9  UNL     1     -32.096   7.518   1.978  1.00 20.00    -0.648 OA
ENDBRANCH   3   4
ENDBRANCH   2   3
BRANCH   1   7
HETATM    7  C6  UNL     1     -34.535   6.439   6.351  1.00 20.00     0.008 A 
HETATM    8  C4  UNL     1     -35.111   5.420   5.420  1.00 20.00     0.009 A 
HETATM    9  C5  UNL     1     -34.042   5.028   6.395  1.00 20.00     0.009 A 
ENDBRANCH   1   7
TORSDOF 3
ENDMDL
MODEL 3
REMARK VINA RESULT:      -4.3     11.589     12.134
REMARK  3 active torsions:
REMARK  status: ('A' for Active; 'I' for Inactive)
REMARK    1  A    between atoms: C1_1  and  C6_6 
REMARK    2  A    between atoms: C2_2  and  C7_7 
REMARK    3  A    between atoms: C3_3  and  C7_7 
ROOT
HETATM    1  C1  UNL     1     -33.476  16.576  -2.395  1.00 20.00    -0.026 C 
HETATM    2  C2  UNL     1     -32.745  17.549  -1.829  1.00 20.00    -0.020 C 
ENDROOT
BRANCH   2   3
HETATM    3  C7  UNL     1     -33.074  18.182  -0.512  1.00 20.00     0.140 C 
BRANCH   3   4
HETATM    4  C3  UNL     1     -31.762  18.478   0.205  1.00 20.00     0.176 C 
HETATM    5  O8  UNL     1     -31.816  18.421   1.466  1.00 20.00    -0.648 OA
HETATM    6  O9  UNL     1     -30.788  18.757  -0.549  1.00 20.00    -0.648 OA
ENDBRANCH   3   4
ENDBRANCH   2   3
BRANCH   1   7
HETATM    7  C6  UNL     1     -33.196  15.933  -3.691  1.00 20.00     0.008 A 
HETATM    8  C4  UNL     1     -33.969  14.706  -4.056  1.00 20.00     0.009 A 
HETATM    9  C5  UNL     1     -34.240  16.001  -4.759  1.00 20.00     0.009 A 
ENDBRANCH   1   7
TORSDOF 3
ENDMDL
MODEL 4
REMARK VINA RESULT:      -4.2      2.512      4.519
REMARK  3 active torsions:
REMARK  status: ('A' for Active; 'I' for Inactive)
REMARK    1  A    between atoms: C1_1  and  C6_6 
REMARK    2  A    between atoms: C2_2  and  C7_7 
REMARK    3  A    between atoms: C3_3  and  C7_7 
ROOT
HETATM    1  C1  UNL     1     -32.891   7.237   4.128  1.00 20.00    -0.026 C 
HETATM    2  C2  UNL     1     -33.508   7.524   5.285  1.00 20.00    -0.020 C 
ENDROOT
BRANCH   2   3
HETATM    3  C7  UNL     1     -34.309   6.535   6.073  1.00 20.00     0.140 C 
BRANCH   3   4
HETATM    4  C3  UNL     1     -34.901   5.527   5.094  1.00 20.00     0.176 C 
HETATM    5  O8  UNL     1     -35.861   5.961   4.394  1.00 20.00    -0.648 OA
HETATM    6  O9  UNL     1     -34.370   4.382   5.114  1.00 20.00    -0.648 OA
ENDBRANCH   3   4
ENDBRANCH   2   3
BRANCH   1   7
HETATM    7  C6  UNL     1     -32.103   8.181   3.316  1.00 20.00     0.008 A 
HETATM    8  C4  UNL     1     -32.116   8.019   1.829  1.00 20.00     0.009 A 
HETATM    9  C5  UNL     1     -32.835   9.170   2.466  1.00 20.00     0.009 A 
ENDBRANCH   1   7
TORSDOF 3
ENDMDL
MODEL 5
REMARK VINA RESULT:      -4.2      2.512      4.403
REMARK  3 active torsions:
REMARK  status: ('A' for Active; 'I' for Inactive)
REMARK    1  A    between atoms: C1_1  and  C6_6 
REMARK    2  A    between atoms: C2_2  and  C7_7 
REMARK    3  A    between atoms: C3_3  and  C7_7 
ROOT
HETATM    1  C1  UNL     1     -32.863   7.243   4.136  1.00 20.00    -0.026 C 
HETATM    2  C2  UNL     1     -33.524   7.558   5.261  1.00 20.00    -0.020 C 
ENDROOT
BRANCH   2   3
HETATM    3  C7  UNL     1     -34.309   6.574   6.072  1.00 20.00     0.140 C 
BRANCH   3   4
HETATM    4  C3  UNL     1     -34.899   5.544   5.116  1.00 20.00     0.176 C 
HETATM    5  O8  UNL     1     -34.356   4.404   5.154  1.00 20.00    -0.648 OA
HETATM    6  O9  UNL     1     -35.848   5.962   4.395  1.00 20.00    -0.648 OA
ENDBRANCH   3   4
ENDBRANCH   2   3
BRANCH   1   7
HETATM    7  C6  UNL     1     -32.089   8.179   3.303  1.00 20.00     0.008 A 
HETATM    8  C4  UNL     1     -32.117   7.998   1.819  1.00 20.00     0.009 A 
HETATM    9  C5  UNL     1     -32.834   9.153   2.448  1.00 20.00     0.009 A 
ENDBRANCH   1   7
TORSDOF 3
ENDMDL
MODEL 6
REMARK VINA RESULT:      -4.0     11.571     12.376
REMARK  3 active torsions:
REMARK  status: ('A' for Active; 'I' for Inactive)
REMARK    1  A    between atoms: C1_1  and  C6_6 
REMARK    2  A    between atoms: C2_2  and  C7_7 
REMARK    3  A    between atoms: C3_3  and  C7_7 
ROOT
HETATM    1  C1  UNL     1     -33.709  16.487  -3.617  1.00 20.00    -0.026 C 
HETATM    2  C2  UNL     1     -33.930  15.321  -4.244  1.00 20.00    -0.020 C 
ENDROOT
BRANCH   2   3
HETATM    3  C7  UNL     1     -34.247  15.204  -5.703  1.00 20.00     0.140 C 
BRANCH   3   4
HETATM    4  C3  UNL     1     -35.536  14.401  -5.838  1.00 20.00     0.176 C 
HETATM    5  O8  UNL     1     -35.934  13.844  -4.776  1.00 20.00    -0.648 OA
HETATM    6  O9  UNL     1     -36.038  14.380  -6.997  1.00 20.00    -0.648 OA
ENDBRANCH   3   4
ENDBRANCH   2   3
BRANCH   1   7
HETATM    7  C6  UNL     1     -33.405  16.649  -2.184  1.00 20.00     0.008 A 
HETATM    8  C4  UNL     1     -32.578  17.822  -1.763  1.00 20.00     0.009 A 
HETATM    9  C5  UNL     1     -34.042  17.782  -1.446  1.00 20.00     0.009 A 
ENDBRANCH   1   7
TORSDOF 3
ENDMDL
MODEL 7
REMARK VINA RESULT:      -3.9     11.362     11.951
REMARK  3 active torsions:
REMARK  status: ('A' for Active; 'I' for Inactive)
REMARK    1  A    between atoms: C1_1  and  C6_6 
REMARK    2  A    between atoms: C2_2  and  C7_7 
REMARK    3  A    between atoms: C3_3  and  C7_7 
ROOT
HETATM    1  C1  UNL     1     -33.377  16.653  -2.192  1.00 20.00    -0.026 C 
HETATM    2  C2  UNL     1     -33.352  16.446  -3.518  1.00 20.00    -0.020 C 
ENDROOT
BRANCH   2   3
HETATM    3  C7  UNL     1     -33.025  15.129  -4.152  1.00 20.00     0.140 C 
BRANCH   3   4
HETATM    4  C3  UNL     1     -34.305  14.576  -4.767  1.00 20.00     0.176 C 
HETATM    5  O8  UNL     1     -34.657  15.121  -5.852  1.00 20.00    -0.648 OA
HETATM    6  O9  UNL     1     -34.862  13.652  -4.111  1.00 20.00    -0.648 OA
ENDBRANCH   3   4
ENDBRANCH   2   3
BRANCH   1   7
HETATM    7  C6  UNL     1     -33.682  17.932  -1.526  1.00 20.00     0.008 A 
HETATM    8  C4  UNL     1     -33.809  17.943  -0.036  1.00 20.00     0.009 A 
HETATM    9  C5  UNL     1     -32.618  18.572  -0.695  1.00 20.00     0.009 A 
ENDBRANCH   1   7
TORSDOF 3
ENDMDL
MODEL 8
REMARK VINA RESULT:      -3.9     14.798     15.716
REMARK  3 active torsions:
REMARK  status: ('A' for Active; 'I' for Inactive)
REMARK    1  A    between atoms: C1_1  and  C6_6 
REMARK    2  A    between atoms: C2_2  and  C7_7 
REMARK    3  A    between atoms: C3_3  and  C7_7 
ROOT
HETATM    1  C1  UNL     1     -23.395  18.161  10.799  1.00 20.00    -0.026 C 
HETATM    2  C2  UNL     1     -22.126  18.287  10.380  1.00 20.00    -0.020 C 
ENDROOT
BRANCH   2   3
HETATM    3  C7  UNL     1     -21.726  19.016   9.135  1.00 20.00     0.140 C 
BRANCH   3   4
HETATM    4  C3  UNL     1     -22.330  18.279   7.946  1.00 20.00     0.176 C 
HETATM    5  O8  UNL     1     -21.852  17.129   7.729  1.00 20.00    -0.648 OA
HETATM    6  O9  UNL     1     -23.224  18.912   7.317  1.00 20.00    -0.648 OA
ENDBRANCH   3   4
ENDBRANCH   2   3
BRANCH   1   7
HETATM    7  C6  UNL     1     -23.834  17.444  12.009  1.00 20.00     0.008 A 
HETATM    8  C4  UNL     1     -25.297  17.194  12.194  1.00 20.00     0.009 A 
HETATM    9  C5  UNL     1     -24.378  16.060  11.858  1.00 20.00     0.009 A 
ENDBRANCH   1   7
TORSDOF 3
ENDMDL
MODEL 9
REMARK VINA RESULT:      -3.7     11.755     12.296
REMARK  3 active torsions:
REMARK  status: ('A' for Active; 'I' for Inactive)
REMARK    1  A    between atoms: C1_1  and  C6_6 
REMARK    2  A    between atoms: C2_2  and  C7_7 
REMARK    3  A    between atoms: C3_3  and  C7_7 
ROOT
HETATM    1  C1  UNL     1     -33.790  17.494  -1.023  1.00 20.00    -0.026 C 
HETATM    2  C2  UNL     1     -32.802  18.268  -0.547  1.00 20.00    -0.020 C 
ENDROOT
BRANCH   2   3
HETATM    3  C7  UNL     1     -32.522  18.464   0.910  1.00 20.00     0.140 C 
BRANCH   3   4
HETATM    4  C3  UNL     1     -31.016  18.625   1.081  1.00 20.00     0.176 C 
HETATM    5  O8  UNL     1     -30.396  18.991   0.042  1.00 20.00    -0.648 OA
HETATM    6  O9  UNL     1     -30.574  18.361   2.233  1.00 20.00    -0.648 OA
ENDBRANCH   3   4
ENDBRANCH   2   3
BRANCH   1   7
HETATM    7  C6  UNL     1     -34.106  17.280  -2.446  1.00 20.00     0.008 A 
HETATM    8  C4  UNL     1     -33.132  17.768  -3.470  1.00 20.00     0.009 A 
HETATM    9  C5  UNL     1     -33.284  16.299  -3.217  1.00 20.00     0.009 A 
ENDBRANCH   1   7
TORSDOF 3
ENDMDL
