MODEL 1
REMARK VINA RESULT:      -4.9      0.000      0.000
REMARK  3 active torsions:
REMARK  status: ('A' for Active; 'I' for Inactive)
REMARK    1  A    between atoms: C4_4  and  C5_5 
REMARK    2  A    between atoms: C5_5  and  C6_6 
REMARK    3  A    between atoms: C6_6  and  N8_8 
ROOT
HETATM    1  C1  UNL     1     -32.265   7.722   3.603  1.00 20.00     0.177 C 
HETATM    2  N7  UNL     1     -32.113   7.341   2.518  1.00 20.00    -0.172 NA
HETATM    3  N8  UNL     1     -32.474   8.161   4.884  1.00 20.00    -0.329 N 
HETATM    4  H18 UNL     1     -31.861   8.939   5.219  1.00 20.00     0.171 HD
ENDROOT
BRANCH   3   5
HETATM    5  C6  UNL     1     -33.702   8.020   5.614  1.00 20.00     0.132 C 
BRANCH   5   6
HETATM    6  C5  UNL     1     -33.740   6.743   6.446  1.00 20.00     0.025 C 
BRANCH   6   7
HETATM    7  C4  UNL     1     -34.771   5.743   5.942  1.00 20.00    -0.013 A 
HETATM    8  C2  UNL     1     -35.316   5.855   4.545  1.00 20.00     0.005 A 
HETATM    9  C3  UNL     1     -34.392   4.725   4.901  1.00 20.00     0.005 A 
ENDBRANCH   6   7
ENDBRANCH   5   6
ENDBRANCH   3   5
TORSDOF 3
ENDMDL
MODEL 2
REMARK VINA RESULT:      -4.5      2.051      3.506
REMARK  3 active torsions:
REMARK  status: ('A' for Active; 'I' for Inactive)
REMARK    1  A    between atoms: C4_4  and  C5_5 
REMARK    2  A    between atoms: C5_5  and  C6_6 
REMARK    3  A    between atoms: C6_6  and  N8_8 
ROOT
HETATM    1  C1  UNL     1     -34.471   5.027   5.314  1.00 20.00     0.177 C 
HETATM    2  N7  UNL     1     -34.317   4.262   4.455  1.00 20.00    -0.172 NA
HETATM    3  N8  UNL     1     -34.630   5.947   6.315  1.00 20.00    -0.329 N 
HETATM    4  H18 UNL     1     -35.054   5.602   7.207  1.00 20.00     0.171 HD
ENDROOT
BRANCH   3   5
HETATM    5  C6  UNL     1     -33.869   7.157   6.452  1.00 20.00     0.132 C 
BRANCH   5   6
HETATM    6  C5  UNL     1     -33.911   8.015   5.193  1.00 20.00     0.025 C 
BRANCH   6   7
HETATM    7  C4  UNL     1     -32.559   8.110   4.501  1.00 20.00    -0.013 A 
HETATM    8  C2  UNL     1     -32.283   7.305   3.261  1.00 20.00     0.005 A 
HETATM    9  C3  UNL     1     -32.436   8.797   3.169  1.00 20.00     0.005 A 
ENDBRANCH   6   7
ENDBRANCH   5   6
ENDBRANCH   3   5
TORSDOF 3
ENDMDL
MODEL 3
REMARK VINA RESULT:      -4.5      1.158      1.234
REMARK  3 active torsions:
REMARK  status: ('A' for Active; 'I' for Inactive)
REMARK    1  A    between atoms: C4_4  and  C5_5 
REMARK    2  A    between atoms: C5_5  and  C6_6 
REMARK    3  A    between atoms: C6_6  and  N8_8 
ROOT
HETATM    1  C1  UNL     1     -32.603   6.516   3.014  1.00 20.00     0.177 C 
HETATM    2  N7  UNL     1     -32.695   5.465   2.530  1.00 20.00    -0.172 NA
HETATM    3  N8  UNL     1     -32.518   7.748   3.606  1.00 20.00    -0.329 N 
HETATM    4  H18 UNL     1     -32.083   8.512   3.038  1.00 20.00     0.171 HD
ENDROOT
BRANCH   3   5
HETATM    5  C6  UNL     1     -33.360   8.210   4.672  1.00 20.00     0.132 C 
BRANCH   5   6
HETATM    6  C5  UNL     1     -33.247   7.342   5.920  1.00 20.00     0.025 C 
BRANCH   6   7
HETATM    7  C4  UNL     1     -34.508   6.533   6.189  1.00 20.00    -0.013 A 
HETATM    8  C2  UNL     1     -35.190   5.796   5.070  1.00 20.00     0.005 A 
HETATM    9  C3  UNL     1     -34.468   5.030   6.143  1.00 20.00     0.005 A 
ENDBRANCH   6   7
ENDBRANCH   5   6
ENDBRANCH   3   5
TORSDOF 3
ENDMDL
MODEL 4
REMARK VINA RESULT:      -4.4      2.133      3.426
REMARK  3 active torsions:
REMARK  status: ('A' for Active; 'I' for Inactive)
REMARK    1  A    between atoms: C4_4  and  C5_5 
REMARK    2  A    between atoms: C5_5  and  C6_6 
REMARK    3  A    between atoms: C6_6  and  N8_8 
ROOT
HETATM    1  C1  UNL     1     -34.442   4.683   4.975  1.00 20.00     0.177 C 
HETATM    2  N7  UNL     1     -34.028   4.245   3.984  1.00 20.00    -0.172 NA
HETATM    3  N8  UNL     1     -34.919   5.228   6.138  1.00 20.00    -0.329 N 
HETATM    4  H18 UNL     1     -35.118   4.563   6.920  1.00 20.00     0.171 HD
ENDROOT
BRANCH   3   5
HETATM    5  C6  UNL     1     -34.720   6.587   6.553  1.00 20.00     0.132 C 
BRANCH   5   6
HETATM    6  C5  UNL     1     -33.342   7.116   6.171  1.00 20.00     0.025 C 
BRANCH   6   7
HETATM    7  C4  UNL     1     -33.388   8.075   4.990  1.00 20.00    -0.013 A 
HETATM    8  C2  UNL     1     -32.230   8.994   4.714  1.00 20.00     0.005 A 
HETATM    9  C3  UNL     1     -32.510   7.841   3.791  1.00 20.00     0.005 A 
ENDBRANCH   6   7
ENDBRANCH   5   6
ENDBRANCH   3   5
TORSDOF 3
ENDMDL
MODEL 5
REMARK VINA RESULT:      -4.2      1.123      1.645
REMARK  3 active torsions:
REMARK  status: ('A' for Active; 'I' for Inactive)
REMARK    1  A    between atoms: C4_4  and  C5_5 
REMARK    2  A    between atoms: C5_5  and  C6_6 
REMARK    3  A    between atoms: C6_6  and  N8_8 
ROOT
HETATM    1  C1  UNL     1     -32.193   7.982   2.031  1.00 20.00     0.177 C 
HETATM    2  N7  UNL     1     -32.246   8.409   0.954  1.00 20.00    -0.172 NA
HETATM    3  N8  UNL     1     -32.137   7.507   3.314  1.00 20.00    -0.329 N 
HETATM    4  H18 UNL     1     -31.554   6.653   3.473  1.00 20.00     0.171 HD
ENDROOT
BRANCH   3   5
HETATM    5  C6  UNL     1     -32.374   8.289   4.495  1.00 20.00     0.132 C 
BRANCH   5   6
HETATM    6  C5  UNL     1     -33.611   7.829   5.257  1.00 20.00     0.025 C 
BRANCH   6   7
HETATM    7  C4  UNL     1     -33.860   6.333   5.126  1.00 20.00    -0.013 A 
HETATM    8  C2  UNL     1     -34.686   5.609   6.153  1.00 20.00     0.005 A 
HETATM    9  C3  UNL     1     -35.228   5.821   4.767  1.00 20.00     0.005 A 
ENDBRANCH   6   7
ENDBRANCH   5   6
ENDBRANCH   3   5
TORSDOF 3
ENDMDL
MODEL 6
REMARK VINA RESULT:      -4.2      1.146      2.517
REMARK  3 active torsions:
REMARK  status: ('A' for Active; 'I' for Inactive)
REMARK    1  A    between atoms: C4_4  and  C5_5 
REMARK    2  A    between atoms: C5_5  and  C6_6 
REMARK    3  A    between atoms: C6_6  and  N8_8 
ROOT
HETATM    1  C1  UNL     1     -32.571   6.583   3.046  1.00 20.00     0.177 C 
HETATM    2  N7  UNL     1     -32.126   7.645   3.189  1.00 20.00    -0.172 NA
HETATM    3  N8  UNL     1     -33.111   5.332   2.905  1.00 20.00    -0.329 N 
HETATM    4  H18 UNL     1     -32.610   4.674   2.263  1.00 20.00     0.171 HD
ENDROOT
BRANCH   3   5
HETATM    5  C6  UNL     1     -33.962   4.688   3.865  1.00 20.00     0.132 C 
BRANCH   5   6
HETATM    6  C5  UNL     1     -35.046   5.618   4.397  1.00 20.00     0.025 C 
BRANCH   6   7
HETATM    7  C4  UNL     1     -34.944   5.842   5.899  1.00 20.00    -0.013 A 
HETATM    8  C2  UNL     1     -33.654   5.564   6.621  1.00 20.00     0.005 A 
HETATM    9  C3  UNL     1     -34.123   6.980   6.441  1.00 20.00     0.005 A 
ENDBRANCH   6   7
ENDBRANCH   5   6
ENDBRANCH   3   5
TORSDOF 3
ENDMDL
MODEL 7
REMARK VINA RESULT:      -4.1      1.878      3.177
REMARK  3 active torsions:
REMARK  status: ('A' for Active; 'I' for Inactive)
REMARK    1  A    between atoms: C4_4  and  C5_5 
REMARK    2  A    between atoms: C5_5  and  C6_6 
REMARK    3  A    between atoms: C6_6  and  N8_8 
ROOT
HETATM    1  C1  UNL     1     -33.637   4.940   3.507  1.00 20.00     0.177 C 
HETATM    2  N7  UNL     1     -32.931   5.013   2.589  1.00 20.00    -0.172 NA
HETATM    3  N8  UNL     1     -34.469   4.886   4.594  1.00 20.00    -0.329 N 
HETATM    4  H18 UNL     1     -34.524   3.970   5.097  1.00 20.00     0.171 HD
ENDROOT
BRANCH   3   5
HETATM    5  C6  UNL     1     -34.876   6.017   5.378  1.00 20.00     0.132 C 
BRANCH   5   6
HETATM    6  C5  UNL     1     -33.697   6.890   5.794  1.00 20.00     0.025 C 
BRANCH   6   7
HETATM    7  C4  UNL     1     -33.553   8.133   4.929  1.00 20.00    -0.013 A 
HETATM    8  C2  UNL     1     -32.391   9.067   5.131  1.00 20.00     0.005 A 
HETATM    9  C3  UNL     1     -32.463   8.214   3.895  1.00 20.00     0.005 A 
ENDBRANCH   6   7
ENDBRANCH   5   6
ENDBRANCH   3   5
TORSDOF 3
ENDMDL
MODEL 8
REMARK VINA RESULT:      -4.0      1.074      2.280
REMARK  3 active torsions:
REMARK  status: ('A' for Active; 'I' for Inactive)
REMARK    1  A    between atoms: C4_4  and  C5_5 
REMARK    2  A    between atoms: C5_5  and  C6_6 
REMARK    3  A    between atoms: C6_6  and  N8_8 
ROOT
HETATM    1  C1  UNL     1     -32.426   7.807   3.969  1.00 20.00     0.177 C 
HETATM    2  N7  UNL     1     -32.297   8.731   4.659  1.00 20.00    -0.172 NA
HETATM    3  N8  UNL     1     -32.599   6.704   3.175  1.00 20.00    -0.329 N 
HETATM    4  H18 UNL     1     -31.816   6.469   2.522  1.00 20.00     0.171 HD
ENDROOT
BRANCH   3   5
HETATM    5  C6  UNL     1     -33.473   5.605   3.471  1.00 20.00     0.132 C 
BRANCH   5   6
HETATM    6  C5  UNL     1     -34.807   6.062   4.051  1.00 20.00     0.025 C 
BRANCH   6   7
HETATM    7  C4  UNL     1     -35.030   5.566   5.472  1.00 20.00    -0.013 A 
HETATM    8  C2  UNL     1     -33.862   5.141   6.320  1.00 20.00     0.005 A 
HETATM    9  C3  UNL     1     -34.603   6.408   6.644  1.00 20.00     0.005 A 
ENDBRANCH   6   7
ENDBRANCH   5   6
ENDBRANCH   3   5
TORSDOF 3
ENDMDL
MODEL 9
REMARK VINA RESULT:      -3.7      2.051      3.878
REMARK  3 active torsions:
REMARK  status: ('A' for Active; 'I' for Inactive)
REMARK    1  A    between atoms: C4_4  and  C5_5 
REMARK    2  A    between atoms: C5_5  and  C6_6 
REMARK    3  A    between atoms: C6_6  and  N8_8 
ROOT
HETATM    1  C1  UNL     1     -34.008   4.831   4.066  1.00 20.00     0.177 C 
HETATM    2  N7  UNL     1     -34.752   4.693   4.946  1.00 20.00    -0.172 NA
HETATM    3  N8  UNL     1     -33.138   5.026   3.027  1.00 20.00    -0.329 N 
HETATM    4  H18 UNL     1     -32.906   4.187   2.446  1.00 20.00     0.171 HD
ENDROOT
BRANCH   3   5
HETATM    5  C6  UNL     1     -32.902   6.282   2.373  1.00 20.00     0.132 C 
BRANCH   5   6
HETATM    6  C5  UNL     1     -32.042   7.221   3.211  1.00 20.00     0.025 C 
BRANCH   6   7
HETATM    7  C4  UNL     1     -32.850   8.338   3.857  1.00 20.00    -0.013 A 
HETATM    8  C2  UNL     1     -33.455   8.146   5.220  1.00 20.00     0.005 A 
HETATM    9  C3  UNL     1     -32.297   9.088   5.037  1.00 20.00     0.005 A 
ENDBRANCH   6   7
ENDBRANCH   5   6
ENDBRANCH   3   5
TORSDOF 3
ENDMDL
