MODEL 1
REMARK VINA RESULT:      -3.8      0.000      0.000
REMARK  1 active torsions:
REMARK  status: ('A' for Active; 'I' for Inactive)
REMARK    1  A    between atoms: C1_1  and  C7_7 
ROOT
HETATM    1  C2  UNL     1     -35.276  15.210  -7.446  1.00 20.00     0.002 C 
HETATM    2  C3  UNL     1     -34.048  15.153  -6.548  1.00 20.00     0.010 C 
HETATM    3  C4  UNL     1     -35.900  16.607  -7.472  1.00 20.00     0.009 C 
HETATM    4  C5  UNL     1     -34.069  14.520  -4.032  1.00 20.00     0.026 A 
HETATM    5  C6  UNL     1     -35.678  16.312  -4.944  1.00 20.00     0.019 C 
HETATM    6  C7  UNL     1     -33.201  15.737  -4.174  1.00 20.00     0.096 A 
HETATM    7  C8  UNL     1     -34.385  15.528  -5.116  1.00 20.00    -0.025 A 
HETATM    8  C9  UNL     1     -35.926  17.318  -6.092  1.00 20.00    -0.047 C 
HETATM    9  C10 UNL     1     -34.870  18.441  -6.055  1.00 20.00     0.015 C 
HETATM   10  C11 UNL     1     -37.306  17.972  -5.887  1.00 20.00     0.015 C 
ENDROOT
BRANCH   6  11
HETATM   11  C1  UNL     1     -33.271  16.746  -3.136  1.00 20.00     0.177 C 
HETATM   12  O12 UNL     1     -32.923  17.907  -3.487  1.00 20.00    -0.648 OA
HETATM   13  O13 UNL     1     -33.671  16.325  -2.014  1.00 20.00    -0.648 OA
ENDBRANCH   6  11
TORSDOF 1
ENDMDL
MODEL 2
REMARK VINA RESULT:      -3.8     13.379     14.630
REMARK  1 active torsions:
REMARK  status: ('A' for Active; 'I' for Inactive)
REMARK    1  A    between atoms: C1_1  and  C7_7 
ROOT
HETATM    1  C2  UNL     1     -42.300  15.497   5.008  1.00 20.00     0.002 C 
HETATM    2  C3  UNL     1     -42.649  15.792   6.460  1.00 20.00     0.010 C 
HETATM    3  C4  UNL     1     -42.025  14.009   4.777  1.00 20.00     0.009 C 
HETATM    4  C5  UNL     1     -40.941  16.453   8.299  1.00 20.00     0.026 A 
HETATM    5  C6  UNL     1     -40.539  14.382   6.822  1.00 20.00     0.019 C 
HETATM    6  C7  UNL     1     -41.848  15.412   8.891  1.00 20.00     0.096 A 
HETATM    7  C8  UNL     1     -41.527  15.386   7.398  1.00 20.00    -0.025 A 
HETATM    8  C9  UNL     1     -41.215  13.329   5.914  1.00 20.00    -0.047 C 
HETATM    9  C10 UNL     1     -42.137  12.418   6.750  1.00 20.00     0.015 C 
HETATM   10  C11 UNL     1     -40.122  12.438   5.291  1.00 20.00     0.015 C 
ENDROOT
BRANCH   6  11
HETATM   11  C1  UNL     1     -41.262  14.426   9.775  1.00 20.00     0.177 C 
HETATM   12  O12 UNL     1     -41.962  13.394   9.972  1.00 20.00    -0.648 OA
HETATM   13  O13 UNL     1     -40.125  14.733  10.234  1.00 20.00    -0.648 OA
ENDBRANCH   6  11
TORSDOF 1
ENDMDL
MODEL 3
REMARK VINA RESULT:      -3.7      1.777      2.521
REMARK  1 active torsions:
REMARK  status: ('A' for Active; 'I' for Inactive)
REMARK    1  A    between atoms: C1_1  and  C7_7 
ROOT
HETATM    1  C2  UNL     1     -35.645  18.453  -7.203  1.00 20.00     0.002 C 
HETATM    2  C3  UNL     1     -34.787  17.198  -7.270  1.00 20.00     0.010 C 
HETATM    3  C4  UNL     1     -35.375  19.263  -5.933  1.00 20.00     0.009 C 
HETATM    4  C5  UNL     1     -35.484  14.865  -6.373  1.00 20.00     0.026 A 
HETATM    5  C6  UNL     1     -35.685  16.955  -4.882  1.00 20.00     0.019 C 
HETATM    6  C7  UNL     1     -34.075  15.112  -5.915  1.00 20.00     0.096 A 
HETATM    7  C8  UNL     1     -35.040  16.283  -6.085  1.00 20.00    -0.025 A 
HETATM    8  C9  UNL     1     -35.179  18.399  -4.658  1.00 20.00    -0.047 C 
HETATM    9  C10 UNL     1     -33.691  18.385  -4.251  1.00 20.00     0.015 C 
HETATM   10  C11 UNL     1     -35.973  19.027  -3.496  1.00 20.00     0.015 C 
ENDROOT
BRANCH   6  11
HETATM   11  C1  UNL     1     -33.705  14.666  -4.587  1.00 20.00     0.177 C 
HETATM   12  O12 UNL     1     -32.634  15.154  -4.133  1.00 20.00    -0.648 OA
HETATM   13  O13 UNL     1     -34.507  13.843  -4.061  1.00 20.00    -0.648 OA
ENDBRANCH   6  11
TORSDOF 1
ENDMDL
MODEL 4
REMARK VINA RESULT:      -3.7      2.099      3.351
REMARK  1 active torsions:
REMARK  status: ('A' for Active; 'I' for Inactive)
REMARK    1  A    between atoms: C1_1  and  C7_7 
ROOT
HETATM    1  C2  UNL     1     -34.353  18.643  -6.431  1.00 20.00     0.002 C 
HETATM    2  C3  UNL     1     -34.344  17.158  -6.766  1.00 20.00     0.010 C 
HETATM    3  C4  UNL     1     -33.944  18.904  -4.980  1.00 20.00     0.009 C 
HETATM    4  C5  UNL     1     -36.383  15.568  -6.551  1.00 20.00     0.026 A 
HETATM    5  C6  UNL     1     -35.689  17.080  -4.585  1.00 20.00     0.019 C 
HETATM    6  C7  UNL     1     -35.203  14.856  -5.954  1.00 20.00     0.096 A 
HETATM    7  C8  UNL     1     -35.297  16.379  -5.878  1.00 20.00    -0.025 A 
HETATM    8  C9  UNL     1     -34.525  17.885  -3.962  1.00 20.00    -0.047 C 
HETATM    9  C10 UNL     1     -33.416  16.930  -3.477  1.00 20.00     0.015 C 
HETATM   10  C11 UNL     1     -35.054  18.648  -2.731  1.00 20.00     0.015 C 
ENDROOT
BRANCH   6  11
HETATM   11  C1  UNL     1     -35.423  14.057  -4.766  1.00 20.00     0.177 C 
HETATM   12  O12 UNL     1     -34.400  13.853  -4.056  1.00 20.00    -0.648 OA
HETATM   13  O13 UNL     1     -36.614  13.667  -4.602  1.00 20.00    -0.648 OA
ENDBRANCH   6  11
TORSDOF 1
ENDMDL
MODEL 5
REMARK VINA RESULT:      -3.7      2.621      3.931
REMARK  1 active torsions:
REMARK  status: ('A' for Active; 'I' for Inactive)
REMARK    1  A    between atoms: C1_1  and  C7_7 
ROOT
HETATM    1  C2  UNL     1     -33.024  15.549  -3.841  1.00 20.00     0.002 C 
HETATM    2  C3  UNL     1     -34.388  14.935  -4.124  1.00 20.00     0.010 C 
HETATM    3  C4  UNL     1     -33.132  17.027  -3.459  1.00 20.00     0.009 C 
HETATM    4  C5  UNL     1     -35.516  14.821  -6.458  1.00 20.00     0.026 A 
HETATM    5  C6  UNL     1     -34.581  17.047  -5.563  1.00 20.00     0.019 C 
HETATM    6  C7  UNL     1     -36.562  15.280  -5.483  1.00 20.00     0.096 A 
HETATM    7  C8  UNL     1     -35.097  15.648  -5.261  1.00 20.00    -0.025 A 
HETATM    8  C9  UNL     1     -34.174  17.824  -4.289  1.00 20.00    -0.047 C 
HETATM    9  C10 UNL     1     -35.418  18.125  -3.429  1.00 20.00     0.015 C 
HETATM   10  C11 UNL     1     -33.560  19.174  -4.707  1.00 20.00     0.015 C 
ENDROOT
BRANCH   6  11
HETATM   11  C1  UNL     1     -37.504  16.289  -5.923  1.00 20.00     0.177 C 
HETATM   12  O12 UNL     1     -38.069  16.938  -5.001  1.00 20.00    -0.648 OA
HETATM   13  O13 UNL     1     -37.635  16.382  -7.177  1.00 20.00    -0.648 OA
ENDBRANCH   6  11
TORSDOF 1
ENDMDL
MODEL 6
REMARK VINA RESULT:      -3.7      2.484      4.050
REMARK  1 active torsions:
REMARK  status: ('A' for Active; 'I' for Inactive)
REMARK    1  A    between atoms: C1_1  and  C7_7 
ROOT
HETATM    1  C2  UNL     1     -33.576  15.943  -3.041  1.00 20.00     0.002 C 
HETATM    2  C3  UNL     1     -33.295  17.214  -3.831  1.00 20.00     0.010 C 
HETATM    3  C4  UNL     1     -33.912  14.764  -3.956  1.00 20.00     0.009 C 
HETATM    4  C5  UNL     1     -35.069  19.001  -4.458  1.00 20.00     0.026 A 
HETATM    5  C6  UNL     1     -35.491  16.509  -4.950  1.00 20.00     0.019 C 
HETATM    6  C7  UNL     1     -34.250  18.739  -5.690  1.00 20.00     0.096 A 
HETATM    7  C8  UNL     1     -34.488  17.621  -4.677  1.00 20.00    -0.025 A 
HETATM    8  C9  UNL     1     -34.819  15.133  -5.162  1.00 20.00    -0.047 C 
HETATM    9  C10 UNL     1     -33.992  15.138  -6.463  1.00 20.00     0.015 C 
HETATM   10  C11 UNL     1     -35.918  14.063  -5.313  1.00 20.00     0.015 C 
ENDROOT
BRANCH   6  11
HETATM   11  C1  UNL     1     -34.935  18.717  -6.967  1.00 20.00     0.177 C 
HETATM   12  O12 UNL     1     -36.097  19.207  -6.965  1.00 20.00    -0.648 OA
HETATM   13  O13 UNL     1     -34.273  18.204  -7.914  1.00 20.00    -0.648 OA
ENDBRANCH   6  11
TORSDOF 1
ENDMDL
MODEL 7
REMARK VINA RESULT:      -3.6     14.155     15.376
REMARK  1 active torsions:
REMARK  status: ('A' for Active; 'I' for Inactive)
REMARK    1  A    between atoms: C1_1  and  C7_7 
ROOT
HETATM    1  C2  UNL     1     -42.336  15.515   5.739  1.00 20.00     0.002 C 
HETATM    2  C3  UNL     1     -42.844  15.593   7.172  1.00 20.00     0.010 C 
HETATM    3  C4  UNL     1     -42.119  14.068   5.287  1.00 20.00     0.009 C 
HETATM    4  C5  UNL     1     -41.341  15.809   9.276  1.00 20.00     0.026 A 
HETATM    5  C6  UNL     1     -40.877  13.985   7.519  1.00 20.00     0.019 C 
HETATM    6  C7  UNL     1     -42.372  14.758   9.574  1.00 20.00     0.096 A 
HETATM    7  C8  UNL     1     -41.870  14.954   8.145  1.00 20.00    -0.025 A 
HETATM    8  C9  UNL     1     -41.495  13.150   6.373  1.00 20.00    -0.047 C 
HETATM    9  C10 UNL     1     -42.563  12.188   6.931  1.00 20.00     0.015 C 
HETATM   10  C11 UNL     1     -40.386  12.293   5.732  1.00 20.00     0.015 C 
ENDROOT
BRANCH   6  11
HETATM   11  C1  UNL     1     -41.956  13.597  10.335  1.00 20.00     0.177 C 
HETATM   12  O12 UNL     1     -40.849  13.711  10.931  1.00 20.00    -0.648 OA
HETATM   13  O13 UNL     1     -42.759  12.623  10.298  1.00 20.00    -0.648 OA
ENDBRANCH   6  11
TORSDOF 1
ENDMDL
MODEL 8
REMARK VINA RESULT:      -3.6      2.504      4.209
REMARK  1 active torsions:
REMARK  status: ('A' for Active; 'I' for Inactive)
REMARK    1  A    between atoms: C1_1  and  C7_7 
ROOT
HETATM    1  C2  UNL     1     -34.418  16.077  -7.614  1.00 20.00     0.002 C 
HETATM    2  C3  UNL     1     -35.934  16.207  -7.657  1.00 20.00     0.010 C 
HETATM    3  C4  UNL     1     -33.957  15.118  -6.514  1.00 20.00     0.009 C 
HETATM    4  C5  UNL     1     -37.315  17.991  -6.376  1.00 20.00     0.026 A 
HETATM    5  C6  UNL     1     -35.562  16.561  -5.146  1.00 20.00     0.019 C 
HETATM    6  C7  UNL     1     -38.006  16.672  -6.180  1.00 20.00     0.096 A 
HETATM    7  C8  UNL     1     -36.488  16.723  -6.342  1.00 20.00    -0.025 A 
HETATM    8  C9  UNL     1     -34.754  15.243  -5.187  1.00 20.00    -0.047 C 
HETATM    9  C10 UNL     1     -35.698  14.035  -5.020  1.00 20.00     0.015 C 
HETATM   10  C11 UNL     1     -33.768  15.229  -4.003  1.00 20.00     0.015 C 
ENDROOT
BRANCH   6  11
HETATM   11  C1  UNL     1     -38.586  16.397  -4.881  1.00 20.00     0.177 C 
HETATM   12  O12 UNL     1     -38.702  17.396  -4.119  1.00 20.00    -0.648 OA
HETATM   13  O13 UNL     1     -38.898  15.188  -4.685  1.00 20.00    -0.648 OA
ENDBRANCH   6  11
TORSDOF 1
ENDMDL
MODEL 9
REMARK VINA RESULT:      -3.6     11.705     13.828
REMARK  1 active torsions:
REMARK  status: ('A' for Active; 'I' for Inactive)
REMARK    1  A    between atoms: C1_1  and  C7_7 
ROOT
HETATM    1  C2  UNL     1     -34.196   6.521   6.985  1.00 20.00     0.002 C 
HETATM    2  C3  UNL     1     -32.946   7.085   6.326  1.00 20.00     0.010 C 
HETATM    3  C4  UNL     1     -34.929   5.534   6.073  1.00 20.00     0.009 C 
HETATM    4  C5  UNL     1     -32.855   9.266   4.923  1.00 20.00     0.026 A 
HETATM    5  C6  UNL     1     -34.621   7.460   4.422  1.00 20.00     0.019 C 
HETATM    6  C7  UNL     1     -32.088   8.220   4.165  1.00 20.00     0.096 A 
HETATM    7  C8  UNL     1     -33.275   7.816   5.037  1.00 20.00    -0.025 A 
HETATM    8  C9  UNL     1     -34.976   5.963   4.581  1.00 20.00    -0.047 C 
HETATM    9  C10 UNL     1     -34.010   5.095   3.750  1.00 20.00     0.015 C 
HETATM   10  C11 UNL     1     -36.398   5.731   4.034  1.00 20.00     0.015 C 
ENDROOT
BRANCH   6  11
HETATM   11  C1  UNL     1     -32.211   8.202   2.721  1.00 20.00     0.177 C 
HETATM   12  O12 UNL     1     -31.898   7.113   2.166  1.00 20.00    -0.648 OA
HETATM   13  O13 UNL     1     -32.615   9.285   2.210  1.00 20.00    -0.648 OA
ENDBRANCH   6  11
TORSDOF 1
ENDMDL
