MODEL 1
REMARK VINA RESULT:      -3.3      0.000      0.000
REMARK  0 active torsions:
REMARK  status: ('A' for Active; 'I' for Inactive)
ROOT
HETATM    1  C1  UNL     1     -24.325  18.120  10.143  1.00 20.00     0.290 C 
HETATM    2  C2  UNL     1     -22.047  18.432  10.623  1.00 20.00     0.344 C 
HETATM    3  C3  UNL     1     -24.399  17.749  11.633  1.00 20.00     0.029 C 
HETATM    4  C4  UNL     1     -24.477  16.234  11.850  1.00 20.00     0.028 C 
HETATM    5  C5  UNL     1     -25.559  18.455  12.331  1.00 20.00     0.028 C 
HETATM    6  N6  UNL     1     -22.971  17.814   9.675  1.00 20.00     0.093 N 
HETATM    7  S7  UNL     1     -22.799  18.359  12.272  1.00 20.00    -0.128 SA
HETATM    8  H18 UNL     1     -22.835  16.803   9.699  1.00 20.00     0.316 HD
ENDROOT
TORSDOF 0
ENDMDL
MODEL 2
REMARK VINA RESULT:      -3.3      1.747      1.949
REMARK  0 active torsions:
REMARK  status: ('A' for Active; 'I' for Inactive)
ROOT
HETATM    1  C1  UNL     1     -23.899  16.919  10.457  1.00 20.00     0.290 C 
HETATM    2  C2  UNL     1     -22.522  17.754   8.747  1.00 20.00     0.344 C 
HETATM    3  C3  UNL     1     -23.869  18.378  10.941  1.00 20.00     0.029 C 
HETATM    4  C4  UNL     1     -22.916  18.577  12.124  1.00 20.00     0.028 C 
HETATM    5  C5  UNL     1     -25.268  18.885  11.284  1.00 20.00     0.028 C 
HETATM    6  N6  UNL     1     -22.659  16.671   9.717  1.00 20.00     0.093 N 
HETATM    7  S7  UNL     1     -23.204  19.263   9.487  1.00 20.00    -0.128 SA
HETATM    8  H18 UNL     1     -21.874  16.714  10.366  1.00 20.00     0.316 HD
ENDROOT
TORSDOF 0
ENDMDL
MODEL 3
REMARK VINA RESULT:      -3.2      1.848      2.298
REMARK  0 active torsions:
REMARK  status: ('A' for Active; 'I' for Inactive)
ROOT
HETATM    1  C1  UNL     1     -24.972  18.897  11.358  1.00 20.00     0.290 C 
HETATM    2  C2  UNL     1     -24.648  19.072   9.038  1.00 20.00     0.344 C 
HETATM    3  C3  UNL     1     -23.790  17.919  11.263  1.00 20.00     0.029 C 
HETATM    4  C4  UNL     1     -24.241  16.456  11.325  1.00 20.00     0.028 C 
HETATM    5  C5  UNL     1     -22.738  18.205  12.332  1.00 20.00     0.028 C 
HETATM    6  N6  UNL     1     -25.667  18.881  10.067  1.00 20.00     0.093 N 
HETATM    7  S7  UNL     1     -23.123  18.265   9.597  1.00 20.00    -0.128 SA
HETATM    8  H18 UNL     1     -26.096  17.966   9.936  1.00 20.00     0.316 HD
ENDROOT
TORSDOF 0
ENDMDL
MODEL 4
REMARK VINA RESULT:      -3.2      2.017      3.014
REMARK  0 active torsions:
REMARK  status: ('A' for Active; 'I' for Inactive)
ROOT
HETATM    1  C1  UNL     1     -24.722  18.741  10.814  1.00 20.00     0.290 C 
HETATM    2  C2  UNL     1     -25.838  17.333  12.326  1.00 20.00     0.344 C 
HETATM    3  C3  UNL     1     -23.551  17.778  11.066  1.00 20.00     0.029 C 
HETATM    4  C4  UNL     1     -22.510  18.370  12.024  1.00 20.00     0.028 C 
HETATM    5  C5  UNL     1     -22.893  17.338   9.761  1.00 20.00     0.028 C 
HETATM    6  N6  UNL     1     -25.570  18.733  12.008  1.00 20.00     0.093 N 
HETATM    7  S7  UNL     1     -24.371  16.364  11.881  1.00 20.00    -0.128 SA
HETATM    8  H18 UNL     1     -25.053  19.150  12.782  1.00 20.00     0.316 HD
ENDROOT
TORSDOF 0
ENDMDL
MODEL 5
REMARK VINA RESULT:      -3.1     16.033     16.743
REMARK  0 active torsions:
REMARK  status: ('A' for Active; 'I' for Inactive)
ROOT
HETATM    1  C1  UNL     1     -33.662   7.322   5.330  1.00 20.00     0.290 C 
HETATM    2  C2  UNL     1     -32.467   7.190   3.312  1.00 20.00     0.344 C 
HETATM    3  C3  UNL     1     -34.318   6.032   4.812  1.00 20.00     0.029 C 
HETATM    4  C4  UNL     1     -35.717   6.284   4.239  1.00 20.00     0.028 C 
HETATM    5  C5  UNL     1     -34.364   4.952   5.890  1.00 20.00     0.028 C 
HETATM    6  N6  UNL     1     -33.228   8.099   4.166  1.00 20.00     0.093 N 
HETATM    7  S7  UNL     1     -33.200   5.537   3.455  1.00 20.00    -0.128 SA
HETATM    8  H18 UNL     1     -34.052   8.414   3.655  1.00 20.00     0.316 HD
ENDROOT
TORSDOF 0
ENDMDL
MODEL 6
REMARK VINA RESULT:      -3.1     23.831     24.361
REMARK  0 active torsions:
REMARK  status: ('A' for Active; 'I' for Inactive)
ROOT
HETATM    1  C1  UNL     1     -43.153   6.945   1.726  1.00 20.00     0.290 C 
HETATM    2  C2  UNL     1     -42.928   4.728   0.983  1.00 20.00     0.344 C 
HETATM    3  C3  UNL     1     -42.298   7.253   0.486  1.00 20.00     0.029 C 
HETATM    4  C4  UNL     1     -40.834   7.527   0.845  1.00 20.00     0.028 C 
HETATM    5  C5  UNL     1     -42.880   8.408  -0.325  1.00 20.00     0.028 C 
HETATM    6  N6  UNL     1     -42.830   5.584   2.163  1.00 20.00     0.093 N 
HETATM    7  S7  UNL     1     -42.395   5.692  -0.458  1.00 20.00    -0.128 SA
HETATM    8  H18 UNL     1     -41.867   5.566   2.499  1.00 20.00     0.316 HD
ENDROOT
TORSDOF 0
ENDMDL
MODEL 7
REMARK VINA RESULT:      -3.0     16.058     16.854
REMARK  0 active torsions:
REMARK  status: ('A' for Active; 'I' for Inactive)
ROOT
HETATM    1  C1  UNL     1     -34.196   5.935   6.242  1.00 20.00     0.290 C 
HETATM    2  C2  UNL     1     -33.172   7.933   5.554  1.00 20.00     0.344 C 
HETATM    3  C3  UNL     1     -34.367   5.718   4.730  1.00 20.00     0.029 C 
HETATM    4  C4  UNL     1     -35.795   6.015   4.259  1.00 20.00     0.028 C 
HETATM    5  C5  UNL     1     -33.943   4.312   4.313  1.00 20.00     0.028 C 
HETATM    6  N6  UNL     1     -34.155   7.380   6.482  1.00 20.00     0.093 N 
HETATM    7  S7  UNL     1     -33.237   6.966   4.021  1.00 20.00    -0.128 SA
HETATM    8  H18 UNL     1     -35.069   7.776   6.263  1.00 20.00     0.316 HD
ENDROOT
TORSDOF 0
ENDMDL
MODEL 8
REMARK VINA RESULT:      -2.9     18.851     19.615
REMARK  0 active torsions:
REMARK  status: ('A' for Active; 'I' for Inactive)
ROOT
HETATM    1  C1  UNL     1     -34.856  16.858  -5.046  1.00 20.00     0.290 C 
HETATM    2  C2  UNL     1     -33.182  16.157  -3.556  1.00 20.00     0.344 C 
HETATM    3  C3  UNL     1     -34.753  15.411  -5.554  1.00 20.00     0.029 C 
HETATM    4  C4  UNL     1     -33.958  15.311  -6.860  1.00 20.00     0.028 C 
HETATM    5  C5  UNL     1     -36.129  14.771  -5.710  1.00 20.00     0.028 C 
HETATM    6  N6  UNL     1     -33.556  17.225  -4.479  1.00 20.00     0.093 N 
HETATM    7  S7  UNL     1     -33.810  14.591  -4.221  1.00 20.00    -0.128 SA
HETATM    8  H18 UNL     1     -32.867  17.262  -5.231  1.00 20.00     0.316 HD
ENDROOT
TORSDOF 0
ENDMDL
MODEL 9
REMARK VINA RESULT:      -2.9     23.483     23.980
REMARK  0 active torsions:
REMARK  status: ('A' for Active; 'I' for Inactive)
ROOT
HETATM    1  C1  UNL     1     -41.203   6.021   0.683  1.00 20.00     0.290 C 
HETATM    2  C2  UNL     1     -40.800   8.265   0.116  1.00 20.00     0.344 C 
HETATM    3  C3  UNL     1     -42.671   6.421   0.460  1.00 20.00     0.029 C 
HETATM    4  C4  UNL     1     -43.417   6.645   1.780  1.00 20.00     0.028 C 
HETATM    5  C5  UNL     1     -43.405   5.403  -0.409  1.00 20.00     0.028 C 
HETATM    6  N6  UNL     1     -40.471   7.224   1.088  1.00 20.00     0.093 N 
HETATM    7  S7  UNL     1     -42.517   8.018  -0.414  1.00 20.00    -0.128 SA
HETATM    8  H18 UNL     1     -40.803   7.518   2.006  1.00 20.00     0.316 HD
ENDROOT
TORSDOF 0
ENDMDL
