MODEL 1
REMARK VINA RESULT:      -4.4      0.000      0.000
REMARK  3 active torsions:
REMARK  status: ('A' for Active; 'I' for Inactive)
REMARK    1  A    between atoms: C1_1  and  C5_5 
REMARK    2  A    between atoms: C3_3  and  C5_5 
REMARK    3  A    between atoms: C4_4  and  C5_5 
ROOT
HETATM    1  C5  UNL     1     -33.881   6.935   4.252  1.00 20.00     0.085 C 
ENDROOT
BRANCH   1   2
HETATM    2  C1  UNL     1     -32.860   6.588   3.167  1.00 20.00     0.224 C 
HETATM    3  O6  UNL     1     -32.084   7.425   2.713  1.00 20.00    -0.279 OA
HETATM    4 CL7  UNL     1     -32.938   4.917   2.680  1.00 20.00    -0.043 Cl
ENDBRANCH   1   2
BRANCH   1   5
HETATM    5  C3  UNL     1     -34.663   5.670   4.648  1.00 20.00     0.010 C 
HETATM    6  C2  UNL     1     -34.643   5.410   6.150  1.00 20.00     0.006 C 
ENDBRANCH   1   5
BRANCH   1   7
HETATM    7  C4  UNL     1     -33.160   7.509   5.477  1.00 20.00     0.128 C 
HETATM    8 CL8  UNL     1     -32.428   9.096   5.117  1.00 20.00    -0.130 Cl
ENDBRANCH   1   7
TORSDOF 3
ENDMDL
MODEL 2
REMARK VINA RESULT:      -4.4      2.186      3.574
REMARK  3 active torsions:
REMARK  status: ('A' for Active; 'I' for Inactive)
REMARK    1  A    between atoms: C1_1  and  C5_5 
REMARK    2  A    between atoms: C3_3  and  C5_5 
REMARK    3  A    between atoms: C4_4  and  C5_5 
ROOT
HETATM    1  C5  UNL     1     -33.967   6.779   4.096  1.00 20.00     0.085 C 
ENDROOT
BRANCH   1   2
HETATM    2  C1  UNL     1     -34.425   5.702   5.081  1.00 20.00     0.224 C 
HETATM    3  O6  UNL     1     -34.724   4.569   4.712  1.00 20.00    -0.279 OA
HETATM    4 CL7  UNL     1     -34.464   6.269   6.727  1.00 20.00    -0.043 Cl
ENDBRANCH   1   2
BRANCH   1   5
HETATM    5  C3  UNL     1     -33.762   8.108   4.843  1.00 20.00     0.010 C 
HETATM    6  C2  UNL     1     -32.351   8.663   4.683  1.00 20.00     0.006 C 
ENDBRANCH   1   5
BRANCH   1   7
HETATM    7  C4  UNL     1     -32.657   6.347   3.428  1.00 20.00     0.128 C 
HETATM    8 CL8  UNL     1     -32.923   5.011   2.276  1.00 20.00    -0.130 Cl
ENDBRANCH   1   7
TORSDOF 3
ENDMDL
MODEL 3
REMARK VINA RESULT:      -4.3      1.691      1.899
REMARK  3 active torsions:
REMARK  status: ('A' for Active; 'I' for Inactive)
REMARK    1  A    between atoms: C1_1  and  C5_5 
REMARK    2  A    between atoms: C3_3  and  C5_5 
REMARK    3  A    between atoms: C4_4  and  C5_5 
ROOT
HETATM    1  C5  UNL     1     -33.894   6.777   4.488  1.00 20.00     0.085 C 
ENDROOT
BRANCH   1   2
HETATM    2  C1  UNL     1     -33.841   5.343   3.960  1.00 20.00     0.224 C 
HETATM    3  O6  UNL     1     -34.452   4.426   4.504  1.00 20.00    -0.279 OA
HETATM    4 CL7  UNL     1     -32.841   5.186   2.542  1.00 20.00    -0.043 Cl
ENDBRANCH   1   2
BRANCH   1   5
HETATM    5  C3  UNL     1     -33.732   6.771   6.018  1.00 20.00     0.010 C 
HETATM    6  C2  UNL     1     -34.895   6.093   6.733  1.00 20.00     0.006 C 
ENDBRANCH   1   5
BRANCH   1   7
HETATM    7  C4  UNL     1     -32.777   7.607   3.847  1.00 20.00     0.128 C 
HETATM    8 CL8  UNL     1     -32.295   8.970   4.892  1.00 20.00    -0.130 Cl
ENDBRANCH   1   7
TORSDOF 3
ENDMDL
MODEL 4
REMARK VINA RESULT:      -4.2      2.126      2.862
REMARK  3 active torsions:
REMARK  status: ('A' for Active; 'I' for Inactive)
REMARK    1  A    between atoms: C1_1  and  C5_5 
REMARK    2  A    between atoms: C3_3  and  C5_5 
REMARK    3  A    between atoms: C4_4  and  C5_5 
ROOT
HETATM    1  C5  UNL     1     -33.318   6.591   4.319  1.00 20.00     0.085 C 
ENDROOT
BRANCH   1   2
HETATM    2  C1  UNL     1     -32.815   6.186   2.932  1.00 20.00     0.224 C 
HETATM    3  O6  UNL     1     -32.860   5.023   2.538  1.00 20.00    -0.279 OA
HETATM    4 CL7  UNL     1     -32.198   7.536   2.021  1.00 20.00    -0.043 Cl
ENDBRANCH   1   2
BRANCH   1   5
HETATM    5  C3  UNL     1     -33.555   8.110   4.359  1.00 20.00     0.010 C 
HETATM    6  C2  UNL     1     -32.464   8.858   5.116  1.00 20.00     0.006 C 
ENDBRANCH   1   5
BRANCH   1   7
HETATM    7  C4  UNL     1     -34.622   5.849   4.635  1.00 20.00     0.128 C 
HETATM    8 CL8  UNL     1     -34.759   5.483   6.375  1.00 20.00    -0.130 Cl
ENDBRANCH   1   7
TORSDOF 3
ENDMDL
MODEL 5
REMARK VINA RESULT:      -4.1      1.618      2.737
REMARK  3 active torsions:
REMARK  status: ('A' for Active; 'I' for Inactive)
REMARK    1  A    between atoms: C1_1  and  C5_5 
REMARK    2  A    between atoms: C3_3  and  C5_5 
REMARK    3  A    between atoms: C4_4  and  C5_5 
ROOT
HETATM    1  C5  UNL     1     -33.063   6.952   4.801  1.00 20.00     0.085 C 
ENDROOT
BRANCH   1   2
HETATM    2  C1  UNL     1     -32.630   8.360   4.388  1.00 20.00     0.224 C 
HETATM    3  O6  UNL     1     -32.321   9.214   5.215  1.00 20.00    -0.279 OA
HETATM    4 CL7  UNL     1     -32.633   8.584   2.660  1.00 20.00    -0.043 Cl
ENDBRANCH   1   2
BRANCH   1   5
HETATM    5  C3  UNL     1     -33.912   7.027   6.082  1.00 20.00     0.010 C 
HETATM    6  C2  UNL     1     -34.639   5.722   6.384  1.00 20.00     0.006 C 
ENDBRANCH   1   5
BRANCH   1   7
HETATM    7  C4  UNL     1     -33.875   6.308   3.672  1.00 20.00     0.128 C 
HETATM    8 CL8  UNL     1     -32.884   5.162   2.729  1.00 20.00    -0.130 Cl
ENDBRANCH   1   7
TORSDOF 3
ENDMDL
MODEL 6
REMARK VINA RESULT:      -4.1      2.206      2.819
REMARK  3 active torsions:
REMARK  status: ('A' for Active; 'I' for Inactive)
REMARK    1  A    between atoms: C1_1  and  C5_5 
REMARK    2  A    between atoms: C3_3  and  C5_5 
REMARK    3  A    between atoms: C4_4  and  C5_5 
ROOT
HETATM    1  C5  UNL     1     -33.441   6.743   4.591  1.00 20.00     0.085 C 
ENDROOT
BRANCH   1   2
HETATM    2  C1  UNL     1     -34.688   5.951   4.987  1.00 20.00     0.224 C 
HETATM    3  O6  UNL     1     -35.710   5.964   4.306  1.00 20.00    -0.279 OA
HETATM    4 CL7  UNL     1     -34.478   5.062   6.470  1.00 20.00    -0.043 Cl
ENDBRANCH   1   2
BRANCH   1   5
HETATM    5  C3  UNL     1     -33.152   6.538   3.094  1.00 20.00     0.010 C 
HETATM    6  C2  UNL     1     -32.872   5.082   2.741  1.00 20.00     0.006 C 
ENDBRANCH   1   5
BRANCH   1   7
HETATM    7  C4  UNL     1     -33.659   8.232   4.883  1.00 20.00     0.128 C 
HETATM    8 CL8  UNL     1     -32.118   9.132   4.861  1.00 20.00    -0.130 Cl
ENDBRANCH   1   7
TORSDOF 3
ENDMDL
MODEL 7
REMARK VINA RESULT:      -4.0      2.387      2.913
REMARK  3 active torsions:
REMARK  status: ('A' for Active; 'I' for Inactive)
REMARK    1  A    between atoms: C1_1  and  C5_5 
REMARK    2  A    between atoms: C3_3  and  C5_5 
REMARK    3  A    between atoms: C4_4  and  C5_5 
ROOT
HETATM    1  C5  UNL     1     -33.389   6.688   4.760  1.00 20.00     0.085 C 
ENDROOT
BRANCH   1   2
HETATM    2  C1  UNL     1     -34.165   6.522   6.067  1.00 20.00     0.224 C 
HETATM    3  O6  UNL     1     -34.328   7.454   6.850  1.00 20.00    -0.279 OA
HETATM    4 CL7  UNL     1     -34.765   4.901   6.291  1.00 20.00    -0.043 Cl
ENDBRANCH   1   2
BRANCH   1   5
HETATM    5  C3  UNL     1     -33.947   5.721   3.701  1.00 20.00     0.010 C 
HETATM    6  C2  UNL     1     -32.904   5.308   2.670  1.00 20.00     0.006 C 
ENDBRANCH   1   5
BRANCH   1   7
HETATM    7  C4  UNL     1     -33.513   8.134   4.265  1.00 20.00     0.128 C 
HETATM    8 CL8  UNL     1     -32.157   9.139   4.844  1.00 20.00    -0.130 Cl
ENDBRANCH   1   7
TORSDOF 3
ENDMDL
MODEL 8
REMARK VINA RESULT:      -4.0      1.542      1.542
REMARK  3 active torsions:
REMARK  status: ('A' for Active; 'I' for Inactive)
REMARK    1  A    between atoms: C1_1  and  C5_5 
REMARK    2  A    between atoms: C3_3  and  C5_5 
REMARK    3  A    between atoms: C4_4  and  C5_5 
ROOT
HETATM    1  C5  UNL     1     -34.058   6.644   4.182  1.00 20.00     0.085 C 
ENDROOT
BRANCH   1   2
HETATM    2  C1  UNL     1     -33.470   5.399   3.516  1.00 20.00     0.224 C 
HETATM    3  O6  UNL     1     -32.805   5.465   2.486  1.00 20.00    -0.279 OA
HETATM    4 CL7  UNL     1     -33.852   3.933   4.376  1.00 20.00    -0.043 Cl
ENDBRANCH   1   2
BRANCH   1   5
HETATM    5  C3  UNL     1     -34.844   6.234   5.440  1.00 20.00     0.010 C 
HETATM    6  C2  UNL     1     -34.244   6.802   6.721  1.00 20.00     0.006 C 
ENDBRANCH   1   5
BRANCH   1   7
HETATM    7  C4  UNL     1     -32.930   7.609   4.562  1.00 20.00     0.128 C 
HETATM    8 CL8  UNL     1     -32.612   8.785   3.258  1.00 20.00    -0.130 Cl
ENDBRANCH   1   7
TORSDOF 3
ENDMDL
MODEL 9
REMARK VINA RESULT:      -3.9      2.193      2.412
REMARK  3 active torsions:
REMARK  status: ('A' for Active; 'I' for Inactive)
REMARK    1  A    between atoms: C1_1  and  C5_5 
REMARK    2  A    between atoms: C3_3  and  C5_5 
REMARK    3  A    between atoms: C4_4  and  C5_5 
ROOT
HETATM    1  C5  UNL     1     -33.971   7.430   4.997  1.00 20.00     0.085 C 
ENDROOT
BRANCH   1   2
HETATM    2  C1  UNL     1     -32.715   8.099   4.437  1.00 20.00     0.224 C 
HETATM    3  O6  UNL     1     -32.194   9.066   4.985  1.00 20.00    -0.279 OA
HETATM    4 CL7  UNL     1     -32.141   7.336   2.979  1.00 20.00    -0.043 Cl
ENDBRANCH   1   2
BRANCH   1   5
HETATM    5  C3  UNL     1     -34.303   6.177   4.169  1.00 20.00     0.010 C 
HETATM    6  C2  UNL     1     -35.796   5.871   4.133  1.00 20.00     0.006 C 
ENDBRANCH   1   5
BRANCH   1   7
HETATM    7  C4  UNL     1     -33.742   7.043   6.463  1.00 20.00     0.128 C 
HETATM    8 CL8  UNL     1     -34.057   5.308   6.735  1.00 20.00    -0.130 Cl
ENDBRANCH   1   7
TORSDOF 3
ENDMDL
