MODEL 1
REMARK VINA RESULT:      -4.5      0.000      0.000
REMARK  4 active torsions:
REMARK  status: ('A' for Active; 'I' for Inactive)
REMARK    1  A    between atoms: C2_2  and  C8_8 
REMARK    2  A    between atoms: C2_2  and  C9_9 
REMARK    3  A    between atoms: C3_3  and  C8_8 
REMARK    4  A    between atoms: C3_3  and  C10_10 
ROOT
HETATM    1  C3  UNL     1     -33.301   6.788   4.676  1.00 20.00     0.138 C 
HETATM    2  O11 UNL     1     -33.030   7.642   5.523  1.00 20.00    -0.297 OA
ENDROOT
BRANCH   1   3
HETATM    3  C8  UNL     1     -32.527   6.719   3.360  1.00 20.00     0.112 C 
BRANCH   3   4
HETATM    4  C2  UNL     1     -32.469   8.070   2.695  1.00 20.00    -0.083 C 
HETATM    5  C1  UNL     1     -32.687   9.196   3.394  1.00 20.00     0.014 C 
BRANCH   4   6
HETATM    6  C9  UNL     1     -32.164   8.115   1.215  1.00 20.00     0.029 C 
HETATM    7  C4  UNL     1     -32.693   9.375   0.542  1.00 20.00     0.010 C 
ENDBRANCH   4   6
ENDBRANCH   3   4
ENDBRANCH   1   3
BRANCH   1   8
HETATM    8  C10 UNL     1     -34.411   5.744   4.916  1.00 20.00     0.010 C 
HETATM    9  C5  UNL     1     -34.620   5.572   6.426  1.00 20.00     0.022 C 
HETATM   10  C6  UNL     1     -35.715   6.184   4.239  1.00 20.00     0.022 C 
HETATM   11  C7  UNL     1     -33.984   4.391   4.319  1.00 20.00     0.022 C 
ENDBRANCH   1   8
TORSDOF 4
ENDMDL
MODEL 2
REMARK VINA RESULT:      -4.5      0.033      1.306
REMARK  4 active torsions:
REMARK  status: ('A' for Active; 'I' for Inactive)
REMARK    1  A    between atoms: C2_2  and  C8_8 
REMARK    2  A    between atoms: C2_2  and  C9_9 
REMARK    3  A    between atoms: C3_3  and  C8_8 
REMARK    4  A    between atoms: C3_3  and  C10_10 
ROOT
HETATM    1  C3  UNL     1     -33.316   6.776   4.654  1.00 20.00     0.138 C 
HETATM    2  O11 UNL     1     -33.072   7.637   5.502  1.00 20.00    -0.297 OA
ENDROOT
BRANCH   1   3
HETATM    3  C8  UNL     1     -32.526   6.721   3.347  1.00 20.00     0.112 C 
BRANCH   3   4
HETATM    4  C2  UNL     1     -32.459   8.080   2.697  1.00 20.00    -0.083 C 
HETATM    5  C1  UNL     1     -32.675   9.199   3.408  1.00 20.00     0.014 C 
BRANCH   4   6
HETATM    6  C9  UNL     1     -32.149   8.140   1.220  1.00 20.00     0.029 C 
HETATM    7  C4  UNL     1     -32.708   9.388   0.549  1.00 20.00     0.010 C 
ENDBRANCH   4   6
ENDBRANCH   3   4
ENDBRANCH   1   3
BRANCH   1   8
HETATM    8  C10 UNL     1     -34.406   5.709   4.885  1.00 20.00     0.010 C 
HETATM    9  C5  UNL     1     -35.715   6.181   4.240  1.00 20.00     0.022 C 
HETATM   10  C6  UNL     1     -33.971   4.362   4.295  1.00 20.00     0.022 C 
HETATM   11  C7  UNL     1     -34.637   5.528   6.396  1.00 20.00     0.022 C 
ENDBRANCH   1   8
TORSDOF 4
ENDMDL
MODEL 3
REMARK VINA RESULT:      -4.3      1.310      1.377
REMARK  4 active torsions:
REMARK  status: ('A' for Active; 'I' for Inactive)
REMARK    1  A    between atoms: C2_2  and  C8_8 
REMARK    2  A    between atoms: C2_2  and  C9_9 
REMARK    3  A    between atoms: C3_3  and  C8_8 
REMARK    4  A    between atoms: C3_3  and  C10_10 
ROOT
HETATM    1  C3  UNL     1     -33.192   6.175   3.670  1.00 20.00     0.138 C 
HETATM    2  O11 UNL     1     -33.209   5.351   2.753  1.00 20.00    -0.297 OA
ENDROOT
BRANCH   1   3
HETATM    3  C8  UNL     1     -32.142   7.285   3.702  1.00 20.00     0.112 C 
BRANCH   3   4
HETATM    4  C2  UNL     1     -32.458   8.359   2.692  1.00 20.00    -0.083 C 
HETATM    5  C1  UNL     1     -33.016   9.521   3.069  1.00 20.00     0.014 C 
BRANCH   4   6
HETATM    6  C9  UNL     1     -32.134   8.081   1.243  1.00 20.00     0.029 C 
HETATM    7  C4  UNL     1     -32.663   9.156   0.303  1.00 20.00     0.010 C 
ENDBRANCH   4   6
ENDBRANCH   3   4
ENDBRANCH   1   3
BRANCH   1   8
HETATM    8  C10 UNL     1     -34.235   6.134   4.805  1.00 20.00     0.010 C 
HETATM    9  C5  UNL     1     -33.907   7.228   5.829  1.00 20.00     0.022 C 
HETATM   10  C6  UNL     1     -35.648   6.332   4.240  1.00 20.00     0.022 C 
HETATM   11  C7  UNL     1     -34.179   4.765   5.507  1.00 20.00     0.022 C 
ENDBRANCH   1   8
TORSDOF 4
ENDMDL
MODEL 4
REMARK VINA RESULT:      -4.3      1.311      1.870
REMARK  4 active torsions:
REMARK  status: ('A' for Active; 'I' for Inactive)
REMARK    1  A    between atoms: C2_2  and  C8_8 
REMARK    2  A    between atoms: C2_2  and  C9_9 
REMARK    3  A    between atoms: C3_3  and  C8_8 
REMARK    4  A    between atoms: C3_3  and  C10_10 
ROOT
HETATM    1  C3  UNL     1     -33.201   6.164   3.677  1.00 20.00     0.138 C 
HETATM    2  O11 UNL     1     -33.233   5.353   2.748  1.00 20.00    -0.297 OA
ENDROOT
BRANCH   1   3
HETATM    3  C8  UNL     1     -32.145   7.268   3.713  1.00 20.00     0.112 C 
BRANCH   3   4
HETATM    4  C2  UNL     1     -32.458   8.349   2.711  1.00 20.00    -0.083 C 
HETATM    5  C1  UNL     1     -33.020   9.508   3.094  1.00 20.00     0.014 C 
BRANCH   4   6
HETATM    6  C9  UNL     1     -32.125   8.084   1.261  1.00 20.00     0.029 C 
HETATM    7  C4  UNL     1     -32.657   9.162   0.326  1.00 20.00     0.010 C 
ENDBRANCH   4   6
ENDBRANCH   3   4
ENDBRANCH   1   3
BRANCH   1   8
HETATM    8  C10 UNL     1     -34.233   6.112   4.822  1.00 20.00     0.010 C 
HETATM    9  C5  UNL     1     -35.635   6.342   4.245  1.00 20.00     0.022 C 
HETATM   10  C6  UNL     1     -34.163   4.761   5.545  1.00 20.00     0.022 C 
HETATM   11  C7  UNL     1     -33.928   7.225   5.841  1.00 20.00     0.022 C 
ENDBRANCH   1   8
TORSDOF 4
ENDMDL
MODEL 5
REMARK VINA RESULT:      -4.2     10.241     11.377
REMARK  4 active torsions:
REMARK  status: ('A' for Active; 'I' for Inactive)
REMARK    1  A    between atoms: C2_2  and  C8_8 
REMARK    2  A    between atoms: C2_2  and  C9_9 
REMARK    3  A    between atoms: C3_3  and  C8_8 
REMARK    4  A    between atoms: C3_3  and  C10_10 
ROOT
HETATM    1  C3  UNL     1     -40.524  14.493   8.194  1.00 20.00     0.138 C 
HETATM    2  O11 UNL     1     -40.141  13.718   9.074  1.00 20.00    -0.297 OA
ENDROOT
BRANCH   1   3
HETATM    3  C8  UNL     1     -40.334  14.152   6.717  1.00 20.00     0.112 C 
BRANCH   3   4
HETATM    4  C2  UNL     1     -40.786  12.744   6.424  1.00 20.00    -0.083 C 
HETATM    5  C1  UNL     1     -42.076  12.392   6.548  1.00 20.00     0.014 C 
BRANCH   4   6
HETATM    6  C9  UNL     1     -39.740  11.743   5.993  1.00 20.00     0.029 C 
HETATM    7  C4  UNL     1     -39.379  11.863   4.519  1.00 20.00     0.010 C 
ENDBRANCH   4   6
ENDBRANCH   3   4
ENDBRANCH   1   3
BRANCH   1   8
HETATM    8  C10 UNL     1     -41.227  15.820   8.545  1.00 20.00     0.010 C 
HETATM    9  C5  UNL     1     -40.954  16.160  10.016  1.00 20.00     0.022 C 
HETATM   10  C6  UNL     1     -40.729  16.947   7.631  1.00 20.00     0.022 C 
HETATM   11  C7  UNL     1     -42.746  15.666   8.347  1.00 20.00     0.022 C 
ENDBRANCH   1   8
TORSDOF 4
ENDMDL
MODEL 6
REMARK VINA RESULT:      -4.2     11.253     13.564
REMARK  4 active torsions:
REMARK  status: ('A' for Active; 'I' for Inactive)
REMARK    1  A    between atoms: C2_2  and  C8_8 
REMARK    2  A    between atoms: C2_2  and  C9_9 
REMARK    3  A    between atoms: C3_3  and  C8_8 
REMARK    4  A    between atoms: C3_3  and  C10_10 
ROOT
HETATM    1  C3  UNL     1     -35.422  15.305  -6.766  1.00 20.00     0.138 C 
HETATM    2  O11 UNL     1     -36.086  14.382  -7.244  1.00 20.00    -0.297 OA
ENDROOT
BRANCH   1   3
HETATM    3  C8  UNL     1     -33.997  15.065  -6.267  1.00 20.00     0.112 C 
BRANCH   3   4
HETATM    4  C2  UNL     1     -33.983  14.772  -4.789  1.00 20.00    -0.083 C 
HETATM    5  C1  UNL     1     -34.883  13.941  -4.239  1.00 20.00     0.014 C 
BRANCH   4   6
HETATM    6  C9  UNL     1     -32.927  15.450  -3.947  1.00 20.00     0.029 C 
HETATM    7  C4  UNL     1     -33.505  16.498  -3.006  1.00 20.00     0.010 C 
ENDBRANCH   4   6
ENDBRANCH   3   4
ENDBRANCH   1   3
BRANCH   1   8
HETATM    8  C10 UNL     1     -35.989  16.737  -6.673  1.00 20.00     0.010 C 
HETATM    9  C5  UNL     1     -34.826  17.734  -6.602  1.00 20.00     0.022 C 
HETATM   10  C6  UNL     1     -36.883  17.038  -7.882  1.00 20.00     0.022 C 
HETATM   11  C7  UNL     1     -36.836  16.873  -5.395  1.00 20.00     0.022 C 
ENDBRANCH   1   8
TORSDOF 4
ENDMDL
MODEL 7
REMARK VINA RESULT:      -4.2     10.204     11.372
REMARK  4 active torsions:
REMARK  status: ('A' for Active; 'I' for Inactive)
REMARK    1  A    between atoms: C2_2  and  C8_8 
REMARK    2  A    between atoms: C2_2  and  C9_9 
REMARK    3  A    between atoms: C3_3  and  C8_8 
REMARK    4  A    between atoms: C3_3  and  C10_10 
ROOT
HETATM    1  C3  UNL     1     -41.096  14.120   8.055  1.00 20.00     0.138 C 
HETATM    2  O11 UNL     1     -40.114  13.770   8.714  1.00 20.00    -0.297 OA
ENDROOT
BRANCH   1   3
HETATM    3  C8  UNL     1     -41.818  13.129   7.143  1.00 20.00     0.112 C 
BRANCH   3   4
HETATM    4  C2  UNL     1     -41.051  12.911   5.864  1.00 20.00    -0.083 C 
HETATM    5  C1  UNL     1     -41.318  13.636   4.765  1.00 20.00     0.014 C 
BRANCH   4   6
HETATM    6  C9  UNL     1     -39.978  11.847   5.858  1.00 20.00     0.029 C 
HETATM    7  C4  UNL     1     -39.244  11.756   4.526  1.00 20.00     0.010 C 
ENDBRANCH   4   6
ENDBRANCH   3   4
ENDBRANCH   1   3
BRANCH   1   8
HETATM    8  C10 UNL     1     -41.647  15.558   8.140  1.00 20.00     0.010 C 
HETATM    9  C5  UNL     1     -40.636  16.522   7.508  1.00 20.00     0.022 C 
HETATM   10  C6  UNL     1     -43.002  15.655   7.427  1.00 20.00     0.022 C 
HETATM   11  C7  UNL     1     -41.846  15.947   9.616  1.00 20.00     0.022 C 
ENDBRANCH   1   8
TORSDOF 4
ENDMDL
MODEL 8
REMARK VINA RESULT:      -4.1     11.597     12.849
REMARK  4 active torsions:
REMARK  status: ('A' for Active; 'I' for Inactive)
REMARK    1  A    between atoms: C2_2  and  C8_8 
REMARK    2  A    between atoms: C2_2  and  C9_9 
REMARK    3  A    between atoms: C3_3  and  C8_8 
REMARK    4  A    between atoms: C3_3  and  C10_10 
ROOT
HETATM    1  C3  UNL     1     -35.013  16.642  -4.871  1.00 20.00     0.138 C 
HETATM    2  O11 UNL     1     -36.170  17.062  -4.962  1.00 20.00    -0.297 OA
ENDROOT
BRANCH   1   3
HETATM    3  C8  UNL     1     -33.910  17.517  -4.278  1.00 20.00     0.112 C 
BRANCH   3   4
HETATM    4  C2  UNL     1     -34.231  17.905  -2.857  1.00 20.00    -0.083 C 
HETATM    5  C1  UNL     1     -35.070  18.919  -2.589  1.00 20.00     0.014 C 
BRANCH   4   6
HETATM    6  C9  UNL     1     -33.573  17.120  -1.746  1.00 20.00     0.029 C 
HETATM    7  C4  UNL     1     -33.662  17.819  -0.396  1.00 20.00     0.010 C 
ENDBRANCH   4   6
ENDBRANCH   3   4
ENDBRANCH   1   3
BRANCH   1   8
HETATM    8  C10 UNL     1     -34.639  15.217  -5.328  1.00 20.00     0.010 C 
HETATM    9  C5  UNL     1     -34.091  15.276  -6.759  1.00 20.00     0.022 C 
HETATM   10  C6  UNL     1     -33.601  14.606  -4.378  1.00 20.00     0.022 C 
HETATM   11  C7  UNL     1     -35.895  14.326  -5.316  1.00 20.00     0.022 C 
ENDBRANCH   1   8
TORSDOF 4
ENDMDL
MODEL 9
REMARK VINA RESULT:      -4.1     12.216     13.275
REMARK  4 active torsions:
REMARK  status: ('A' for Active; 'I' for Inactive)
REMARK    1  A    between atoms: C2_2  and  C8_8 
REMARK    2  A    between atoms: C2_2  and  C9_9 
REMARK    3  A    between atoms: C3_3  and  C8_8 
REMARK    4  A    between atoms: C3_3  and  C10_10 
ROOT
HETATM    1  C3  UNL     1     -33.136  18.279  -3.187  1.00 20.00     0.138 C 
HETATM    2  O11 UNL     1     -32.404  19.263  -3.325  1.00 20.00    -0.297 OA
ENDROOT
BRANCH   1   3
HETATM    3  C8  UNL     1     -32.930  17.310  -2.023  1.00 20.00     0.112 C 
BRANCH   3   4
HETATM    4  C2  UNL     1     -32.739  18.055  -0.727  1.00 20.00    -0.083 C 
HETATM    5  C1  UNL     1     -33.786  18.354   0.061  1.00 20.00     0.014 C 
BRANCH   4   6
HETATM    6  C9  UNL     1     -31.334  18.459  -0.346  1.00 20.00     0.029 C 
HETATM    7  C4  UNL     1     -31.118  18.497   1.161  1.00 20.00     0.010 C 
ENDBRANCH   4   6
ENDBRANCH   3   4
ENDBRANCH   1   3
BRANCH   1   8
HETATM    8  C10 UNL     1     -34.296  17.999  -4.164  1.00 20.00     0.010 C 
HETATM    9  C5  UNL     1     -34.313  16.505  -4.508  1.00 20.00     0.022 C 
HETATM   10  C6  UNL     1     -35.632  18.425  -3.544  1.00 20.00     0.022 C 
HETATM   11  C7  UNL     1     -34.082  18.803  -5.460  1.00 20.00     0.022 C 
ENDBRANCH   1   8
TORSDOF 4
ENDMDL
