MODEL 1
REMARK VINA RESULT:      -4.9      0.000      0.000
REMARK  2 active torsions:
REMARK  status: ('A' for Active; 'I' for Inactive)
REMARK    1  A    between atoms: C1_1  and  C2_2 
REMARK    2  A    between atoms: C1_1  and  C3_3 
ROOT
HETATM    1  C1  UNL     1     -33.973   6.581   5.856  1.00 20.00     0.299 C 
HETATM    2  F4  UNL     1     -34.535   7.236   6.913  1.00 20.00    -0.238 F 
ENDROOT
BRANCH   1   3
HETATM    3  C2  UNL     1     -33.714   7.594   4.764  1.00 20.00     0.392 C 
HETATM    4  F5  UNL     1     -33.254   8.751   5.299  1.00 20.00    -0.211 F 
HETATM    5  F6  UNL     1     -32.742   7.128   3.940  1.00 20.00    -0.211 F 
ENDBRANCH   1   3
BRANCH   1   6
HETATM    6  C3  UNL     1     -34.923   5.485   5.429  1.00 20.00     0.392 C 
HETATM    7  F7  UNL     1     -34.232   4.442   4.909  1.00 20.00    -0.211 F 
HETATM    8  F8  UNL     1     -35.732   5.950   4.445  1.00 20.00    -0.211 F 
ENDBRANCH   1   6
TORSDOF 2
ENDMDL
MODEL 2
REMARK VINA RESULT:      -4.9      1.106      2.115
REMARK  2 active torsions:
REMARK  status: ('A' for Active; 'I' for Inactive)
REMARK    1  A    between atoms: C1_1  and  C2_2 
REMARK    2  A    between atoms: C1_1  and  C3_3 
ROOT
HETATM    1  C1  UNL     1     -34.304   6.421   4.780  1.00 20.00     0.299 C 
HETATM    2  F4  UNL     1     -33.429   6.313   3.739  1.00 20.00    -0.238 F 
ENDROOT
BRANCH   1   3
HETATM    3  C2  UNL     1     -33.657   7.275   5.846  1.00 20.00     0.392 C 
HETATM    4  F5  UNL     1     -33.421   8.521   5.369  1.00 20.00    -0.211 F 
HETATM    5  F6  UNL     1     -34.510   7.410   6.893  1.00 20.00    -0.211 F 
ENDBRANCH   1   3
BRANCH   1   6
HETATM    6  C3  UNL     1     -34.631   5.025   5.261  1.00 20.00     0.392 C 
HETATM    7  F7  UNL     1     -34.082   4.810   6.481  1.00 20.00    -0.211 F 
HETATM    8  F8  UNL     1     -34.079   4.118   4.417  1.00 20.00    -0.211 F 
ENDBRANCH   1   6
TORSDOF 2
ENDMDL
MODEL 3
REMARK VINA RESULT:      -4.8      0.875      3.130
REMARK  2 active torsions:
REMARK  status: ('A' for Active; 'I' for Inactive)
REMARK    1  A    between atoms: C1_1  and  C2_2 
REMARK    2  A    between atoms: C1_1  and  C3_3 
ROOT
HETATM    1  C1  UNL     1     -34.418   6.468   5.819  1.00 20.00     0.299 C 
HETATM    2  F4  UNL     1     -33.948   5.572   6.734  1.00 20.00    -0.238 F 
ENDROOT
BRANCH   1   3
HETATM    3  C2  UNL     1     -34.757   5.710   4.555  1.00 20.00     0.392 C 
HETATM    4  F5  UNL     1     -34.575   4.380   4.744  1.00 20.00    -0.211 F 
HETATM    5  F6  UNL     1     -36.069   5.889   4.261  1.00 20.00    -0.211 F 
ENDBRANCH   1   3
BRANCH   1   6
HETATM    6  C3  UNL     1     -33.352   7.519   5.606  1.00 20.00     0.392 C 
HETATM    7  F7  UNL     1     -33.901   8.757   5.647  1.00 20.00    -0.211 F 
HETATM    8  F8  UNL     1     -32.812   7.369   4.371  1.00 20.00    -0.211 F 
ENDBRANCH   1   6
TORSDOF 2
ENDMDL
MODEL 4
REMARK VINA RESULT:      -4.8      1.070      2.408
REMARK  2 active torsions:
REMARK  status: ('A' for Active; 'I' for Inactive)
REMARK    1  A    between atoms: C1_1  and  C2_2 
REMARK    2  A    between atoms: C1_1  and  C3_3 
ROOT
HETATM    1  C1  UNL     1     -34.458   6.112   4.732  1.00 20.00     0.299 C 
HETATM    2  F4  UNL     1     -34.029   4.917   4.232  1.00 20.00    -0.238 F 
ENDROOT
BRANCH   1   3
HETATM    3  C2  UNL     1     -33.363   7.130   4.510  1.00 20.00     0.392 C 
HETATM    4  F5  UNL     1     -32.667   6.832   3.387  1.00 20.00    -0.211 F 
HETATM    5  F6  UNL     1     -33.919   8.353   4.316  1.00 20.00    -0.211 F 
ENDBRANCH   1   3
BRANCH   1   6
HETATM    6  C3  UNL     1     -34.790   5.913   6.194  1.00 20.00     0.392 C 
HETATM    7  F7  UNL     1     -34.530   7.045   6.891  1.00 20.00    -0.211 F 
HETATM    8  F8  UNL     1     -33.993   4.943   6.707  1.00 20.00    -0.211 F 
ENDBRANCH   1   6
TORSDOF 2
ENDMDL
MODEL 5
REMARK VINA RESULT:      -4.8      0.716      1.168
REMARK  2 active torsions:
REMARK  status: ('A' for Active; 'I' for Inactive)
REMARK    1  A    between atoms: C1_1  and  C2_2 
REMARK    2  A    between atoms: C1_1  and  C3_3 
ROOT
HETATM    1  C1  UNL     1     -33.761   6.873   5.802  1.00 20.00     0.299 C 
HETATM    2  F4  UNL     1     -34.456   7.448   6.825  1.00 20.00    -0.238 F 
ENDROOT
BRANCH   1   3
HETATM    3  C2  UNL     1     -33.561   7.918   4.728  1.00 20.00     0.392 C 
HETATM    4  F5  UNL     1     -32.763   8.913   5.186  1.00 20.00    -0.211 F 
HETATM    5  F6  UNL     1     -32.923   7.358   3.669  1.00 20.00    -0.211 F 
ENDBRANCH   1   3
BRANCH   1   6
HETATM    6  C3  UNL     1     -34.549   5.676   5.319  1.00 20.00     0.392 C 
HETATM    7  F7  UNL     1     -35.632   6.081   4.613  1.00 20.00    -0.211 F 
HETATM    8  F8  UNL     1     -35.014   4.982   6.388  1.00 20.00    -0.211 F 
ENDBRANCH   1   6
TORSDOF 2
ENDMDL
MODEL 6
REMARK VINA RESULT:      -4.8      0.971      2.995
REMARK  2 active torsions:
REMARK  status: ('A' for Active; 'I' for Inactive)
REMARK    1  A    between atoms: C1_1  and  C2_2 
REMARK    2  A    between atoms: C1_1  and  C3_3 
ROOT
HETATM    1  C1  UNL     1     -34.048   7.102   5.573  1.00 20.00     0.299 C 
HETATM    2  F4  UNL     1     -33.222   6.941   6.646  1.00 20.00    -0.238 F 
ENDROOT
BRANCH   1   3
HETATM    3  C2  UNL     1     -34.619   5.748   5.217  1.00 20.00     0.392 C 
HETATM    4  F5  UNL     1     -34.936   5.063   6.342  1.00 20.00    -0.211 F 
HETATM    5  F6  UNL     1     -35.771   5.915   4.520  1.00 20.00    -0.211 F 
ENDBRANCH   1   3
BRANCH   1   6
HETATM    6  C3  UNL     1     -33.242   7.715   4.451  1.00 20.00     0.392 C 
HETATM    7  F7  UNL     1     -32.810   6.750   3.603  1.00 20.00    -0.211 F 
HETATM    8  F8  UNL     1     -32.136   8.309   4.965  1.00 20.00    -0.211 F 
ENDBRANCH   1   6
TORSDOF 2
ENDMDL
MODEL 7
REMARK VINA RESULT:      -4.8      1.240      2.765
REMARK  2 active torsions:
REMARK  status: ('A' for Active; 'I' for Inactive)
REMARK    1  A    between atoms: C1_1  and  C2_2 
REMARK    2  A    between atoms: C1_1  and  C3_3 
ROOT
HETATM    1  C1  UNL     1     -34.717   6.274   5.248  1.00 20.00     0.299 C 
HETATM    2  F4  UNL     1     -35.001   5.578   6.386  1.00 20.00    -0.238 F 
ENDROOT
BRANCH   1   3
HETATM    3  C2  UNL     1     -34.388   5.277   4.160  1.00 20.00     0.392 C 
HETATM    4  F5  UNL     1     -33.351   5.726   3.412  1.00 20.00    -0.211 F 
HETATM    5  F6  UNL     1     -33.987   4.110   4.726  1.00 20.00    -0.211 F 
ENDBRANCH   1   3
BRANCH   1   6
HETATM    6  C3  UNL     1     -33.572   7.215   5.551  1.00 20.00     0.392 C 
HETATM    7  F7  UNL     1     -33.086   6.976   6.793  1.00 20.00    -0.211 F 
HETATM    8  F8  UNL     1     -34.026   8.493   5.545  1.00 20.00    -0.211 F 
ENDBRANCH   1   6
TORSDOF 2
ENDMDL
MODEL 8
REMARK VINA RESULT:      -4.8      1.105      3.112
REMARK  2 active torsions:
REMARK  status: ('A' for Active; 'I' for Inactive)
REMARK    1  A    between atoms: C1_1  and  C2_2 
REMARK    2  A    between atoms: C1_1  and  C3_3 
ROOT
HETATM    1  C1  UNL     1     -34.485   5.889   4.816  1.00 20.00     0.299 C 
HETATM    2  F4  UNL     1     -35.667   6.200   4.212  1.00 20.00    -0.238 F 
ENDROOT
BRANCH   1   3
HETATM    3  C2  UNL     1     -34.742   5.745   6.299  1.00 20.00     0.392 C 
HETATM    4  F5  UNL     1     -33.841   4.896   6.851  1.00 20.00    -0.211 F 
HETATM    5  F6  UNL     1     -34.570   6.948   6.904  1.00 20.00    -0.211 F 
ENDBRANCH   1   3
BRANCH   1   6
HETATM    6  C3  UNL     1     -33.494   6.984   4.494  1.00 20.00     0.392 C 
HETATM    7  F7  UNL     1     -34.141   8.157   4.294  1.00 20.00    -0.211 F 
HETATM    8  F8  UNL     1     -32.854   6.686   3.336  1.00 20.00    -0.211 F 
ENDBRANCH   1   6
TORSDOF 2
ENDMDL
MODEL 9
REMARK VINA RESULT:      -4.7      1.332      2.738
REMARK  2 active torsions:
REMARK  status: ('A' for Active; 'I' for Inactive)
REMARK    1  A    between atoms: C1_1  and  C2_2 
REMARK    2  A    between atoms: C1_1  and  C3_3 
ROOT
HETATM    1  C1  UNL     1     -34.654   6.155   4.555  1.00 20.00     0.299 C 
HETATM    2  F4  UNL     1     -36.011   6.055   4.459  1.00 20.00    -0.238 F 
ENDROOT
BRANCH   1   3
HETATM    3  C2  UNL     1     -34.044   5.064   3.705  1.00 20.00     0.392 C 
HETATM    4  F5  UNL     1     -32.847   5.467   3.214  1.00 20.00    -0.211 F 
HETATM    5  F6  UNL     1     -33.805   3.973   4.476  1.00 20.00    -0.211 F 
ENDBRANCH   1   3
BRANCH   1   6
HETATM    6  C3  UNL     1     -34.280   6.042   6.015  1.00 20.00     0.392 C 
HETATM    7  F7  UNL     1     -35.143   5.217   6.657  1.00 20.00    -0.211 F 
HETATM    8  F8  UNL     1     -34.390   7.260   6.603  1.00 20.00    -0.211 F 
ENDBRANCH   1   6
TORSDOF 2
ENDMDL
