MODEL 1
REMARK VINA RESULT:      -3.5      0.000      0.000
REMARK  5 active torsions:
REMARK  status: ('A' for Active; 'I' for Inactive)
REMARK    1  A    between atoms: C4_4  and  C7_7 
REMARK    2  A    between atoms: C5_5  and  C9_9 
REMARK    3  A    between atoms: C6_6  and  C9_9 
REMARK    4  A    between atoms: C7_7  and  C9_9 
REMARK    5  A    between atoms: C8_8  and  C9_9 
ROOT
HETATM    1  C9  UNL     1     -41.418  13.493   6.141  1.00 20.00    -0.029 C 
ENDROOT
BRANCH   1   2
HETATM    2  C5  UNL     1     -40.475  14.471   6.915  1.00 20.00     0.006 C 
HETATM    3  C2  UNL     1     -40.451  14.329   8.432  1.00 20.00     0.006 C 
ENDBRANCH   1   2
BRANCH   1   4
HETATM    4  C6  UNL     1     -41.738  14.037   4.712  1.00 20.00     0.006 C 
HETATM    5  C3  UNL     1     -43.077  14.746   4.545  1.00 20.00     0.006 C 
ENDBRANCH   1   4
BRANCH   1   6
HETATM    6  C7  UNL     1     -40.666  12.121   6.066  1.00 20.00     0.010 C 
BRANCH   6   7
HETATM    7  C4  UNL     1     -39.203  12.175   5.610  1.00 20.00    -0.004 C 
HETATM    8  C1  UNL     1     -39.046  11.617   4.202  1.00 20.00     0.005 C 
ENDBRANCH   6   7
ENDBRANCH   1   6
BRANCH   1   9
HETATM    9  C8  UNL     1     -42.789  13.345   6.864  1.00 20.00     0.124 C 
HETATM   10 CL10 UNL     1     -43.224  11.670   7.290  1.00 20.00    -0.130 Cl
ENDBRANCH   1   9
TORSDOF 5
ENDMDL
MODEL 2
REMARK VINA RESULT:      -3.5      1.617      2.895
REMARK  5 active torsions:
REMARK  status: ('A' for Active; 'I' for Inactive)
REMARK    1  A    between atoms: C4_4  and  C7_7 
REMARK    2  A    between atoms: C5_5  and  C9_9 
REMARK    3  A    between atoms: C6_6  and  C9_9 
REMARK    4  A    between atoms: C7_7  and  C9_9 
REMARK    5  A    between atoms: C8_8  and  C9_9 
ROOT
HETATM    1  C9  UNL     1     -41.546  13.693   6.851  1.00 20.00    -0.029 C 
ENDROOT
BRANCH   1   2
HETATM    2  C5  UNL     1     -42.647  13.212   7.853  1.00 20.00     0.006 C 
HETATM    3  C2  UNL     1     -43.407  11.949   7.467  1.00 20.00     0.006 C 
ENDBRANCH   1   2
BRANCH   1   4
HETATM    4  C6  UNL     1     -40.375  14.402   7.605  1.00 20.00     0.006 C 
HETATM    5  C3  UNL     1     -40.456  14.405   9.127  1.00 20.00     0.006 C 
ENDBRANCH   1   4
BRANCH   1   6
HETATM    6  C7  UNL     1     -41.041  12.413   6.103  1.00 20.00     0.010 C 
BRANCH   6   7
HETATM    7  C4  UNL     1     -39.520  12.253   5.984  1.00 20.00    -0.004 C 
HETATM    8  C1  UNL     1     -39.124  11.805   4.585  1.00 20.00     0.005 C 
ENDBRANCH   6   7
ENDBRANCH   1   6
BRANCH   1   9
HETATM    9  C8  UNL     1     -42.116  14.742   5.852  1.00 20.00     0.124 C 
HETATM   10 CL10 UNL     1     -41.981  14.278   4.136  1.00 20.00    -0.130 Cl
ENDBRANCH   1   9
TORSDOF 5
ENDMDL
MODEL 3
REMARK VINA RESULT:      -3.5      1.848      2.812
REMARK  5 active torsions:
REMARK  status: ('A' for Active; 'I' for Inactive)
REMARK    1  A    between atoms: C4_4  and  C7_7 
REMARK    2  A    between atoms: C5_5  and  C9_9 
REMARK    3  A    between atoms: C6_6  and  C9_9 
REMARK    4  A    between atoms: C7_7  and  C9_9 
REMARK    5  A    between atoms: C8_8  and  C9_9 
ROOT
HETATM    1  C9  UNL     1     -41.434  13.584   6.800  1.00 20.00    -0.029 C 
ENDROOT
BRANCH   1   2
HETATM    2  C5  UNL     1     -41.923  14.745   5.872  1.00 20.00     0.006 C 
HETATM    3  C2  UNL     1     -42.292  14.360   4.445  1.00 20.00     0.006 C 
ENDBRANCH   1   2
BRANCH   1   4
HETATM    4  C6  UNL     1     -42.423  12.375   6.752  1.00 20.00     0.006 C 
HETATM    5  C3  UNL     1     -43.417  12.271   7.902  1.00 20.00     0.006 C 
ENDBRANCH   1   4
BRANCH   1   6
HETATM    6  C7  UNL     1     -40.015  13.172   6.282  1.00 20.00     0.010 C 
BRANCH   6   7
HETATM    7  C4  UNL     1     -39.863  11.723   5.801  1.00 20.00    -0.004 C 
HETATM    8  C1  UNL     1     -39.239  11.669   4.414  1.00 20.00     0.005 C 
ENDBRANCH   6   7
ENDBRANCH   1   6
BRANCH   1   9
HETATM    9  C8  UNL     1     -41.380  14.040   8.288  1.00 20.00     0.124 C 
HETATM   10 CL10 UNL     1     -40.350  15.463   8.589  1.00 20.00    -0.130 Cl
ENDBRANCH   1   9
TORSDOF 5
ENDMDL
MODEL 4
REMARK VINA RESULT:      -3.3     10.868     12.086
REMARK  5 active torsions:
REMARK  status: ('A' for Active; 'I' for Inactive)
REMARK    1  A    between atoms: C4_4  and  C7_7 
REMARK    2  A    between atoms: C5_5  and  C9_9 
REMARK    3  A    between atoms: C6_6  and  C9_9 
REMARK    4  A    between atoms: C7_7  and  C9_9 
REMARK    5  A    between atoms: C8_8  and  C9_9 
ROOT
HETATM    1  C9  UNL     1     -33.513  18.224  -1.064  1.00 20.00    -0.029 C 
ENDROOT
BRANCH   1   2
HETATM    2  C5  UNL     1     -34.483  19.263  -1.717  1.00 20.00     0.006 C 
HETATM    3  C2  UNL     1     -35.677  18.691  -2.471  1.00 20.00     0.006 C 
ENDBRANCH   1   2
BRANCH   1   4
HETATM    4  C6  UNL     1     -33.775  18.102   0.472  1.00 20.00     0.006 C 
HETATM    5  C3  UNL     1     -34.632  19.196   1.098  1.00 20.00     0.006 C 
ENDBRANCH   1   4
BRANCH   1   6
HETATM    6  C7  UNL     1     -33.772  16.861  -1.790  1.00 20.00     0.010 C 
BRANCH   6   7
HETATM    7  C4  UNL     1     -32.933  16.592  -3.045  1.00 20.00    -0.004 C 
HETATM    8  C1  UNL     1     -33.515  15.444  -3.858  1.00 20.00     0.005 C 
ENDBRANCH   6   7
ENDBRANCH   1   6
BRANCH   1   9
HETATM    9  C8  UNL     1     -32.029  18.671  -1.215  1.00 20.00     0.124 C 
HETATM   10 CL10 UNL     1     -31.022  18.393   0.229  1.00 20.00    -0.130 Cl
ENDBRANCH   1   9
TORSDOF 5
ENDMDL
MODEL 5
REMARK VINA RESULT:      -3.3      9.936     10.805
REMARK  5 active torsions:
REMARK  status: ('A' for Active; 'I' for Inactive)
REMARK    1  A    between atoms: C4_4  and  C7_7 
REMARK    2  A    between atoms: C5_5  and  C9_9 
REMARK    3  A    between atoms: C6_6  and  C9_9 
REMARK    4  A    between atoms: C7_7  and  C9_9 
REMARK    5  A    between atoms: C8_8  and  C9_9 
ROOT
HETATM    1  C9  UNL     1     -32.856   7.676   3.588  1.00 20.00    -0.029 C 
ENDROOT
BRANCH   1   2
HETATM    2  C5  UNL     1     -31.908   8.187   4.723  1.00 20.00     0.006 C 
HETATM    3  C2  UNL     1     -31.988   9.672   5.055  1.00 20.00     0.006 C 
ENDBRANCH   1   2
BRANCH   1   4
HETATM    4  C6  UNL     1     -32.199   6.500   2.797  1.00 20.00     0.006 C 
HETATM    5  C3  UNL     1     -33.020   5.221   2.686  1.00 20.00     0.006 C 
ENDBRANCH   1   4
BRANCH   1   6
HETATM    6  C7  UNL     1     -34.177   7.214   4.292  1.00 20.00     0.010 C 
BRANCH   6   7
HETATM    7  C4  UNL     1     -34.072   6.897   5.789  1.00 20.00    -0.004 C 
HETATM    8  C1  UNL     1     -34.634   5.516   6.097  1.00 20.00     0.005 C 
ENDBRANCH   6   7
ENDBRANCH   1   6
BRANCH   1   9
HETATM    9  C8  UNL     1     -33.135   8.797   2.545  1.00 20.00     0.124 C 
HETATM   10 CL10 UNL     1     -32.332   8.560   0.971  1.00 20.00    -0.130 Cl
ENDBRANCH   1   9
TORSDOF 5
ENDMDL
MODEL 6
REMARK VINA RESULT:      -3.2      1.071      3.512
REMARK  5 active torsions:
REMARK  status: ('A' for Active; 'I' for Inactive)
REMARK    1  A    between atoms: C4_4  and  C7_7 
REMARK    2  A    between atoms: C5_5  and  C9_9 
REMARK    3  A    between atoms: C6_6  and  C9_9 
REMARK    4  A    between atoms: C7_7  and  C9_9 
REMARK    5  A    between atoms: C8_8  and  C9_9 
ROOT
HETATM    1  C9  UNL     1     -41.306  13.374   6.293  1.00 20.00    -0.029 C 
ENDROOT
BRANCH   1   2
HETATM    2  C5  UNL     1     -42.004  14.620   5.655  1.00 20.00     0.006 C 
HETATM    3  C2  UNL     1     -42.322  14.529   4.168  1.00 20.00     0.006 C 
ENDBRANCH   1   2
BRANCH   1   4
HETATM    4  C6  UNL     1     -40.416  12.632   5.244  1.00 20.00     0.006 C 
HETATM    5  C3  UNL     1     -39.166  11.948   5.785  1.00 20.00     0.006 C 
ENDBRANCH   1   4
BRANCH   1   6
HETATM    6  C7  UNL     1     -40.443  13.913   7.484  1.00 20.00     0.010 C 
BRANCH   6   7
HETATM    7  C4  UNL     1     -40.412  15.435   7.663  1.00 20.00    -0.004 C 
HETATM    8  C1  UNL     1     -40.431  15.814   9.138  1.00 20.00     0.005 C 
ENDBRANCH   6   7
ENDBRANCH   1   6
BRANCH   1   9
HETATM    9  C8  UNL     1     -42.355  12.333   6.783  1.00 20.00     0.124 C 
HETATM   10 CL10 UNL     1     -43.206  12.789   8.282  1.00 20.00    -0.130 Cl
ENDBRANCH   1   9
TORSDOF 5
ENDMDL
MODEL 7
REMARK VINA RESULT:      -3.2      9.833     10.842
REMARK  5 active torsions:
REMARK  status: ('A' for Active; 'I' for Inactive)
REMARK    1  A    between atoms: C4_4  and  C7_7 
REMARK    2  A    between atoms: C5_5  and  C9_9 
REMARK    3  A    between atoms: C6_6  and  C9_9 
REMARK    4  A    between atoms: C7_7  and  C9_9 
REMARK    5  A    between atoms: C8_8  and  C9_9 
ROOT
HETATM    1  C9  UNL     1     -32.783   7.650   3.518  1.00 20.00    -0.029 C 
ENDROOT
BRANCH   1   2
HETATM    2  C5  UNL     1     -32.284   6.418   2.691  1.00 20.00     0.006 C 
HETATM    3  C2  UNL     1     -33.145   5.163   2.764  1.00 20.00     0.006 C 
ENDBRANCH   1   2
BRANCH   1   4
HETATM    4  C6  UNL     1     -33.087   8.864   2.583  1.00 20.00     0.006 C 
HETATM    5  C3  UNL     1     -32.481   8.809   1.186  1.00 20.00     0.006 C 
ENDBRANCH   1   4
BRANCH   1   6
HETATM    6  C7  UNL     1     -34.072   7.182   4.273  1.00 20.00     0.010 C 
BRANCH   6   7
HETATM    7  C4  UNL     1     -33.944   7.010   5.791  1.00 20.00    -0.004 C 
HETATM    8  C1  UNL     1     -34.559   5.695   6.248  1.00 20.00     0.005 C 
ENDBRANCH   6   7
ENDBRANCH   1   6
BRANCH   1   9
HETATM    9  C8  UNL     1     -31.690   8.135   4.515  1.00 20.00     0.124 C 
HETATM   10 CL10 UNL     1     -31.963   9.768   5.174  1.00 20.00    -0.130 Cl
ENDBRANCH   1   9
TORSDOF 5
ENDMDL
MODEL 8
REMARK VINA RESULT:      -3.1      1.819      3.607
REMARK  5 active torsions:
REMARK  status: ('A' for Active; 'I' for Inactive)
REMARK    1  A    between atoms: C4_4  and  C7_7 
REMARK    2  A    between atoms: C5_5  and  C9_9 
REMARK    3  A    between atoms: C6_6  and  C9_9 
REMARK    4  A    between atoms: C7_7  and  C9_9 
REMARK    5  A    between atoms: C8_8  and  C9_9 
ROOT
HETATM    1  C9  UNL     1     -41.348  13.448   6.381  1.00 20.00    -0.029 C 
ENDROOT
BRANCH   1   2
HETATM    2  C5  UNL     1     -42.505  12.511   6.862  1.00 20.00     0.006 C 
HETATM    3  C2  UNL     1     -43.182  12.890   8.173  1.00 20.00     0.006 C 
ENDBRANCH   1   2
BRANCH   1   4
HETATM    4  C6  UNL     1     -40.418  12.713   5.363  1.00 20.00     0.006 C 
HETATM    5  C3  UNL     1     -39.227  11.968   5.955  1.00 20.00     0.006 C 
ENDBRANCH   1   4
BRANCH   1   6
HETATM    6  C7  UNL     1     -42.034  14.692   5.721  1.00 20.00     0.010 C 
BRANCH   6   7
HETATM    7  C4  UNL     1     -42.931  14.408   4.510  1.00 20.00    -0.004 C 
HETATM    8  C1  UNL     1     -42.421  15.128   3.270  1.00 20.00     0.005 C 
ENDBRANCH   6   7
ENDBRANCH   1   6
BRANCH   1   9
HETATM    9  C8  UNL     1     -40.438  13.871   7.571  1.00 20.00     0.124 C 
HETATM   10 CL10 UNL     1     -40.313  15.632   7.817  1.00 20.00    -0.130 Cl
ENDBRANCH   1   9
TORSDOF 5
ENDMDL
MODEL 9
REMARK VINA RESULT:      -3.1     12.412     13.541
REMARK  5 active torsions:
REMARK  status: ('A' for Active; 'I' for Inactive)
REMARK    1  A    between atoms: C4_4  and  C7_7 
REMARK    2  A    between atoms: C5_5  and  C9_9 
REMARK    3  A    between atoms: C6_6  and  C9_9 
REMARK    4  A    between atoms: C7_7  and  C9_9 
REMARK    5  A    between atoms: C8_8  and  C9_9 
ROOT
HETATM    1  C9  UNL     1     -34.932  16.408  -5.408  1.00 20.00    -0.029 C 
ENDROOT
BRANCH   1   2
HETATM    2  C5  UNL     1     -34.700  14.879  -5.173  1.00 20.00     0.006 C 
HETATM    3  C2  UNL     1     -35.948  14.029  -4.971  1.00 20.00     0.006 C 
ENDBRANCH   1   2
BRANCH   1   4
HETATM    4  C6  UNL     1     -36.444  16.775  -5.255  1.00 20.00     0.006 C 
HETATM    5  C3  UNL     1     -36.755  18.027  -4.444  1.00 20.00     0.006 C 
ENDBRANCH   1   4
BRANCH   1   6
HETATM    6  C7  UNL     1     -34.061  17.156  -4.343  1.00 20.00     0.010 C 
BRANCH   6   7
HETATM    7  C4  UNL     1     -33.419  16.282  -3.258  1.00 20.00    -0.004 C 
HETATM    8  C1  UNL     1     -33.495  16.956  -1.896  1.00 20.00     0.005 C 
ENDBRANCH   6   7
ENDBRANCH   1   6
BRANCH   1   9
HETATM    9  C8  UNL     1     -34.531  16.821  -6.855  1.00 20.00     0.124 C 
HETATM   10 CL10 UNL     1     -33.757  15.527  -7.806  1.00 20.00    -0.130 Cl
ENDBRANCH   1   9
TORSDOF 5
ENDMDL
