MODEL 1
REMARK VINA RESULT:      -6.0      0.000      0.000
REMARK  0 active torsions:
REMARK  status: ('A' for Active; 'I' for Inactive)
ROOT
HETATM    1  C1  UNL     1     -34.210   6.273   6.375  1.00 20.00    -0.021 C 
HETATM    2  C2  UNL     1     -34.331   4.966   6.090  1.00 20.00    -0.025 C 
HETATM    3  C3  UNL     1     -33.326   6.729   4.135  1.00 20.00    -0.076 C 
HETATM    4  C4  UNL     1     -32.424   7.593   3.662  1.00 20.00    -0.027 C 
HETATM    5  C5  UNL     1     -33.439   5.251   3.776  1.00 20.00     0.043 C 
HETATM    6  C6  UNL     1     -35.537   6.123   4.490  1.00 20.00     0.022 C 
HETATM    7  C7  UNL     1     -34.463   7.034   5.094  1.00 20.00     0.037 C 
HETATM    8  C8  UNL     1     -34.678   4.858   4.618  1.00 20.00     0.013 C 
HETATM    9  C9  UNL     1     -32.362   9.033   4.050  1.00 20.00     0.036 C 
ENDROOT
TORSDOF 0
ENDMDL
MODEL 2
REMARK VINA RESULT:      -4.4      0.858      1.990
REMARK  0 active torsions:
REMARK  status: ('A' for Active; 'I' for Inactive)
ROOT
HETATM    1  C1  UNL     1     -35.161   6.007   3.847  1.00 20.00    -0.021 C 
HETATM    2  C2  UNL     1     -35.769   5.532   4.948  1.00 20.00    -0.025 C 
HETATM    3  C3  UNL     1     -33.523   7.214   5.216  1.00 20.00    -0.076 C 
HETATM    4  C4  UNL     1     -32.883   8.376   5.069  1.00 20.00    -0.027 C 
HETATM    5  C5  UNL     1     -34.191   6.703   6.487  1.00 20.00     0.043 C 
HETATM    6  C6  UNL     1     -33.547   4.898   5.073  1.00 20.00     0.022 C 
HETATM    7  C7  UNL     1     -33.689   6.127   4.168  1.00 20.00     0.037 C 
HETATM    8  C8  UNL     1     -34.695   5.323   5.998  1.00 20.00     0.013 C 
HETATM    9  C9  UNL     1     -32.246   8.825   3.795  1.00 20.00     0.036 C 
ENDROOT
TORSDOF 0
ENDMDL
MODEL 3
REMARK VINA RESULT:      -4.2      1.223      3.618
REMARK  0 active torsions:
REMARK  status: ('A' for Active; 'I' for Inactive)
ROOT
HETATM    1  C1  UNL     1     -32.620   6.596   3.253  1.00 20.00    -0.021 C 
HETATM    2  C2  UNL     1     -31.802   7.661   3.206  1.00 20.00    -0.025 C 
HETATM    3  C3  UNL     1     -33.467   7.284   5.449  1.00 20.00    -0.076 C 
HETATM    4  C4  UNL     1     -33.877   6.610   6.526  1.00 20.00    -0.027 C 
HETATM    5  C5  UNL     1     -32.547   8.499   5.436  1.00 20.00     0.043 C 
HETATM    6  C6  UNL     1     -33.949   8.467   3.512  1.00 20.00     0.022 C 
HETATM    7  C7  UNL     1     -33.860   7.019   4.006  1.00 20.00     0.037 C 
HETATM    8  C8  UNL     1     -32.507   8.800   3.918  1.00 20.00     0.013 C 
HETATM    9  C9  UNL     1     -34.782   5.423   6.477  1.00 20.00     0.036 C 
ENDROOT
TORSDOF 0
ENDMDL
MODEL 4
REMARK VINA RESULT:      -4.2     15.491     16.540
REMARK  0 active torsions:
REMARK  status: ('A' for Active; 'I' for Inactive)
ROOT
HETATM    1  C1  UNL     1     -24.288  16.577  11.263  1.00 20.00    -0.021 C 
HETATM    2  C2  UNL     1     -25.341  17.010  11.976  1.00 20.00    -0.025 C 
HETATM    3  C3  UNL     1     -24.147  18.720  10.080  1.00 20.00    -0.076 C 
HETATM    4  C4  UNL     1     -23.802  19.061   8.836  1.00 20.00    -0.027 C 
HETATM    5  C5  UNL     1     -25.346  19.244  10.863  1.00 20.00     0.043 C 
HETATM    6  C6  UNL     1     -23.618  18.513  12.330  1.00 20.00     0.022 C 
HETATM    7  C7  UNL     1     -23.402  17.774  11.005  1.00 20.00     0.037 C 
HETATM    8  C8  UNL     1     -25.147  18.496  12.205  1.00 20.00     0.013 C 
HETATM    9  C9  UNL     1     -22.613  18.513   8.118  1.00 20.00     0.036 C 
ENDROOT
TORSDOF 0
ENDMDL
MODEL 5
REMARK VINA RESULT:      -4.2     15.631     17.009
REMARK  0 active torsions:
REMARK  status: ('A' for Active; 'I' for Inactive)
ROOT
HETATM    1  C1  UNL     1     -24.949  18.804  10.412  1.00 20.00    -0.021 C 
HETATM    2  C2  UNL     1     -25.151  18.800  11.740  1.00 20.00    -0.025 C 
HETATM    3  C3  UNL     1     -22.574  18.280  10.722  1.00 20.00    -0.076 C 
HETATM    4  C4  UNL     1     -21.465  18.621  10.062  1.00 20.00    -0.027 C 
HETATM    5  C5  UNL     1     -22.761  18.275  12.236  1.00 20.00     0.043 C 
HETATM    6  C6  UNL     1     -24.249  16.743  11.184  1.00 20.00     0.022 C 
HETATM    7  C7  UNL     1     -23.876  17.781  10.120  1.00 20.00     0.037 C 
HETATM    8  C8  UNL     1     -24.218  17.760  12.332  1.00 20.00     0.013 C 
HETATM    9  C9  UNL     1     -21.340  18.606   8.574  1.00 20.00     0.036 C 
ENDROOT
TORSDOF 0
ENDMDL
MODEL 6
REMARK VINA RESULT:      -4.0     16.336     17.226
REMARK  0 active torsions:
REMARK  status: ('A' for Active; 'I' for Inactive)
ROOT
HETATM    1  C1  UNL     1     -21.468  18.795  10.255  1.00 20.00    -0.021 C 
HETATM    2  C2  UNL     1     -21.293  19.245   9.001  1.00 20.00    -0.025 C 
HETATM    3  C3  UNL     1     -23.885  18.590   9.894  1.00 20.00    -0.076 C 
HETATM    4  C4  UNL     1     -24.948  18.756  10.684  1.00 20.00    -0.027 C 
HETATM    5  C5  UNL     1     -23.727  19.105   8.467  1.00 20.00     0.043 C 
HETATM    6  C6  UNL     1     -22.356  17.196   8.844  1.00 20.00     0.022 C 
HETATM    7  C7  UNL     1     -22.619  17.816  10.220  1.00 20.00     0.037 C 
HETATM    8  C8  UNL     1     -22.321  18.552   8.128  1.00 20.00     0.013 C 
HETATM    9  C9  UNL     1     -25.046  18.226  12.076  1.00 20.00     0.036 C 
ENDROOT
TORSDOF 0
ENDMDL
MODEL 7
REMARK VINA RESULT:      -3.9     12.349     13.624
REMARK  0 active torsions:
REMARK  status: ('A' for Active; 'I' for Inactive)
ROOT
HETATM    1  C1  UNL     1     -33.461  16.546  -2.121  1.00 20.00    -0.021 C 
HETATM    2  C2  UNL     1     -33.673  17.027  -3.358  1.00 20.00    -0.025 C 
HETATM    3  C3  UNL     1     -32.475  18.675  -1.410  1.00 20.00    -0.076 C 
HETATM    4  C4  UNL     1     -31.495  18.994  -0.562  1.00 20.00    -0.027 C 
HETATM    5  C5  UNL     1     -32.691  19.254  -2.804  1.00 20.00     0.043 C 
HETATM    6  C6  UNL     1     -34.736  18.457  -1.881  1.00 20.00     0.022 C 
HETATM    7  C7  UNL     1     -33.614  17.702  -1.160  1.00 20.00     0.037 C 
HETATM    8  C8  UNL     1     -33.982  18.505  -3.216  1.00 20.00     0.013 C 
HETATM    9  C9  UNL     1     -31.333  18.392   0.795  1.00 20.00     0.036 C 
ENDROOT
TORSDOF 0
ENDMDL
MODEL 8
REMARK VINA RESULT:      -3.9      9.435     10.433
REMARK  0 active torsions:
REMARK  status: ('A' for Active; 'I' for Inactive)
ROOT
HETATM    1  C1  UNL     1     -40.496  14.264   8.211  1.00 20.00    -0.021 C 
HETATM    2  C2  UNL     1     -41.773  14.119   8.606  1.00 20.00    -0.025 C 
HETATM    3  C3  UNL     1     -40.841  12.699   6.356  1.00 20.00    -0.076 C 
HETATM    4  C4  UNL     1     -40.059  11.797   5.759  1.00 20.00    -0.027 C 
HETATM    5  C5  UNL     1     -42.293  12.501   6.778  1.00 20.00     0.043 C 
HETATM    6  C6  UNL     1     -41.819  14.803   6.396  1.00 20.00     0.022 C 
HETATM    7  C7  UNL     1     -40.477  14.131   6.706  1.00 20.00     0.037 C 
HETATM    8  C8  UNL     1     -42.606  13.902   7.357  1.00 20.00     0.013 C 
HETATM    9  C9  UNL     1     -38.640  12.049   5.368  1.00 20.00     0.036 C 
ENDROOT
TORSDOF 0
ENDMDL
MODEL 9
REMARK VINA RESULT:      -3.9     15.476     17.254
REMARK  0 active torsions:
REMARK  status: ('A' for Active; 'I' for Inactive)
ROOT
HETATM    1  C1  UNL     1     -22.492  17.018   8.911  1.00 20.00    -0.021 C 
HETATM    2  C2  UNL     1     -21.293  17.623   8.949  1.00 20.00    -0.025 C 
HETATM    3  C3  UNL     1     -23.023  17.825  11.164  1.00 20.00    -0.076 C 
HETATM    4  C4  UNL     1     -23.715  17.312  12.184  1.00 20.00    -0.027 C 
HETATM    5  C5  UNL     1     -21.667  18.518  11.249  1.00 20.00     0.043 C 
HETATM    6  C6  UNL     1     -22.887  19.253   9.341  1.00 20.00     0.022 C 
HETATM    7  C7  UNL     1     -23.448  17.875   9.707  1.00 20.00     0.037 C 
HETATM    8  C8  UNL     1     -21.456  18.893   9.761  1.00 20.00     0.013 C 
HETATM    9  C9  UNL     1     -25.043  16.643  12.040  1.00 20.00     0.036 C 
ENDROOT
TORSDOF 0
ENDMDL
