MODEL 1
REMARK VINA RESULT:      -5.1      0.000      0.000
REMARK  3 active torsions:
REMARK  status: ('A' for Active; 'I' for Inactive)
REMARK    1  A    between atoms: C2_2  and  C6_6 
REMARK    2  A    between atoms: C6_6  and  C7_7 
REMARK    3  A    between atoms: C7_7  and  C8_8 
ROOT
HETATM    1  C6  UNL     1     -33.878   7.894   5.094  1.00 20.00     0.027 C 
ENDROOT
BRANCH   1   2
HETATM    2  C2  UNL     1     -33.976   7.059   6.338  1.00 20.00    -0.031 C 
HETATM    3  C1  UNL     1     -34.418   5.794   6.354  1.00 20.00    -0.035 C 
HETATM    4  C3  UNL     1     -34.870   5.056   5.138  1.00 20.00     0.035 C 
ENDBRANCH   1   2
BRANCH   1   5
HETATM    5  C7  UNL     1     -32.431   8.198   4.686  1.00 20.00     0.007 C 
BRANCH   5   6
HETATM    6  C8  UNL     1     -32.074   7.875   3.222  1.00 20.00    -0.022 C 
HETATM    7  C4  UNL     1     -32.586   6.477   2.863  1.00 20.00     0.009 C 
HETATM    8  C5  UNL     1     -32.647   8.900   2.243  1.00 20.00     0.009 C 
ENDBRANCH   5   6
ENDBRANCH   1   5
TORSDOF 3
ENDMDL
MODEL 2
REMARK VINA RESULT:      -5.0      0.890      3.647
REMARK  3 active torsions:
REMARK  status: ('A' for Active; 'I' for Inactive)
REMARK    1  A    between atoms: C2_2  and  C6_6 
REMARK    2  A    between atoms: C6_6  and  C7_7 
REMARK    3  A    between atoms: C7_7  and  C8_8 
ROOT
HETATM    1  C6  UNL     1     -33.922   8.092   5.248  1.00 20.00     0.027 C 
ENDROOT
BRANCH   1   2
HETATM    2  C2  UNL     1     -32.518   8.499   4.910  1.00 20.00    -0.031 C 
HETATM    3  C1  UNL     1     -31.836   8.024   3.857  1.00 20.00    -0.035 C 
HETATM    4  C3  UNL     1     -32.388   7.031   2.890  1.00 20.00     0.035 C 
ENDBRANCH   1   2
BRANCH   1   5
HETATM    5  C7  UNL     1     -33.987   6.902   6.214  1.00 20.00     0.007 C 
BRANCH   5   6
HETATM    6  C8  UNL     1     -34.770   5.676   5.703  1.00 20.00    -0.022 C 
HETATM    7  C4  UNL     1     -35.566   6.058   4.451  1.00 20.00     0.009 C 
HETATM    8  C5  UNL     1     -33.856   4.490   5.390  1.00 20.00     0.009 C 
ENDBRANCH   5   6
ENDBRANCH   1   5
TORSDOF 3
ENDMDL
MODEL 3
REMARK VINA RESULT:      -4.8      0.883      1.761
REMARK  3 active torsions:
REMARK  status: ('A' for Active; 'I' for Inactive)
REMARK    1  A    between atoms: C2_2  and  C6_6 
REMARK    2  A    between atoms: C6_6  and  C7_7 
REMARK    3  A    between atoms: C7_7  and  C8_8 
ROOT
HETATM    1  C6  UNL     1     -33.614   7.151   6.068  1.00 20.00     0.027 C 
ENDROOT
BRANCH   1   2
HETATM    2  C2  UNL     1     -34.599   6.092   6.476  1.00 20.00    -0.031 C 
HETATM    3  C1  UNL     1     -34.839   4.983   5.762  1.00 20.00    -0.035 C 
HETATM    4  C3  UNL     1     -34.158   4.660   4.474  1.00 20.00     0.035 C 
ENDBRANCH   1   2
BRANCH   1   5
HETATM    5  C7  UNL     1     -34.048   7.924   4.816  1.00 20.00     0.007 C 
BRANCH   5   6
HETATM    6  C8  UNL     1     -32.900   8.502   3.965  1.00 20.00    -0.022 C 
HETATM    7  C4  UNL     1     -31.898   9.222   4.872  1.00 20.00     0.009 C 
HETATM    8  C5  UNL     1     -32.179   7.426   3.152  1.00 20.00     0.009 C 
ENDBRANCH   5   6
ENDBRANCH   1   5
TORSDOF 3
ENDMDL
MODEL 4
REMARK VINA RESULT:      -4.7      0.934      2.059
REMARK  3 active torsions:
REMARK  status: ('A' for Active; 'I' for Inactive)
REMARK    1  A    between atoms: C2_2  and  C6_6 
REMARK    2  A    between atoms: C6_6  and  C7_7 
REMARK    3  A    between atoms: C7_7  and  C8_8 
ROOT
HETATM    1  C6  UNL     1     -34.331   5.977   3.744  1.00 20.00     0.027 C 
ENDROOT
BRANCH   1   2
HETATM    2  C2  UNL     1     -34.492   4.958   4.834  1.00 20.00    -0.031 C 
HETATM    3  C1  UNL     1     -34.522   5.260   6.140  1.00 20.00    -0.035 C 
HETATM    4  C3  UNL     1     -34.398   6.648   6.675  1.00 20.00     0.035 C 
ENDBRANCH   1   2
BRANCH   1   5
HETATM    5  C7  UNL     1     -32.950   5.931   3.078  1.00 20.00     0.007 C 
BRANCH   5   6
HETATM    6  C8  UNL     1     -32.166   7.258   3.086  1.00 20.00    -0.022 C 
HETATM    7  C4  UNL     1     -32.195   7.883   1.688  1.00 20.00     0.009 C 
HETATM    8  C5  UNL     1     -32.719   8.255   4.106  1.00 20.00     0.009 C 
ENDBRANCH   5   6
ENDBRANCH   1   5
TORSDOF 3
ENDMDL
MODEL 5
REMARK VINA RESULT:      -4.5      0.902      4.101
REMARK  3 active torsions:
REMARK  status: ('A' for Active; 'I' for Inactive)
REMARK    1  A    between atoms: C2_2  and  C6_6 
REMARK    2  A    between atoms: C6_6  and  C7_7 
REMARK    3  A    between atoms: C7_7  and  C8_8 
ROOT
HETATM    1  C6  UNL     1     -32.461   8.330   4.197  1.00 20.00     0.027 C 
ENDROOT
BRANCH   1   2
HETATM    2  C2  UNL     1     -32.084   7.514   2.995  1.00 20.00    -0.031 C 
HETATM    3  C1  UNL     1     -32.218   7.943   1.731  1.00 20.00    -0.035 C 
HETATM    4  C3  UNL     1     -32.759   9.284   1.361  1.00 20.00     0.035 C 
ENDBRANCH   1   2
BRANCH   1   5
HETATM    5  C7  UNL     1     -33.851   7.984   4.747  1.00 20.00     0.007 C 
BRANCH   5   6
HETATM    6  C8  UNL     1     -34.066   6.504   5.121  1.00 20.00    -0.022 C 
HETATM    7  C4  UNL     1     -34.244   6.376   6.636  1.00 20.00     0.009 C 
HETATM    8  C5  UNL     1     -35.273   5.893   4.407  1.00 20.00     0.009 C 
ENDBRANCH   5   6
ENDBRANCH   1   5
TORSDOF 3
ENDMDL
MODEL 6
REMARK VINA RESULT:      -4.4      1.142      3.866
REMARK  3 active torsions:
REMARK  status: ('A' for Active; 'I' for Inactive)
REMARK    1  A    between atoms: C2_2  and  C6_6 
REMARK    2  A    between atoms: C6_6  and  C7_7 
REMARK    3  A    between atoms: C7_7  and  C8_8 
ROOT
HETATM    1  C6  UNL     1     -33.357   6.166   2.938  1.00 20.00     0.027 C 
ENDROOT
BRANCH   1   2
HETATM    2  C2  UNL     1     -32.171   7.060   3.157  1.00 20.00    -0.031 C 
HETATM    3  C1  UNL     1     -32.154   8.074   4.034  1.00 20.00    -0.035 C 
HETATM    4  C3  UNL     1     -33.310   8.441   4.903  1.00 20.00     0.035 C 
ENDBRANCH   1   2
BRANCH   1   5
HETATM    5  C7  UNL     1     -33.423   5.000   3.933  1.00 20.00     0.007 C 
BRANCH   5   6
HETATM    6  C8  UNL     1     -34.684   4.955   4.818  1.00 20.00    -0.022 C 
HETATM    7  C4  UNL     1     -34.304   5.252   6.272  1.00 20.00     0.009 C 
HETATM    8  C5  UNL     1     -35.756   5.942   4.355  1.00 20.00     0.009 C 
ENDBRANCH   5   6
ENDBRANCH   1   5
TORSDOF 3
ENDMDL
MODEL 7
REMARK VINA RESULT:      -4.3      0.956      2.030
REMARK  3 active torsions:
REMARK  status: ('A' for Active; 'I' for Inactive)
REMARK    1  A    between atoms: C2_2  and  C6_6 
REMARK    2  A    between atoms: C6_6  and  C7_7 
REMARK    3  A    between atoms: C7_7  and  C8_8 
ROOT
HETATM    1  C6  UNL     1     -34.439   5.711   3.868  1.00 20.00     0.027 C 
ENDROOT
BRANCH   1   2
HETATM    2  C2  UNL     1     -34.468   4.888   5.124  1.00 20.00    -0.031 C 
HETATM    3  C1  UNL     1     -34.433   5.411   6.358  1.00 20.00    -0.035 C 
HETATM    4  C3  UNL     1     -34.359   6.875   6.640  1.00 20.00     0.035 C 
ENDBRANCH   1   2
BRANCH   1   5
HETATM    5  C7  UNL     1     -33.021   6.124   3.454  1.00 20.00     0.007 C 
BRANCH   5   6
HETATM    6  C8  UNL     1     -32.823   7.628   3.177  1.00 20.00    -0.022 C 
HETATM    7  C4  UNL     1     -32.070   8.272   4.344  1.00 20.00     0.009 C 
HETATM    8  C5  UNL     1     -32.068   7.885   1.872  1.00 20.00     0.009 C 
ENDBRANCH   5   6
ENDBRANCH   1   5
TORSDOF 3
ENDMDL
MODEL 8
REMARK VINA RESULT:      -4.1      1.211      2.863
REMARK  3 active torsions:
REMARK  status: ('A' for Active; 'I' for Inactive)
REMARK    1  A    between atoms: C2_2  and  C6_6 
REMARK    2  A    between atoms: C6_6  and  C7_7 
REMARK    3  A    between atoms: C7_7  and  C8_8 
ROOT
HETATM    1  C6  UNL     1     -34.982   5.568   4.790  1.00 20.00     0.027 C 
ENDROOT
BRANCH   1   2
HETATM    2  C2  UNL     1     -34.618   5.948   6.196  1.00 20.00    -0.031 C 
HETATM    3  C1  UNL     1     -34.068   7.123   6.533  1.00 20.00    -0.035 C 
HETATM    4  C3  UNL     1     -33.749   8.202   5.552  1.00 20.00     0.035 C 
ENDBRANCH   1   2
BRANCH   1   5
HETATM    5  C7  UNL     1     -33.883   4.767   4.080  1.00 20.00     0.007 C 
BRANCH   5   6
HETATM    6  C8  UNL     1     -33.401   5.351   2.737  1.00 20.00    -0.022 C 
HETATM    7  C4  UNL     1     -32.438   6.514   2.996  1.00 20.00     0.009 C 
HETATM    8  C5  UNL     1     -32.717   4.302   1.859  1.00 20.00     0.009 C 
ENDBRANCH   5   6
ENDBRANCH   1   5
TORSDOF 3
ENDMDL
MODEL 9
REMARK VINA RESULT:      -3.9      1.212      3.483
REMARK  3 active torsions:
REMARK  status: ('A' for Active; 'I' for Inactive)
REMARK    1  A    between atoms: C2_2  and  C6_6 
REMARK    2  A    between atoms: C6_6  and  C7_7 
REMARK    3  A    between atoms: C7_7  and  C8_8 
ROOT
HETATM    1  C6  UNL     1     -33.908   6.888   5.814  1.00 20.00     0.027 C 
ENDROOT
BRANCH   1   2
HETATM    2  C2  UNL     1     -33.693   8.361   5.616  1.00 20.00    -0.031 C 
HETATM    3  C1  UNL     1     -32.760   8.876   4.802  1.00 20.00    -0.035 C 
HETATM    4  C3  UNL     1     -31.818   8.050   3.991  1.00 20.00     0.035 C 
ENDBRANCH   1   2
BRANCH   1   5
HETATM    5  C7  UNL     1     -34.838   6.270   4.763  1.00 20.00     0.007 C 
BRANCH   5   6
HETATM    6  C8  UNL     1     -34.340   4.956   4.128  1.00 20.00    -0.022 C 
HETATM    7  C4  UNL     1     -33.395   5.272   2.965  1.00 20.00     0.009 C 
HETATM    8  C5  UNL     1     -33.630   4.054   5.138  1.00 20.00     0.009 C 
ENDBRANCH   5   6
ENDBRANCH   1   5
TORSDOF 3
ENDMDL
