MODEL 1
REMARK VINA RESULT:      -3.8      0.000      0.000
REMARK  3 active torsions:
REMARK  status: ('A' for Active; 'I' for Inactive)
REMARK    1  A    between atoms: C5_5  and  C7_7 
REMARK    2  A    between atoms: C5_5  and  N8_8 
REMARK    3  A    between atoms: C6_6  and  C7_7 
ROOT
HETATM    1  C1  UNL     1     -32.661   9.028   2.186  1.00 20.00     0.157 C 
HETATM    2  N8  UNL     1     -32.625   8.975   3.359  1.00 20.00    -0.275 NA
HETATM    3  S9  UNL     1     -32.715   9.129   0.598  1.00 20.00    -0.055 SA
ENDROOT
BRANCH   2   4
HETATM    4  C5  UNL     1     -32.362   7.643   3.907  1.00 20.00     0.155 C 
BRANCH   4   5
HETATM    5  C7  UNL     1     -33.546   6.695   3.637  1.00 20.00     0.005 C 
HETATM    6  C4  UNL     1     -33.033   5.403   2.984  1.00 20.00     0.012 C 
BRANCH   5   7
HETATM    7  C6  UNL     1     -34.411   6.411   4.901  1.00 20.00    -0.017 C 
HETATM    8  C2  UNL     1     -34.602   4.908   5.142  1.00 20.00     0.010 C 
HETATM    9  C3  UNL     1     -33.805   7.035   6.166  1.00 20.00     0.010 C 
ENDBRANCH   5   7
ENDBRANCH   4   5
ENDBRANCH   2   4
TORSDOF 3
ENDMDL
MODEL 2
REMARK VINA RESULT:      -3.7     11.624     12.459
REMARK  3 active torsions:
REMARK  status: ('A' for Active; 'I' for Inactive)
REMARK    1  A    between atoms: C5_5  and  C7_7 
REMARK    2  A    between atoms: C5_5  and  N8_8 
REMARK    3  A    between atoms: C6_6  and  C7_7 
ROOT
HETATM    1  C1  UNL     1     -30.740  18.711   0.801  1.00 20.00     0.157 C 
HETATM    2  N8  UNL     1     -30.758  18.651  -0.372  1.00 20.00    -0.275 NA
HETATM    3  S9  UNL     1     -30.688  18.786   2.390  1.00 20.00    -0.055 SA
ENDROOT
BRANCH   2   4
HETATM    4  C5  UNL     1     -32.028  19.038  -0.990  1.00 20.00     0.155 C 
BRANCH   4   5
HETATM    5  C7  UNL     1     -32.987  17.835  -1.075  1.00 20.00     0.005 C 
HETATM    6  C4  UNL     1     -34.058  17.952   0.020  1.00 20.00     0.012 C 
BRANCH   5   7
HETATM    7  C6  UNL     1     -33.611  17.642  -2.489  1.00 20.00    -0.017 C 
HETATM    8  C2  UNL     1     -33.103  18.688  -3.490  1.00 20.00     0.010 C 
HETATM    9  C3  UNL     1     -33.330  16.245  -3.057  1.00 20.00     0.010 C 
ENDBRANCH   5   7
ENDBRANCH   4   5
ENDBRANCH   2   4
TORSDOF 3
ENDMDL
MODEL 3
REMARK VINA RESULT:      -3.6      0.981      1.606
REMARK  3 active torsions:
REMARK  status: ('A' for Active; 'I' for Inactive)
REMARK    1  A    between atoms: C5_5  and  C7_7 
REMARK    2  A    between atoms: C5_5  and  N8_8 
REMARK    3  A    between atoms: C6_6  and  C7_7 
ROOT
HETATM    1  C1  UNL     1     -32.641   8.897   1.978  1.00 20.00     0.157 C 
HETATM    2  N8  UNL     1     -32.593   8.723   3.139  1.00 20.00    -0.275 NA
HETATM    3  S9  UNL     1     -32.703   9.162   0.409  1.00 20.00    -0.055 SA
ENDROOT
BRANCH   2   4
HETATM    4  C5  UNL     1     -32.611   7.318   3.552  1.00 20.00     0.155 C 
BRANCH   4   5
HETATM    5  C7  UNL     1     -33.230   7.166   4.955  1.00 20.00     0.005 C 
HETATM    6  C4  UNL     1     -33.633   8.547   5.492  1.00 20.00     0.012 C 
BRANCH   5   7
HETATM    7  C6  UNL     1     -34.408   6.150   5.003  1.00 20.00    -0.017 C 
HETATM    8  C2  UNL     1     -34.156   4.933   4.103  1.00 20.00     0.010 C 
HETATM    9  C3  UNL     1     -34.685   5.653   6.428  1.00 20.00     0.010 C 
ENDBRANCH   5   7
ENDBRANCH   4   5
ENDBRANCH   2   4
TORSDOF 3
ENDMDL
MODEL 4
REMARK VINA RESULT:      -3.6      0.767      1.987
REMARK  3 active torsions:
REMARK  status: ('A' for Active; 'I' for Inactive)
REMARK    1  A    between atoms: C5_5  and  C7_7 
REMARK    2  A    between atoms: C5_5  and  N8_8 
REMARK    3  A    between atoms: C6_6  and  C7_7 
ROOT
HETATM    1  C1  UNL     1     -32.565   8.982   2.505  1.00 20.00     0.157 C 
HETATM    2  N8  UNL     1     -32.370   8.704   3.630  1.00 20.00    -0.275 NA
HETATM    3  S9  UNL     1     -32.799   9.361   0.977  1.00 20.00    -0.055 SA
ENDROOT
BRANCH   2   4
HETATM    4  C5  UNL     1     -33.571   8.371   4.399  1.00 20.00     0.155 C 
BRANCH   4   5
HETATM    5  C7  UNL     1     -33.467   6.953   4.993  1.00 20.00     0.005 C 
HETATM    6  C4  UNL     1     -34.044   6.947   6.416  1.00 20.00     0.012 C 
BRANCH   5   7
HETATM    7  C6  UNL     1     -34.112   5.858   4.093  1.00 20.00    -0.017 C 
HETATM    8  C2  UNL     1     -33.129   5.326   3.040  1.00 20.00     0.010 C 
HETATM    9  C3  UNL     1     -34.638   4.672   4.913  1.00 20.00     0.010 C 
ENDBRANCH   5   7
ENDBRANCH   4   5
ENDBRANCH   2   4
TORSDOF 3
ENDMDL
MODEL 5
REMARK VINA RESULT:      -3.6      0.401      1.222
REMARK  3 active torsions:
REMARK  status: ('A' for Active; 'I' for Inactive)
REMARK    1  A    between atoms: C5_5  and  C7_7 
REMARK    2  A    between atoms: C5_5  and  N8_8 
REMARK    3  A    between atoms: C6_6  and  C7_7 
ROOT
HETATM    1  C1  UNL     1     -32.683   9.028   2.052  1.00 20.00     0.157 C 
HETATM    2  N8  UNL     1     -32.680   8.936   3.223  1.00 20.00    -0.275 NA
HETATM    3  S9  UNL     1     -32.695   9.181   0.467  1.00 20.00    -0.055 SA
ENDROOT
BRANCH   2   4
HETATM    4  C5  UNL     1     -32.237   7.639   3.738  1.00 20.00     0.155 C 
BRANCH   4   5
HETATM    5  C7  UNL     1     -33.372   6.600   3.659  1.00 20.00     0.005 C 
HETATM    6  C4  UNL     1     -32.939   5.432   2.760  1.00 20.00     0.012 C 
BRANCH   5   7
HETATM    7  C6  UNL     1     -33.865   6.116   5.055  1.00 20.00    -0.017 C 
HETATM    8  C2  UNL     1     -33.910   7.259   6.077  1.00 20.00     0.010 C 
HETATM    9  C3  UNL     1     -35.254   5.469   4.984  1.00 20.00     0.010 C 
ENDBRANCH   5   7
ENDBRANCH   4   5
ENDBRANCH   2   4
TORSDOF 3
ENDMDL
MODEL 6
REMARK VINA RESULT:      -3.4     14.722     15.686
REMARK  3 active torsions:
REMARK  status: ('A' for Active; 'I' for Inactive)
REMARK    1  A    between atoms: C5_5  and  C7_7 
REMARK    2  A    between atoms: C5_5  and  N8_8 
REMARK    3  A    between atoms: C6_6  and  C7_7 
ROOT
HETATM    1  C1  UNL     1     -25.794  19.261   7.251  1.00 20.00     0.157 C 
HETATM    2  N8  UNL     1     -24.756  19.259   7.800  1.00 20.00    -0.275 NA
HETATM    3  S9  UNL     1     -27.188  19.263   6.481  1.00 20.00    -0.055 SA
ENDROOT
BRANCH   2   4
HETATM    4  C5  UNL     1     -24.832  19.263   9.263  1.00 20.00     0.155 C 
BRANCH   4   5
HETATM    5  C7  UNL     1     -23.771  18.326   9.871  1.00 20.00     0.005 C 
HETATM    6  C4  UNL     1     -22.371  18.912   9.635  1.00 20.00     0.012 C 
BRANCH   5   7
HETATM    7  C6  UNL     1     -24.026  17.997  11.371  1.00 20.00    -0.017 C 
HETATM    8  C2  UNL     1     -24.352  16.513  11.588  1.00 20.00     0.010 C 
HETATM    9  C3  UNL     1     -22.827  18.367  12.255  1.00 20.00     0.010 C 
ENDBRANCH   5   7
ENDBRANCH   4   5
ENDBRANCH   2   4
TORSDOF 3
ENDMDL
MODEL 7
REMARK VINA RESULT:      -3.2      2.043      2.540
REMARK  3 active torsions:
REMARK  status: ('A' for Active; 'I' for Inactive)
REMARK    1  A    between atoms: C5_5  and  C7_7 
REMARK    2  A    between atoms: C5_5  and  N8_8 
REMARK    3  A    between atoms: C6_6  and  C7_7 
ROOT
HETATM    1  C1  UNL     1     -32.636   6.367   2.923  1.00 20.00     0.157 C 
HETATM    2  N8  UNL     1     -33.068   5.279   2.825  1.00 20.00    -0.275 NA
HETATM    3  S9  UNL     1     -32.037   7.838   3.030  1.00 20.00    -0.055 SA
ENDROOT
BRANCH   2   4
HETATM    4  C5  UNL     1     -33.999   4.888   3.886  1.00 20.00     0.155 C 
BRANCH   4   5
HETATM    5  C7  UNL     1     -34.736   6.118   4.450  1.00 20.00     0.005 C 
HETATM    6  C4  UNL     1     -36.201   6.096   3.992  1.00 20.00     0.012 C 
BRANCH   5   7
HETATM    7  C6  UNL     1     -34.605   6.258   5.996  1.00 20.00    -0.017 C 
HETATM    8  C2  UNL     1     -34.085   4.971   6.650  1.00 20.00     0.010 C 
HETATM    9  C3  UNL     1     -33.680   7.416   6.394  1.00 20.00     0.010 C 
ENDBRANCH   5   7
ENDBRANCH   4   5
ENDBRANCH   2   4
TORSDOF 3
ENDMDL
MODEL 8
REMARK VINA RESULT:      -3.2     15.618     16.333
REMARK  3 active torsions:
REMARK  status: ('A' for Active; 'I' for Inactive)
REMARK    1  A    between atoms: C5_5  and  C7_7 
REMARK    2  A    between atoms: C5_5  and  N8_8 
REMARK    3  A    between atoms: C6_6  and  C7_7 
ROOT
HETATM    1  C1  UNL     1     -22.869  18.599   8.622  1.00 20.00     0.157 C 
HETATM    2  N8  UNL     1     -23.844  19.199   8.884  1.00 20.00    -0.275 NA
HETATM    3  S9  UNL     1     -21.536  17.810   8.252  1.00 20.00    -0.055 SA
ENDROOT
BRANCH   2   4
HETATM    4  C5  UNL     1     -24.793  18.486   9.744  1.00 20.00     0.155 C 
BRANCH   4   5
HETATM    5  C7  UNL     1     -24.700  18.989  11.198  1.00 20.00     0.005 C 
HETATM    6  C4  UNL     1     -26.110  19.263  11.740  1.00 20.00     0.012 C 
BRANCH   5   7
HETATM    7  C6  UNL     1     -23.887  18.039  12.127  1.00 20.00    -0.017 C 
HETATM    8  C2  UNL     1     -23.915  16.587  11.632  1.00 20.00     0.010 C 
HETATM    9  C3  UNL     1     -22.424  18.480  12.266  1.00 20.00     0.010 C 
ENDBRANCH   5   7
ENDBRANCH   4   5
ENDBRANCH   2   4
TORSDOF 3
ENDMDL
MODEL 9
REMARK VINA RESULT:      -3.2     11.432     12.147
REMARK  3 active torsions:
REMARK  status: ('A' for Active; 'I' for Inactive)
REMARK    1  A    between atoms: C5_5  and  C7_7 
REMARK    2  A    between atoms: C5_5  and  N8_8 
REMARK    3  A    between atoms: C6_6  and  C7_7 
ROOT
HETATM    1  C1  UNL     1     -33.742  15.554  -4.173  1.00 20.00     0.157 C 
HETATM    2  N8  UNL     1     -32.929  16.000  -3.451  1.00 20.00    -0.275 NA
HETATM    3  S9  UNL     1     -34.822  14.935  -5.166  1.00 20.00    -0.055 SA
ENDROOT
BRANCH   2   4
HETATM    4  C5  UNL     1     -33.461  16.779  -2.331  1.00 20.00     0.155 C 
BRANCH   4   5
HETATM    5  C7  UNL     1     -32.746  18.140  -2.220  1.00 20.00     0.005 C 
HETATM    6  C4  UNL     1     -33.402  19.147  -3.175  1.00 20.00     0.012 C 
BRANCH   5   7
HETATM    7  C6  UNL     1     -32.668  18.678  -0.760  1.00 20.00    -0.017 C 
HETATM    8  C2  UNL     1     -33.712  18.020   0.152  1.00 20.00     0.010 C 
HETATM    9  C3  UNL     1     -31.279  18.470  -0.142  1.00 20.00     0.010 C 
ENDBRANCH   5   7
ENDBRANCH   4   5
ENDBRANCH   2   4
TORSDOF 3
ENDMDL
