MODEL 1
REMARK VINA RESULT:      -4.4      0.000      0.000
REMARK  3 active torsions:
REMARK  status: ('A' for Active; 'I' for Inactive)
REMARK    1  A    between atoms: C1_1  and  C8_8 
REMARK       I    between atoms: C1_1  and  N10_10 
REMARK    2  A    between atoms: C4_4  and  C9_9 
REMARK    3  A    between atoms: C9_9  and  N10_10 
ROOT
HETATM    1  C1  UNL     1     -31.567  18.501   0.089  1.00 20.00     0.219 C 
HETATM    2  C7  UNL     1     -34.008  17.947   0.006  1.00 20.00     0.152 C 
HETATM    3  N10 UNL     1     -32.728  18.215  -0.638  1.00 20.00    -0.356 N 
HETATM    4  O11 UNL     1     -30.475  18.731  -0.437  1.00 20.00    -0.273 OA
ENDROOT
BRANCH   3   5
HETATM    5  C9  UNL     1     -32.745  18.167  -2.098  1.00 20.00     0.130 C 
BRANCH   5   6
HETATM    6  C4  UNL     1     -33.703  17.135  -2.590  1.00 20.00     0.008 A 
HETATM    7  C2  UNL     1     -34.462  17.357  -3.872  1.00 20.00     0.011 A 
HETATM    8  C3  UNL     1     -33.372  16.319  -3.814  1.00 20.00    -0.013 A 
HETATM    9  C5  UNL     1     -33.715  14.870  -3.861  1.00 20.00     0.010 C 
ENDBRANCH   5   6
ENDBRANCH   3   5
BRANCH   1  10
HETATM   10  C8  UNL     1     -31.711  18.514   1.604  1.00 20.00     0.098 C 
HETATM   11  C6  UNL     1     -30.371  18.460   2.321  1.00 20.00     0.014 C 
ENDBRANCH   1  10
TORSDOF 3
ENDMDL
MODEL 2
REMARK VINA RESULT:      -4.1      2.793      5.886
REMARK  3 active torsions:
REMARK  status: ('A' for Active; 'I' for Inactive)
REMARK    1  A    between atoms: C1_1  and  C8_8 
REMARK       I    between atoms: C1_1  and  N10_10 
REMARK    2  A    between atoms: C4_4  and  C9_9 
REMARK    3  A    between atoms: C9_9  and  N10_10 
ROOT
HETATM    1  C1  UNL     1     -33.884  15.133  -4.735  1.00 20.00     0.219 C 
HETATM    2  C7  UNL     1     -34.140  17.619  -4.574  1.00 20.00     0.152 C 
HETATM    3  N10 UNL     1     -33.818  16.319  -3.997  1.00 20.00    -0.356 N 
HETATM    4  O11 UNL     1     -33.616  14.024  -4.266  1.00 20.00    -0.273 OA
ENDROOT
BRANCH   3   5
HETATM    5  C9  UNL     1     -33.421  16.345  -2.591  1.00 20.00     0.130 C 
BRANCH   5   6
HETATM    6  C4  UNL     1     -33.263  17.745  -2.103  1.00 20.00     0.008 A 
HETATM    7  C2  UNL     1     -34.097  18.244  -0.952  1.00 20.00     0.011 A 
HETATM    8  C3  UNL     1     -32.620  18.012  -0.766  1.00 20.00    -0.013 A 
HETATM    9  C5  UNL     1     -31.696  19.168  -0.599  1.00 20.00     0.010 C 
ENDBRANCH   5   6
ENDBRANCH   3   5
BRANCH   1  10
HETATM   10  C8  UNL     1     -34.313  15.271  -6.189  1.00 20.00     0.098 C 
HETATM   11  C6  UNL     1     -35.726  14.763  -6.435  1.00 20.00     0.014 C 
ENDBRANCH   1  10
TORSDOF 3
ENDMDL
MODEL 3
REMARK VINA RESULT:      -3.9     11.835     12.897
REMARK  3 active torsions:
REMARK  status: ('A' for Active; 'I' for Inactive)
REMARK    1  A    between atoms: C1_1  and  C8_8 
REMARK       I    between atoms: C1_1  and  N10_10 
REMARK    2  A    between atoms: C4_4  and  C9_9 
REMARK    3  A    between atoms: C9_9  and  N10_10 
ROOT
HETATM    1  C1  UNL     1     -41.952  13.818   8.863  1.00 20.00     0.219 C 
HETATM    2  C7  UNL     1     -40.457  15.269   7.473  1.00 20.00     0.152 C 
HETATM    3  N10 UNL     1     -41.294  14.090   7.658  1.00 20.00    -0.356 N 
HETATM    4  O11 UNL     1     -42.664  12.826   9.039  1.00 20.00    -0.273 OA
ENDROOT
BRANCH   3   5
HETATM    5  C9  UNL     1     -41.396  13.212   6.494  1.00 20.00     0.130 C 
BRANCH   5   6
HETATM    6  C4  UNL     1     -40.061  12.989   5.870  1.00 20.00     0.008 A 
HETATM    7  C2  UNL     1     -39.107  11.985   6.463  1.00 20.00     0.011 A 
HETATM    8  C3  UNL     1     -39.772  11.702   5.141  1.00 20.00    -0.013 A 
HETATM    9  C5  UNL     1     -38.975  11.719   3.883  1.00 20.00     0.010 C 
ENDBRANCH   5   6
ENDBRANCH   3   5
BRANCH   1  10
HETATM   10  C8  UNL     1     -41.747  14.829   9.982  1.00 20.00     0.098 C 
HETATM   11  C6  UNL     1     -40.786  14.334  11.051  1.00 20.00     0.014 C 
ENDBRANCH   1  10
TORSDOF 3
ENDMDL
MODEL 4
REMARK VINA RESULT:      -3.9     11.336     12.460
REMARK  3 active torsions:
REMARK  status: ('A' for Active; 'I' for Inactive)
REMARK    1  A    between atoms: C1_1  and  C8_8 
REMARK       I    between atoms: C1_1  and  N10_10 
REMARK    2  A    between atoms: C4_4  and  C9_9 
REMARK    3  A    between atoms: C9_9  and  N10_10 
ROOT
HETATM    1  C1  UNL     1     -41.400  14.299   8.312  1.00 20.00     0.219 C 
HETATM    2  C7  UNL     1     -42.828  14.657   6.286  1.00 20.00     0.152 C 
HETATM    3  N10 UNL     1     -41.891  13.867   7.076  1.00 20.00    -0.356 N 
HETATM    4  O11 UNL     1     -40.607  13.645   8.995  1.00 20.00    -0.273 OA
ENDROOT
BRANCH   3   5
HETATM    5  C9  UNL     1     -41.501  12.590   6.481  1.00 20.00     0.130 C 
BRANCH   5   6
HETATM    6  C4  UNL     1     -40.203  12.709   5.758  1.00 20.00     0.008 A 
HETATM    7  C2  UNL     1     -38.967  12.042   6.305  1.00 20.00     0.011 A 
HETATM    8  C3  UNL     1     -39.617  11.511   5.054  1.00 20.00    -0.013 A 
HETATM    9  C5  UNL     1     -38.945  11.676   3.735  1.00 20.00     0.010 C 
ENDBRANCH   5   6
ENDBRANCH   3   5
BRANCH   1  10
HETATM   10  C8  UNL     1     -41.902  15.651   8.798  1.00 20.00     0.098 C 
HETATM   11  C6  UNL     1     -40.866  16.753   8.638  1.00 20.00     0.014 C 
ENDBRANCH   1  10
TORSDOF 3
ENDMDL
MODEL 5
REMARK VINA RESULT:      -3.7     10.661     11.748
REMARK  3 active torsions:
REMARK  status: ('A' for Active; 'I' for Inactive)
REMARK    1  A    between atoms: C1_1  and  C8_8 
REMARK       I    between atoms: C1_1  and  N10_10 
REMARK    2  A    between atoms: C4_4  and  C9_9 
REMARK    3  A    between atoms: C9_9  and  N10_10 
ROOT
HETATM    1  C1  UNL     1     -32.653   9.026   2.070  1.00 20.00     0.219 C 
HETATM    2  C7  UNL     1     -32.204   6.702   2.888  1.00 20.00     0.152 C 
HETATM    3  N10 UNL     1     -32.660   8.071   3.093  1.00 20.00    -0.356 N 
HETATM    4  O11 UNL     1     -33.035  10.189   2.222  1.00 20.00    -0.273 OA
ENDROOT
BRANCH   3   5
HETATM    5  C9  UNL     1     -33.124   8.376   4.444  1.00 20.00     0.130 C 
BRANCH   5   6
HETATM    6  C4  UNL     1     -33.296   7.131   5.247  1.00 20.00     0.008 A 
HETATM    7  C2  UNL     1     -34.122   7.151   6.507  1.00 20.00     0.011 A 
HETATM    8  C3  UNL     1     -34.632   6.434   5.284  1.00 20.00    -0.013 A 
HETATM    9  C5  UNL     1     -34.699   4.946   5.263  1.00 20.00     0.010 C 
ENDBRANCH   5   6
ENDBRANCH   3   5
BRANCH   1  10
HETATM   10  C8  UNL     1     -32.141   8.553   0.716  1.00 20.00     0.098 C 
HETATM   11  C6  UNL     1     -33.039   8.982  -0.433  1.00 20.00     0.014 C 
ENDBRANCH   1  10
TORSDOF 3
ENDMDL
MODEL 6
REMARK VINA RESULT:      -3.7     10.789     11.413
REMARK  3 active torsions:
REMARK  status: ('A' for Active; 'I' for Inactive)
REMARK    1  A    between atoms: C1_1  and  C8_8 
REMARK       I    between atoms: C1_1  and  N10_10 
REMARK    2  A    between atoms: C4_4  and  C9_9 
REMARK    3  A    between atoms: C9_9  and  N10_10 
ROOT
HETATM    1  C1  UNL     1     -33.604   6.634   4.576  1.00 20.00     0.219 C 
HETATM    2  C7  UNL     1     -32.488   8.804   5.136  1.00 20.00     0.152 C 
HETATM    3  N10 UNL     1     -32.743   7.684   4.239  1.00 20.00    -0.356 N 
HETATM    4  O11 UNL     1     -33.833   5.677   3.831  1.00 20.00    -0.273 OA
ENDROOT
BRANCH   3   5
HETATM    5  C9  UNL     1     -32.033   7.735   2.963  1.00 20.00     0.130 C 
BRANCH   5   6
HETATM    6  C4  UNL     1     -32.886   8.335   1.897  1.00 20.00     0.008 A 
HETATM    7  C2  UNL     1     -32.841   9.818   1.638  1.00 20.00     0.011 A 
HETATM    8  C3  UNL     1     -32.257   8.861   0.632  1.00 20.00    -0.013 A 
HETATM    9  C5  UNL     1     -32.930   8.650  -0.680  1.00 20.00     0.010 C 
ENDBRANCH   5   6
ENDBRANCH   3   5
BRANCH   1  10
HETATM   10  C8  UNL     1     -34.271   6.725   5.941  1.00 20.00     0.098 C 
HETATM   11  C6  UNL     1     -34.657   5.363   6.497  1.00 20.00     0.014 C 
ENDBRANCH   1  10
TORSDOF 3
ENDMDL
MODEL 7
REMARK VINA RESULT:      -3.7     10.829     11.993
REMARK  3 active torsions:
REMARK  status: ('A' for Active; 'I' for Inactive)
REMARK    1  A    between atoms: C1_1  and  C8_8 
REMARK       I    between atoms: C1_1  and  N10_10 
REMARK    2  A    between atoms: C4_4  and  C9_9 
REMARK    3  A    between atoms: C9_9  and  N10_10 
ROOT
HETATM    1  C1  UNL     1     -41.789  15.577   6.684  1.00 20.00     0.219 C 
HETATM    2  C7  UNL     1     -40.719  14.363   8.595  1.00 20.00     0.152 C 
HETATM    3  N10 UNL     1     -41.273  14.405   7.248  1.00 20.00    -0.356 N 
HETATM    4  O11 UNL     1     -42.262  15.634   5.546  1.00 20.00    -0.273 OA
ENDROOT
BRANCH   3   5
HETATM    5  C9  UNL     1     -41.252  13.134   6.528  1.00 20.00     0.130 C 
BRANCH   5   6
HETATM    6  C4  UNL     1     -39.952  12.935   5.826  1.00 20.00     0.008 A 
HETATM    7  C2  UNL     1     -38.928  11.982   6.387  1.00 20.00     0.011 A 
HETATM    8  C3  UNL     1     -39.665  11.634   5.120  1.00 20.00    -0.013 A 
HETATM    9  C5  UNL     1     -38.950  11.637   3.813  1.00 20.00     0.010 C 
ENDBRANCH   5   6
ENDBRANCH   3   5
BRANCH   1  10
HETATM   10  C8  UNL     1     -41.738  16.821   7.561  1.00 20.00     0.098 C 
HETATM   11  C6  UNL     1     -40.633  17.782   7.152  1.00 20.00     0.014 C 
ENDBRANCH   1  10
TORSDOF 3
ENDMDL
MODEL 8
REMARK VINA RESULT:      -3.7     10.734     12.440
REMARK  3 active torsions:
REMARK  status: ('A' for Active; 'I' for Inactive)
REMARK    1  A    between atoms: C1_1  and  C8_8 
REMARK       I    between atoms: C1_1  and  N10_10 
REMARK    2  A    between atoms: C4_4  and  C9_9 
REMARK    3  A    between atoms: C9_9  and  N10_10 
ROOT
HETATM    1  C1  UNL     1     -39.730  12.365   6.379  1.00 20.00     0.219 C 
HETATM    2  C7  UNL     1     -41.543  13.801   5.419  1.00 20.00     0.152 C 
HETATM    3  N10 UNL     1     -40.573  13.479   6.458  1.00 20.00    -0.356 N 
HETATM    4  O11 UNL     1     -38.903  12.075   7.248  1.00 20.00    -0.273 OA
ENDROOT
BRANCH   3   5
HETATM    5  C9  UNL     1     -40.546  14.402   7.591  1.00 20.00     0.130 C 
BRANCH   5   6
HETATM    6  C4  UNL     1     -41.137  15.721   7.223  1.00 20.00     0.008 A 
HETATM    7  C2  UNL     1     -42.089  16.413   8.163  1.00 20.00     0.011 A 
HETATM    8  C3  UNL     1     -40.707  16.971   7.947  1.00 20.00    -0.013 A 
HETATM    9  C5  UNL     1     -40.523  18.243   7.195  1.00 20.00     0.010 C 
ENDBRANCH   5   6
ENDBRANCH   3   5
BRANCH   1  10
HETATM   10  C8  UNL     1     -39.877  11.500   5.136  1.00 20.00     0.098 C 
HETATM   11  C6  UNL     1     -38.743  11.701   4.143  1.00 20.00     0.014 C 
ENDBRANCH   1  10
TORSDOF 3
ENDMDL
MODEL 9
REMARK VINA RESULT:      -3.6      3.002      5.861
REMARK  3 active torsions:
REMARK  status: ('A' for Active; 'I' for Inactive)
REMARK    1  A    between atoms: C1_1  and  C8_8 
REMARK       I    between atoms: C1_1  and  N10_10 
REMARK    2  A    between atoms: C4_4  and  C9_9 
REMARK    3  A    between atoms: C9_9  and  N10_10 
ROOT
HETATM    1  C1  UNL     1     -34.847  16.527  -5.148  1.00 20.00     0.219 C 
HETATM    2  C7  UNL     1     -32.979  15.510  -3.827  1.00 20.00     0.152 C 
HETATM    3  N10 UNL     1     -33.871  16.617  -4.150  1.00 20.00    -0.356 N 
HETATM    4  O11 UNL     1     -35.611  17.452  -5.436  1.00 20.00    -0.273 OA
ENDROOT
BRANCH   3   5
HETATM    5  C9  UNL     1     -33.670  17.828  -3.357  1.00 20.00     0.130 C 
BRANCH   5   6
HETATM    6  C4  UNL     1     -33.290  17.495  -1.954  1.00 20.00     0.008 A 
HETATM    7  C2  UNL     1     -32.124  18.190  -1.301  1.00 20.00     0.011 A 
HETATM    8  C3  UNL     1     -33.529  18.492  -0.849  1.00 20.00    -0.013 A 
HETATM    9  C5  UNL     1     -34.002  18.029   0.485  1.00 20.00     0.010 C 
ENDBRANCH   5   6
ENDBRANCH   3   5
BRANCH   1  10
HETATM   10  C8  UNL     1     -34.932  15.198  -5.885  1.00 20.00     0.098 C 
HETATM   11  C6  UNL     1     -36.068  14.321  -5.382  1.00 20.00     0.014 C 
ENDBRANCH   1  10
TORSDOF 3
ENDMDL
