MODEL 1
REMARK VINA RESULT:      -3.7      0.000      0.000
REMARK  1 active torsions:
REMARK  status: ('A' for Active; 'I' for Inactive)
REMARK       I    between atoms: C1_1  and  N8_8 
REMARK    1  A    between atoms: C5_5  and  N8_8 
ROOT
HETATM    1  C2  UNL     1     -33.285  16.838  -2.528  1.00 20.00     0.036 C 
HETATM    2  C3  UNL     1     -33.842  16.941  -3.939  1.00 20.00     0.076 C 
HETATM    3  C4  UNL     1     -34.753  18.755  -2.176  1.00 20.00     0.099 C 
HETATM    4  C5  UNL     1     -33.336  18.247  -1.948  1.00 20.00     0.096 C 
HETATM    5  S10 UNL     1     -35.201  18.139  -3.826  1.00 20.00    -0.167 SA
ENDROOT
BRANCH   4   6
HETATM    6  N8  UNL     1     -32.975  18.267  -0.556  1.00 20.00    -0.351 N 
HETATM    7  C1  UNL     1     -31.682  18.607  -0.127  1.00 20.00     0.215 C 
HETATM    8  C6  UNL     1     -31.551  19.263   1.226  1.00 20.00     0.117 C 
HETATM    9  O9  UNL     1     -30.666  18.399  -0.795  1.00 20.00    -0.274 OA
HETATM   10  C7  UNL     1     -34.041  17.910   0.390  1.00 20.00     0.153 C 
ENDBRANCH   4   6
TORSDOF 1
ENDMDL
MODEL 2
REMARK VINA RESULT:      -3.5      3.385      4.959
REMARK  1 active torsions:
REMARK  status: ('A' for Active; 'I' for Inactive)
REMARK       I    between atoms: C1_1  and  N8_8 
REMARK    1  A    between atoms: C5_5  and  N8_8 
ROOT
HETATM    1  C2  UNL     1     -33.629  18.393  -3.929  1.00 20.00     0.036 C 
HETATM    2  C3  UNL     1     -32.714  19.128  -2.963  1.00 20.00     0.076 C 
HETATM    3  C4  UNL     1     -33.530  16.686  -2.189  1.00 20.00     0.099 C 
HETATM    4  C5  UNL     1     -33.394  16.906  -3.689  1.00 20.00     0.096 C 
HETATM    5  S10 UNL     1     -32.745  18.143  -1.439  1.00 20.00    -0.167 SA
ENDROOT
BRANCH   4   6
HETATM    6  N8  UNL     1     -34.311  16.090  -4.438  1.00 20.00    -0.351 N 
HETATM    7  C1  UNL     1     -34.216  14.689  -4.458  1.00 20.00     0.215 C 
HETATM    8  C6  UNL     1     -35.496  13.910  -4.636  1.00 20.00     0.117 C 
HETATM    9  O9  UNL     1     -33.151  14.078  -4.338  1.00 20.00    -0.274 OA
HETATM   10  C7  UNL     1     -35.355  16.810  -5.181  1.00 20.00     0.153 C 
ENDBRANCH   4   6
TORSDOF 1
ENDMDL
MODEL 3
REMARK VINA RESULT:      -3.5      3.322      5.220
REMARK  1 active torsions:
REMARK  status: ('A' for Active; 'I' for Inactive)
REMARK       I    between atoms: C1_1  and  N8_8 
REMARK    1  A    between atoms: C5_5  and  N8_8 
ROOT
HETATM    1  C2  UNL     1     -33.405  16.661  -2.312  1.00 20.00     0.036 C 
HETATM    2  C3  UNL     1     -33.325  17.882  -1.410  1.00 20.00     0.076 C 
HETATM    3  C4  UNL     1     -33.271  18.362  -4.055  1.00 20.00     0.099 C 
HETATM    4  C5  UNL     1     -34.050  17.133  -3.610  1.00 20.00     0.096 C 
HETATM    5  S10 UNL     1     -32.915  19.262  -2.516  1.00 20.00    -0.167 SA
ENDROOT
BRANCH   4   6
HETATM    6  N8  UNL     1     -34.049  16.104  -4.614  1.00 20.00    -0.351 N 
HETATM    7  C1  UNL     1     -34.799  16.217  -5.797  1.00 20.00     0.215 C 
HETATM    8  C6  UNL     1     -34.259  15.530  -7.027  1.00 20.00     0.117 C 
HETATM    9  O9  UNL     1     -35.858  16.844  -5.874  1.00 20.00    -0.274 OA
HETATM   10  C7  UNL     1     -33.219  14.926  -4.329  1.00 20.00     0.153 C 
ENDBRANCH   4   6
TORSDOF 1
ENDMDL
MODEL 4
REMARK VINA RESULT:      -3.4      3.108      4.378
REMARK  1 active torsions:
REMARK  status: ('A' for Active; 'I' for Inactive)
REMARK       I    between atoms: C1_1  and  N8_8 
REMARK    1  A    between atoms: C5_5  and  N8_8 
ROOT
HETATM    1  C2  UNL     1     -34.501  15.220  -6.567  1.00 20.00     0.036 C 
HETATM    2  C3  UNL     1     -35.365  15.585  -7.764  1.00 20.00     0.076 C 
HETATM    3  C4  UNL     1     -36.017  16.760  -5.435  1.00 20.00     0.099 C 
HETATM    4  C5  UNL     1     -34.546  16.421  -5.629  1.00 20.00     0.096 C 
HETATM    5  S10 UNL     1     -36.765  16.511  -7.073  1.00 20.00    -0.167 SA
ENDROOT
BRANCH   4   6
HETATM    6  N8  UNL     1     -33.888  16.150  -4.379  1.00 20.00    -0.351 N 
HETATM    7  C1  UNL     1     -33.463  17.180  -3.524  1.00 20.00     0.215 C 
HETATM    8  C6  UNL     1     -33.441  16.886  -2.044  1.00 20.00     0.117 C 
HETATM    9  O9  UNL     1     -33.113  18.294  -3.921  1.00 20.00    -0.274 OA
HETATM   10  C7  UNL     1     -33.687  14.732  -4.051  1.00 20.00     0.153 C 
ENDBRANCH   4   6
TORSDOF 1
ENDMDL
MODEL 5
REMARK VINA RESULT:      -3.4      2.112      2.920
REMARK  1 active torsions:
REMARK  status: ('A' for Active; 'I' for Inactive)
REMARK       I    between atoms: C1_1  and  N8_8 
REMARK    1  A    between atoms: C5_5  and  N8_8 
ROOT
HETATM    1  C2  UNL     1     -34.373  17.598  -4.887  1.00 20.00     0.036 C 
HETATM    2  C3  UNL     1     -34.981  16.408  -5.612  1.00 20.00     0.076 C 
HETATM    3  C4  UNL     1     -33.185  15.832  -3.696  1.00 20.00     0.099 C 
HETATM    4  C5  UNL     1     -33.999  17.102  -3.495  1.00 20.00     0.096 C 
HETATM    5  S10 UNL     1     -34.003  14.977  -5.076  1.00 20.00    -0.167 SA
ENDROOT
BRANCH   4   6
HETATM    6  N8  UNL     1     -33.271  18.094  -2.750  1.00 20.00    -0.351 N 
HETATM    7  C1  UNL     1     -33.053  17.974  -1.368  1.00 20.00     0.215 C 
HETATM    8  C6  UNL     1     -31.794  18.592  -0.810  1.00 20.00     0.117 C 
HETATM    9  O9  UNL     1     -33.829  17.396  -0.603  1.00 20.00    -0.274 OA
HETATM   10  C7  UNL     1     -32.772  19.241  -3.521  1.00 20.00     0.153 C 
ENDBRANCH   4   6
TORSDOF 1
ENDMDL
MODEL 6
REMARK VINA RESULT:      -3.2      2.494      4.244
REMARK  1 active torsions:
REMARK  status: ('A' for Active; 'I' for Inactive)
REMARK       I    between atoms: C1_1  and  N8_8 
REMARK    1  A    between atoms: C5_5  and  N8_8 
ROOT
HETATM    1  C2  UNL     1     -31.908  18.486  -1.141  1.00 20.00     0.036 C 
HETATM    2  C3  UNL     1     -31.995  18.541   0.376  1.00 20.00     0.076 C 
HETATM    3  C4  UNL     1     -34.339  18.532  -0.942  1.00 20.00     0.099 C 
HETATM    4  C5  UNL     1     -33.185  17.802  -1.615  1.00 20.00     0.096 C 
HETATM    5  S10 UNL     1     -33.741  18.884   0.738  1.00 20.00    -0.167 SA
ENDROOT
BRANCH   4   6
HETATM    6  N8  UNL     1     -33.302  17.818  -3.048  1.00 20.00    -0.351 N 
HETATM    7  C1  UNL     1     -33.701  16.685  -3.776  1.00 20.00     0.215 C 
HETATM    8  C6  UNL     1     -34.443  16.918  -5.069  1.00 20.00     0.117 C 
HETATM    9  O9  UNL     1     -33.476  15.528  -3.412  1.00 20.00    -0.274 OA
HETATM   10  C7  UNL     1     -32.979  19.092  -3.706  1.00 20.00     0.153 C 
ENDBRANCH   4   6
TORSDOF 1
ENDMDL
MODEL 7
REMARK VINA RESULT:      -3.2      4.213      6.212
REMARK  1 active torsions:
REMARK  status: ('A' for Active; 'I' for Inactive)
REMARK       I    between atoms: C1_1  and  N8_8 
REMARK    1  A    between atoms: C5_5  and  N8_8 
ROOT
HETATM    1  C2  UNL     1     -33.578  15.727  -3.821  1.00 20.00     0.036 C 
HETATM    2  C3  UNL     1     -33.286  16.615  -2.622  1.00 20.00     0.076 C 
HETATM    3  C4  UNL     1     -34.231  17.859  -4.810  1.00 20.00     0.099 C 
HETATM    4  C5  UNL     1     -34.686  16.421  -4.604  1.00 20.00     0.096 C 
HETATM    5  S10 UNL     1     -33.426  18.314  -3.245  1.00 20.00    -0.167 SA
ENDROOT
BRANCH   4   6
HETATM    6  N8  UNL     1     -34.957  15.760  -5.852  1.00 20.00    -0.351 N 
HETATM    7  C1  UNL     1     -36.244  15.728  -6.413  1.00 20.00     0.215 C 
HETATM    8  C6  UNL     1     -36.341  15.668  -7.918  1.00 20.00     0.117 C 
HETATM    9  O9  UNL     1     -37.280  15.747  -5.744  1.00 20.00    -0.274 OA
HETATM   10  C7  UNL     1     -33.807  15.118  -6.503  1.00 20.00     0.153 C 
ENDBRANCH   4   6
TORSDOF 1
ENDMDL
MODEL 8
REMARK VINA RESULT:      -3.2     11.712     12.904
REMARK  1 active torsions:
REMARK  status: ('A' for Active; 'I' for Inactive)
REMARK       I    between atoms: C1_1  and  N8_8 
REMARK    1  A    between atoms: C5_5  and  N8_8 
ROOT
HETATM    1  C2  UNL     1     -40.878  14.354   7.928  1.00 20.00     0.036 C 
HETATM    2  C3  UNL     1     -41.760  14.494   9.158  1.00 20.00     0.076 C 
HETATM    3  C4  UNL     1     -42.867  13.251   7.045  1.00 20.00     0.099 C 
HETATM    4  C5  UNL     1     -41.360  13.105   7.199  1.00 20.00     0.096 C 
HETATM    5  S10 UNL     1     -43.417  13.993   8.611  1.00 20.00    -0.167 SA
ENDROOT
BRANCH   4   6
HETATM    6  N8  UNL     1     -40.704  12.938   5.930  1.00 20.00    -0.351 N 
HETATM    7  C1  UNL     1     -39.593  12.094   5.771  1.00 20.00     0.215 C 
HETATM    8  C6  UNL     1     -39.405  11.444   4.422  1.00 20.00     0.117 C 
HETATM    9  O9  UNL     1     -38.779  11.863   6.668  1.00 20.00    -0.274 OA
HETATM   10  C7  UNL     1     -41.266  13.705   4.809  1.00 20.00     0.153 C 
ENDBRANCH   4   6
TORSDOF 1
ENDMDL
MODEL 9
REMARK VINA RESULT:      -3.1      3.585      5.455
REMARK  1 active torsions:
REMARK  status: ('A' for Active; 'I' for Inactive)
REMARK       I    between atoms: C1_1  and  N8_8 
REMARK    1  A    between atoms: C5_5  and  N8_8 
ROOT
HETATM    1  C2  UNL     1     -29.957  19.263   2.110  1.00 20.00     0.036 C 
HETATM    2  C3  UNL     1     -29.169  19.068   3.395  1.00 20.00     0.076 C 
HETATM    3  C4  UNL     1     -31.845  19.155   3.651  1.00 20.00     0.099 C 
HETATM    4  C5  UNL     1     -31.312  18.602   2.337  1.00 20.00     0.096 C 
HETATM    5  S10 UNL     1     -30.385  19.262   4.729  1.00 20.00    -0.167 SA
ENDROOT
BRANCH   4   6
HETATM    6  N8  UNL     1     -32.217  18.844   1.246  1.00 20.00    -0.351 N 
HETATM    7  C1  UNL     1     -31.823  18.699  -0.094  1.00 20.00     0.215 C 
HETATM    8  C6  UNL     1     -32.883  18.290  -1.087  1.00 20.00     0.117 C 
HETATM    9  O9  UNL     1     -30.670  18.888  -0.489  1.00 20.00    -0.274 OA
HETATM   10  C7  UNL     1     -33.578  19.253   1.618  1.00 20.00     0.153 C 
ENDBRANCH   4   6
TORSDOF 1
ENDMDL
