MODEL 1
REMARK VINA RESULT:      -4.3      0.000      0.000
REMARK  1 active torsions:
REMARK  status: ('A' for Active; 'I' for Inactive)
REMARK    1  A    between atoms: C8_8  and  C9_9 
ROOT
HETATM    1  C1  UNL     1     -43.258  13.387   7.106  1.00 20.00     0.004 C 
HETATM    2  C2  UNL     1     -42.252  12.292   6.749  1.00 20.00     0.005 C 
HETATM    3  C5  UNL     1     -42.658  14.407   8.070  1.00 20.00     0.040 C 
HETATM    4  C6  UNL     1     -40.341  13.906   7.131  1.00 20.00     0.045 C 
HETATM    5  C7  UNL     1     -40.904  16.324   7.916  1.00 20.00     0.207 A 
HETATM    6  C9  UNL     1     -40.958  12.883   6.163  1.00 20.00    -0.008 C 
HETATM    7  C10 UNL     1     -41.356  14.932   7.544  1.00 20.00     0.083 A 
HETATM    8  O11 UNL     1     -41.486  16.035   6.635  1.00 20.00    -0.375 OA
ENDROOT
BRANCH   6   9
HETATM    9  C8  UNL     1     -39.971  11.795   5.831  1.00 20.00    -0.010 A 
HETATM   10  C3  UNL     1     -39.384  11.702   4.450  1.00 20.00     0.005 A 
HETATM   11  C4  UNL     1     -38.523  12.132   5.606  1.00 20.00     0.005 A 
ENDBRANCH   6   9
TORSDOF 1
ENDMDL
MODEL 2
REMARK VINA RESULT:      -4.1     12.125     13.661
REMARK  1 active torsions:
REMARK  status: ('A' for Active; 'I' for Inactive)
REMARK    1  A    between atoms: C8_8  and  C9_9 
ROOT
HETATM    1  C1  UNL     1     -33.791  14.976  -5.346  1.00 20.00     0.004 C 
HETATM    2  C2  UNL     1     -33.640  15.186  -3.839  1.00 20.00     0.005 C 
HETATM    3  C5  UNL     1     -35.020  15.698  -5.892  1.00 20.00     0.040 C 
HETATM    4  C6  UNL     1     -34.823  17.415  -4.018  1.00 20.00     0.045 C 
HETATM    5  C7  UNL     1     -35.689  18.171  -6.354  1.00 20.00     0.207 A 
HETATM    6  C9  UNL     1     -33.585  16.680  -3.479  1.00 20.00    -0.008 C 
HETATM    7  C10 UNL     1     -35.015  17.140  -5.481  1.00 20.00     0.083 A 
HETATM    8  O11 UNL     1     -34.263  18.000  -6.348  1.00 20.00    -0.375 OA
ENDROOT
BRANCH   6   9
HETATM    9  C8  UNL     1     -33.451  16.872  -1.991  1.00 20.00    -0.010 A 
HETATM   10  C3  UNL     1     -32.541  17.936  -1.444  1.00 20.00     0.005 A 
HETATM   11  C4  UNL     1     -34.033  18.091  -1.331  1.00 20.00     0.005 A 
ENDBRANCH   6   9
TORSDOF 1
ENDMDL
MODEL 3
REMARK VINA RESULT:      -3.9      9.895     10.829
REMARK  1 active torsions:
REMARK  status: ('A' for Active; 'I' for Inactive)
REMARK    1  A    between atoms: C8_8  and  C9_9 
ROOT
HETATM    1  C1  UNL     1     -32.562   8.883   5.303  1.00 20.00     0.004 C 
HETATM    2  C2  UNL     1     -33.395   7.669   5.717  1.00 20.00     0.005 C 
HETATM    3  C5  UNL     1     -31.629   8.554   4.141  1.00 20.00     0.040 C 
HETATM    4  C6  UNL     1     -33.267   6.763   3.357  1.00 20.00     0.045 C 
HETATM    5  C7  UNL     1     -31.901   8.103   1.591  1.00 20.00     0.207 A 
HETATM    6  C9  UNL     1     -34.198   7.106   4.532  1.00 20.00    -0.008 C 
HETATM    7  C10 UNL     1     -32.392   7.932   3.009  1.00 20.00     0.083 A 
HETATM    8  O11 UNL     1     -32.995   8.875   2.112  1.00 20.00    -0.375 OA
ENDROOT
BRANCH   6   9
HETATM    9  C8  UNL     1     -35.002   5.902   4.949  1.00 20.00    -0.010 A 
HETATM   10  C3  UNL     1     -34.393   4.528   4.892  1.00 20.00     0.005 A 
HETATM   11  C4  UNL     1     -34.668   5.175   6.221  1.00 20.00     0.005 A 
ENDBRANCH   6   9
TORSDOF 1
ENDMDL
MODEL 4
REMARK VINA RESULT:      -3.8     12.257     12.765
REMARK  1 active torsions:
REMARK  status: ('A' for Active; 'I' for Inactive)
REMARK    1  A    between atoms: C8_8  and  C9_9 
ROOT
HETATM    1  C1  UNL     1     -34.861  19.261  -2.876  1.00 20.00     0.004 C 
HETATM    2  C2  UNL     1     -35.100  17.850  -3.415  1.00 20.00     0.005 C 
HETATM    3  C5  UNL     1     -34.258  19.232  -1.474  1.00 20.00     0.040 C 
HETATM    4  C6  UNL     1     -33.194  16.975  -1.998  1.00 20.00     0.045 C 
HETATM    5  C7  UNL     1     -31.940  18.646  -0.445  1.00 20.00     0.207 A 
HETATM    6  C9  UNL     1     -33.806  17.018  -3.408  1.00 20.00    -0.008 C 
HETATM    7  C10 UNL     1     -33.039  18.360  -1.440  1.00 20.00     0.083 A 
HETATM    8  O11 UNL     1     -31.826  19.021  -1.827  1.00 20.00    -0.375 OA
ENDROOT
BRANCH   6   9
HETATM    9  C8  UNL     1     -34.059  15.626  -3.927  1.00 20.00    -0.010 A 
HETATM   10  C3  UNL     1     -33.838  15.308  -5.380  1.00 20.00     0.005 A 
HETATM   11  C4  UNL     1     -32.907  14.753  -4.339  1.00 20.00     0.005 A 
ENDBRANCH   6   9
TORSDOF 1
ENDMDL
MODEL 5
REMARK VINA RESULT:      -3.7     11.240     13.051
REMARK  1 active torsions:
REMARK  status: ('A' for Active; 'I' for Inactive)
REMARK    1  A    between atoms: C8_8  and  C9_9 
ROOT
HETATM    1  C1  UNL     1     -35.556  17.518  -4.537  1.00 20.00     0.004 C 
HETATM    2  C2  UNL     1     -35.000  18.437  -3.448  1.00 20.00     0.005 C 
HETATM    3  C5  UNL     1     -34.456  16.670  -5.171  1.00 20.00     0.040 C 
HETATM    4  C6  UNL     1     -33.133  16.789  -2.995  1.00 20.00     0.045 C 
HETATM    5  C7  UNL     1     -33.010  14.631  -4.445  1.00 20.00     0.207 A 
HETATM    6  C9  UNL     1     -34.249  17.642  -2.367  1.00 20.00    -0.008 C 
HETATM    7  C10 UNL     1     -33.669  15.950  -4.118  1.00 20.00     0.083 A 
HETATM    8  O11 UNL     1     -34.238  14.700  -3.703  1.00 20.00    -0.375 OA
ENDROOT
BRANCH   6   9
HETATM    9  C8  UNL     1     -33.694  18.560  -1.311  1.00 20.00    -0.010 A 
HETATM   10  C3  UNL     1     -33.729  18.156   0.138  1.00 20.00     0.005 A 
HETATM   11  C4  UNL     1     -32.418  18.207  -0.598  1.00 20.00     0.005 A 
ENDBRANCH   6   9
TORSDOF 1
ENDMDL
MODEL 6
REMARK VINA RESULT:      -3.7      1.386      1.496
REMARK  1 active torsions:
REMARK  status: ('A' for Active; 'I' for Inactive)
REMARK    1  A    between atoms: C8_8  and  C9_9 
ROOT
HETATM    1  C1  UNL     1     -42.558  15.401   5.059  1.00 20.00     0.004 C 
HETATM    2  C2  UNL     1     -42.068  13.953   5.004  1.00 20.00     0.005 C 
HETATM    3  C5  UNL     1     -42.843  15.843   6.492  1.00 20.00     0.040 C 
HETATM    4  C6  UNL     1     -41.103  14.179   7.333  1.00 20.00     0.045 C 
HETATM    5  C7  UNL     1     -41.417  16.439   8.587  1.00 20.00     0.207 A 
HETATM    6  C9  UNL     1     -40.824  13.744   5.884  1.00 20.00    -0.008 C 
HETATM    7  C10 UNL     1     -41.662  15.572   7.375  1.00 20.00     0.083 A 
HETATM    8  O11 UNL     1     -40.669  16.608   7.372  1.00 20.00    -0.375 OA
ENDROOT
BRANCH   6   9
HETATM    9  C8  UNL     1     -40.362  12.312   5.833  1.00 20.00    -0.010 A 
HETATM   10  C3  UNL     1     -39.395  11.866   4.771  1.00 20.00     0.005 A 
HETATM   11  C4  UNL     1     -38.948  11.960   6.203  1.00 20.00     0.005 A 
ENDBRANCH   6   9
TORSDOF 1
ENDMDL
MODEL 7
REMARK VINA RESULT:      -3.5      1.788      2.849
REMARK  1 active torsions:
REMARK  status: ('A' for Active; 'I' for Inactive)
REMARK    1  A    between atoms: C8_8  and  C9_9 
ROOT
HETATM    1  C1  UNL     1     -40.512  15.794   8.853  1.00 20.00     0.004 C 
HETATM    2  C2  UNL     1     -40.185  15.229   7.471  1.00 20.00     0.005 C 
HETATM    3  C5  UNL     1     -41.972  15.553   9.227  1.00 20.00     0.040 C 
HETATM    4  C6  UNL     1     -41.990  13.477   7.746  1.00 20.00     0.045 C 
HETATM    5  C7  UNL     1     -43.411  13.499   9.927  1.00 20.00     0.207 A 
HETATM    6  C9  UNL     1     -40.518  13.731   7.380  1.00 20.00    -0.008 C 
HETATM    7  C10 UNL     1     -42.328  14.105   9.067  1.00 20.00     0.083 A 
HETATM    8  O11 UNL     1     -42.018  13.289  10.206  1.00 20.00    -0.375 OA
ENDROOT
BRANCH   6   9
HETATM    9  C8  UNL     1     -40.205  13.192   6.008  1.00 20.00    -0.010 A 
HETATM   10  C3  UNL     1     -38.970  12.363   5.784  1.00 20.00     0.005 A 
HETATM   11  C4  UNL     1     -40.328  11.720   5.729  1.00 20.00     0.005 A 
ENDBRANCH   6   9
TORSDOF 1
ENDMDL
MODEL 8
REMARK VINA RESULT:      -3.3     20.706     22.764
REMARK  1 active torsions:
REMARK  status: ('A' for Active; 'I' for Inactive)
REMARK    1  A    between atoms: C8_8  and  C9_9 
ROOT
HETATM    1  C1  UNL     1     -26.368  -0.644  12.331  1.00 20.00     0.004 C 
HETATM    2  C2  UNL     1     -24.934  -1.016  11.951  1.00 20.00     0.005 C 
HETATM    3  C5  UNL     1     -27.320  -0.795  11.148  1.00 20.00     0.040 C 
HETATM    4  C6  UNL     1     -25.803  -2.602  10.181  1.00 20.00     0.045 C 
HETATM    5  C7  UNL     1     -28.378  -2.780   9.837  1.00 20.00     0.207 A 
HETATM    6  C9  UNL     1     -24.853  -2.441  11.379  1.00 20.00    -0.008 C 
HETATM    7  C10 UNL     1     -27.193  -2.158  10.536  1.00 20.00     0.083 A 
HETATM    8  O11 UNL     1     -27.994  -3.168  11.165  1.00 20.00    -0.375 OA
ENDROOT
BRANCH   6   9
HETATM    9  C8  UNL     1     -23.439  -2.788  10.994  1.00 20.00    -0.010 A 
HETATM   10  C3  UNL     1     -22.815  -4.068  11.478  1.00 20.00     0.005 A 
HETATM   11  C4  UNL     1     -23.173  -3.907  10.027  1.00 20.00     0.005 A 
ENDBRANCH   6   9
TORSDOF 1
ENDMDL
MODEL 9
REMARK VINA RESULT:      -3.3      2.021      4.021
REMARK  1 active torsions:
REMARK  status: ('A' for Active; 'I' for Inactive)
REMARK    1  A    between atoms: C8_8  and  C9_9 
ROOT
HETATM    1  C1  UNL     1     -42.889  13.805   5.950  1.00 20.00     0.004 C 
HETATM    2  C2  UNL     1     -42.734  14.660   7.209  1.00 20.00     0.005 C 
HETATM    3  C5  UNL     1     -41.566  13.663   5.201  1.00 20.00     0.040 C 
HETATM    4  C6  UNL     1     -40.310  13.957   7.401  1.00 20.00     0.045 C 
HETATM    5  C7  UNL     1     -39.332  12.381   5.574  1.00 20.00     0.207 A 
HETATM    6  C9  UNL     1     -41.650  14.097   8.143  1.00 20.00    -0.008 C 
HETATM    7  C10 UNL     1     -40.484  13.188   6.124  1.00 20.00     0.083 A 
HETATM    8  O11 UNL     1     -40.421  11.763   6.279  1.00 20.00    -0.375 OA
ENDROOT
BRANCH   6   9
HETATM    9  C8  UNL     1     -41.497  14.956   9.370  1.00 20.00    -0.010 A 
HETATM   10  C3  UNL     1     -41.242  14.324  10.711  1.00 20.00     0.005 A 
HETATM   11  C4  UNL     1     -40.153  15.103  10.027  1.00 20.00     0.005 A 
ENDBRANCH   6   9
TORSDOF 1
ENDMDL
