MODEL 1
REMARK VINA RESULT:      -4.5      0.000      0.000
REMARK  1 active torsions:
REMARK  status: ('A' for Active; 'I' for Inactive)
REMARK    1  A    between atoms: C9_9  and  C10_10 
ROOT
HETATM    1  C1  UNL     1     -32.289   8.168   1.631  1.00 20.00     0.064 C 
HETATM    2  C2  UNL     1     -32.486   8.751   4.664  1.00 20.00     0.002 C 
HETATM    3  C3  UNL     1     -31.418   7.932   3.934  1.00 20.00     0.019 C 
HETATM    4  C4  UNL     1     -33.920   8.283   4.409  1.00 20.00     0.005 C 
HETATM    5  C7  UNL     1     -33.125   6.285   3.027  1.00 20.00     0.024 C 
HETATM    6  C8  UNL     1     -31.937   7.206   2.695  1.00 20.00     0.093 C 
HETATM    7  C10 UNL     1     -34.039   6.775   4.171  1.00 20.00    -0.009 C 
HETATM    8  N11 UNL     1     -32.564   8.924   0.795  1.00 20.00    -0.197 NA
ENDROOT
BRANCH   7   9
HETATM    9  C9  UNL     1     -33.805   5.997   5.446  1.00 20.00    -0.010 A 
HETATM   10  C5  UNL     1     -34.441   6.441   6.733  1.00 20.00     0.005 A 
HETATM   11  C6  UNL     1     -34.917   5.188   6.053  1.00 20.00     0.005 A 
ENDBRANCH   7   9
TORSDOF 1
ENDMDL
MODEL 2
REMARK VINA RESULT:      -4.1     11.328     12.695
REMARK  1 active torsions:
REMARK  status: ('A' for Active; 'I' for Inactive)
REMARK    1  A    between atoms: C9_9  and  C10_10 
ROOT
HETATM    1  C1  UNL     1     -34.192  15.459  -7.061  1.00 20.00     0.064 C 
HETATM    2  C2  UNL     1     -34.151  14.418  -4.147  1.00 20.00     0.002 C 
HETATM    3  C3  UNL     1     -35.364  14.867  -4.964  1.00 20.00     0.019 C 
HETATM    4  C4  UNL     1     -33.036  15.461  -4.051  1.00 20.00     0.005 C 
HETATM    5  C7  UNL     1     -34.428  17.203  -5.301  1.00 20.00     0.024 C 
HETATM    6  C8  UNL     1     -35.053  15.969  -5.976  1.00 20.00     0.093 C 
HETATM    7  C10 UNL     1     -33.546  16.905  -4.069  1.00 20.00    -0.009 C 
HETATM    8  N11 UNL     1     -33.515  15.058  -7.914  1.00 20.00    -0.197 NA
ENDROOT
BRANCH   7   9
HETATM    9  C9  UNL     1     -34.251  17.256  -2.779  1.00 20.00    -0.010 A 
HETATM   10  C5  UNL     1     -33.505  17.223  -1.474  1.00 20.00     0.005 A 
HETATM   11  C6  UNL     1     -33.926  18.538  -2.065  1.00 20.00     0.005 A 
ENDBRANCH   7   9
TORSDOF 1
ENDMDL
MODEL 3
REMARK VINA RESULT:      -4.0     11.678     13.089
REMARK  1 active torsions:
REMARK  status: ('A' for Active; 'I' for Inactive)
REMARK    1  A    between atoms: C9_9  and  C10_10 
ROOT
HETATM    1  C1  UNL     1     -32.321  18.210  -1.079  1.00 20.00     0.064 C 
HETATM    2  C2  UNL     1     -34.383  19.262  -3.132  1.00 20.00     0.002 C 
HETATM    3  C3  UNL     1     -34.658  18.493  -1.838  1.00 20.00     0.019 C 
HETATM    4  C4  UNL     1     -33.420  18.558  -4.089  1.00 20.00     0.005 C 
HETATM    5  C7  UNL     1     -33.292  16.490  -2.593  1.00 20.00     0.024 C 
HETATM    6  C8  UNL     1     -33.558  17.502  -1.463  1.00 20.00     0.093 C 
HETATM    7  C10 UNL     1     -33.500  17.030  -4.024  1.00 20.00    -0.009 C 
HETATM    8  N11 UNL     1     -31.349  18.767  -0.775  1.00 20.00    -0.197 NA
ENDROOT
BRANCH   7   9
HETATM    9  C9  UNL     1     -34.786  16.520  -4.633  1.00 20.00    -0.010 A 
HETATM   10  C5  UNL     1     -35.182  16.933  -6.023  1.00 20.00     0.005 A 
HETATM   11  C6  UNL     1     -34.746  15.520  -5.755  1.00 20.00     0.005 A 
ENDBRANCH   7   9
TORSDOF 1
ENDMDL
MODEL 4
REMARK VINA RESULT:      -4.0      9.952     11.388
REMARK  1 active torsions:
REMARK  status: ('A' for Active; 'I' for Inactive)
REMARK    1  A    between atoms: C9_9  and  C10_10 
ROOT
HETATM    1  C1  UNL     1     -42.540  15.354   8.391  1.00 20.00     0.064 C 
HETATM    2  C2  UNL     1     -42.895  13.150   6.247  1.00 20.00     0.002 C 
HETATM    3  C3  UNL     1     -42.791  12.974   7.764  1.00 20.00     0.019 C 
HETATM    4  C4  UNL     1     -41.728  13.917   5.622  1.00 20.00     0.005 C 
HETATM    5  C7  UNL     1     -40.491  14.046   7.854  1.00 20.00     0.024 C 
HETATM    6  C8  UNL     1     -41.911  14.019   8.447  1.00 20.00     0.093 C 
HETATM    7  C10 UNL     1     -40.398  13.708   6.351  1.00 20.00    -0.009 C 
HETATM    8  N11 UNL     1     -43.034  16.403   8.347  1.00 20.00    -0.197 NA
ENDROOT
BRANCH   7   9
HETATM    9  C9  UNL     1     -39.859  12.314   6.124  1.00 20.00    -0.010 A 
HETATM   10  C5  UNL     1     -39.635  11.806   4.727  1.00 20.00     0.005 A 
HETATM   11  C6  UNL     1     -38.460  12.120   5.609  1.00 20.00     0.005 A 
ENDBRANCH   7   9
TORSDOF 1
ENDMDL
MODEL 5
REMARK VINA RESULT:      -3.7     12.662     13.821
REMARK  1 active torsions:
REMARK  status: ('A' for Active; 'I' for Inactive)
REMARK    1  A    between atoms: C9_9  and  C10_10 
ROOT
HETATM    1  C1  UNL     1     -29.593  -2.405  10.845  1.00 20.00     0.064 C 
HETATM    2  C2  UNL     1     -27.281  -0.439  11.449  1.00 20.00     0.002 C 
HETATM    3  C3  UNL     1     -27.826  -0.852  10.080  1.00 20.00     0.019 C 
HETATM    4  C4  UNL     1     -26.846  -1.610  12.332  1.00 20.00     0.005 C 
HETATM    5  C7  UNL     1     -27.303  -3.305  10.476  1.00 20.00     0.024 C 
HETATM    6  C8  UNL     1     -28.365  -2.281  10.036  1.00 20.00     0.093 C 
HETATM    7  C10 UNL     1     -26.305  -2.805  11.542  1.00 20.00    -0.009 C 
HETATM    8  N11 UNL     1     -30.560  -2.501  11.480  1.00 20.00    -0.197 NA
ENDROOT
BRANCH   7   9
HETATM    9  C9  UNL     1     -24.951  -2.501  10.942  1.00 20.00    -0.010 A 
HETATM   10  C5  UNL     1     -23.920  -1.751  11.739  1.00 20.00     0.005 A 
HETATM   11  C6  UNL     1     -23.726  -3.212  11.444  1.00 20.00     0.005 A 
ENDBRANCH   7   9
TORSDOF 1
ENDMDL
MODEL 6
REMARK VINA RESULT:      -3.5     11.844     13.377
REMARK  1 active torsions:
REMARK  status: ('A' for Active; 'I' for Inactive)
REMARK    1  A    between atoms: C9_9  and  C10_10 
ROOT
HETATM    1  C1  UNL     1     -35.374  15.010  -7.488  1.00 20.00     0.064 C 
HETATM    2  C2  UNL     1     -35.445  17.780  -6.109  1.00 20.00     0.002 C 
HETATM    3  C3  UNL     1     -34.361  17.221  -7.035  1.00 20.00     0.019 C 
HETATM    4  C4  UNL     1     -35.756  16.895  -4.901  1.00 20.00     0.005 C 
HETATM    5  C7  UNL     1     -33.894  15.252  -5.502  1.00 20.00     0.024 C 
HETATM    6  C8  UNL     1     -34.192  15.706  -6.942  1.00 20.00     0.093 C 
HETATM    7  C10 UNL     1     -34.548  16.104  -4.393  1.00 20.00    -0.009 C 
HETATM    8  N11 UNL     1     -36.303  14.463  -7.918  1.00 20.00    -0.197 NA
ENDROOT
BRANCH   7   9
HETATM    9  C9  UNL     1     -33.543  17.009  -3.717  1.00 20.00    -0.010 A 
HETATM   10  C5  UNL     1     -34.001  18.056  -2.741  1.00 20.00     0.005 A 
HETATM   11  C6  UNL     1     -33.249  16.851  -2.251  1.00 20.00     0.005 A 
ENDBRANCH   7   9
TORSDOF 1
ENDMDL
MODEL 7
REMARK VINA RESULT:      -3.4      9.837     11.192
REMARK  1 active torsions:
REMARK  status: ('A' for Active; 'I' for Inactive)
REMARK    1  A    between atoms: C9_9  and  C10_10 
ROOT
HETATM    1  C1  UNL     1     -43.137  14.062   8.529  1.00 20.00     0.064 C 
HETATM    2  C2  UNL     1     -40.465  15.072   7.336  1.00 20.00     0.002 C 
HETATM    3  C3  UNL     1     -41.861  15.158   6.714  1.00 20.00     0.019 C 
HETATM    4  C4  UNL     1     -40.040  13.657   7.732  1.00 20.00     0.005 C 
HETATM    5  C7  UNL     1     -42.161  12.637   6.737  1.00 20.00     0.024 C 
HETATM    6  C8  UNL     1     -42.780  13.999   7.098  1.00 20.00     0.093 C 
HETATM    7  C10 UNL     1     -40.622  12.567   6.827  1.00 20.00    -0.009 C 
HETATM    8  N11 UNL     1     -43.417  14.113   9.654  1.00 20.00    -0.197 NA
ENDROOT
BRANCH   7   9
HETATM    9  C9  UNL     1     -39.980  12.587   5.458  1.00 20.00    -0.010 A 
HETATM   10  C5  UNL     1     -38.540  12.192   5.290  1.00 20.00     0.005 A 
HETATM   11  C6  UNL     1     -39.630  11.299   4.769  1.00 20.00     0.005 A 
ENDBRANCH   7   9
TORSDOF 1
ENDMDL
MODEL 8
REMARK VINA RESULT:      -3.3     11.662     12.628
REMARK  1 active torsions:
REMARK  status: ('A' for Active; 'I' for Inactive)
REMARK    1  A    between atoms: C9_9  and  C10_10 
ROOT
HETATM    1  C1  UNL     1     -34.304  16.335  -4.408  1.00 20.00     0.064 C 
HETATM    2  C2  UNL     1     -34.522  19.262  -3.428  1.00 20.00     0.002 C 
HETATM    3  C3  UNL     1     -33.317  18.580  -4.081  1.00 20.00     0.019 C 
HETATM    4  C4  UNL     1     -35.051  18.546  -2.184  1.00 20.00     0.005 C 
HETATM    5  C7  UNL     1     -33.162  16.826  -2.252  1.00 20.00     0.024 C 
HETATM    6  C8  UNL     1     -33.208  17.089  -3.768  1.00 20.00     0.093 C 
HETATM    7  C10 UNL     1     -33.964  17.821  -1.386  1.00 20.00    -0.009 C 
HETATM    8  N11 UNL     1     -35.165  15.743  -4.913  1.00 20.00    -0.197 NA
ENDROOT
BRANCH   7   9
HETATM    9  C9  UNL     1     -33.059  18.800  -0.674  1.00 20.00    -0.010 A 
HETATM   10  C5  UNL     1     -32.563  18.504   0.713  1.00 20.00     0.005 A 
HETATM   11  C6  UNL     1     -31.611  18.464  -0.449  1.00 20.00     0.005 A 
ENDBRANCH   7   9
TORSDOF 1
ENDMDL
MODEL 9
REMARK VINA RESULT:      -3.3     10.537     11.817
REMARK  1 active torsions:
REMARK  status: ('A' for Active; 'I' for Inactive)
REMARK    1  A    between atoms: C9_9  and  C10_10 
ROOT
HETATM    1  C1  UNL     1     -42.397  14.594   4.174  1.00 20.00     0.064 C 
HETATM    2  C2  UNL     1     -41.706  12.735   6.550  1.00 20.00     0.002 C 
HETATM    3  C3  UNL     1     -43.054  13.387   6.231  1.00 20.00     0.019 C 
HETATM    4  C4  UNL     1     -40.542  13.720   6.661  1.00 20.00     0.005 C 
HETATM    5  C7  UNL     1     -42.089  15.732   6.366  1.00 20.00     0.024 C 
HETATM    6  C8  UNL     1     -42.934  14.745   5.541  1.00 20.00     0.093 C 
HETATM    7  C10 UNL     1     -40.952  15.096   7.194  1.00 20.00    -0.009 C 
HETATM    8  N11 UNL     1     -41.976  14.475   3.099  1.00 20.00    -0.197 NA
ENDROOT
BRANCH   7   9
HETATM    9  C9  UNL     1     -41.296  15.036   8.664  1.00 20.00    -0.010 A 
HETATM   10  C5  UNL     1     -40.330  14.435   9.646  1.00 20.00     0.005 A 
HETATM   11  C6  UNL     1     -40.576  15.917   9.646  1.00 20.00     0.005 A 
ENDBRANCH   7   9
TORSDOF 1
ENDMDL
