MODEL 1
REMARK VINA RESULT:      -4.4      0.000      0.000
REMARK  1 active torsions:
REMARK  status: ('A' for Active; 'I' for Inactive)
REMARK    1  A    between atoms: C8_8  and  C9_9 
ROOT
HETATM    1  C1  UNL     1     -42.985  12.819   7.711  1.00 20.00     0.004 C 
HETATM    2  C2  UNL     1     -42.717  13.047   6.222  1.00 20.00     0.005 C 
HETATM    3  C5  UNL     1     -42.494  13.991   8.556  1.00 20.00     0.040 C 
HETATM    4  C6  UNL     1     -40.711  14.498   6.798  1.00 20.00     0.045 C 
HETATM    5  C7  UNL     1     -40.206  14.965   9.305  1.00 20.00     0.207 A 
HETATM    6  C9  UNL     1     -41.240  13.354   5.917  1.00 20.00    -0.008 C 
HETATM    7  C10 UNL     1     -41.062  14.310   8.246  1.00 20.00     0.083 A 
HETATM    8  O11 UNL     1     -40.104  13.563   9.007  1.00 20.00    -0.375 OA
ENDROOT
BRANCH   6   9
HETATM    9  C8  UNL     1     -40.377  12.120   6.019  1.00 20.00    -0.010 A 
HETATM   10  C3  UNL     1     -39.605  11.633   4.824  1.00 20.00     0.005 A 
HETATM   11  C4  UNL     1     -38.879  12.239   5.993  1.00 20.00     0.005 A 
ENDBRANCH   6   9
TORSDOF 1
ENDMDL
MODEL 2
REMARK VINA RESULT:      -4.2      9.442     10.438
REMARK  1 active torsions:
REMARK  status: ('A' for Active; 'I' for Inactive)
REMARK    1  A    between atoms: C8_8  and  C9_9 
ROOT
HETATM    1  C1  UNL     1     -34.023   5.608   6.554  1.00 20.00     0.004 C 
HETATM    2  C2  UNL     1     -34.918   5.104   5.419  1.00 20.00     0.005 C 
HETATM    3  C5  UNL     1     -34.020   7.132   6.632  1.00 20.00     0.040 C 
HETATM    4  C6  UNL     1     -34.497   7.251   4.125  1.00 20.00     0.045 C 
HETATM    5  C7  UNL     1     -33.055   9.103   5.243  1.00 20.00     0.207 A 
HETATM    6  C9  UNL     1     -34.558   5.716   4.054  1.00 20.00    -0.008 C 
HETATM    7  C10 UNL     1     -33.694   7.734   5.299  1.00 20.00     0.083 A 
HETATM    8  O11 UNL     1     -32.294   7.901   5.043  1.00 20.00    -0.375 OA
ENDROOT
BRANCH   6   9
HETATM    9  C8  UNL     1     -33.287   5.128   3.492  1.00 20.00    -0.010 A 
HETATM   10  C3  UNL     1     -33.239   4.646   2.068  1.00 20.00     0.005 A 
HETATM   11  C4  UNL     1     -32.490   5.887   2.468  1.00 20.00     0.005 A 
ENDBRANCH   6   9
TORSDOF 1
ENDMDL
MODEL 3
REMARK VINA RESULT:      -3.9      1.221      1.479
REMARK  1 active torsions:
REMARK  status: ('A' for Active; 'I' for Inactive)
REMARK    1  A    between atoms: C8_8  and  C9_9 
ROOT
HETATM    1  C1  UNL     1     -43.384  13.935   5.830  1.00 20.00     0.004 C 
HETATM    2  C2  UNL     1     -42.083  14.295   5.109  1.00 20.00     0.005 C 
HETATM    3  C5  UNL     1     -43.417  14.505   7.246  1.00 20.00     0.040 C 
HETATM    4  C6  UNL     1     -40.866  14.395   7.339  1.00 20.00     0.045 C 
HETATM    5  C7  UNL     1     -42.243  14.028   9.513  1.00 20.00     0.207 A 
HETATM    6  C9  UNL     1     -40.827  13.875   5.892  1.00 20.00    -0.008 C 
HETATM    7  C10 UNL     1     -42.184  14.120   8.006  1.00 20.00     0.083 A 
HETATM    8  O11 UNL     1     -42.265  12.858   8.680  1.00 20.00    -0.375 OA
ENDROOT
BRANCH   6   9
HETATM    9  C8  UNL     1     -40.601  12.384   5.836  1.00 20.00    -0.010 A 
HETATM   10  C3  UNL     1     -39.652  11.798   4.827  1.00 20.00     0.005 A 
HETATM   11  C4  UNL     1     -39.291  11.799   6.286  1.00 20.00     0.005 A 
ENDBRANCH   6   9
TORSDOF 1
ENDMDL
MODEL 4
REMARK VINA RESULT:      -3.7     12.543     13.763
REMARK  1 active torsions:
REMARK  status: ('A' for Active; 'I' for Inactive)
REMARK    1  A    between atoms: C8_8  and  C9_9 
ROOT
HETATM    1  C1  UNL     1     -34.468  14.543  -4.380  1.00 20.00     0.004 C 
HETATM    2  C2  UNL     1     -33.119  15.173  -4.023  1.00 20.00     0.005 C 
HETATM    3  C5  UNL     1     -35.158  15.298  -5.513  1.00 20.00     0.040 C 
HETATM    4  C6  UNL     1     -33.966  17.441  -4.796  1.00 20.00     0.045 C 
HETATM    5  C7  UNL     1     -36.351  17.583  -5.822  1.00 20.00     0.207 A 
HETATM    6  C9  UNL     1     -33.226  16.671  -3.691  1.00 20.00    -0.008 C 
HETATM    7  C10 UNL     1     -35.242  16.762  -5.205  1.00 20.00     0.083 A 
HETATM    8  O11 UNL     1     -36.399  17.151  -4.453  1.00 20.00    -0.375 OA
ENDROOT
BRANCH   6   9
HETATM    9  C8  UNL     1     -33.843  16.903  -2.333  1.00 20.00    -0.010 A 
HETATM   10  C3  UNL     1     -33.092  17.670  -1.279  1.00 20.00     0.005 A 
HETATM   11  C4  UNL     1     -34.300  18.279  -1.935  1.00 20.00     0.005 A 
ENDBRANCH   6   9
TORSDOF 1
ENDMDL
MODEL 5
REMARK VINA RESULT:      -3.5      9.365     10.595
REMARK  1 active torsions:
REMARK  status: ('A' for Active; 'I' for Inactive)
REMARK    1  A    between atoms: C8_8  and  C9_9 
ROOT
HETATM    1  C1  UNL     1     -33.438   8.659   5.409  1.00 20.00     0.004 C 
HETATM    2  C2  UNL     1     -32.152   8.690   4.579  1.00 20.00     0.005 C 
HETATM    3  C5  UNL     1     -33.824   7.233   5.791  1.00 20.00     0.040 C 
HETATM    4  C6  UNL     1     -32.661   6.365   3.688  1.00 20.00     0.045 C 
HETATM    5  C7  UNL     1     -34.767   5.133   4.587  1.00 20.00     0.207 A 
HETATM    6  C9  UNL     1     -32.220   7.794   3.331  1.00 20.00    -0.008 C 
HETATM    7  C10 UNL     1     -33.869   6.349   4.581  1.00 20.00     0.083 A 
HETATM    8  O11 UNL     1     -35.126   6.338   3.893  1.00 20.00    -0.375 OA
ENDROOT
BRANCH   6   9
HETATM    9  C8  UNL     1     -33.088   8.397   2.253  1.00 20.00    -0.010 A 
HETATM   10  C3  UNL     1     -32.823   9.793   1.759  1.00 20.00     0.005 A 
HETATM   11  C4  UNL     1     -32.537   8.613   0.871  1.00 20.00     0.005 A 
ENDBRANCH   6   9
TORSDOF 1
ENDMDL
MODEL 6
REMARK VINA RESULT:      -3.4      9.789     11.200
REMARK  1 active torsions:
REMARK  status: ('A' for Active; 'I' for Inactive)
REMARK    1  A    between atoms: C8_8  and  C9_9 
ROOT
HETATM    1  C1  UNL     1     -32.007   8.071   4.261  1.00 20.00     0.004 C 
HETATM    2  C2  UNL     1     -33.380   8.446   4.824  1.00 20.00     0.005 C 
HETATM    3  C5  UNL     1     -32.127   7.376   2.907  1.00 20.00     0.040 C 
HETATM    4  C6  UNL     1     -34.434   6.502   3.571  1.00 20.00     0.045 C 
HETATM    5  C7  UNL     1     -32.919   5.067   2.021  1.00 20.00     0.207 A 
HETATM    6  C9  UNL     1     -34.341   7.248   4.912  1.00 20.00    -0.008 C 
HETATM    7  C10 UNL     1     -33.081   6.222   2.981  1.00 20.00     0.083 A 
HETATM    8  O11 UNL     1     -32.491   4.982   3.390  1.00 20.00    -0.375 OA
ENDROOT
BRANCH   6   9
HETATM    9  C8  UNL     1     -33.981   6.322   6.048  1.00 20.00    -0.010 A 
HETATM   10  C3  UNL     1     -35.043   5.838   6.998  1.00 20.00     0.005 A 
HETATM   11  C4  UNL     1     -34.418   4.883   6.019  1.00 20.00     0.005 A 
ENDBRANCH   6   9
TORSDOF 1
ENDMDL
MODEL 7
REMARK VINA RESULT:      -3.4     12.396     13.123
REMARK  1 active torsions:
REMARK  status: ('A' for Active; 'I' for Inactive)
REMARK    1  A    between atoms: C8_8  and  C9_9 
ROOT
HETATM    1  C1  UNL     1     -35.961  18.515  -3.020  1.00 20.00     0.004 C 
HETATM    2  C2  UNL     1     -35.367  18.406  -4.427  1.00 20.00     0.005 C 
HETATM    3  C5  UNL     1     -34.935  19.035  -2.017  1.00 20.00     0.040 C 
HETATM    4  C6  UNL     1     -33.058  18.034  -3.432  1.00 20.00     0.045 C 
HETATM    5  C7  UNL     1     -32.798  18.138  -0.847  1.00 20.00     0.207 A 
HETATM    6  C9  UNL     1     -34.084  17.558  -4.473  1.00 20.00    -0.008 C 
HETATM    7  C10 UNL     1     -33.673  18.228  -2.075  1.00 20.00     0.083 A 
HETATM    8  O11 UNL     1     -33.668  17.064  -1.239  1.00 20.00    -0.375 OA
ENDROOT
BRANCH   6   9
HETATM    9  C8  UNL     1     -34.379  16.084  -4.340  1.00 20.00    -0.010 A 
HETATM   10  C3  UNL     1     -34.031  15.137  -5.456  1.00 20.00     0.005 A 
HETATM   11  C4  UNL     1     -33.256  15.100  -4.168  1.00 20.00     0.005 A 
ENDBRANCH   6   9
TORSDOF 1
ENDMDL
MODEL 8
REMARK VINA RESULT:      -3.3     13.437     14.455
REMARK  1 active torsions:
REMARK  status: ('A' for Active; 'I' for Inactive)
REMARK    1  A    between atoms: C8_8  and  C9_9 
ROOT
HETATM    1  C1  UNL     1     -33.066  15.432  -3.796  1.00 20.00     0.004 C 
HETATM    2  C2  UNL     1     -34.327  14.875  -4.461  1.00 20.00     0.005 C 
HETATM    3  C5  UNL     1     -33.372  16.675  -2.966  1.00 20.00     0.040 C 
HETATM    4  C6  UNL     1     -35.342  17.205  -4.504  1.00 20.00     0.045 C 
HETATM    5  C7  UNL     1     -34.004  19.153  -3.419  1.00 20.00     0.207 A 
HETATM    6  C9  UNL     1     -35.072  15.922  -5.307  1.00 20.00    -0.008 C 
HETATM    7  C10 UNL     1     -34.119  17.690  -3.778  1.00 20.00     0.083 A 
HETATM    8  O11 UNL     1     -33.289  18.586  -4.528  1.00 20.00    -0.375 OA
ENDROOT
BRANCH   6   9
HETATM    9  C8  UNL     1     -34.355  16.211  -6.604  1.00 20.00    -0.010 A 
HETATM   10  C3  UNL     1     -34.985  15.838  -7.918  1.00 20.00     0.005 A 
HETATM   11  C4  UNL     1     -34.862  17.285  -7.526  1.00 20.00     0.005 A 
ENDBRANCH   6   9
TORSDOF 1
ENDMDL
MODEL 9
REMARK VINA RESULT:      -3.3     20.329     21.964
REMARK  1 active torsions:
REMARK  status: ('A' for Active; 'I' for Inactive)
REMARK    1  A    between atoms: C8_8  and  C9_9 
ROOT
HETATM    1  C1  UNL     1     -26.686  -0.624  12.119  1.00 20.00     0.004 C 
HETATM    2  C2  UNL     1     -27.421  -0.764  10.784  1.00 20.00     0.005 C 
HETATM    3  C5  UNL     1     -25.224  -1.046  12.001  1.00 20.00     0.040 C 
HETATM    4  C6  UNL     1     -25.846  -2.641  10.105  1.00 20.00     0.045 C 
HETATM    5  C7  UNL     1     -23.904  -3.264  11.717  1.00 20.00     0.207 A 
HETATM    6  C9  UNL     1     -27.310  -2.176  10.182  1.00 20.00    -0.008 C 
HETATM    7  C10 UNL     1     -25.108  -2.411  11.393  1.00 20.00     0.083 A 
HETATM    8  O11 UNL     1     -25.182  -3.493  12.331  1.00 20.00    -0.375 OA
ENDROOT
BRANCH   6   9
HETATM    9  C8  UNL     1     -28.178  -3.169  10.916  1.00 20.00    -0.010 A 
HETATM   10  C3  UNL     1     -29.273  -3.901  10.189  1.00 20.00     0.005 A 
HETATM   11  C4  UNL     1     -28.044  -4.641  10.639  1.00 20.00     0.005 A 
ENDBRANCH   6   9
TORSDOF 1
ENDMDL
