MODEL 1
REMARK VINA RESULT:      -3.7      0.000      0.000
REMARK  1 active torsions:
REMARK  status: ('A' for Active; 'I' for Inactive)
REMARK    1  A    between atoms: C8_8  and  C9_9 
ROOT
HETATM    1  C1  UNL     1     -35.994  18.055  -4.428  1.00 20.00     0.085 C 
HETATM    2  C2  UNL     1     -34.276  15.430  -4.349  1.00 20.00     0.003 C 
HETATM    3  C3  UNL     1     -33.054  15.879  -3.552  1.00 20.00     0.005 C 
HETATM    4  C6  UNL     1     -34.552  16.362  -5.529  1.00 20.00     0.041 C 
HETATM    5  C7  UNL     1     -33.519  18.290  -4.232  1.00 20.00     0.046 C 
HETATM    6  C9  UNL     1     -33.145  17.336  -3.079  1.00 20.00    -0.008 C 
HETATM    7  C10 UNL     1     -34.703  17.827  -5.099  1.00 20.00     0.125 C 
HETATM    8  N11 UNL     1     -37.012  18.234  -3.900  1.00 20.00    -0.195 NA
HETATM    9 CL12 UNL     1     -34.767  18.855  -6.579  1.00 20.00    -0.103 Cl
ENDROOT
BRANCH   6  10
HETATM   10  C8  UNL     1     -34.047  17.483  -1.878  1.00 20.00    -0.010 A 
HETATM   11  C4  UNL     1     -33.472  17.852  -0.538  1.00 20.00     0.005 A 
HETATM   12  C5  UNL     1     -34.315  18.842  -1.293  1.00 20.00     0.005 A 
ENDBRANCH   6  10
TORSDOF 1
ENDMDL
MODEL 2
REMARK VINA RESULT:      -3.6      1.434      1.907
REMARK  1 active torsions:
REMARK  status: ('A' for Active; 'I' for Inactive)
REMARK    1  A    between atoms: C8_8  and  C9_9 
ROOT
HETATM    1  C1  UNL     1     -36.546  16.977  -5.218  1.00 20.00     0.085 C 
HETATM    2  C2  UNL     1     -35.442  14.110  -4.576  1.00 20.00     0.003 C 
HETATM    3  C3  UNL     1     -33.977  14.402  -4.263  1.00 20.00     0.005 C 
HETATM    4  C6  UNL     1     -35.856  14.701  -5.925  1.00 20.00     0.041 C 
HETATM    5  C7  UNL     1     -34.126  16.542  -5.637  1.00 20.00     0.046 C 
HETATM    6  C9  UNL     1     -33.632  15.896  -4.326  1.00 20.00    -0.008 C 
HETATM    7  C10 UNL     1     -35.579  16.207  -6.018  1.00 20.00     0.125 C 
HETATM    8  N11 UNL     1     -37.308  17.585  -4.587  1.00 20.00    -0.195 NA
HETATM    9 CL12 UNL     1     -35.863  16.738  -7.718  1.00 20.00    -0.103 Cl
ENDROOT
BRANCH   6  10
HETATM   10  C8  UNL     1     -34.096  16.634  -3.095  1.00 20.00    -0.010 A 
HETATM   11  C4  UNL     1     -33.098  17.132  -2.087  1.00 20.00     0.005 A 
HETATM   12  C5  UNL     1     -33.841  18.109  -2.953  1.00 20.00     0.005 A 
ENDBRANCH   6  10
TORSDOF 1
ENDMDL
MODEL 3
REMARK VINA RESULT:      -3.6      2.491      3.543
REMARK  1 active torsions:
REMARK  status: ('A' for Active; 'I' for Inactive)
REMARK    1  A    between atoms: C8_8  and  C9_9 
ROOT
HETATM    1  C1  UNL     1     -34.489  15.869  -7.210  1.00 20.00     0.085 C 
HETATM    2  C2  UNL     1     -34.162  18.911  -6.511  1.00 20.00     0.003 C 
HETATM    3  C3  UNL     1     -34.566  18.939  -5.040  1.00 20.00     0.005 C 
HETATM    4  C6  UNL     1     -35.227  18.232  -7.373  1.00 20.00     0.041 C 
HETATM    5  C7  UNL     1     -35.909  16.803  -5.384  1.00 20.00     0.046 C 
HETATM    6  C9  UNL     1     -34.908  17.552  -4.481  1.00 20.00    -0.008 C 
HETATM    7  C10 UNL     1     -35.566  16.818  -6.884  1.00 20.00     0.125 C 
HETATM    8  N11 UNL     1     -33.639  15.120  -7.466  1.00 20.00    -0.195 NA
HETATM    9 CL12 UNL     1     -36.997  16.221  -7.806  1.00 20.00    -0.103 Cl
ENDROOT
BRANCH   6  10
HETATM   10  C8  UNL     1     -33.669  16.744  -4.179  1.00 20.00    -0.010 A 
HETATM   11  C4  UNL     1     -33.308  16.412  -2.758  1.00 20.00     0.005 A 
HETATM   12  C5  UNL     1     -33.788  15.330  -3.683  1.00 20.00     0.005 A 
ENDBRANCH   6  10
TORSDOF 1
ENDMDL
MODEL 4
REMARK VINA RESULT:      -3.6      2.057      2.984
REMARK  1 active torsions:
REMARK  status: ('A' for Active; 'I' for Inactive)
REMARK    1  A    between atoms: C8_8  and  C9_9 
ROOT
HETATM    1  C1  UNL     1     -35.698  15.201  -5.559  1.00 20.00     0.085 C 
HETATM    2  C2  UNL     1     -33.622  15.824  -3.289  1.00 20.00     0.003 C 
HETATM    3  C3  UNL     1     -33.571  17.349  -3.322  1.00 20.00     0.005 C 
HETATM    4  C6  UNL     1     -33.379  15.224  -4.674  1.00 20.00     0.041 C 
HETATM    5  C7  UNL     1     -34.375  17.308  -5.738  1.00 20.00     0.046 C 
HETATM    6  C9  UNL     1     -34.530  17.964  -4.351  1.00 20.00    -0.008 C 
HETATM    7  C10 UNL     1     -34.350  15.769  -5.730  1.00 20.00     0.125 C 
HETATM    8  N11 UNL     1     -36.760  14.753  -5.425  1.00 20.00    -0.195 NA
HETATM    9 CL12 UNL     1     -33.812  15.196  -7.353  1.00 20.00    -0.103 Cl
ENDROOT
BRANCH   6  10
HETATM   10  C8  UNL     1     -35.956  17.970  -3.859  1.00 20.00    -0.010 A 
HETATM   11  C4  UNL     1     -36.621  19.263  -3.477  1.00 20.00     0.005 A 
HETATM   12  C5  UNL     1     -37.052  18.535  -4.719  1.00 20.00     0.005 A 
ENDBRANCH   6  10
TORSDOF 1
ENDMDL
MODEL 5
REMARK VINA RESULT:      -3.5     12.739     13.867
REMARK  1 active torsions:
REMARK  status: ('A' for Active; 'I' for Inactive)
REMARK    1  A    between atoms: C8_8  and  C9_9 
ROOT
HETATM    1  C1  UNL     1     -40.856  14.370   8.995  1.00 20.00     0.085 C 
HETATM    2  C2  UNL     1     -43.406  13.778   7.263  1.00 20.00     0.003 C 
HETATM    3  C3  UNL     1     -42.806  13.619   5.868  1.00 20.00     0.005 C 
HETATM    4  C6  UNL     1     -42.971  15.090   7.915  1.00 20.00     0.041 C 
HETATM    5  C7  UNL     1     -40.804  15.019   6.587  1.00 20.00     0.046 C 
HETATM    6  C9  UNL     1     -41.278  13.750   5.849  1.00 20.00    -0.008 C 
HETATM    7  C10 UNL     1     -41.446  15.245   7.968  1.00 20.00     0.125 C 
HETATM    8  N11 UNL     1     -40.391  13.680   9.804  1.00 20.00    -0.195 NA
HETATM    9 CL12 UNL     1     -41.057  16.919   8.514  1.00 20.00    -0.103 Cl
ENDROOT
BRANCH   6  10
HETATM   10  C8  UNL     1     -40.598  12.496   6.340  1.00 20.00    -0.010 A 
HETATM   11  C4  UNL     1     -39.884  11.592   5.374  1.00 20.00     0.005 A 
HETATM   12  C5  UNL     1     -39.098  12.406   6.363  1.00 20.00     0.005 A 
ENDBRANCH   6  10
TORSDOF 1
ENDMDL
MODEL 6
REMARK VINA RESULT:      -3.5     12.468     13.706
REMARK  1 active torsions:
REMARK  status: ('A' for Active; 'I' for Inactive)
REMARK    1  A    between atoms: C8_8  and  C9_9 
ROOT
HETATM    1  C1  UNL     1     -42.722  13.207   8.108  1.00 20.00     0.085 C 
HETATM    2  C2  UNL     1     -43.295  14.351   5.242  1.00 20.00     0.003 C 
HETATM    3  C3  UNL     1     -41.886  14.482   4.670  1.00 20.00     0.005 C 
HETATM    4  C6  UNL     1     -43.417  15.049   6.597  1.00 20.00     0.041 C 
HETATM    5  C7  UNL     1     -40.953  14.603   7.037  1.00 20.00     0.046 C 
HETATM    6  C9  UNL     1     -40.795  13.989   5.631  1.00 20.00    -0.008 C 
HETATM    7  C10 UNL     1     -42.380  14.551   7.612  1.00 20.00     0.125 C 
HETATM    8  N11 UNL     1     -42.991  12.148   8.499  1.00 20.00    -0.195 NA
HETATM    9 CL12 UNL     1     -42.449  15.610   9.070  1.00 20.00    -0.103 Cl
ENDROOT
BRANCH   6  10
HETATM   10  C8  UNL     1     -40.703  12.483   5.653  1.00 20.00    -0.010 A 
HETATM   11  C4  UNL     1     -39.654  11.775   4.842  1.00 20.00     0.005 A 
HETATM   12  C5  UNL     1     -39.551  11.804   6.341  1.00 20.00     0.005 A 
ENDBRANCH   6  10
TORSDOF 1
ENDMDL
MODEL 7
REMARK VINA RESULT:      -3.4      2.216      4.097
REMARK  1 active torsions:
REMARK  status: ('A' for Active; 'I' for Inactive)
REMARK    1  A    between atoms: C8_8  and  C9_9 
ROOT
HETATM    1  C1  UNL     1     -33.577  18.530  -4.373  1.00 20.00     0.085 C 
HETATM    2  C2  UNL     1     -32.959  15.500  -3.837  1.00 20.00     0.003 C 
HETATM    3  C3  UNL     1     -34.100  14.812  -4.581  1.00 20.00     0.005 C 
HETATM    4  C6  UNL     1     -33.480  16.560  -2.866  1.00 20.00     0.041 C 
HETATM    5  C7  UNL     1     -35.494  16.934  -4.374  1.00 20.00     0.046 C 
HETATM    6  C9  UNL     1     -35.030  15.795  -5.305  1.00 20.00    -0.008 C 
HETATM    7  C10 UNL     1     -34.374  17.600  -3.555  1.00 20.00     0.125 C 
HETATM    8  N11 UNL     1     -32.949  19.263  -5.018  1.00 20.00    -0.195 NA
HETATM    9 CL12 UNL     1     -35.129  18.637  -2.287  1.00 20.00    -0.103 Cl
ENDROOT
BRANCH   6  10
HETATM   10  C8  UNL     1     -34.424  16.298  -6.593  1.00 20.00    -0.010 A 
HETATM   11  C4  UNL     1     -35.013  15.895  -7.916  1.00 20.00     0.005 A 
HETATM   12  C5  UNL     1     -35.156  17.309  -7.430  1.00 20.00     0.005 A 
ENDBRANCH   6  10
TORSDOF 1
ENDMDL
MODEL 8
REMARK VINA RESULT:      -3.3     13.210     14.789
REMARK  1 active torsions:
REMARK  status: ('A' for Active; 'I' for Inactive)
REMARK    1  A    between atoms: C8_8  and  C9_9 
ROOT
HETATM    1  C1  UNL     1     -42.450  13.414   9.469  1.00 20.00     0.085 C 
HETATM    2  C2  UNL     1     -42.510  16.245   8.115  1.00 20.00     0.003 C 
HETATM    3  C3  UNL     1     -41.327  16.157   7.154  1.00 20.00     0.005 C 
HETATM    4  C6  UNL     1     -42.105  15.870   9.541  1.00 20.00     0.041 C 
HETATM    5  C7  UNL     1     -40.298  14.340   8.613  1.00 20.00     0.046 C 
HETATM    6  C9  UNL     1     -40.632  14.789   7.175  1.00 20.00    -0.008 C 
HETATM    7  C10 UNL     1     -41.451  14.485   9.622  1.00 20.00     0.125 C 
HETATM    8  N11 UNL     1     -43.238  12.570   9.348  1.00 20.00    -0.195 NA
HETATM    9 CL12 UNL     1     -40.789  14.260  11.285  1.00 20.00    -0.103 Cl
ENDROOT
BRANCH   6  10
HETATM   10  C8  UNL     1     -41.406  13.752   6.400  1.00 20.00    -0.010 A 
HETATM   11  C4  UNL     1     -40.899  13.264   5.071  1.00 20.00     0.005 A 
HETATM   12  C5  UNL     1     -40.873  12.352   6.265  1.00 20.00     0.005 A 
ENDBRANCH   6  10
TORSDOF 1
ENDMDL
MODEL 9
REMARK VINA RESULT:      -3.3     12.183     13.487
REMARK  1 active torsions:
REMARK  status: ('A' for Active; 'I' for Inactive)
REMARK    1  A    between atoms: C8_8  and  C9_9 
ROOT
HETATM    1  C1  UNL     1     -41.608  13.752   5.011  1.00 20.00     0.085 C 
HETATM    2  C2  UNL     1     -43.412  13.162   7.511  1.00 20.00     0.003 C 
HETATM    3  C3  UNL     1     -42.756  14.029   8.581  1.00 20.00     0.005 C 
HETATM    4  C6  UNL     1     -42.394  12.251   6.825  1.00 20.00     0.041 C 
HETATM    5  C7  UNL     1     -40.573  13.969   7.270  1.00 20.00     0.046 C 
HETATM    6  C9  UNL     1     -41.570  14.848   8.053  1.00 20.00    -0.008 C 
HETATM    7  C10 UNL     1     -41.212  13.030   6.232  1.00 20.00     0.125 C 
HETATM    8  N11 UNL     1     -41.920  14.321   4.049  1.00 20.00    -0.195 NA
HETATM    9 CL12 UNL     1     -39.964  11.849   5.683  1.00 20.00    -0.103 Cl
ENDROOT
BRANCH   6  10
HETATM   10  C8  UNL     1     -42.024  16.059   7.275  1.00 20.00    -0.010 A 
HETATM   11  C4  UNL     1     -42.162  17.391   7.959  1.00 20.00     0.005 A 
HETATM   12  C5  UNL     1     -41.056  17.167   6.966  1.00 20.00     0.005 A 
ENDBRANCH   6  10
TORSDOF 1
ENDMDL
