MODEL 1
REMARK VINA RESULT:      -4.7      0.000      0.000
REMARK  1 active torsions:
REMARK  status: ('A' for Active; 'I' for Inactive)
REMARK    1  A    between atoms: C10_10  and  C11_11 
ROOT
HETATM    1  C1  UNL     1     -41.509  14.261   9.837  1.00 20.00     0.088 C 
HETATM    2  C2  UNL     1     -41.466  14.777   7.484  1.00 20.00    -0.070 C 
HETATM    3  C3  UNL     1     -41.942  15.011   8.715  1.00 20.00     0.096 C 
HETATM    4  C4  UNL     1     -41.915  15.563   6.280  1.00 20.00     0.035 C 
HETATM    5  C5  UNL     1     -40.458  13.693   7.199  1.00 20.00     0.039 C 
HETATM    6  C6  UNL     1     -42.411  14.627   5.178  1.00 20.00     0.005 C 
HETATM    7  C7  UNL     1     -41.381  13.546   4.842  1.00 20.00     0.005 C 
HETATM    8  C10 UNL     1     -40.966  12.753   6.094  1.00 20.00    -0.007 C 
HETATM    9  N12 UNL     1     -41.157  13.651  10.759  1.00 20.00    -0.192 NA
ENDROOT
BRANCH   8  10
HETATM   10  C11 UNL     1     -39.903  11.713   5.742  1.00 20.00    -0.010 A 
HETATM   11  C8  UNL     1     -39.274  11.726   4.386  1.00 20.00     0.005 A 
HETATM   12  C9  UNL     1     -38.476  12.134   5.594  1.00 20.00     0.005 A 
ENDBRANCH   8  10
TORSDOF 1
ENDMDL
MODEL 2
REMARK VINA RESULT:      -4.4      2.717      3.754
REMARK  1 active torsions:
REMARK  status: ('A' for Active; 'I' for Inactive)
REMARK    1  A    between atoms: C10_10  and  C11_11 
ROOT
HETATM    1  C1  UNL     1     -42.762  15.286   3.306  1.00 20.00     0.088 C 
HETATM    2  C2  UNL     1     -42.387  14.951   5.662  1.00 20.00    -0.070 C 
HETATM    3  C3  UNL     1     -42.842  15.711   4.656  1.00 20.00     0.096 C 
HETATM    4  C4  UNL     1     -42.461  15.387   7.101  1.00 20.00     0.035 C 
HETATM    5  C5  UNL     1     -41.742  13.608   5.434  1.00 20.00     0.039 C 
HETATM    6  C6  UNL     1     -41.083  15.319   7.759  1.00 20.00     0.005 C 
HETATM    7  C7  UNL     1     -40.431  13.947   7.577  1.00 20.00     0.005 C 
HETATM    8  C10 UNL     1     -40.354  13.550   6.093  1.00 20.00    -0.007 C 
HETATM    9  N12 UNL     1     -42.701  14.943   2.199  1.00 20.00    -0.192 NA
ENDROOT
BRANCH   8  10
HETATM   10  C11 UNL     1     -39.745  12.157   5.940  1.00 20.00    -0.010 A 
HETATM   11  C8  UNL     1     -39.389  11.649   4.580  1.00 20.00     0.005 A 
HETATM   12  C9  UNL     1     -38.306  12.017   5.556  1.00 20.00     0.005 A 
ENDBRANCH   8  10
TORSDOF 1
ENDMDL
MODEL 3
REMARK VINA RESULT:      -4.1     11.742     13.314
REMARK  1 active torsions:
REMARK  status: ('A' for Active; 'I' for Inactive)
REMARK    1  A    between atoms: C10_10  and  C11_11 
ROOT
HETATM    1  C1  UNL     1     -37.310  17.852  -4.542  1.00 20.00     0.088 C 
HETATM    2  C2  UNL     1     -35.240  16.725  -5.042  1.00 20.00    -0.070 C 
HETATM    3  C3  UNL     1     -36.545  16.916  -5.283  1.00 20.00     0.096 C 
HETATM    4  C4  UNL     1     -34.412  15.735  -5.817  1.00 20.00     0.035 C 
HETATM    5  C5  UNL     1     -34.499  17.470  -3.961  1.00 20.00     0.039 C 
HETATM    6  C6  UNL     1     -33.701  14.768  -4.871  1.00 20.00     0.005 C 
HETATM    7  C7  UNL     1     -32.905  15.506  -3.793  1.00 20.00     0.005 C 
HETATM    8  C10 UNL     1     -33.791  16.491  -3.011  1.00 20.00    -0.007 C 
HETATM    9  N12 UNL     1     -37.941  18.617  -3.941  1.00 20.00    -0.192 NA
ENDROOT
BRANCH   8  10
HETATM   10  C11 UNL     1     -32.965  17.250  -1.974  1.00 20.00    -0.010 A 
HETATM   11  C8  UNL     1     -33.167  18.721  -1.799  1.00 20.00     0.005 A 
HETATM   12  C9  UNL     1     -33.625  17.763  -0.734  1.00 20.00     0.005 A 
ENDBRANCH   8  10
TORSDOF 1
ENDMDL
MODEL 4
REMARK VINA RESULT:      -3.9      2.380      4.524
REMARK  1 active torsions:
REMARK  status: ('A' for Active; 'I' for Inactive)
REMARK    1  A    between atoms: C10_10  and  C11_11 
ROOT
HETATM    1  C1  UNL     1     -39.207  12.073   5.554  1.00 20.00     0.088 C 
HETATM    2  C2  UNL     1     -41.248  12.802   6.608  1.00 20.00    -0.070 C 
HETATM    3  C3  UNL     1     -40.603  11.968   5.780  1.00 20.00     0.096 C 
HETATM    4  C4  UNL     1     -42.730  12.706   6.858  1.00 20.00     0.035 C 
HETATM    5  C5  UNL     1     -40.548  13.920   7.337  1.00 20.00     0.039 C 
HETATM    6  C6  UNL     1     -43.411  14.048   6.593  1.00 20.00     0.005 C 
HETATM    7  C7  UNL     1     -42.742  15.189   7.362  1.00 20.00     0.005 C 
HETATM    8  C10 UNL     1     -41.235  15.267   7.061  1.00 20.00    -0.007 C 
HETATM    9  N12 UNL     1     -38.065  12.154   5.367  1.00 20.00    -0.192 NA
ENDROOT
BRANCH   8  10
HETATM   10  C11 UNL     1     -40.581  16.382   7.876  1.00 20.00    -0.010 A 
HETATM   11  C8  UNL     1     -40.901  17.809   7.568  1.00 20.00     0.005 A 
HETATM   12  C9  UNL     1     -41.406  17.177   8.836  1.00 20.00     0.005 A 
ENDBRANCH   8  10
TORSDOF 1
ENDMDL
MODEL 5
REMARK VINA RESULT:      -3.9      2.229      4.447
REMARK  1 active torsions:
REMARK  status: ('A' for Active; 'I' for Inactive)
REMARK    1  A    between atoms: C10_10  and  C11_11 
ROOT
HETATM    1  C1  UNL     1     -39.153  12.166   5.531  1.00 20.00     0.088 C 
HETATM    2  C2  UNL     1     -41.236  12.877   6.511  1.00 20.00    -0.070 C 
HETATM    3  C3  UNL     1     -40.569  12.173   5.585  1.00 20.00     0.096 C 
HETATM    4  C4  UNL     1     -42.739  12.898   6.583  1.00 20.00     0.035 C 
HETATM    5  C5  UNL     1     -40.535  13.723   7.543  1.00 20.00     0.039 C 
HETATM    6  C6  UNL     1     -43.262  14.334   6.563  1.00 20.00     0.005 C 
HETATM    7  C7  UNL     1     -42.595  15.198   7.635  1.00 20.00     0.005 C 
HETATM    8  C10 UNL     1     -41.061  15.167   7.513  1.00 20.00    -0.007 C 
HETATM    9  N12 UNL     1     -37.994  12.155   5.482  1.00 20.00    -0.192 NA
ENDROOT
BRANCH   8  10
HETATM   10  C11 UNL     1     -40.417  15.998   8.622  1.00 20.00    -0.010 A 
HETATM   11  C8  UNL     1     -41.216  16.367   9.830  1.00 20.00     0.005 A 
HETATM   12  C9  UNL     1     -40.105  15.359   9.938  1.00 20.00     0.005 A 
ENDBRANCH   8  10
TORSDOF 1
ENDMDL
MODEL 6
REMARK VINA RESULT:      -3.7     12.532     13.812
REMARK  1 active torsions:
REMARK  status: ('A' for Active; 'I' for Inactive)
REMARK    1  A    between atoms: C10_10  and  C11_11 
ROOT
HETATM    1  C1  UNL     1     -35.151  14.715  -5.935  1.00 20.00     0.088 C 
HETATM    2  C2  UNL     1     -34.005  16.133  -4.360  1.00 20.00    -0.070 C 
HETATM    3  C3  UNL     1     -34.182  14.929  -4.923  1.00 20.00     0.096 C 
HETATM    4  C4  UNL     1     -32.982  16.378  -3.283  1.00 20.00     0.035 C 
HETATM    5  C5  UNL     1     -34.831  17.334  -4.742  1.00 20.00     0.039 C 
HETATM    6  C6  UNL     1     -33.632  17.012  -2.054  1.00 20.00     0.005 C 
HETATM    7  C7  UNL     1     -34.439  18.261  -2.416  1.00 20.00     0.005 C 
HETATM    8  C10 UNL     1     -35.487  17.963  -3.502  1.00 20.00    -0.007 C 
HETATM    9  N12 UNL     1     -35.942  14.534  -6.765  1.00 20.00    -0.192 NA
ENDROOT
BRANCH   8  10
HETATM   10  C11 UNL     1     -36.245  19.234  -3.880  1.00 20.00    -0.010 A 
HETATM   11  C8  UNL     1     -37.070  19.261  -5.126  1.00 20.00     0.005 A 
HETATM   12  C9  UNL     1     -37.737  19.263  -3.779  1.00 20.00     0.005 A 
ENDBRANCH   8  10
TORSDOF 1
ENDMDL
MODEL 7
REMARK VINA RESULT:      -3.7      2.051      4.448
REMARK  1 active torsions:
REMARK  status: ('A' for Active; 'I' for Inactive)
REMARK    1  A    between atoms: C10_10  and  C11_11 
ROOT
HETATM    1  C1  UNL     1     -40.327  12.397   5.604  1.00 20.00     0.088 C 
HETATM    2  C2  UNL     1     -41.522  14.341   6.379  1.00 20.00    -0.070 C 
HETATM    3  C3  UNL     1     -41.156  13.525   5.380  1.00 20.00     0.096 C 
HETATM    4  C4  UNL     1     -42.400  15.544   6.160  1.00 20.00     0.035 C 
HETATM    5  C5  UNL     1     -41.066  14.133   7.801  1.00 20.00     0.039 C 
HETATM    6  C6  UNL     1     -41.737  16.805   6.714  1.00 20.00     0.005 C 
HETATM    7  C7  UNL     1     -41.309  16.629   8.173  1.00 20.00     0.005 C 
HETATM    8  C10 UNL     1     -40.396  15.403   8.350  1.00 20.00    -0.007 C 
HETATM    9  N12 UNL     1     -39.650  11.472   5.781  1.00 20.00    -0.192 NA
ENDROOT
BRANCH   8  10
HETATM   10  C11 UNL     1     -40.020  15.221   9.820  1.00 20.00    -0.010 A 
HETATM   11  C8  UNL     1     -40.929  15.742  10.886  1.00 20.00     0.005 A 
HETATM   12  C9  UNL     1     -40.792  14.260  10.666  1.00 20.00     0.005 A 
ENDBRANCH   8  10
TORSDOF 1
ENDMDL
MODEL 8
REMARK VINA RESULT:      -3.7      2.505      4.475
REMARK  1 active torsions:
REMARK  status: ('A' for Active; 'I' for Inactive)
REMARK    1  A    between atoms: C10_10  and  C11_11 
ROOT
HETATM    1  C1  UNL     1     -39.268  11.829   4.866  1.00 20.00     0.088 C 
HETATM    2  C2  UNL     1     -40.432  13.275   6.402  1.00 20.00    -0.070 C 
HETATM    3  C3  UNL     1     -39.565  12.277   6.177  1.00 20.00     0.096 C 
HETATM    4  C4  UNL     1     -40.761  13.763   7.788  1.00 20.00     0.035 C 
HETATM    5  C5  UNL     1     -41.166  13.975   5.287  1.00 20.00     0.039 C 
HETATM    6  C6  UNL     1     -42.271  13.741   8.024  1.00 20.00     0.005 C 
HETATM    7  C7  UNL     1     -43.031  14.487   6.926  1.00 20.00     0.005 C 
HETATM    8  C10 UNL     1     -42.684  13.944   5.529  1.00 20.00    -0.007 C 
HETATM    9  N12 UNL     1     -39.019  11.459   3.794  1.00 20.00    -0.192 NA
ENDROOT
BRANCH   8  10
HETATM   10  C11 UNL     1     -43.417  14.735   4.447  1.00 20.00    -0.010 A 
HETATM   11  C8  UNL     1     -43.095  16.180   4.240  1.00 20.00     0.005 A 
HETATM   12  C9  UNL     1     -42.684  15.159   3.215  1.00 20.00     0.005 A 
ENDBRANCH   8  10
TORSDOF 1
ENDMDL
MODEL 9
REMARK VINA RESULT:      -3.6     12.082     13.409
REMARK  1 active torsions:
REMARK  status: ('A' for Active; 'I' for Inactive)
REMARK    1  A    between atoms: C10_10  and  C11_11 
ROOT
HETATM    1  C1  UNL     1     -38.167  17.797  -4.110  1.00 20.00     0.088 C 
HETATM    2  C2  UNL     1     -36.575  16.830  -5.638  1.00 20.00    -0.070 C 
HETATM    3  C3  UNL     1     -37.843  17.110  -5.307  1.00 20.00     0.096 C 
HETATM    4  C4  UNL     1     -36.212  16.101  -6.904  1.00 20.00     0.035 C 
HETATM    5  C5  UNL     1     -35.409  17.203  -4.759  1.00 20.00     0.039 C 
HETATM    6  C6  UNL     1     -35.345  14.881  -6.596  1.00 20.00     0.005 C 
HETATM    7  C7  UNL     1     -34.129  15.248  -5.741  1.00 20.00     0.005 C 
HETATM    8  C10 UNL     1     -34.544  15.970  -4.448  1.00 20.00    -0.007 C 
HETATM    9  N12 UNL     1     -38.439  18.360  -3.133  1.00 20.00    -0.192 NA
ENDROOT
BRANCH   8  10
HETATM   10  C11 UNL     1     -33.312  16.368  -3.636  1.00 20.00    -0.010 A 
HETATM   11  C8  UNL     1     -33.130  17.792  -3.218  1.00 20.00     0.005 A 
HETATM   12  C9  UNL     1     -33.464  16.740  -2.196  1.00 20.00     0.005 A 
ENDBRANCH   8  10
TORSDOF 1
ENDMDL
