MODEL 1
REMARK VINA RESULT:      -4.6      0.000      0.000
REMARK  2 active torsions:
REMARK  status: ('A' for Active; 'I' for Inactive)
REMARK    1  A    between atoms: C3_3  and  C6_6 
REMARK    2  A    between atoms: C3_3  and  O8_8 
ROOT
HETATM    1  C1  UNL     1     -32.461   8.666   4.818  1.00 20.00     0.013 C 
HETATM    2  C2  UNL     1     -33.308   7.830   4.972  1.00 20.00    -0.103 C 
HETATM    3  C4  UNL     1     -34.455   6.411   6.627  1.00 20.00     0.034 C 
HETATM    4  C6  UNL     1     -34.354   6.806   5.156  1.00 20.00     0.159 C 
ENDROOT
BRANCH   4   5
HETATM    5  C3  UNL     1     -34.072   5.578   4.308  1.00 20.00     0.273 C 
HETATM    6  O7  UNL     1     -34.498   4.453   4.536  1.00 20.00    -0.264 OA
BRANCH   5   7
HETATM    7  O8  UNL     1     -33.275   5.927   3.253  1.00 20.00    -0.326 OA
HETATM    8  C5  UNL     1     -32.885   4.852   2.393  1.00 20.00     0.213 C 
ENDBRANCH   5   7
ENDBRANCH   4   5
TORSDOF 2
ENDMDL
MODEL 2
REMARK VINA RESULT:      -4.2      1.667      3.068
REMARK  2 active torsions:
REMARK  status: ('A' for Active; 'I' for Inactive)
REMARK    1  A    between atoms: C3_3  and  C6_6 
REMARK    2  A    between atoms: C3_3  and  O8_8 
ROOT
HETATM    1  C1  UNL     1     -32.890   5.128   2.527  1.00 20.00     0.013 C 
HETATM    2  C2  UNL     1     -33.551   5.393   3.494  1.00 20.00    -0.103 C 
HETATM    3  C4  UNL     1     -35.812   5.960   4.289  1.00 20.00     0.034 C 
HETATM    4  C6  UNL     1     -34.359   5.711   4.686  1.00 20.00     0.159 C 
ENDROOT
BRANCH   4   5
HETATM    5  C3  UNL     1     -33.806   6.925   5.413  1.00 20.00     0.273 C 
HETATM    6  O7  UNL     1     -33.569   6.979   6.613  1.00 20.00    -0.264 OA
BRANCH   5   7
HETATM    7  O8  UNL     1     -33.610   7.941   4.519  1.00 20.00    -0.326 OA
HETATM    8  C5  UNL     1     -32.375   8.650   4.651  1.00 20.00     0.213 C 
ENDBRANCH   5   7
ENDBRANCH   4   5
TORSDOF 2
ENDMDL
MODEL 3
REMARK VINA RESULT:      -4.1      2.475      3.680
REMARK  2 active torsions:
REMARK  status: ('A' for Active; 'I' for Inactive)
REMARK    1  A    between atoms: C3_3  and  C6_6 
REMARK    2  A    between atoms: C3_3  and  O8_8 
ROOT
HETATM    1  C1  UNL     1     -32.397   8.729   0.865  1.00 20.00     0.013 C 
HETATM    2  C2  UNL     1     -32.297   8.030   1.837  1.00 20.00    -0.103 C 
HETATM    3  C4  UNL     1     -32.855   5.830   2.795  1.00 20.00     0.034 C 
HETATM    4  C6  UNL     1     -32.167   7.173   3.030  1.00 20.00     0.159 C 
ENDROOT
BRANCH   4   5
HETATM    5  C3  UNL     1     -32.756   7.849   4.255  1.00 20.00     0.273 C 
HETATM    6  O7  UNL     1     -32.332   8.880   4.762  1.00 20.00    -0.264 OA
BRANCH   5   7
HETATM    7  O8  UNL     1     -33.833   7.132   4.698  1.00 20.00    -0.326 OA
HETATM    8  C5  UNL     1     -33.952   7.010   6.118  1.00 20.00     0.213 C 
ENDBRANCH   5   7
ENDBRANCH   4   5
TORSDOF 2
ENDMDL
MODEL 4
REMARK VINA RESULT:      -4.0      1.761      2.654
REMARK  2 active torsions:
REMARK  status: ('A' for Active; 'I' for Inactive)
REMARK    1  A    between atoms: C3_3  and  C6_6 
REMARK    2  A    between atoms: C3_3  and  O8_8 
ROOT
HETATM    1  C1  UNL     1     -32.062   6.931   2.436  1.00 20.00     0.013 C 
HETATM    2  C2  UNL     1     -32.636   7.452   3.354  1.00 20.00    -0.103 C 
HETATM    3  C4  UNL     1     -32.396   8.997   5.257  1.00 20.00     0.034 C 
HETATM    4  C6  UNL     1     -33.346   8.092   4.476  1.00 20.00     0.159 C 
ENDROOT
BRANCH   4   5
HETATM    5  C3  UNL     1     -33.951   7.053   5.404  1.00 20.00     0.273 C 
HETATM    6  O7  UNL     1     -33.724   6.964   6.604  1.00 20.00    -0.264 OA
BRANCH   5   7
HETATM    7  O8  UNL     1     -34.789   6.240   4.692  1.00 20.00    -0.326 OA
HETATM    8  C5  UNL     1     -34.618   4.836   4.908  1.00 20.00     0.213 C 
ENDBRANCH   5   7
ENDBRANCH   4   5
TORSDOF 2
ENDMDL
MODEL 5
REMARK VINA RESULT:      -4.0      1.735      3.491
REMARK  2 active torsions:
REMARK  status: ('A' for Active; 'I' for Inactive)
REMARK    1  A    between atoms: C3_3  and  C6_6 
REMARK    2  A    between atoms: C3_3  and  O8_8 
ROOT
HETATM    1  C1  UNL     1     -34.708   5.386   6.115  1.00 20.00     0.013 C 
HETATM    2  C2  UNL     1     -34.327   5.684   5.016  1.00 20.00    -0.103 C 
HETATM    3  C4  UNL     1     -33.253   4.842   2.966  1.00 20.00     0.034 C 
HETATM    4  C6  UNL     1     -33.866   6.052   3.665  1.00 20.00     0.159 C 
ENDROOT
BRANCH   4   5
HETATM    5  C3  UNL     1     -32.855   7.184   3.722  1.00 20.00     0.273 C 
HETATM    6  O7  UNL     1     -32.067   7.470   2.829  1.00 20.00    -0.264 OA
BRANCH   5   7
HETATM    7  O8  UNL     1     -32.965   7.832   4.921  1.00 20.00    -0.326 OA
HETATM    8  C5  UNL     1     -32.289   9.091   5.007  1.00 20.00     0.213 C 
ENDBRANCH   5   7
ENDBRANCH   4   5
TORSDOF 2
ENDMDL
MODEL 6
REMARK VINA RESULT:      -4.0      1.251      2.587
REMARK  2 active torsions:
REMARK  status: ('A' for Active; 'I' for Inactive)
REMARK    1  A    between atoms: C3_3  and  C6_6 
REMARK    2  A    between atoms: C3_3  and  O8_8 
ROOT
HETATM    1  C1  UNL     1     -34.807   5.552   6.453  1.00 20.00     0.013 C 
HETATM    2  C2  UNL     1     -34.075   6.388   5.997  1.00 20.00    -0.103 C 
HETATM    3  C4  UNL     1     -33.772   8.804   5.622  1.00 20.00     0.034 C 
HETATM    4  C6  UNL     1     -33.171   7.412   5.442  1.00 20.00     0.159 C 
ENDROOT
BRANCH   4   5
HETATM    5  C3  UNL     1     -32.891   7.155   3.972  1.00 20.00     0.273 C 
HETATM    6  O7  UNL     1     -32.155   7.833   3.266  1.00 20.00    -0.264 OA
BRANCH   5   7
HETATM    7  O8  UNL     1     -33.585   6.049   3.563  1.00 20.00    -0.326 OA
HETATM    8  C5  UNL     1     -32.893   5.188   2.654  1.00 20.00     0.213 C 
ENDBRANCH   5   7
ENDBRANCH   4   5
TORSDOF 2
ENDMDL
MODEL 7
REMARK VINA RESULT:      -4.0      1.882      3.220
REMARK  2 active torsions:
REMARK  status: ('A' for Active; 'I' for Inactive)
REMARK    1  A    between atoms: C3_3  and  C6_6 
REMARK    2  A    between atoms: C3_3  and  O8_8 
ROOT
HETATM    1  C1  UNL     1     -34.749   5.402   6.348  1.00 20.00     0.013 C 
HETATM    2  C2  UNL     1     -34.373   5.860   5.303  1.00 20.00    -0.103 C 
HETATM    3  C4  UNL     1     -33.283   5.338   3.157  1.00 20.00     0.034 C 
HETATM    4  C6  UNL     1     -33.919   6.426   4.020  1.00 20.00     0.159 C 
ENDROOT
BRANCH   4   5
HETATM    5  C3  UNL     1     -32.928   7.556   4.241  1.00 20.00     0.273 C 
HETATM    6  O7  UNL     1     -32.806   8.191   5.281  1.00 20.00    -0.264 OA
BRANCH   5   7
HETATM    7  O8  UNL     1     -32.196   7.748   3.103  1.00 20.00    -0.326 OA
HETATM    8  C5  UNL     1     -32.576   8.874   2.306  1.00 20.00     0.213 C 
ENDBRANCH   5   7
ENDBRANCH   4   5
TORSDOF 2
ENDMDL
MODEL 8
REMARK VINA RESULT:      -3.9      1.645      2.760
REMARK  2 active torsions:
REMARK  status: ('A' for Active; 'I' for Inactive)
REMARK    1  A    between atoms: C3_3  and  C6_6 
REMARK    2  A    between atoms: C3_3  and  O8_8 
ROOT
HETATM    1  C1  UNL     1     -32.549   8.891   5.111  1.00 20.00     0.013 C 
HETATM    2  C2  UNL     1     -32.350   8.137   4.198  1.00 20.00    -0.103 C 
HETATM    3  C4  UNL     1     -32.323   7.914   1.745  1.00 20.00     0.034 C 
HETATM    4  C6  UNL     1     -32.099   7.208   3.080  1.00 20.00     0.159 C 
ENDROOT
BRANCH   4   5
HETATM    5  C3  UNL     1     -32.992   5.984   3.174  1.00 20.00     0.273 C 
HETATM    6  O7  UNL     1     -32.869   4.969   2.500  1.00 20.00    -0.264 OA
BRANCH   5   7
HETATM    7  O8  UNL     1     -33.948   6.191   4.130  1.00 20.00    -0.326 OA
HETATM    8  C5  UNL     1     -34.514   5.009   4.703  1.00 20.00     0.213 C 
ENDBRANCH   5   7
ENDBRANCH   4   5
TORSDOF 2
ENDMDL
MODEL 9
REMARK VINA RESULT:      -3.8     12.752     13.322
REMARK  2 active torsions:
REMARK  status: ('A' for Active; 'I' for Inactive)
REMARK    1  A    between atoms: C3_3  and  C6_6 
REMARK    2  A    between atoms: C3_3  and  O8_8 
ROOT
HETATM    1  C1  UNL     1     -33.282  16.679  -2.658  1.00 20.00     0.013 C 
HETATM    2  C2  UNL     1     -33.291  17.300  -1.630  1.00 20.00    -0.103 C 
HETATM    3  C4  UNL     1     -34.233  19.262  -0.477  1.00 20.00     0.034 C 
HETATM    4  C6  UNL     1     -33.304  18.056  -0.364  1.00 20.00     0.159 C 
ENDROOT
BRANCH   4   5
HETATM    5  C3  UNL     1     -31.906  18.513   0.013  1.00 20.00     0.273 C 
HETATM    6  O7  UNL     1     -30.980  18.671  -0.773  1.00 20.00    -0.264 OA
BRANCH   5   7
HETATM    7  O8  UNL     1     -31.844  18.723   1.363  1.00 20.00    -0.326 OA
HETATM    8  C5  UNL     1     -30.590  18.415   1.980  1.00 20.00     0.213 C 
ENDBRANCH   5   7
ENDBRANCH   4   5
TORSDOF 2
ENDMDL
