MODEL 1
REMARK VINA RESULT:      -4.1      0.000      0.000
REMARK  1 active torsions:
REMARK  status: ('A' for Active; 'I' for Inactive)
REMARK    1  A    between atoms: C1_1  and  C2_2 
ROOT
HETATM    1  C1  UNL     1     -34.739   6.009   6.288  1.00 20.00     0.385 C 
HETATM    2  F3  UNL     1     -34.358   7.182   6.852  1.00 20.00    -0.212 F 
HETATM    3  F4  UNL     1     -33.951   5.042   6.824  1.00 20.00    -0.212 F 
ENDROOT
BRANCH   1   4
HETATM    4  C2  UNL     1     -34.551   6.050   4.785  1.00 20.00     0.242 C 
HETATM    5 CL5  UNL     1     -33.339   7.273   4.344  1.00 20.00    -0.102 Cl
HETATM    6 CL6  UNL     1     -34.048   4.456   4.169  1.00 20.00    -0.102 Cl
ENDBRANCH   1   4
TORSDOF 1
ENDMDL
MODEL 2
REMARK VINA RESULT:      -4.1      0.910      1.479
REMARK  1 active torsions:
REMARK  status: ('A' for Active; 'I' for Inactive)
REMARK    1  A    between atoms: C1_1  and  C2_2 
ROOT
HETATM    1  C1  UNL     1     -34.143   6.329   6.246  1.00 20.00     0.385 C 
HETATM    2  F3  UNL     1     -35.086   5.364   6.382  1.00 20.00    -0.212 F 
HETATM    3  F4  UNL     1     -34.527   7.368   7.030  1.00 20.00    -0.212 F 
ENDROOT
BRANCH   1   4
HETATM    4  C2  UNL     1     -34.044   6.784   4.804  1.00 20.00     0.242 C 
HETATM    5 CL5  UNL     1     -32.694   7.922   4.603  1.00 20.00    -0.102 Cl
HETATM    6 CL6  UNL     1     -33.821   5.390   3.718  1.00 20.00    -0.102 Cl
ENDBRANCH   1   4
TORSDOF 1
ENDMDL
MODEL 3
REMARK VINA RESULT:      -4.0      1.639      1.902
REMARK  1 active torsions:
REMARK  status: ('A' for Active; 'I' for Inactive)
REMARK    1  A    between atoms: C1_1  and  C2_2 
ROOT
HETATM    1  C1  UNL     1     -34.742   5.102   4.980  1.00 20.00     0.385 C 
HETATM    2  F3  UNL     1     -34.689   5.013   6.333  1.00 20.00    -0.212 F 
HETATM    3  F4  UNL     1     -33.993   4.082   4.491  1.00 20.00    -0.212 F 
ENDROOT
BRANCH   1   4
HETATM    4  C2  UNL     1     -34.178   6.426   4.506  1.00 20.00     0.242 C 
HETATM    5 CL5  UNL     1     -33.484   7.329   5.871  1.00 20.00    -0.102 Cl
HETATM    6 CL6  UNL     1     -32.933   6.171   3.259  1.00 20.00    -0.102 Cl
ENDBRANCH   1   4
TORSDOF 1
ENDMDL
MODEL 4
REMARK VINA RESULT:      -4.0      2.219      2.913
REMARK  1 active torsions:
REMARK  status: ('A' for Active; 'I' for Inactive)
REMARK    1  A    between atoms: C1_1  and  C2_2 
ROOT
HETATM    1  C1  UNL     1     -34.269   5.300   4.047  1.00 20.00     0.385 C 
HETATM    2  F3  UNL     1     -34.078   4.246   4.879  1.00 20.00    -0.212 F 
HETATM    3  F4  UNL     1     -33.219   5.316   3.186  1.00 20.00    -0.212 F 
ENDROOT
BRANCH   1   4
HETATM    4  C2  UNL     1     -34.315   6.598   4.826  1.00 20.00     0.242 C 
HETATM    5 CL5  UNL     1     -34.372   6.272   6.572  1.00 20.00    -0.102 Cl
HETATM    6 CL6  UNL     1     -32.898   7.610   4.449  1.00 20.00    -0.102 Cl
ENDBRANCH   1   4
TORSDOF 1
ENDMDL
MODEL 5
REMARK VINA RESULT:      -4.0      1.377      1.909
REMARK  1 active torsions:
REMARK  status: ('A' for Active; 'I' for Inactive)
REMARK    1  A    between atoms: C1_1  and  C2_2 
ROOT
HETATM    1  C1  UNL     1     -33.699   7.363   5.776  1.00 20.00     0.385 C 
HETATM    2  F3  UNL     1     -34.474   7.110   6.860  1.00 20.00    -0.212 F 
HETATM    3  F4  UNL     1     -33.846   8.681   5.488  1.00 20.00    -0.212 F 
ENDROOT
BRANCH   1   4
HETATM    4  C2  UNL     1     -34.140   6.525   4.593  1.00 20.00     0.242 C 
HETATM    5 CL5  UNL     1     -32.851   6.451   3.371  1.00 20.00    -0.102 Cl
HETATM    6 CL6  UNL     1     -34.571   4.878   5.113  1.00 20.00    -0.102 Cl
ENDBRANCH   1   4
TORSDOF 1
ENDMDL
MODEL 6
REMARK VINA RESULT:      -3.9      2.163      2.560
REMARK  1 active torsions:
REMARK  status: ('A' for Active; 'I' for Inactive)
REMARK    1  A    between atoms: C1_1  and  C2_2 
ROOT
HETATM    1  C1  UNL     1     -33.279   7.597   5.101  1.00 20.00     0.385 C 
HETATM    2  F3  UNL     1     -33.897   8.708   5.573  1.00 20.00    -0.212 F 
HETATM    3  F4  UNL     1     -32.660   7.952   3.947  1.00 20.00    -0.212 F 
ENDROOT
BRANCH   1   4
HETATM    4  C2  UNL     1     -34.285   6.498   4.827  1.00 20.00     0.242 C 
HETATM    5 CL5  UNL     1     -33.678   5.401   3.568  1.00 20.00    -0.102 Cl
HETATM    6 CL6  UNL     1     -34.631   5.576   6.311  1.00 20.00    -0.102 Cl
ENDBRANCH   1   4
TORSDOF 1
ENDMDL
MODEL 7
REMARK VINA RESULT:      -3.9      1.870      2.199
REMARK  1 active torsions:
REMARK  status: ('A' for Active; 'I' for Inactive)
REMARK    1  A    between atoms: C1_1  and  C2_2 
ROOT
HETATM    1  C1  UNL     1     -33.517   7.448   5.123  1.00 20.00     0.385 C 
HETATM    2  F3  UNL     1     -32.374   7.605   4.409  1.00 20.00    -0.212 F 
HETATM    3  F4  UNL     1     -33.148   7.240   6.412  1.00 20.00    -0.212 F 
ENDROOT
BRANCH   1   4
HETATM    4  C2  UNL     1     -34.307   6.259   4.616  1.00 20.00     0.242 C 
HETATM    5 CL5  UNL     1     -33.442   5.460   3.284  1.00 20.00    -0.102 Cl
HETATM    6 CL6  UNL     1     -34.600   5.091   5.929  1.00 20.00    -0.102 Cl
ENDBRANCH   1   4
TORSDOF 1
ENDMDL
MODEL 8
REMARK VINA RESULT:      -3.8      1.103      2.312
REMARK  1 active torsions:
REMARK  status: ('A' for Active; 'I' for Inactive)
REMARK    1  A    between atoms: C1_1  and  C2_2 
ROOT
HETATM    1  C1  UNL     1     -33.781   6.353   6.390  1.00 20.00     0.385 C 
HETATM    2  F3  UNL     1     -34.171   5.117   6.791  1.00 20.00    -0.212 F 
HETATM    3  F4  UNL     1     -34.581   7.244   7.030  1.00 20.00    -0.212 F 
ENDROOT
BRANCH   1   4
HETATM    4  C2  UNL     1     -33.938   6.506   4.891  1.00 20.00     0.242 C 
HETATM    5 CL5  UNL     1     -35.546   5.951   4.376  1.00 20.00    -0.102 Cl
HETATM    6 CL6  UNL     1     -33.703   8.202   4.403  1.00 20.00    -0.102 Cl
ENDBRANCH   1   4
TORSDOF 1
ENDMDL
MODEL 9
REMARK VINA RESULT:      -3.8      1.746      2.323
REMARK  1 active torsions:
REMARK  status: ('A' for Active; 'I' for Inactive)
REMARK    1  A    between atoms: C1_1  and  C2_2 
ROOT
HETATM    1  C1  UNL     1     -34.902   5.432   4.944  1.00 20.00     0.385 C 
HETATM    2  F3  UNL     1     -35.969   5.990   4.318  1.00 20.00    -0.212 F 
HETATM    3  F4  UNL     1     -35.103   5.590   6.277  1.00 20.00    -0.212 F 
ENDROOT
BRANCH   1   4
HETATM    4  C2  UNL     1     -33.617   6.121   4.533  1.00 20.00     0.242 C 
HETATM    5 CL5  UNL     1     -33.139   5.618   2.896  1.00 20.00    -0.102 Cl
HETATM    6 CL6  UNL     1     -33.807   7.891   4.586  1.00 20.00    -0.102 Cl
ENDBRANCH   1   4
TORSDOF 1
ENDMDL
