MODEL 1
REMARK VINA RESULT:      -4.3      0.000      0.000
REMARK  1 active torsions:
REMARK  status: ('A' for Active; 'I' for Inactive)
REMARK    1  A    between atoms: C1_1  and  C2_2 
ROOT
HETATM    1  C1  UNL     1     -34.780   5.655   4.643  1.00 20.00     0.401 C 
HETATM    2  F3  UNL     1     -36.050   5.872   4.222  1.00 20.00    -0.210 F 
HETATM    3  F4  UNL     1     -34.509   4.346   4.410  1.00 20.00    -0.210 F 
ENDROOT
BRANCH   1   4
HETATM    4  C2  UNL     1     -34.671   5.929   6.124  1.00 20.00     0.330 C 
HETATM    5  F5  UNL     1     -34.008   4.896   6.711  1.00 20.00    -0.227 F 
HETATM    6 CL6  UNL     1     -33.787   7.433   6.432  1.00 20.00    -0.084 Cl
ENDBRANCH   1   4
TORSDOF 1
ENDMDL
MODEL 2
REMARK VINA RESULT:      -4.2      1.232      2.474
REMARK  1 active torsions:
REMARK  status: ('A' for Active; 'I' for Inactive)
REMARK    1  A    between atoms: C1_1  and  C2_2 
ROOT
HETATM    1  C1  UNL     1     -34.767   5.884   6.339  1.00 20.00     0.401 C 
HETATM    2  F3  UNL     1     -34.496   7.038   6.997  1.00 20.00    -0.210 F 
HETATM    3  F4  UNL     1     -33.882   4.959   6.791  1.00 20.00    -0.210 F 
ENDROOT
BRANCH   1   4
HETATM    4  C2  UNL     1     -34.570   6.075   4.854  1.00 20.00     0.330 C 
HETATM    5  F5  UNL     1     -35.784   6.015   4.243  1.00 20.00    -0.227 F 
HETATM    6 CL6  UNL     1     -33.824   7.644   4.505  1.00 20.00    -0.084 Cl
ENDBRANCH   1   4
TORSDOF 1
ENDMDL
MODEL 3
REMARK VINA RESULT:      -4.1      2.178      2.909
REMARK  1 active torsions:
REMARK  status: ('A' for Active; 'I' for Inactive)
REMARK    1  A    between atoms: C1_1  and  C2_2 
ROOT
HETATM    1  C1  UNL     1     -34.075   6.734   5.646  1.00 20.00     0.401 C 
HETATM    2  F3  UNL     1     -34.505   7.225   6.834  1.00 20.00    -0.210 F 
HETATM    3  F4  UNL     1     -34.183   7.742   4.744  1.00 20.00    -0.210 F 
ENDROOT
BRANCH   1   4
HETATM    4  C2  UNL     1     -34.951   5.583   5.212  1.00 20.00     0.330 C 
HETATM    5  F5  UNL     1     -35.919   6.061   4.385  1.00 20.00    -0.227 F 
HETATM    6 CL6  UNL     1     -34.010   4.354   4.353  1.00 20.00    -0.084 Cl
ENDBRANCH   1   4
TORSDOF 1
ENDMDL
MODEL 4
REMARK VINA RESULT:      -4.1      1.496      1.638
REMARK  1 active torsions:
REMARK  status: ('A' for Active; 'I' for Inactive)
REMARK    1  A    between atoms: C1_1  and  C2_2 
ROOT
HETATM    1  C1  UNL     1     -34.617   5.743   5.082  1.00 20.00     0.401 C 
HETATM    2  F3  UNL     1     -35.804   5.957   4.464  1.00 20.00    -0.210 F 
HETATM    3  F4  UNL     1     -34.879   5.000   6.187  1.00 20.00    -0.210 F 
ENDROOT
BRANCH   1   4
HETATM    4  C2  UNL     1     -34.006   7.059   5.502  1.00 20.00     0.330 C 
HETATM    5  F5  UNL     1     -33.321   6.871   6.662  1.00 20.00    -0.227 F 
HETATM    6 CL6  UNL     1     -32.893   7.669   4.266  1.00 20.00    -0.084 Cl
ENDBRANCH   1   4
TORSDOF 1
ENDMDL
MODEL 5
REMARK VINA RESULT:      -4.0      2.551      3.169
REMARK  1 active torsions:
REMARK  status: ('A' for Active; 'I' for Inactive)
REMARK    1  A    between atoms: C1_1  and  C2_2 
ROOT
HETATM    1  C1  UNL     1     -33.697   7.355   5.815  1.00 20.00     0.401 C 
HETATM    2  F3  UNL     1     -34.472   7.188   6.914  1.00 20.00    -0.210 F 
HETATM    3  F4  UNL     1     -33.796   8.661   5.462  1.00 20.00    -0.210 F 
ENDROOT
BRANCH   1   4
HETATM    4  C2  UNL     1     -34.208   6.494   4.684  1.00 20.00     0.330 C 
HETATM    5  F5  UNL     1     -33.247   6.420   3.725  1.00 20.00    -0.227 F 
HETATM    6 CL6  UNL     1     -34.589   4.859   5.249  1.00 20.00    -0.084 Cl
ENDBRANCH   1   4
TORSDOF 1
ENDMDL
MODEL 6
REMARK VINA RESULT:      -4.0      2.955      3.249
REMARK  1 active torsions:
REMARK  status: ('A' for Active; 'I' for Inactive)
REMARK    1  A    between atoms: C1_1  and  C2_2 
ROOT
HETATM    1  C1  UNL     1     -33.553   7.900   4.929  1.00 20.00     0.401 C 
HETATM    2  F3  UNL     1     -32.199   7.920   4.876  1.00 20.00    -0.210 F 
HETATM    3  F4  UNL     1     -33.933   8.992   5.639  1.00 20.00    -0.210 F 
ENDROOT
BRANCH   1   4
HETATM    4  C2  UNL     1     -34.027   6.654   5.640  1.00 20.00     0.330 C 
HETATM    5  F5  UNL     1     -34.560   7.014   6.839  1.00 20.00    -0.227 F 
HETATM    6 CL6  UNL     1     -35.257   5.806   4.691  1.00 20.00    -0.084 Cl
ENDBRANCH   1   4
TORSDOF 1
ENDMDL
MODEL 7
REMARK VINA RESULT:      -4.0      2.093      2.876
REMARK  1 active torsions:
REMARK  status: ('A' for Active; 'I' for Inactive)
REMARK    1  A    between atoms: C1_1  and  C2_2 
ROOT
HETATM    1  C1  UNL     1     -34.428   6.174   6.386  1.00 20.00     0.401 C 
HETATM    2  F3  UNL     1     -33.430   7.051   6.657  1.00 20.00    -0.210 F 
HETATM    3  F4  UNL     1     -34.020   4.963   6.844  1.00 20.00    -0.210 F 
ENDROOT
BRANCH   1   4
HETATM    4  C2  UNL     1     -34.655   6.090   4.895  1.00 20.00     0.330 C 
HETATM    5  F5  UNL     1     -33.933   7.071   4.290  1.00 20.00    -0.227 F 
HETATM    6 CL6  UNL     1     -34.143   4.518   4.259  1.00 20.00    -0.084 Cl
ENDBRANCH   1   4
TORSDOF 1
ENDMDL
MODEL 8
REMARK VINA RESULT:      -4.0      2.719      2.778
REMARK  1 active torsions:
REMARK  status: ('A' for Active; 'I' for Inactive)
REMARK    1  A    between atoms: C1_1  and  C2_2 
ROOT
HETATM    1  C1  UNL     1     -33.257   7.630   5.285  1.00 20.00     0.401 C 
HETATM    2  F3  UNL     1     -33.884   8.812   5.505  1.00 20.00    -0.210 F 
HETATM    3  F4  UNL     1     -33.203   7.461   3.939  1.00 20.00    -0.210 F 
ENDROOT
BRANCH   1   4
HETATM    4  C2  UNL     1     -34.051   6.500   5.896  1.00 20.00     0.330 C 
HETATM    5  F5  UNL     1     -34.707   6.971   6.991  1.00 20.00    -0.227 F 
HETATM    6 CL6  UNL     1     -35.234   5.856   4.745  1.00 20.00    -0.084 Cl
ENDBRANCH   1   4
TORSDOF 1
ENDMDL
MODEL 9
REMARK VINA RESULT:      -3.9      1.493      2.382
REMARK  1 active torsions:
REMARK  status: ('A' for Active; 'I' for Inactive)
REMARK    1  A    between atoms: C1_1  and  C2_2 
ROOT
HETATM    1  C1  UNL     1     -34.123   4.980   3.768  1.00 20.00     0.401 C 
HETATM    2  F3  UNL     1     -33.756   3.903   4.504  1.00 20.00    -0.210 F 
HETATM    3  F4  UNL     1     -32.983   5.517   3.265  1.00 20.00    -0.210 F 
ENDROOT
BRANCH   1   4
HETATM    4  C2  UNL     1     -34.808   6.000   4.647  1.00 20.00     0.330 C 
HETATM    5  F5  UNL     1     -36.122   6.060   4.301  1.00 20.00    -0.227 F 
HETATM    6 CL6  UNL     1     -34.679   5.558   6.357  1.00 20.00    -0.084 Cl
ENDBRANCH   1   4
TORSDOF 1
ENDMDL
