MODEL 1
REMARK VINA RESULT:      -4.3      0.000      0.000
REMARK  0 active torsions:
REMARK  status: ('A' for Active; 'I' for Inactive)
ROOT
HETATM    1  C1  UNL     1     -22.829  17.832   9.705  1.00 20.00     0.005 C 
HETATM    2  C2  UNL     1     -21.784  18.553  10.556  1.00 20.00     0.026 C 
HETATM    3  C3  UNL     1     -24.241  18.271  10.090  1.00 20.00     0.042 C 
HETATM    4  C4  UNL     1     -25.891  18.405  12.073  1.00 20.00     0.309 C 
HETATM    5  C5  UNL     1     -24.773  16.647  12.081  1.00 20.00     0.309 C 
HETATM    6  C6  UNL     1     -22.077  18.370  12.039  1.00 20.00     0.169 C 
HETATM    7  C7  UNL     1     -24.452  18.084  11.595  1.00 20.00     0.113 C 
HETATM    8  N8  UNL     1     -26.211  16.966  12.033  1.00 20.00     0.089 N 
HETATM    9  O9  UNL     1     -23.413  18.780  12.327  1.00 20.00    -0.377 OA
HETATM   10  H22 UNL     1     -26.716  16.648  12.861  1.00 20.00     0.316 HD
ENDROOT
TORSDOF 0
ENDMDL
MODEL 2
REMARK VINA RESULT:      -4.2     15.275     16.329
REMARK  0 active torsions:
REMARK  status: ('A' for Active; 'I' for Inactive)
ROOT
HETATM    1  C1  UNL     1     -34.929   5.530   4.548  1.00 20.00     0.005 C 
HETATM    2  C2  UNL     1     -34.804   5.452   6.068  1.00 20.00     0.026 C 
HETATM    3  C3  UNL     1     -33.612   5.978   3.915  1.00 20.00     0.042 C 
HETATM    4  C4  UNL     1     -31.871   7.887   3.909  1.00 20.00     0.309 C 
HETATM    5  C5  UNL     1     -33.827   8.590   4.045  1.00 20.00     0.309 C 
HETATM    6  C6  UNL     1     -34.293   6.770   6.635  1.00 20.00     0.169 C 
HETATM    7  C7  UNL     1     -33.149   7.291   4.552  1.00 20.00     0.113 C 
HETATM    8  N8  UNL     1     -32.714   8.787   3.100  1.00 20.00     0.089 N 
HETATM    9  O9  UNL     1     -33.075   7.139   5.991  1.00 20.00    -0.377 OA
HETATM   10  H22 UNL     1     -32.370   9.747   3.085  1.00 20.00     0.316 HD
ENDROOT
TORSDOF 0
ENDMDL
MODEL 3
REMARK VINA RESULT:      -4.1     15.543     16.447
REMARK  0 active torsions:
REMARK  status: ('A' for Active; 'I' for Inactive)
ROOT
HETATM    1  C1  UNL     1     -33.421   8.600   5.588  1.00 20.00     0.005 C 
HETATM    2  C2  UNL     1     -32.314   8.748   4.546  1.00 20.00     0.026 C 
HETATM    3  C3  UNL     1     -33.619   7.134   5.968  1.00 20.00     0.042 C 
HETATM    4  C4  UNL     1     -34.172   4.807   4.992  1.00 20.00     0.309 C 
HETATM    5  C5  UNL     1     -35.288   6.329   4.111  1.00 20.00     0.309 C 
HETATM    6  C6  UNL     1     -32.584   7.856   3.342  1.00 20.00     0.169 C 
HETATM    7  C7  UNL     1     -33.858   6.297   4.708  1.00 20.00     0.113 C 
HETATM    8  N8  UNL     1     -35.611   5.097   4.853  1.00 20.00     0.089 N 
HETATM    9  O9  UNL     1     -32.777   6.508   3.766  1.00 20.00    -0.377 OA
HETATM   10  H22 UNL     1     -36.103   4.407   4.284  1.00 20.00     0.316 HD
ENDROOT
TORSDOF 0
ENDMDL
MODEL 4
REMARK VINA RESULT:      -4.0     24.074     24.850
REMARK  0 active torsions:
REMARK  status: ('A' for Active; 'I' for Inactive)
ROOT
HETATM    1  C1  UNL     1     -40.633   6.976   0.512  1.00 20.00     0.005 C 
HETATM    2  C2  UNL     1     -41.189   8.265  -0.092  1.00 20.00     0.026 C 
HETATM    3  C3  UNL     1     -41.042   5.764  -0.322  1.00 20.00     0.042 C 
HETATM    4  C4  UNL     1     -43.091   4.492  -1.247  1.00 20.00     0.309 C 
HETATM    5  C5  UNL     1     -43.396   5.197   0.689  1.00 20.00     0.309 C 
HETATM    6  C6  UNL     1     -42.695   8.162  -0.288  1.00 20.00     0.169 C 
HETATM    7  C7  UNL     1     -42.563   5.742  -0.499  1.00 20.00     0.113 C 
HETATM    8  N8  UNL     1     -43.415   3.869   0.050  1.00 20.00     0.089 N 
HETATM    9  O9  UNL     1     -43.009   7.002  -1.057  1.00 20.00    -0.377 OA
HETATM   10  H22 UNL     1     -44.339   3.436   0.063  1.00 20.00     0.316 HD
ENDROOT
TORSDOF 0
ENDMDL
MODEL 5
REMARK VINA RESULT:      -3.7     23.824     24.723
REMARK  0 active torsions:
REMARK  status: ('A' for Active; 'I' for Inactive)
ROOT
HETATM    1  C1  UNL     1     -42.571   5.127   1.686  1.00 20.00     0.005 C 
HETATM    2  C2  UNL     1     -43.417   4.325   0.698  1.00 20.00     0.026 C 
HETATM    3  C3  UNL     1     -42.666   6.624   1.395  1.00 20.00     0.042 C 
HETATM    4  C4  UNL     1     -42.271   8.396  -0.443  1.00 20.00     0.309 C 
HETATM    5  C5  UNL     1     -40.795   6.926  -0.420  1.00 20.00     0.309 C 
HETATM    6  C6  UNL     1     -43.046   4.674  -0.736  1.00 20.00     0.169 C 
HETATM    7  C7  UNL     1     -42.305   6.893  -0.069  1.00 20.00     0.113 C 
HETATM    8  N8  UNL     1     -40.806   8.392  -0.271  1.00 20.00     0.089 N 
HETATM    9  O9  UNL     1     -43.136   6.083  -0.936  1.00 20.00    -0.377 OA
HETATM   10  H22 UNL     1     -40.316   8.872  -1.026  1.00 20.00     0.316 HD
ENDROOT
TORSDOF 0
ENDMDL
MODEL 6
REMARK VINA RESULT:      -3.7      1.945      3.487
REMARK  0 active torsions:
REMARK  status: ('A' for Active; 'I' for Inactive)
ROOT
HETATM    1  C1  UNL     1     -24.969  16.399  11.885  1.00 20.00     0.005 C 
HETATM    2  C2  UNL     1     -25.950  17.487  12.317  1.00 20.00     0.026 C 
HETATM    3  C3  UNL     1     -23.548  16.739  12.332  1.00 20.00     0.042 C 
HETATM    4  C4  UNL     1     -21.700  18.535  12.144  1.00 20.00     0.309 C 
HETATM    5  C5  UNL     1     -22.718  18.244  10.350  1.00 20.00     0.309 C 
HETATM    6  C6  UNL     1     -25.488  18.854  11.831  1.00 20.00     0.169 C 
HETATM    7  C7  UNL     1     -23.164  18.134  11.830  1.00 20.00     0.113 C 
HETATM    8  N8  UNL     1     -21.312  18.135  10.779  1.00 20.00     0.089 N 
HETATM    9  O9  UNL     1     -24.152  19.101  12.265  1.00 20.00    -0.377 OA
HETATM   10  H22 UNL     1     -20.704  18.816  10.323  1.00 20.00     0.316 HD
ENDROOT
TORSDOF 0
ENDMDL
MODEL 7
REMARK VINA RESULT:      -3.5     15.386     16.464
REMARK  0 active torsions:
REMARK  status: ('A' for Active; 'I' for Inactive)
ROOT
HETATM    1  C1  UNL     1     -33.634   5.765   6.643  1.00 20.00     0.005 C 
HETATM    2  C2  UNL     1     -34.852   5.069   6.037  1.00 20.00     0.026 C 
HETATM    3  C3  UNL     1     -33.633   7.254   6.302  1.00 20.00     0.042 C 
HETATM    4  C4  UNL     1     -33.648   8.917   4.325  1.00 20.00     0.309 C 
HETATM    5  C5  UNL     1     -32.443   7.257   3.963  1.00 20.00     0.309 C 
HETATM    6  C6  UNL     1     -34.933   5.333   4.540  1.00 20.00     0.169 C 
HETATM    7  C7  UNL     1     -33.744   7.441   4.786  1.00 20.00     0.113 C 
HETATM    8  N8  UNL     1     -32.222   8.714   4.013  1.00 20.00     0.089 N 
HETATM    9  O9  UNL     1     -34.909   6.737   4.289  1.00 20.00    -0.377 OA
HETATM   10  H22 UNL     1     -31.952   9.105   3.110  1.00 20.00     0.316 HD
ENDROOT
TORSDOF 0
ENDMDL
MODEL 8
REMARK VINA RESULT:      -3.5     18.378     19.315
REMARK  0 active torsions:
REMARK  status: ('A' for Active; 'I' for Inactive)
ROOT
HETATM    1  C1  UNL     1     -33.536  16.295  -2.756  1.00 20.00     0.005 C 
HETATM    2  C2  UNL     1     -33.443  17.798  -3.016  1.00 20.00     0.026 C 
HETATM    3  C3  UNL     1     -33.306  15.505  -4.043  1.00 20.00     0.042 C 
HETATM    4  C4  UNL     1     -34.184  15.183  -6.451  1.00 20.00     0.309 C 
HETATM    5  C5  UNL     1     -35.720  15.456  -5.070  1.00 20.00     0.309 C 
HETATM    6  C6  UNL     1     -34.384  18.210  -4.140  1.00 20.00     0.169 C 
HETATM    7  C7  UNL     1     -34.266  15.991  -5.132  1.00 20.00     0.113 C 
HETATM    8  N8  UNL     1     -35.355  14.394  -6.025  1.00 20.00     0.089 N 
HETATM    9  O9  UNL     1     -34.129  17.424  -5.302  1.00 20.00    -0.377 OA
HETATM   10  H22 UNL     1     -36.045  14.273  -6.767  1.00 20.00     0.316 HD
ENDROOT
TORSDOF 0
ENDMDL
MODEL 9
REMARK VINA RESULT:      -3.5     15.194     16.139
REMARK  0 active torsions:
REMARK  status: ('A' for Active; 'I' for Inactive)
ROOT
HETATM    1  C1  UNL     1     -31.622  18.571  -0.383  1.00 20.00     0.005 C 
HETATM    2  C2  UNL     1     -32.703  18.734   0.685  1.00 20.00     0.026 C 
HETATM    3  C3  UNL     1     -32.156  18.954  -1.761  1.00 20.00     0.042 C 
HETATM    4  C4  UNL     1     -33.998  18.399  -3.486  1.00 20.00     0.309 C 
HETATM    5  C5  UNL     1     -33.242  16.699  -2.549  1.00 20.00     0.309 C 
HETATM    6  C6  UNL     1     -33.958  17.962   0.302  1.00 20.00     0.169 C 
HETATM    7  C7  UNL     1     -33.430  18.159  -2.065  1.00 20.00     0.113 C 
HETATM    8  N8  UNL     1     -33.336  17.164  -3.944  1.00 20.00     0.089 N 
HETATM    9  O9  UNL     1     -34.393  18.351  -0.999  1.00 20.00    -0.377 OA
HETATM   10  H22 UNL     1     -33.941  16.577  -4.519  1.00 20.00     0.316 HD
ENDROOT
TORSDOF 0
ENDMDL
