MODEL 1
REMARK VINA RESULT:      -4.4      0.000      0.000
REMARK  0 active torsions:
REMARK  status: ('A' for Active; 'I' for Inactive)
ROOT
HETATM    1  C1  UNL     1     -32.356   7.452   2.715  1.00 20.00     0.127 C 
HETATM    2  C2  UNL     1     -32.599   8.337   3.918  1.00 20.00     0.079 C 
HETATM    3  C3  UNL     1     -32.537   5.966   2.926  1.00 20.00     0.079 C 
HETATM    4  C4  UNL     1     -33.944   8.012   4.554  1.00 20.00     0.017 C 
HETATM    5  C5  UNL     1     -33.875   5.675   3.595  1.00 20.00     0.017 C 
HETATM    6  C6  UNL     1     -34.431   5.206   6.543  1.00 20.00     0.002 C 
HETATM    7  C7  UNL     1     -35.309   6.145   5.696  1.00 20.00     0.009 C 
HETATM    8  C8  UNL     1     -33.212   6.041   6.111  1.00 20.00     0.009 C 
HETATM    9  C9  UNL     1     -34.038   6.515   4.873  1.00 20.00    -0.040 C 
HETATM   10  O10 UNL     1     -31.933   7.908   1.654  1.00 20.00    -0.298 OA
ENDROOT
TORSDOF 0
ENDMDL
MODEL 2
REMARK VINA RESULT:      -4.0     12.147     13.172
REMARK  0 active torsions:
REMARK  status: ('A' for Active; 'I' for Inactive)
ROOT
HETATM    1  C1  UNL     1     -34.606  17.351  -4.231  1.00 20.00     0.127 C 
HETATM    2  C2  UNL     1     -34.914  18.711  -3.645  1.00 20.00     0.079 C 
HETATM    3  C3  UNL     1     -33.404  16.630  -3.664  1.00 20.00     0.079 C 
HETATM    4  C4  UNL     1     -34.960  18.636  -2.124  1.00 20.00     0.017 C 
HETATM    5  C5  UNL     1     -33.461  16.602  -2.141  1.00 20.00     0.017 C 
HETATM    6  C6  UNL     1     -32.085  18.471  -0.182  1.00 20.00     0.002 C 
HETATM    7  C7  UNL     1     -33.568  18.086  -0.025  1.00 20.00     0.009 C 
HETATM    8  C8  UNL     1     -32.416  18.953  -1.606  1.00 20.00     0.009 C 
HETATM    9  C9  UNL     1     -33.667  18.019  -1.579  1.00 20.00    -0.040 C 
HETATM   10  O10 UNL     1     -35.236  16.903  -5.188  1.00 20.00    -0.298 OA
ENDROOT
TORSDOF 0
ENDMDL
MODEL 3
REMARK VINA RESULT:      -4.0     12.098     13.118
REMARK  0 active torsions:
REMARK  status: ('A' for Active; 'I' for Inactive)
ROOT
HETATM    1  C1  UNL     1     -32.462  18.720   0.795  1.00 20.00     0.127 C 
HETATM    2  C2  UNL     1     -33.849  18.136   0.638  1.00 20.00     0.079 C 
HETATM    3  C3  UNL     1     -31.500  18.487  -0.348  1.00 20.00     0.079 C 
HETATM    4  C4  UNL     1     -34.448  18.542  -0.702  1.00 20.00     0.017 C 
HETATM    5  C5  UNL     1     -32.140  18.870  -1.677  1.00 20.00     0.017 C 
HETATM    6  C6  UNL     1     -33.501  17.050  -3.693  1.00 20.00     0.002 C 
HETATM    7  C7  UNL     1     -34.130  18.386  -3.257  1.00 20.00     0.009 C 
HETATM    8  C8  UNL     1     -33.446  16.652  -2.206  1.00 20.00     0.009 C 
HETATM    9  C9  UNL     1     -33.499  18.171  -1.848  1.00 20.00    -0.040 C 
HETATM   10  O10 UNL     1     -32.105  19.263   1.839  1.00 20.00    -0.298 OA
ENDROOT
TORSDOF 0
ENDMDL
MODEL 4
REMARK VINA RESULT:      -4.0      2.344      3.873
REMARK  0 active torsions:
REMARK  status: ('A' for Active; 'I' for Inactive)
ROOT
HETATM    1  C1  UNL     1     -34.731   5.582   5.800  1.00 20.00     0.127 C 
HETATM    2  C2  UNL     1     -34.377   6.890   6.473  1.00 20.00     0.079 C 
HETATM    3  C3  UNL     1     -34.652   5.558   4.291  1.00 20.00     0.079 C 
HETATM    4  C4  UNL     1     -33.036   7.403   5.964  1.00 20.00     0.017 C 
HETATM    5  C5  UNL     1     -33.315   6.109   3.812  1.00 20.00     0.017 C 
HETATM    6  C6  UNL     1     -32.681   8.923   2.861  1.00 20.00     0.002 C 
HETATM    7  C7  UNL     1     -31.770   8.183   3.858  1.00 20.00     0.009 C 
HETATM    8  C8  UNL     1     -33.851   8.681   3.833  1.00 20.00     0.009 C 
HETATM    9  C9  UNL     1     -33.041   7.489   4.434  1.00 20.00    -0.040 C 
HETATM   10  O10 UNL     1     -35.160   4.623   6.440  1.00 20.00    -0.298 OA
ENDROOT
TORSDOF 0
ENDMDL
MODEL 5
REMARK VINA RESULT:      -4.0     15.437     16.336
REMARK  0 active torsions:
REMARK  status: ('A' for Active; 'I' for Inactive)
ROOT
HETATM    1  C1  UNL     1     -22.787  18.490   8.081  1.00 20.00     0.127 C 
HETATM    2  C2  UNL     1     -22.014  17.620   9.049  1.00 20.00     0.079 C 
HETATM    3  C3  UNL     1     -24.234  18.759   8.426  1.00 20.00     0.079 C 
HETATM    4  C4  UNL     1     -22.174  18.136  10.472  1.00 20.00     0.017 C 
HETATM    5  C5  UNL     1     -24.365  19.240   9.866  1.00 20.00     0.017 C 
HETATM    6  C6  UNL     1     -25.061  17.606  12.331  1.00 20.00     0.002 C 
HETATM    7  C7  UNL     1     -23.896  18.613  12.332  1.00 20.00     0.009 C 
HETATM    8  C8  UNL     1     -24.403  16.928  11.115  1.00 20.00     0.009 C 
HETATM    9  C9  UNL     1     -23.659  18.271  10.829  1.00 20.00    -0.040 C 
HETATM   10  O10 UNL     1     -22.294  18.871   7.021  1.00 20.00    -0.298 OA
ENDROOT
TORSDOF 0
ENDMDL
MODEL 6
REMARK VINA RESULT:      -3.9     11.978     13.463
REMARK  0 active torsions:
REMARK  status: ('A' for Active; 'I' for Inactive)
ROOT
HETATM    1  C1  UNL     1     -33.325  16.617  -3.369  1.00 20.00     0.127 C 
HETATM    2  C2  UNL     1     -32.955  15.247  -3.895  1.00 20.00     0.079 C 
HETATM    3  C3  UNL     1     -34.087  17.517  -4.314  1.00 20.00     0.079 C 
HETATM    4  C4  UNL     1     -34.177  14.554  -4.481  1.00 20.00     0.017 C 
HETATM    5  C5  UNL     1     -35.283  16.785  -4.911  1.00 20.00     0.017 C 
HETATM    6  C6  UNL     1     -35.470  15.382  -7.598  1.00 20.00     0.002 C 
HETATM    7  C7  UNL     1     -35.991  14.726  -6.306  1.00 20.00     0.009 C 
HETATM    8  C8  UNL     1     -34.105  15.541  -6.902  1.00 20.00     0.009 C 
HETATM    9  C9  UNL     1     -34.847  15.448  -5.532  1.00 20.00    -0.040 C 
HETATM   10  O10 UNL     1     -32.938  17.013  -2.270  1.00 20.00    -0.298 OA
ENDROOT
TORSDOF 0
ENDMDL
MODEL 7
REMARK VINA RESULT:      -3.8      1.623      2.542
REMARK  0 active torsions:
REMARK  status: ('A' for Active; 'I' for Inactive)
ROOT
HETATM    1  C1  UNL     1     -32.589   8.829   4.752  1.00 20.00     0.127 C 
HETATM    2  C2  UNL     1     -32.760   8.104   3.435  1.00 20.00     0.079 C 
HETATM    3  C3  UNL     1     -33.538   8.441   5.862  1.00 20.00     0.079 C 
HETATM    4  C4  UNL     1     -32.790   6.598   3.658  1.00 20.00     0.017 C 
HETATM    5  C5  UNL     1     -33.573   6.928   6.038  1.00 20.00     0.017 C 
HETATM    6  C6  UNL     1     -35.586   4.956   4.905  1.00 20.00     0.002 C 
HETATM    7  C7  UNL     1     -34.071   4.693   4.834  1.00 20.00     0.009 C 
HETATM    8  C8  UNL     1     -35.333   6.297   4.192  1.00 20.00     0.009 C 
HETATM    9  C9  UNL     1     -33.857   6.231   4.697  1.00 20.00    -0.040 C 
HETATM   10  O10 UNL     1     -31.791   9.757   4.878  1.00 20.00    -0.298 OA
ENDROOT
TORSDOF 0
ENDMDL
MODEL 8
REMARK VINA RESULT:      -3.8     12.068     13.059
REMARK  0 active torsions:
REMARK  status: ('A' for Active; 'I' for Inactive)
ROOT
HETATM    1  C1  UNL     1     -32.357  19.086   1.586  1.00 20.00     0.127 C 
HETATM    2  C2  UNL     1     -31.296  19.259   0.521  1.00 20.00     0.079 C 
HETATM    3  C3  UNL     1     -33.767  18.841   1.098  1.00 20.00     0.079 C 
HETATM    4  C4  UNL     1     -31.361  18.117  -0.485  1.00 20.00     0.017 C 
HETATM    5  C5  UNL     1     -33.794  17.718   0.069  1.00 20.00     0.017 C 
HETATM    6  C6  UNL     1     -33.793  17.951  -2.959  1.00 20.00     0.002 C 
HETATM    7  C7  UNL     1     -32.871  16.960  -2.226  1.00 20.00     0.009 C 
HETATM    8  C8  UNL     1     -33.184  19.073  -2.098  1.00 20.00     0.009 C 
HETATM    9  C9  UNL     1     -32.778  17.985  -1.054  1.00 20.00    -0.040 C 
HETATM   10  O10 UNL     1     -32.104  19.241   2.779  1.00 20.00    -0.298 OA
ENDROOT
TORSDOF 0
ENDMDL
MODEL 9
REMARK VINA RESULT:      -3.6     12.087     13.348
REMARK  0 active torsions:
REMARK  status: ('A' for Active; 'I' for Inactive)
ROOT
HETATM    1  C1  UNL     1     -34.194  15.813  -4.908  1.00 20.00     0.127 C 
HETATM    2  C2  UNL     1     -34.745  17.201  -5.152  1.00 20.00     0.079 C 
HETATM    3  C3  UNL     1     -33.098  15.696  -3.872  1.00 20.00     0.079 C 
HETATM    4  C4  UNL     1     -35.134  17.858  -3.834  1.00 20.00     0.017 C 
HETATM    5  C5  UNL     1     -33.503  16.392  -2.579  1.00 20.00     0.017 C 
HETATM    6  C6  UNL     1     -32.782  19.194  -1.655  1.00 20.00     0.002 C 
HETATM    7  C7  UNL     1     -34.222  18.658  -1.558  1.00 20.00     0.009 C 
HETATM    8  C8  UNL     1     -32.815  18.861  -3.158  1.00 20.00     0.009 C 
HETATM    9  C9  UNL     1     -33.954  17.836  -2.856  1.00 20.00    -0.040 C 
HETATM   10  O10 UNL     1     -34.545  14.851  -5.589  1.00 20.00    -0.298 OA
ENDROOT
TORSDOF 0
ENDMDL
