MODEL 1
REMARK VINA RESULT:      -4.2      0.000      0.000
REMARK  1 active torsions:
REMARK  status: ('A' for Active; 'I' for Inactive)
REMARK    1  A    between atoms: C6_6  and  O8_8 
ROOT
HETATM    1  C1  UNL     1     -33.606   5.277   3.349  1.00 20.00     0.064 C 
HETATM    2  C2  UNL     1     -34.344   5.034   5.706  1.00 20.00     0.022 C 
HETATM    3  C3  UNL     1     -34.506   6.186   6.695  1.00 20.00     0.033 C 
HETATM    4  C4  UNL     1     -34.751   7.148   4.525  1.00 20.00     0.051 C 
HETATM    5  C5  UNL     1     -34.652   5.626   4.322  1.00 20.00     0.095 C 
HETATM    6  C6  UNL     1     -34.122   7.414   5.888  1.00 20.00     0.119 C 
HETATM    7  N7  UNL     1     -32.781   5.002   2.581  1.00 20.00    -0.197 NA
ENDROOT
BRANCH   6   8
HETATM    8  O8  UNL     1     -32.706   7.485   5.776  1.00 20.00    -0.396 OA
HETATM    9  H17 UNL     1     -32.513   8.127   5.073  1.00 20.00     0.210 HD
ENDBRANCH   6   8
TORSDOF 1
ENDMDL
MODEL 2
REMARK VINA RESULT:      -4.2     16.469     17.019
REMARK  1 active torsions:
REMARK  status: ('A' for Active; 'I' for Inactive)
REMARK    1  A    between atoms: C6_6  and  O8_8 
ROOT
HETATM    1  C1  UNL     1     -22.436  17.585   9.049  1.00 20.00     0.064 C 
HETATM    2  C2  UNL     1     -24.434  18.449  10.240  1.00 20.00     0.022 C 
HETATM    3  C3  UNL     1     -24.598  18.490  11.757  1.00 20.00     0.033 C 
HETATM    4  C4  UNL     1     -22.246  18.506  11.353  1.00 20.00     0.051 C 
HETATM    5  C5  UNL     1     -22.929  18.612   9.978  1.00 20.00     0.095 C 
HETATM    6  C6  UNL     1     -23.297  17.905  12.279  1.00 20.00     0.119 C 
HETATM    7  N7  UNL     1     -22.047  16.775   8.315  1.00 20.00    -0.197 NA
ENDROOT
BRANCH   6   8
HETATM    8  O8  UNL     1     -23.325  16.489  12.144  1.00 20.00    -0.396 OA
HETATM    9  H17 UNL     1     -22.420  16.175  12.299  1.00 20.00     0.210 HD
ENDBRANCH   6   8
TORSDOF 1
ENDMDL
MODEL 3
REMARK VINA RESULT:      -3.9     16.195     17.099
REMARK  1 active torsions:
REMARK  status: ('A' for Active; 'I' for Inactive)
REMARK    1  A    between atoms: C6_6  and  O8_8 
ROOT
HETATM    1  C1  UNL     1     -23.002  18.286   8.700  1.00 20.00     0.064 C 
HETATM    2  C2  UNL     1     -22.048  18.486  10.981  1.00 20.00     0.022 C 
HETATM    3  C3  UNL     1     -22.840  18.336  12.278  1.00 20.00     0.033 C 
HETATM    4  C4  UNL     1     -24.048  17.107  10.626  1.00 20.00     0.051 C 
HETATM    5  C5  UNL     1     -22.742  17.573   9.959  1.00 20.00     0.095 C 
HETATM    6  C6  UNL     1     -24.256  18.050  11.807  1.00 20.00     0.119 C 
HETATM    7  N7  UNL     1     -23.207  18.848   7.705  1.00 20.00    -0.197 NA
ENDROOT
BRANCH   6   8
HETATM    8  O8  UNL     1     -24.866  19.260  11.374  1.00 20.00    -0.396 OA
HETATM    9  H17 UNL     1     -24.381  19.550  10.585  1.00 20.00     0.210 HD
ENDBRANCH   6   8
TORSDOF 1
ENDMDL
MODEL 4
REMARK VINA RESULT:      -3.9     16.195     17.150
REMARK  1 active torsions:
REMARK  status: ('A' for Active; 'I' for Inactive)
REMARK    1  A    between atoms: C6_6  and  O8_8 
ROOT
HETATM    1  C1  UNL     1     -24.047  17.008  11.508  1.00 20.00     0.064 C 
HETATM    2  C2  UNL     1     -22.014  18.412  11.282  1.00 20.00     0.022 C 
HETATM    3  C3  UNL     1     -21.295  18.707   9.967  1.00 20.00     0.033 C 
HETATM    4  C4  UNL     1     -23.553  18.201   9.380  1.00 20.00     0.051 C 
HETATM    5  C5  UNL     1     -23.496  18.236  10.918  1.00 20.00     0.095 C 
HETATM    6  C6  UNL     1     -22.116  17.961   8.930  1.00 20.00     0.119 C 
HETATM    7  N7  UNL     1     -24.482  16.038  11.973  1.00 20.00    -0.197 NA
ENDROOT
BRANCH   6   8
HETATM    8  O8  UNL     1     -21.805  16.574   8.986  1.00 20.00    -0.396 OA
HETATM    9  H17 UNL     1     -20.881  16.484   8.702  1.00 20.00     0.210 HD
ENDBRANCH   6   8
TORSDOF 1
ENDMDL
MODEL 5
REMARK VINA RESULT:      -3.7     13.470     14.165
REMARK  1 active torsions:
REMARK  status: ('A' for Active; 'I' for Inactive)
REMARK    1  A    between atoms: C6_6  and  O8_8 
ROOT
HETATM    1  C1  UNL     1     -32.070  18.278  -0.916  1.00 20.00     0.064 C 
HETATM    2  C2  UNL     1     -34.374  18.810  -1.670  1.00 20.00     0.022 C 
HETATM    3  C3  UNL     1     -35.007  18.312  -2.967  1.00 20.00     0.033 C 
HETATM    4  C4  UNL     1     -33.310  16.727  -2.417  1.00 20.00     0.051 C 
HETATM    5  C5  UNL     1     -33.389  17.713  -1.238  1.00 20.00     0.095 C 
HETATM    6  C6  UNL     1     -33.915  17.469  -3.604  1.00 20.00     0.119 C 
HETATM    7  N7  UNL     1     -31.030  18.725  -0.662  1.00 20.00    -0.197 NA
ENDROOT
BRANCH   6   8
HETATM    8  O8  UNL     1     -32.946  18.320  -4.204  1.00 20.00    -0.396 OA
HETATM    9  H17 UNL     1     -32.954  19.150  -3.701  1.00 20.00     0.210 HD
ENDBRANCH   6   8
TORSDOF 1
ENDMDL
MODEL 6
REMARK VINA RESULT:      -3.7      2.053      2.675
REMARK  1 active torsions:
REMARK  status: ('A' for Active; 'I' for Inactive)
REMARK    1  A    between atoms: C6_6  and  O8_8 
ROOT
HETATM    1  C1  UNL     1     -33.041   7.845   4.522  1.00 20.00     0.064 C 
HETATM    2  C2  UNL     1     -33.250   5.521   3.678  1.00 20.00     0.022 C 
HETATM    3  C3  UNL     1     -34.107   4.432   4.318  1.00 20.00     0.033 C 
HETATM    4  C4  UNL     1     -35.090   6.506   4.972  1.00 20.00     0.051 C 
HETATM    5  C5  UNL     1     -33.969   6.846   3.973  1.00 20.00     0.095 C 
HETATM    6  C6  UNL     1     -34.741   5.124   5.512  1.00 20.00     0.119 C 
HETATM    7  N7  UNL     1     -32.308   8.634   4.954  1.00 20.00    -0.197 NA
ENDROOT
BRANCH   6   8
HETATM    8  O8  UNL     1     -33.787   5.227   6.562  1.00 20.00    -0.396 OA
HETATM    9  H17 UNL     1     -33.481   6.149   6.572  1.00 20.00     0.210 HD
ENDBRANCH   6   8
TORSDOF 1
ENDMDL
MODEL 7
REMARK VINA RESULT:      -3.7      1.367      1.709
REMARK  1 active torsions:
REMARK  status: ('A' for Active; 'I' for Inactive)
REMARK    1  A    between atoms: C6_6  and  O8_8 
ROOT
HETATM    1  C1  UNL     1     -34.349   4.828   4.763  1.00 20.00     0.064 C 
HETATM    2  C2  UNL     1     -33.947   6.620   6.431  1.00 20.00     0.022 C 
HETATM    3  C3  UNL     1     -33.598   8.068   6.093  1.00 20.00     0.033 C 
HETATM    4  C4  UNL     1     -34.763   7.214   4.192  1.00 20.00     0.051 C 
HETATM    5  C5  UNL     1     -34.825   6.121   5.273  1.00 20.00     0.095 C 
HETATM    6  C6  UNL     1     -33.574   8.090   4.574  1.00 20.00     0.119 C 
HETATM    7  N7  UNL     1     -33.973   3.806   4.360  1.00 20.00    -0.197 NA
ENDROOT
BRANCH   6   8
HETATM    8  O8  UNL     1     -32.361   7.510   4.109  1.00 20.00    -0.396 OA
HETATM    9  H17 UNL     1     -32.544   6.570   3.950  1.00 20.00     0.210 HD
ENDBRANCH   6   8
TORSDOF 1
ENDMDL
MODEL 8
REMARK VINA RESULT:      -3.7     13.437     14.033
REMARK  1 active torsions:
REMARK  status: ('A' for Active; 'I' for Inactive)
REMARK    1  A    between atoms: C6_6  and  O8_8 
ROOT
HETATM    1  C1  UNL     1     -34.004  15.173  -6.515  1.00 20.00     0.064 C 
HETATM    2  C2  UNL     1     -33.261  15.099  -4.149  1.00 20.00     0.022 C 
HETATM    3  C3  UNL     1     -33.417  16.241  -3.147  1.00 20.00     0.033 C 
HETATM    4  C4  UNL     1     -35.122  16.570  -4.785  1.00 20.00     0.051 C 
HETATM    5  C5  UNL     1     -34.449  15.226  -5.115  1.00 20.00     0.095 C 
HETATM    6  C6  UNL     1     -34.103  17.335  -3.947  1.00 20.00     0.119 C 
HETATM    7  N7  UNL     1     -33.653  15.131  -7.621  1.00 20.00    -0.197 NA
ENDROOT
BRANCH   6   8
HETATM    8  O8  UNL     1     -33.151  17.976  -4.787  1.00 20.00    -0.396 OA
HETATM    9  H17 UNL     1     -33.625  18.250  -5.589  1.00 20.00     0.210 HD
ENDBRANCH   6   8
TORSDOF 1
ENDMDL
MODEL 9
REMARK VINA RESULT:      -3.7      2.219      2.691
REMARK  1 active torsions:
REMARK  status: ('A' for Active; 'I' for Inactive)
REMARK    1  A    between atoms: C6_6  and  O8_8 
ROOT
HETATM    1  C1  UNL     1     -33.003   7.971   4.061  1.00 20.00     0.064 C 
HETATM    2  C2  UNL     1     -33.868   6.936   6.144  1.00 20.00     0.022 C 
HETATM    3  C3  UNL     1     -34.805   5.732   6.199  1.00 20.00     0.033 C 
HETATM    4  C4  UNL     1     -33.650   5.568   4.117  1.00 20.00     0.051 C 
HETATM    5  C5  UNL     1     -33.020   6.748   4.877  1.00 20.00     0.095 C 
HETATM    6  C6  UNL     1     -35.030   5.380   4.739  1.00 20.00     0.119 C 
HETATM    7  N7  UNL     1     -32.989   8.936   3.417  1.00 20.00    -0.197 NA
ENDROOT
BRANCH   6   8
HETATM    8  O8  UNL     1     -35.960   6.292   4.168  1.00 20.00    -0.396 OA
HETATM    9  H17 UNL     1     -36.764   5.785   3.970  1.00 20.00     0.210 HD
ENDBRANCH   6   8
TORSDOF 1
ENDMDL
