MODEL 1
REMARK VINA RESULT:      -4.8      0.000      0.000
REMARK  1 active torsions:
REMARK  status: ('A' for Active; 'I' for Inactive)
REMARK    1  A    between atoms: C7_7  and  C10_10 
ROOT
HETATM    1  C1  UNL     1     -32.218   8.577   4.677  1.00 20.00     0.127 C 
HETATM    2  C2  UNL     1     -31.559   7.896   3.500  1.00 20.00     0.078 C 
HETATM    3  C3  UNL     1     -33.099   7.744   5.582  1.00 20.00     0.079 C 
HETATM    4  C4  UNL     1     -32.538   7.182   2.574  1.00 20.00     0.008 C 
HETATM    5  C5  UNL     1     -34.421   7.428   4.898  1.00 20.00     0.012 C 
HETATM    6  C6  UNL     1     -33.136   5.924   3.203  1.00 20.00     0.005 C 
HETATM    7  C7  UNL     1     -34.412   6.156   4.034  1.00 20.00    -0.011 C 
HETATM    8  O11 UNL     1     -32.010   9.767   4.918  1.00 20.00    -0.298 OA
ENDROOT
BRANCH   7   9
HETATM    9  C10 UNL     1     -34.699   4.914   4.886  1.00 20.00    -0.019 C 
HETATM   10  C8  UNL     1     -33.659   3.832   4.616  1.00 20.00     0.010 C 
HETATM   11  C9  UNL     1     -34.725   5.282   6.365  1.00 20.00     0.010 C 
ENDBRANCH   7   9
TORSDOF 1
ENDMDL
MODEL 2
REMARK VINA RESULT:      -4.5      1.896      4.061
REMARK  1 active torsions:
REMARK  status: ('A' for Active; 'I' for Inactive)
REMARK    1  A    between atoms: C7_7  and  C10_10 
ROOT
HETATM    1  C1  UNL     1     -34.392   6.229   5.523  1.00 20.00     0.127 C 
HETATM    2  C2  UNL     1     -34.476   5.017   4.623  1.00 20.00     0.078 C 
HETATM    3  C3  UNL     1     -34.157   7.579   4.882  1.00 20.00     0.079 C 
HETATM    4  C4  UNL     1     -33.260   4.836   3.720  1.00 20.00     0.008 C 
HETATM    5  C5  UNL     1     -32.715   7.705   4.414  1.00 20.00     0.012 C 
HETATM    6  C6  UNL     1     -33.187   5.885   2.610  1.00 20.00     0.005 C 
HETATM    7  C7  UNL     1     -32.451   7.183   2.990  1.00 20.00    -0.011 C 
HETATM    8  O11 UNL     1     -34.554   6.126   6.740  1.00 20.00    -0.298 OA
ENDROOT
BRANCH   7   9
HETATM    9  C10 UNL     1     -32.754   8.265   1.947  1.00 20.00    -0.019 C 
HETATM   10  C8  UNL     1     -32.643   9.651   2.572  1.00 20.00     0.010 C 
HETATM   11  C9  UNL     1     -31.811   8.130   0.757  1.00 20.00     0.010 C 
ENDBRANCH   7   9
TORSDOF 1
ENDMDL
MODEL 3
REMARK VINA RESULT:      -4.3      1.503      2.219
REMARK  1 active torsions:
REMARK  status: ('A' for Active; 'I' for Inactive)
REMARK    1  A    between atoms: C7_7  and  C10_10 
ROOT
HETATM    1  C1  UNL     1     -32.356   7.138   2.656  1.00 20.00     0.127 C 
HETATM    2  C2  UNL     1     -32.409   5.649   2.401  1.00 20.00     0.078 C 
HETATM    3  C3  UNL     1     -32.737   7.640   4.031  1.00 20.00     0.079 C 
HETATM    4  C4  UNL     1     -33.765   5.021   2.704  1.00 20.00     0.008 C 
HETATM    5  C5  UNL     1     -34.244   7.560   4.230  1.00 20.00     0.012 C 
HETATM    6  C6  UNL     1     -34.067   4.961   4.201  1.00 20.00     0.005 C 
HETATM    7  C7  UNL     1     -34.752   6.214   4.777  1.00 20.00    -0.011 C 
HETATM    8  O11 UNL     1     -31.971   7.917   1.783  1.00 20.00    -0.298 OA
ENDROOT
BRANCH   7   9
HETATM    9  C10 UNL     1     -34.673   6.182   6.308  1.00 20.00    -0.019 C 
HETATM   10  C8  UNL     1     -33.888   4.961   6.773  1.00 20.00     0.010 C 
HETATM   11  C9  UNL     1     -34.040   7.465   6.832  1.00 20.00     0.010 C 
ENDBRANCH   7   9
TORSDOF 1
ENDMDL
MODEL 4
REMARK VINA RESULT:      -4.2     12.575     13.588
REMARK  1 active torsions:
REMARK  status: ('A' for Active; 'I' for Inactive)
REMARK    1  A    between atoms: C7_7  and  C10_10 
ROOT
HETATM    1  C1  UNL     1     -34.919  18.194  -4.208  1.00 20.00     0.127 C 
HETATM    2  C2  UNL     1     -33.929  17.062  -4.353  1.00 20.00     0.078 C 
HETATM    3  C3  UNL     1     -34.668  19.229  -3.133  1.00 20.00     0.079 C 
HETATM    4  C4  UNL     1     -33.705  16.271  -3.068  1.00 20.00     0.008 C 
HETATM    5  C5  UNL     1     -34.973  18.654  -1.757  1.00 20.00     0.012 C 
HETATM    6  C6  UNL     1     -32.928  17.061  -2.016  1.00 20.00     0.005 C 
HETATM    7  C7  UNL     1     -33.793  17.930  -1.085  1.00 20.00    -0.011 C 
HETATM    8  O11 UNL     1     -35.880  18.296  -4.972  1.00 20.00    -0.298 OA
ENDROOT
BRANCH   7   9
HETATM    9  C10 UNL     1     -32.898  18.923  -0.335  1.00 20.00    -0.019 C 
HETATM   10  C8  UNL     1     -33.292  18.988   1.136  1.00 20.00     0.010 C 
HETATM   11  C9  UNL     1     -31.432  18.532  -0.486  1.00 20.00     0.010 C 
ENDBRANCH   7   9
TORSDOF 1
ENDMDL
MODEL 5
REMARK VINA RESULT:      -4.2     12.438     13.662
REMARK  1 active torsions:
REMARK  status: ('A' for Active; 'I' for Inactive)
REMARK    1  A    between atoms: C7_7  and  C10_10 
ROOT
HETATM    1  C1  UNL     1     -34.542  15.544  -5.520  1.00 20.00     0.127 C 
HETATM    2  C2  UNL     1     -35.168  16.868  -5.896  1.00 20.00     0.078 C 
HETATM    3  C3  UNL     1     -34.168  15.318  -4.072  1.00 20.00     0.079 C 
HETATM    4  C4  UNL     1     -34.333  18.079  -5.495  1.00 20.00     0.008 C 
HETATM    5  C5  UNL     1     -32.926  16.120  -3.710  1.00 20.00     0.012 C 
HETATM    6  C6  UNL     1     -34.312  18.309  -3.984  1.00 20.00     0.005 C 
HETATM    7  C7  UNL     1     -33.203  17.554  -3.228  1.00 20.00    -0.011 C 
HETATM    8  O11 UNL     1     -34.382  14.658  -6.361  1.00 20.00    -0.298 OA
ENDROOT
BRANCH   7   9
HETATM    9  C10 UNL     1     -33.505  17.577  -1.724  1.00 20.00    -0.019 C 
HETATM   10  C8  UNL     1     -32.292  18.074  -0.947  1.00 20.00     0.010 C 
HETATM   11  C9  UNL     1     -34.724  18.449  -1.443  1.00 20.00     0.010 C 
ENDBRANCH   7   9
TORSDOF 1
ENDMDL
MODEL 6
REMARK VINA RESULT:      -4.1     12.402     13.474
REMARK  1 active torsions:
REMARK  status: ('A' for Active; 'I' for Inactive)
REMARK    1  A    between atoms: C7_7  and  C10_10 
ROOT
HETATM    1  C1  UNL     1     -34.146  18.115  -2.814  1.00 20.00     0.127 C 
HETATM    2  C2  UNL     1     -33.475  16.850  -2.330  1.00 20.00     0.078 C 
HETATM    3  C3  UNL     1     -35.266  17.987  -3.823  1.00 20.00     0.079 C 
HETATM    4  C4  UNL     1     -32.918  15.980  -3.452  1.00 20.00     0.008 C 
HETATM    5  C5  UNL     1     -34.712  17.638  -5.196  1.00 20.00     0.012 C 
HETATM    6  C6  UNL     1     -34.015  15.303  -4.275  1.00 20.00     0.005 C 
HETATM    7  C7  UNL     1     -34.543  16.131  -5.460  1.00 20.00    -0.011 C 
HETATM    8  O11 UNL     1     -33.819  19.215  -2.368  1.00 20.00    -0.298 OA
ENDROOT
BRANCH   7   9
HETATM    9  C10 UNL     1     -35.852  15.516  -5.969  1.00 20.00    -0.019 C 
HETATM   10  C8  UNL     1     -35.788  15.306  -7.478  1.00 20.00     0.010 C 
HETATM   11  C9  UNL     1     -36.134  14.201  -5.250  1.00 20.00     0.010 C 
ENDBRANCH   7   9
TORSDOF 1
ENDMDL
MODEL 7
REMARK VINA RESULT:      -3.9      9.763     11.060
REMARK  1 active torsions:
REMARK  status: ('A' for Active; 'I' for Inactive)
REMARK    1  A    between atoms: C7_7  and  C10_10 
ROOT
HETATM    1  C1  UNL     1     -42.016  15.833   7.058  1.00 20.00     0.127 C 
HETATM    2  C2  UNL     1     -42.582  15.876   5.658  1.00 20.00     0.078 C 
HETATM    3  C3  UNL     1     -40.724  15.077   7.283  1.00 20.00     0.079 C 
HETATM    4  C4  UNL     1     -42.802  14.499   5.040  1.00 20.00     0.008 C 
HETATM    5  C5  UNL     1     -40.968  13.576   7.229  1.00 20.00     0.012 C 
HETATM    6  C6  UNL     1     -41.492  13.794   4.687  1.00 20.00     0.005 C 
HETATM    7  C7  UNL     1     -40.877  12.957   5.823  1.00 20.00    -0.011 C 
HETATM    8  O11 UNL     1     -42.566  16.433   7.983  1.00 20.00    -0.298 OA
ENDROOT
BRANCH   7   9
HETATM    9  C10 UNL     1     -39.426  12.609   5.472  1.00 20.00    -0.019 C 
HETATM   10  C8  UNL     1     -38.735  11.953   6.662  1.00 20.00     0.010 C 
HETATM   11  C9  UNL     1     -39.381  11.698   4.250  1.00 20.00     0.010 C 
ENDBRANCH   7   9
TORSDOF 1
ENDMDL
MODEL 8
REMARK VINA RESULT:      -3.9     12.604     14.396
REMARK  1 active torsions:
REMARK  status: ('A' for Active; 'I' for Inactive)
REMARK    1  A    between atoms: C7_7  and  C10_10 
ROOT
HETATM    1  C1  UNL     1     -35.296  13.959  -4.758  1.00 20.00     0.127 C 
HETATM    2  C2  UNL     1     -33.983  14.529  -4.270  1.00 20.00     0.078 C 
HETATM    3  C3  UNL     1     -35.971  14.629  -5.935  1.00 20.00     0.079 C 
HETATM    4  C4  UNL     1     -34.050  16.011  -3.915  1.00 20.00     0.008 C 
HETATM    5  C5  UNL     1     -36.590  15.953  -5.512  1.00 20.00     0.012 C 
HETATM    6  C6  UNL     1     -34.194  16.908  -5.144  1.00 20.00     0.005 C 
HETATM    7  C7  UNL     1     -35.643  17.164  -5.596  1.00 20.00    -0.011 C 
HETATM    8  O11 UNL     1     -35.780  12.952  -4.241  1.00 20.00    -0.298 OA
ENDROOT
BRANCH   7   9
HETATM    9  C10 UNL     1     -35.640  17.758  -7.009  1.00 20.00    -0.019 C 
HETATM   10  C8  UNL     1     -35.880  19.263  -6.953  1.00 20.00     0.010 C 
HETATM   11  C9  UNL     1     -34.324  17.445  -7.711  1.00 20.00     0.010 C 
ENDBRANCH   7   9
TORSDOF 1
ENDMDL
MODEL 9
REMARK VINA RESULT:      -3.8     12.748     14.289
REMARK  1 active torsions:
REMARK  status: ('A' for Active; 'I' for Inactive)
REMARK    1  A    between atoms: C7_7  and  C10_10 
ROOT
HETATM    1  C1  UNL     1     -37.319  16.515  -6.335  1.00 20.00     0.127 C 
HETATM    2  C2  UNL     1     -37.499  17.796  -5.552  1.00 20.00     0.078 C 
HETATM    3  C3  UNL     1     -36.384  15.464  -5.778  1.00 20.00     0.079 C 
HETATM    4  C4  UNL     1     -36.192  18.526  -5.258  1.00 20.00     0.008 C 
HETATM    5  C5  UNL     1     -34.935  15.891  -5.956  1.00 20.00     0.012 C 
HETATM    6  C6  UNL     1     -35.330  17.799  -4.226  1.00 20.00     0.005 C 
HETATM    7  C7  UNL     1     -34.369  16.746  -4.808  1.00 20.00    -0.011 C 
HETATM    8  O11 UNL     1     -37.951  16.314  -7.373  1.00 20.00    -0.298 OA
ENDROOT
BRANCH   7   9
HETATM    9  C10 UNL     1     -33.839  15.859  -3.675  1.00 20.00    -0.019 C 
HETATM   10  C8  UNL     1     -32.781  14.897  -4.206  1.00 20.00     0.010 C 
HETATM   11  C9  UNL     1     -33.274  16.718  -2.550  1.00 20.00     0.010 C 
ENDBRANCH   7   9
TORSDOF 1
ENDMDL
