MODEL 1
REMARK VINA RESULT:      -4.6      0.000      0.000
REMARK  1 active torsions:
REMARK  status: ('A' for Active; 'I' for Inactive)
REMARK    1  A    between atoms: C7_7  and  C10_10 
ROOT
HETATM    1  C1  UNL     1     -34.653   5.003   5.059  1.00 20.00     0.127 C 
HETATM    2  C2  UNL     1     -34.088   5.605   6.321  1.00 20.00     0.078 C 
HETATM    3  C3  UNL     1     -33.666   4.736   3.949  1.00 20.00     0.079 C 
HETATM    4  C4  UNL     1     -34.107   7.123   6.295  1.00 20.00     0.008 C 
HETATM    5  C5  UNL     1     -33.260   6.005   3.216  1.00 20.00     0.012 C 
HETATM    6  C6  UNL     1     -33.764   7.803   4.965  1.00 20.00     0.005 C 
HETATM    7  C7  UNL     1     -32.677   7.121   4.112  1.00 20.00    -0.011 C 
HETATM    8  O11 UNL     1     -35.856   4.785   4.927  1.00 20.00    -0.298 OA
ENDROOT
BRANCH   7   9
HETATM    9  C10 UNL     1     -32.012   8.172   3.212  1.00 20.00    -0.019 C 
HETATM   10  C8  UNL     1     -32.156   7.781   1.745  1.00 20.00     0.010 C 
HETATM   11  C9  UNL     1     -32.617   9.548   3.468  1.00 20.00     0.010 C 
ENDBRANCH   7   9
TORSDOF 1
ENDMDL
MODEL 2
REMARK VINA RESULT:      -4.5     12.139     13.315
REMARK  1 active torsions:
REMARK  status: ('A' for Active; 'I' for Inactive)
REMARK    1  A    between atoms: C7_7  and  C10_10 
ROOT
HETATM    1  C1  UNL     1     -34.487  15.079  -5.736  1.00 20.00     0.127 C 
HETATM    2  C2  UNL     1     -35.726  15.904  -5.499  1.00 20.00     0.078 C 
HETATM    3  C3  UNL     1     -33.819  14.512  -4.507  1.00 20.00     0.079 C 
HETATM    4  C4  UNL     1     -35.411  17.378  -5.312  1.00 20.00     0.008 C 
HETATM    5  C5  UNL     1     -33.029  15.561  -3.739  1.00 20.00     0.012 C 
HETATM    6  C6  UNL     1     -34.157  17.727  -4.503  1.00 20.00     0.005 C 
HETATM    7  C7  UNL     1     -33.837  16.805  -3.310  1.00 20.00    -0.011 C 
HETATM    8  O11 UNL     1     -34.022  14.916  -6.863  1.00 20.00    -0.298 OA
ENDROOT
BRANCH   7   9
HETATM    9  C10 UNL     1     -33.015  17.588  -2.276  1.00 20.00    -0.019 C 
HETATM   10  C8  UNL     1     -32.776  19.014  -2.760  1.00 20.00     0.010 C 
HETATM   11  C9  UNL     1     -33.722  17.586  -0.925  1.00 20.00     0.010 C 
ENDBRANCH   7   9
TORSDOF 1
ENDMDL
MODEL 3
REMARK VINA RESULT:      -4.5      1.011      2.156
REMARK  1 active torsions:
REMARK  status: ('A' for Active; 'I' for Inactive)
REMARK    1  A    between atoms: C7_7  and  C10_10 
ROOT
HETATM    1  C1  UNL     1     -34.346   5.819   6.139  1.00 20.00     0.127 C 
HETATM    2  C2  UNL     1     -35.108   5.348   4.926  1.00 20.00     0.078 C 
HETATM    3  C3  UNL     1     -34.146   7.310   6.261  1.00 20.00     0.079 C 
HETATM    4  C4  UNL     1     -34.195   5.057   3.748  1.00 20.00     0.008 C 
HETATM    5  C5  UNL     1     -33.065   7.830   5.324  1.00 20.00     0.012 C 
HETATM    6  C6  UNL     1     -33.018   6.013   3.523  1.00 20.00     0.005 C 
HETATM    7  C7  UNL     1     -33.280   7.500   3.830  1.00 20.00    -0.011 C 
HETATM    8  O11 UNL     1     -33.876   5.030   6.956  1.00 20.00    -0.298 OA
ENDROOT
BRANCH   7   9
HETATM    9  C10 UNL     1     -32.321   8.362   2.997  1.00 20.00    -0.019 C 
HETATM   10  C8  UNL     1     -32.010   7.678   1.671  1.00 20.00     0.010 C 
HETATM   11  C9  UNL     1     -32.917   9.746   2.767  1.00 20.00     0.010 C 
ENDBRANCH   7   9
TORSDOF 1
ENDMDL
MODEL 4
REMARK VINA RESULT:      -4.5      1.120      2.449
REMARK  1 active torsions:
REMARK  status: ('A' for Active; 'I' for Inactive)
REMARK    1  A    between atoms: C7_7  and  C10_10 
ROOT
HETATM    1  C1  UNL     1     -34.394   5.458   6.222  1.00 20.00     0.127 C 
HETATM    2  C2  UNL     1     -35.079   5.065   4.936  1.00 20.00     0.078 C 
HETATM    3  C3  UNL     1     -34.428   6.926   6.572  1.00 20.00     0.079 C 
HETATM    4  C4  UNL     1     -34.137   5.102   3.746  1.00 20.00     0.008 C 
HETATM    5  C5  UNL     1     -33.446   7.743   5.746  1.00 20.00     0.012 C 
HETATM    6  C6  UNL     1     -33.124   6.251   3.692  1.00 20.00     0.005 C 
HETATM    7  C7  UNL     1     -33.613   7.616   4.215  1.00 20.00    -0.011 C 
HETATM    8  O11 UNL     1     -33.804   4.636   6.920  1.00 20.00    -0.298 OA
ENDROOT
BRANCH   7   9
HETATM    9  C10 UNL     1     -32.803   8.732   3.541  1.00 20.00    -0.019 C 
HETATM   10  C8  UNL     1     -31.876   9.397   4.552  1.00 20.00     0.010 C 
HETATM   11  C9  UNL     1     -32.012   8.175   2.363  1.00 20.00     0.010 C 
ENDBRANCH   7   9
TORSDOF 1
ENDMDL
MODEL 5
REMARK VINA RESULT:      -4.1     12.104     13.383
REMARK  1 active torsions:
REMARK  status: ('A' for Active; 'I' for Inactive)
REMARK    1  A    between atoms: C7_7  and  C10_10 
ROOT
HETATM    1  C1  UNL     1     -35.455  15.419  -5.780  1.00 20.00     0.127 C 
HETATM    2  C2  UNL     1     -34.047  14.888  -5.887  1.00 20.00     0.078 C 
HETATM    3  C3  UNL     1     -35.602  16.920  -5.772  1.00 20.00     0.079 C 
HETATM    4  C4  UNL     1     -33.403  14.681  -4.528  1.00 20.00     0.008 C 
HETATM    5  C5  UNL     1     -35.219  17.535  -4.434  1.00 20.00     0.012 C 
HETATM    6  C6  UNL     1     -33.687  15.736  -3.452  1.00 20.00     0.005 C 
HETATM    7  C7  UNL     1     -33.796  17.194  -3.940  1.00 20.00    -0.011 C 
HETATM    8  O11 UNL     1     -36.423  14.670  -5.659  1.00 20.00    -0.298 OA
ENDROOT
BRANCH   7   9
HETATM    9  C10 UNL     1     -33.442  18.138  -2.782  1.00 20.00    -0.019 C 
HETATM   10  C8  UNL     1     -34.468  19.261  -2.682  1.00 20.00     0.010 C 
HETATM   11  C9  UNL     1     -33.357  17.362  -1.472  1.00 20.00     0.010 C 
ENDBRANCH   7   9
TORSDOF 1
ENDMDL
MODEL 6
REMARK VINA RESULT:      -3.9     12.242     13.541
REMARK  1 active torsions:
REMARK  status: ('A' for Active; 'I' for Inactive)
REMARK    1  A    between atoms: C7_7  and  C10_10 
ROOT
HETATM    1  C1  UNL     1     -34.745  17.604  -4.522  1.00 20.00     0.127 C 
HETATM    2  C2  UNL     1     -33.612  16.608  -4.537  1.00 20.00     0.078 C 
HETATM    3  C3  UNL     1     -34.378  19.024  -4.169  1.00 20.00     0.079 C 
HETATM    4  C4  UNL     1     -33.411  15.943  -3.188  1.00 20.00     0.008 C 
HETATM    5  C5  UNL     1     -34.136  19.208  -2.678  1.00 20.00     0.012 C 
HETATM    6  C6  UNL     1     -33.569  16.823  -1.943  1.00 20.00     0.005 C 
HETATM    7  C7  UNL     1     -33.066  18.275  -2.068  1.00 20.00    -0.011 C 
HETATM    8  O11 UNL     1     -35.907  17.267  -4.741  1.00 20.00    -0.298 OA
ENDROOT
BRANCH   7   9
HETATM    9  C10 UNL     1     -32.698  18.801  -0.674  1.00 20.00    -0.019 C 
HETATM   10  C8  UNL     1     -33.673  18.266   0.369  1.00 20.00     0.010 C 
HETATM   11  C9  UNL     1     -31.265  18.415  -0.324  1.00 20.00     0.010 C 
ENDBRANCH   7   9
TORSDOF 1
ENDMDL
MODEL 7
REMARK VINA RESULT:      -3.9      2.024      4.440
REMARK  1 active torsions:
REMARK  status: ('A' for Active; 'I' for Inactive)
REMARK    1  A    between atoms: C7_7  and  C10_10 
ROOT
HETATM    1  C1  UNL     1     -32.435   8.559   2.942  1.00 20.00     0.127 C 
HETATM    2  C2  UNL     1     -31.825   7.244   2.524  1.00 20.00     0.078 C 
HETATM    3  C3  UNL     1     -32.340   8.899   4.409  1.00 20.00     0.079 C 
HETATM    4  C4  UNL     1     -32.822   6.101   2.584  1.00 20.00     0.008 C 
HETATM    5  C5  UNL     1     -33.335   8.117   5.253  1.00 20.00     0.012 C 
HETATM    6  C6  UNL     1     -33.801   6.089   3.764  1.00 20.00     0.005 C 
HETATM    7  C7  UNL     1     -33.246   6.581   5.115  1.00 20.00    -0.011 C 
HETATM    8  O11 UNL     1     -33.015   9.289   2.141  1.00 20.00    -0.298 OA
ENDROOT
BRANCH   7   9
HETATM    9  C10 UNL     1     -34.054   5.941   6.253  1.00 20.00    -0.019 C 
HETATM   10  C8  UNL     1     -34.644   7.019   7.154  1.00 20.00     0.010 C 
HETATM   11  C9  UNL     1     -35.151   5.047   5.686  1.00 20.00     0.010 C 
ENDBRANCH   7   9
TORSDOF 1
ENDMDL
MODEL 8
REMARK VINA RESULT:      -3.9     12.078     12.932
REMARK  1 active torsions:
REMARK  status: ('A' for Active; 'I' for Inactive)
REMARK    1  A    between atoms: C7_7  and  C10_10 
ROOT
HETATM    1  C1  UNL     1     -31.869  18.832   1.444  1.00 20.00     0.127 C 
HETATM    2  C2  UNL     1     -33.315  19.263   1.447  1.00 20.00     0.078 C 
HETATM    3  C3  UNL     1     -31.049  19.262   0.253  1.00 20.00     0.079 C 
HETATM    4  C4  UNL     1     -34.223  18.243   0.784  1.00 20.00     0.008 C 
HETATM    5  C5  UNL     1     -31.346  18.433  -0.988  1.00 20.00     0.012 C 
HETATM    6  C6  UNL     1     -33.690  17.545  -0.473  1.00 20.00     0.005 C 
HETATM    7  C7  UNL     1     -32.830  18.407  -1.418  1.00 20.00    -0.011 C 
HETATM    8  O11 UNL     1     -31.400  18.131   2.339  1.00 20.00    -0.298 OA
ENDROOT
BRANCH   7   9
HETATM    9  C10 UNL     1     -32.916  17.833  -2.839  1.00 20.00    -0.019 C 
HETATM   10  C8  UNL     1     -33.607  16.475  -2.820  1.00 20.00     0.010 C 
HETATM   11  C9  UNL     1     -33.650  18.803  -3.758  1.00 20.00     0.010 C 
ENDBRANCH   7   9
TORSDOF 1
ENDMDL
MODEL 9
REMARK VINA RESULT:      -3.8     12.268     13.922
REMARK  1 active torsions:
REMARK  status: ('A' for Active; 'I' for Inactive)
REMARK    1  A    between atoms: C7_7  and  C10_10 
ROOT
HETATM    1  C1  UNL     1     -33.308  18.793  -2.750  1.00 20.00     0.127 C 
HETATM    2  C2  UNL     1     -33.809  17.677  -1.868  1.00 20.00     0.078 C 
HETATM    3  C3  UNL     1     -34.250  19.261  -3.832  1.00 20.00     0.079 C 
HETATM    4  C4  UNL     1     -33.448  16.306  -2.410  1.00 20.00     0.008 C 
HETATM    5  C5  UNL     1     -34.310  18.297  -5.007  1.00 20.00     0.012 C 
HETATM    6  C6  UNL     1     -33.537  16.109  -3.928  1.00 20.00     0.005 C 
HETATM    7  C7  UNL     1     -34.688  16.843  -4.644  1.00 20.00    -0.011 C 
HETATM    8  O11 UNL     1     -32.179  19.263  -2.623  1.00 20.00    -0.298 OA
ENDROOT
BRANCH   7   9
HETATM    9  C10 UNL     1     -35.036  16.092  -5.936  1.00 20.00    -0.019 C 
HETATM   10  C8  UNL     1     -33.913  15.130  -6.309  1.00 20.00     0.010 C 
HETATM   11  C9  UNL     1     -36.357  15.347  -5.776  1.00 20.00     0.010 C 
ENDBRANCH   7   9
TORSDOF 1
ENDMDL
