MODEL 1
REMARK VINA RESULT:      -6.3      0.000      0.000
REMARK  0 active torsions:
REMARK  status: ('A' for Active; 'I' for Inactive)
ROOT
HETATM    1  C1  UNL     1     -34.058   7.074   6.474  1.00 20.00     0.013 C 
HETATM    2  C2  UNL     1     -34.750   5.710   6.190  1.00 20.00     0.080 C 
HETATM    3  C3  UNL     1     -32.510   8.431   4.765  1.00 20.00     0.274 C 
HETATM    4  C4  UNL     1     -32.916   6.790   3.042  1.00 20.00     0.280 C 
HETATM    5  C5  UNL     1     -33.694   7.561   5.088  1.00 20.00     0.025 C 
HETATM    6  C6  UNL     1     -33.295   6.275   4.402  1.00 20.00     0.092 C 
HETATM    7  C7  UNL     1     -34.488   5.411   4.703  1.00 20.00     0.249 C 
HETATM    8  N8  UNL     1     -32.170   8.036   3.371  1.00 20.00     0.084 N 
HETATM    9  F9  UNL     1     -34.256   4.109   4.475  1.00 20.00    -0.206 F 
HETATM   10  F10 UNL     1     -35.557   5.782   3.963  1.00 20.00    -0.206 F 
HETATM   11  H21 UNL     1     -32.455   8.771   2.725  1.00 20.00     0.315 HD
ENDROOT
TORSDOF 0
ENDMDL
MODEL 2
REMARK VINA RESULT:      -5.9      2.473      3.701
REMARK  0 active torsions:
REMARK  status: ('A' for Active; 'I' for Inactive)
ROOT
HETATM    1  C1  UNL     1     -32.915   6.023   3.070  1.00 20.00     0.013 C 
HETATM    2  C2  UNL     1     -32.326   7.453   3.233  1.00 20.00     0.080 C 
HETATM    3  C3  UNL     1     -34.452   4.750   4.853  1.00 20.00     0.274 C 
HETATM    4  C4  UNL     1     -34.457   6.692   6.286  1.00 20.00     0.280 C 
HETATM    5  C5  UNL     1     -34.003   5.986   4.121  1.00 20.00     0.025 C 
HETATM    6  C6  UNL     1     -33.370   6.767   5.250  1.00 20.00     0.092 C 
HETATM    7  C7  UNL     1     -32.941   8.013   4.528  1.00 20.00     0.249 C 
HETATM    8  N8  UNL     1     -34.916   5.281   6.163  1.00 20.00     0.084 N 
HETATM    9  F9  UNL     1     -32.068   8.748   5.234  1.00 20.00    -0.206 F 
HETATM   10  F10 UNL     1     -34.004   8.795   4.233  1.00 20.00    -0.206 F 
HETATM   11  H21 UNL     1     -35.934   5.262   6.202  1.00 20.00     0.315 HD
ENDROOT
TORSDOF 0
ENDMDL
MODEL 3
REMARK VINA RESULT:      -5.7      1.677      2.557
REMARK  0 active torsions:
REMARK  status: ('A' for Active; 'I' for Inactive)
ROOT
HETATM    1  C1  UNL     1     -34.499   5.071   4.493  1.00 20.00     0.013 C 
HETATM    2  C2  UNL     1     -34.853   5.571   5.922  1.00 20.00     0.080 C 
HETATM    3  C3  UNL     1     -32.915   6.330   2.741  1.00 20.00     0.274 C 
HETATM    4  C4  UNL     1     -32.432   8.050   4.363  1.00 20.00     0.280 C 
HETATM    5  C5  UNL     1     -33.287   5.905   4.135  1.00 20.00     0.025 C 
HETATM    6  C6  UNL     1     -33.636   7.239   4.754  1.00 20.00     0.092 C 
HETATM    7  C7  UNL     1     -33.985   6.821   6.155  1.00 20.00     0.249 C 
HETATM    8  N8  UNL     1     -32.198   7.616   2.959  1.00 20.00     0.084 N 
HETATM    9  F9  UNL     1     -34.636   7.777   6.835  1.00 20.00    -0.206 F 
HETATM   10  F10 UNL     1     -32.877   6.489   6.854  1.00 20.00    -0.206 F 
HETATM   11  H21 UNL     1     -31.197   7.480   2.819  1.00 20.00     0.315 HD
ENDROOT
TORSDOF 0
ENDMDL
MODEL 4
REMARK VINA RESULT:      -5.1      2.053      3.079
REMARK  0 active torsions:
REMARK  status: ('A' for Active; 'I' for Inactive)
ROOT
HETATM    1  C1  UNL     1     -32.713   7.924   4.455  1.00 20.00     0.013 C 
HETATM    2  C2  UNL     1     -32.393   7.338   3.051  1.00 20.00     0.080 C 
HETATM    3  C3  UNL     1     -34.297   6.803   6.298  1.00 20.00     0.274 C 
HETATM    4  C4  UNL     1     -34.627   4.872   4.888  1.00 20.00     0.280 C 
HETATM    5  C5  UNL     1     -33.271   6.731   5.199  1.00 20.00     0.025 C 
HETATM    6  C6  UNL     1     -34.065   6.035   4.118  1.00 20.00     0.092 C 
HETATM    7  C7  UNL     1     -33.036   5.939   3.026  1.00 20.00     0.249 C 
HETATM    8  N8  UNL     1     -35.012   5.503   6.180  1.00 20.00     0.084 N 
HETATM    9  F9  UNL     1     -33.571   5.642   1.832  1.00 20.00    -0.206 F 
HETATM   10  F10 UNL     1     -32.107   5.000   3.315  1.00 20.00    -0.206 F 
HETATM   11  H21 UNL     1     -34.736   4.887   6.943  1.00 20.00     0.315 HD
ENDROOT
TORSDOF 0
ENDMDL
MODEL 5
REMARK VINA RESULT:      -5.0      2.458      3.233
REMARK  0 active torsions:
REMARK  status: ('A' for Active; 'I' for Inactive)
ROOT
HETATM    1  C1  UNL     1     -34.086   7.645   6.177  1.00 20.00     0.013 C 
HETATM    2  C2  UNL     1     -33.353   8.745   5.358  1.00 20.00     0.080 C 
HETATM    3  C3  UNL     1     -34.527   5.128   5.378  1.00 20.00     0.274 C 
HETATM    4  C4  UNL     1     -33.298   5.526   3.339  1.00 20.00     0.280 C 
HETATM    5  C5  UNL     1     -33.682   6.371   5.466  1.00 20.00     0.025 C 
HETATM    6  C6  UNL     1     -33.676   6.811   4.020  1.00 20.00     0.092 C 
HETATM    7  C7  UNL     1     -32.812   8.039   4.101  1.00 20.00     0.249 C 
HETATM    8  N8  UNL     1     -34.102   4.521   4.087  1.00 20.00     0.084 N 
HETATM    9  F9  UNL     1     -32.899   8.808   3.005  1.00 20.00    -0.206 F 
HETATM   10  F10 UNL     1     -31.513   7.710   4.280  1.00 20.00    -0.206 F 
HETATM   11  H21 UNL     1     -33.522   3.703   4.266  1.00 20.00     0.315 HD
ENDROOT
TORSDOF 0
ENDMDL
MODEL 6
REMARK VINA RESULT:      -4.9      1.300      2.315
REMARK  0 active torsions:
REMARK  status: ('A' for Active; 'I' for Inactive)
ROOT
HETATM    1  C1  UNL     1     -33.154   5.409   2.951  1.00 20.00     0.013 C 
HETATM    2  C2  UNL     1     -34.188   4.762   3.916  1.00 20.00     0.080 C 
HETATM    3  C3  UNL     1     -32.149   7.881   3.160  1.00 20.00     0.274 C 
HETATM    4  C4  UNL     1     -33.357   8.234   5.220  1.00 20.00     0.280 C 
HETATM    5  C5  UNL     1     -32.638   6.586   3.751  1.00 20.00     0.025 C 
HETATM    6  C6  UNL     1     -33.891   7.054   4.457  1.00 20.00     0.092 C 
HETATM    7  C7  UNL     1     -34.369   5.767   5.068  1.00 20.00     0.249 C 
HETATM    8  N8  UNL     1     -32.457   8.876   4.224  1.00 20.00     0.084 N 
HETATM    9  F9  UNL     1     -35.641   5.835   5.493  1.00 20.00    -0.206 F 
HETATM   10  F10 UNL     1     -33.595   5.409   6.118  1.00 20.00    -0.206 F 
HETATM   11  H21 UNL     1     -31.596   9.158   4.691  1.00 20.00     0.315 HD
ENDROOT
TORSDOF 0
ENDMDL
MODEL 7
REMARK VINA RESULT:      -4.1     12.371     13.287
REMARK  0 active torsions:
REMARK  status: ('A' for Active; 'I' for Inactive)
ROOT
HETATM    1  C1  UNL     1     -35.037  17.810  -4.121  1.00 20.00     0.013 C 
HETATM    2  C2  UNL     1     -34.344  18.134  -2.767  1.00 20.00     0.080 C 
HETATM    3  C3  UNL     1     -34.412  15.785  -5.756  1.00 20.00     0.274 C 
HETATM    4  C4  UNL     1     -32.764  14.982  -4.186  1.00 20.00     0.280 C 
HETATM    5  C5  UNL     1     -34.602  16.385  -4.389  1.00 20.00     0.025 C 
HETATM    6  C6  UNL     1     -33.177  16.396  -3.885  1.00 20.00     0.092 C 
HETATM    7  C7  UNL     1     -33.367  16.972  -2.509  1.00 20.00     0.249 C 
HETATM    8  N8  UNL     1     -33.360  14.756  -5.531  1.00 20.00     0.084 N 
HETATM    9  F9  UNL     1     -32.216  17.384  -1.956  1.00 20.00    -0.206 F 
HETATM   10  F10 UNL     1     -33.933  16.069  -1.677  1.00 20.00    -0.206 F 
HETATM   11  H21 UNL     1     -33.777  13.827  -5.554  1.00 20.00     0.315 HD
ENDROOT
TORSDOF 0
ENDMDL
MODEL 8
REMARK VINA RESULT:      -4.1      8.713      9.274
REMARK  0 active torsions:
REMARK  status: ('A' for Active; 'I' for Inactive)
ROOT
HETATM    1  C1  UNL     1     -43.417   7.175   1.788  1.00 20.00     0.013 C 
HETATM    2  C2  UNL     1     -43.401   5.679   2.214  1.00 20.00     0.080 C 
HETATM    3  C3  UNL     1     -41.772   8.316   0.011  1.00 20.00     0.274 C 
HETATM    4  C4  UNL     1     -40.741   6.184  -0.453  1.00 20.00     0.280 C 
HETATM    5  C5  UNL     1     -42.611   7.169   0.507  1.00 20.00     0.025 C 
HETATM    6  C6  UNL     1     -41.539   6.151   0.821  1.00 20.00     0.092 C 
HETATM    7  C7  UNL     1     -42.375   4.994   1.294  1.00 20.00     0.249 C 
HETATM    8  N8  UNL     1     -40.696   7.639  -0.762  1.00 20.00     0.084 N 
HETATM    9  F9  UNL     1     -41.655   4.061   1.935  1.00 20.00    -0.206 F 
HETATM   10  F10 UNL     1     -43.009   4.397   0.260  1.00 20.00    -0.206 F 
HETATM   11  H21 UNL     1     -40.855   7.769  -1.760  1.00 20.00     0.315 HD
ENDROOT
TORSDOF 0
ENDMDL
MODEL 9
REMARK VINA RESULT:      -4.1     16.001     16.453
REMARK  0 active torsions:
REMARK  status: ('A' for Active; 'I' for Inactive)
ROOT
HETATM    1  C1  UNL     1     -24.964  19.231   9.972  1.00 20.00     0.013 C 
HETATM    2  C2  UNL     1     -24.865  18.483  11.332  1.00 20.00     0.080 C 
HETATM    3  C3  UNL     1     -23.220  19.042   7.950  1.00 20.00     0.274 C 
HETATM    4  C4  UNL     1     -21.948  17.385   9.159  1.00 20.00     0.280 C 
HETATM    5  C5  UNL     1     -24.006  18.457   9.092  1.00 20.00     0.025 C 
HETATM    6  C6  UNL     1     -22.893  18.128  10.061  1.00 20.00     0.092 C 
HETATM    7  C7  UNL     1     -23.673  17.520  11.193  1.00 20.00     0.249 C 
HETATM    8  N8  UNL     1     -21.997  18.195   7.911  1.00 20.00     0.084 N 
HETATM    9  F9  UNL     1     -22.957  17.424  12.325  1.00 20.00    -0.206 F 
HETATM   10  F10 UNL     1     -24.114  16.283  10.871  1.00 20.00    -0.206 F 
HETATM   11  H21 UNL     1     -22.040  17.565   7.111  1.00 20.00     0.315 HD
ENDROOT
TORSDOF 0
ENDMDL
